# generated using pymatgen
data_Zn5P4H16(C7O5)4
_symmetry_space_group_name_H-M   'P 1'
_cell_length_a   32.65200000
_cell_length_b   32.65200000
_cell_length_c   32.65200000
_cell_angle_alpha   90.00000000
_cell_angle_beta   90.00000000
_cell_angle_gamma   90.00000000
_symmetry_Int_Tables_number   1
_chemical_formula_structural   Zn5P4H16(C7O5)4
_chemical_formula_sum   'Zn120 P96 H384 C672 O480'
_cell_volume   34812.03115181
_cell_formula_units_Z   24
loop_
 _symmetry_equiv_pos_site_id
 _symmetry_equiv_pos_as_xyz
  1  'x, y, z'
loop_
 _atom_site_type_symbol
 _atom_site_label
 _atom_site_symmetry_multiplicity
 _atom_site_fract_x
 _atom_site_fract_y
 _atom_site_fract_z
 _atom_site_occupancy
 _atom_site_charge
  Zn  Zn1  1  0.308220  0.637520  0.025700  1.0  1.1146
  Zn  Zn2  1  0.137930  0.584040  0.983070  1.0  1.0931
  Zn  Zn3  1  0.191780  0.862480  0.025700  1.0  1.1147
  Zn  Zn4  1  0.362070  0.915960  0.983070  1.0  1.093
  Zn  Zn5  1  0.191780  0.637520  0.474300  1.0  1.1147
  Zn  Zn6  1  0.362070  0.584040  0.516930  1.0  1.0929
  Zn  Zn7  1  0.308220  0.862480  0.474300  1.0  1.1147
  Zn  Zn8  1  0.137930  0.915960  0.516930  1.0  1.093
  Zn  Zn9  1  0.025700  0.308220  0.637520  1.0  1.1163
  Zn  Zn10  1  0.983070  0.137930  0.584040  1.0  1.0939
  Zn  Zn11  1  0.025700  0.191780  0.862480  1.0  1.117
  Zn  Zn12  1  0.983070  0.362070  0.915960  1.0  1.0937
  Zn  Zn13  1  0.474300  0.191780  0.637520  1.0  1.1158
  Zn  Zn14  1  0.516930  0.362070  0.584040  1.0  1.0936
  Zn  Zn15  1  0.474300  0.308220  0.862480  1.0  1.1155
  Zn  Zn16  1  0.516930  0.137930  0.915960  1.0  1.0931
  Zn  Zn17  1  0.637520  0.025700  0.308220  1.0  1.1145
  Zn  Zn18  1  0.584040  0.983070  0.137930  1.0  1.0945
  Zn  Zn19  1  0.862480  0.025700  0.191780  1.0  1.1169
  Zn  Zn20  1  0.915960  0.983070  0.362070  1.0  1.0945
  Zn  Zn21  1  0.637520  0.474300  0.191780  1.0  1.117
  Zn  Zn22  1  0.584040  0.516930  0.362070  1.0  1.094
  Zn  Zn23  1  0.862480  0.474300  0.308220  1.0  1.1144
  Zn  Zn24  1  0.915960  0.516930  0.137930  1.0  1.0948
  Zn  Zn25  1  0.637520  0.308220  0.474300  1.0  1.1159
  Zn  Zn26  1  0.584040  0.137930  0.516930  1.0  1.0926
  Zn  Zn27  1  0.862480  0.191780  0.474300  1.0  1.1162
  Zn  Zn28  1  0.915960  0.362070  0.516930  1.0  1.0926
  Zn  Zn29  1  0.637520  0.191780  0.025700  1.0  1.1165
  Zn  Zn30  1  0.584040  0.362070  0.983070  1.0  1.0926
  Zn  Zn31  1  0.862480  0.308220  0.025700  1.0  1.1153
  Zn  Zn32  1  0.915960  0.137930  0.983070  1.0  1.093
  Zn  Zn33  1  0.308220  0.025700  0.862480  1.0  1.1141
  Zn  Zn34  1  0.137930  0.983070  0.915960  1.0  1.0925
  Zn  Zn35  1  0.191780  0.025700  0.637520  1.0  1.1141
  Zn  Zn36  1  0.362070  0.983070  0.584040  1.0  1.0928
  Zn  Zn37  1  0.191780  0.474300  0.862480  1.0  1.1141
  Zn  Zn38  1  0.362070  0.516930  0.915960  1.0  1.0927
  Zn  Zn39  1  0.308220  0.474300  0.637520  1.0  1.1144
  Zn  Zn40  1  0.137930  0.516930  0.584040  1.0  1.0927
  Zn  Zn41  1  0.025700  0.637520  0.191780  1.0  1.1181
  Zn  Zn42  1  0.983070  0.584040  0.362070  1.0  1.0955
  Zn  Zn43  1  0.025700  0.862480  0.308220  1.0  1.1155
  Zn  Zn44  1  0.983070  0.915960  0.137930  1.0  1.0961
  Zn  Zn45  1  0.474300  0.637520  0.308220  1.0  1.115
  Zn  Zn46  1  0.516930  0.584040  0.137930  1.0  1.0963
  Zn  Zn47  1  0.474300  0.862480  0.191780  1.0  1.1173
  Zn  Zn48  1  0.516930  0.915960  0.362070  1.0  1.0952
  Zn  Zn49  1  0.691780  0.362480  0.974300  1.0  1.1148
  Zn  Zn50  1  0.862070  0.415960  0.016930  1.0  1.0929
  Zn  Zn51  1  0.808220  0.137520  0.974300  1.0  1.1148
  Zn  Zn52  1  0.637930  0.084040  0.016930  1.0  1.093
  Zn  Zn53  1  0.808220  0.362480  0.525700  1.0  1.1145
  Zn  Zn54  1  0.637930  0.415960  0.483070  1.0  1.0931
  Zn  Zn55  1  0.691780  0.137520  0.525700  1.0  1.1147
  Zn  Zn56  1  0.862070  0.084040  0.483070  1.0  1.093
  Zn  Zn57  1  0.974300  0.691780  0.362480  1.0  1.1159
  Zn  Zn58  1  0.016930  0.862070  0.415960  1.0  1.0935
  Zn  Zn59  1  0.974300  0.808220  0.137520  1.0  1.1155
  Zn  Zn60  1  0.016930  0.637930  0.084040  1.0  1.0935
  Zn  Zn61  1  0.525700  0.808220  0.362480  1.0  1.1162
  Zn  Zn62  1  0.483070  0.637930  0.415960  1.0  1.0935
  Zn  Zn63  1  0.525700  0.691780  0.137520  1.0  1.117
  Zn  Zn64  1  0.483070  0.862070  0.084040  1.0  1.0938
  Zn  Zn65  1  0.362480  0.974300  0.691780  1.0  1.1169
  Zn  Zn66  1  0.415960  0.016930  0.862070  1.0  1.0943
  Zn  Zn67  1  0.137520  0.974300  0.808220  1.0  1.1148
  Zn  Zn68  1  0.084040  0.016930  0.637930  1.0  1.0946
  Zn  Zn69  1  0.362480  0.525700  0.808220  1.0  1.1143
  Zn  Zn70  1  0.415960  0.483070  0.637930  1.0  1.0948
  Zn  Zn71  1  0.137520  0.525700  0.691780  1.0  1.1171
  Zn  Zn72  1  0.084040  0.483070  0.862070  1.0  1.094
  Zn  Zn73  1  0.362480  0.691780  0.525700  1.0  1.1162
  Zn  Zn74  1  0.415960  0.862070  0.483070  1.0  1.0927
  Zn  Zn75  1  0.137520  0.808220  0.525700  1.0  1.1159
  Zn  Zn76  1  0.084040  0.637930  0.483070  1.0  1.0926
  Zn  Zn77  1  0.362480  0.808220  0.974300  1.0  1.1154
  Zn  Zn78  1  0.415960  0.637930  0.016930  1.0  1.0928
  Zn  Zn79  1  0.137520  0.691780  0.974300  1.0  1.1164
  Zn  Zn80  1  0.084040  0.862070  0.016930  1.0  1.0925
  Zn  Zn81  1  0.691780  0.974300  0.137520  1.0  1.1142
  Zn  Zn82  1  0.862070  0.016930  0.084040  1.0  1.0925
  Zn  Zn83  1  0.808220  0.974300  0.362480  1.0  1.1142
  Zn  Zn84  1  0.637930  0.016930  0.415960  1.0  1.0924
  Zn  Zn85  1  0.808220  0.525700  0.137520  1.0  1.1143
  Zn  Zn86  1  0.637930  0.483070  0.084040  1.0  1.0929
  Zn  Zn87  1  0.691780  0.525700  0.362480  1.0  1.1142
  Zn  Zn88  1  0.862070  0.483070  0.415960  1.0  1.0927
  Zn  Zn89  1  0.974300  0.362480  0.808220  1.0  1.115
  Zn  Zn90  1  0.016930  0.415960  0.637930  1.0  1.0957
  Zn  Zn91  1  0.974300  0.137520  0.691780  1.0  1.1172
  Zn  Zn92  1  0.016930  0.084040  0.862070  1.0  1.0953
  Zn  Zn93  1  0.525700  0.362480  0.691780  1.0  1.1178
  Zn  Zn94  1  0.483070  0.415960  0.862070  1.0  1.0956
  Zn  Zn95  1  0.525700  0.137520  0.808220  1.0  1.1159
  Zn  Zn96  1  0.483070  0.084040  0.637930  1.0  1.0965
  Zn  Zn97  1  0.250000  0.400390  0.099610  1.0  0.8863
  Zn  Zn98  1  0.250000  0.099610  0.099610  1.0  0.8878
  Zn  Zn99  1  0.250000  0.400390  0.400390  1.0  0.8869
  Zn  Zn100  1  0.250000  0.099610  0.400390  1.0  0.8889
  Zn  Zn101  1  0.099610  0.250000  0.400390  1.0  0.8885
  Zn  Zn102  1  0.099610  0.250000  0.099610  1.0  0.8873
  Zn  Zn103  1  0.400390  0.250000  0.400390  1.0  0.8892
  Zn  Zn104  1  0.400390  0.250000  0.099610  1.0  0.8882
  Zn  Zn105  1  0.400390  0.099610  0.250000  1.0  0.8883
  Zn  Zn106  1  0.099610  0.099610  0.250000  1.0  0.8874
  Zn  Zn107  1  0.400390  0.400390  0.250000  1.0  0.8867
  Zn  Zn108  1  0.099610  0.400390  0.250000  1.0  0.8858
  Zn  Zn109  1  0.750000  0.599610  0.900390  1.0  0.8889
  Zn  Zn110  1  0.750000  0.900390  0.900390  1.0  0.8869
  Zn  Zn111  1  0.750000  0.599610  0.599610  1.0  0.8878
  Zn  Zn112  1  0.750000  0.900390  0.599610  1.0  0.8863
  Zn  Zn113  1  0.900390  0.750000  0.599610  1.0  0.8882
  Zn  Zn114  1  0.900390  0.750000  0.900390  1.0  0.8892
  Zn  Zn115  1  0.599610  0.750000  0.599610  1.0  0.8873
  Zn  Zn116  1  0.599610  0.750000  0.900390  1.0  0.8885
  Zn  Zn117  1  0.599610  0.900390  0.750000  1.0  0.8858
  Zn  Zn118  1  0.900390  0.900390  0.750000  1.0  0.8867
  Zn  Zn119  1  0.599610  0.599610  0.750000  1.0  0.8874
  Zn  Zn120  1  0.900390  0.599610  0.750000  1.0  0.8883
  P  P121  1  0.204190  0.638410  0.026810  1.0  1.5775
  P  P122  1  0.135210  0.495240  0.941240  1.0  1.5283
  P  P123  1  0.295810  0.861590  0.026810  1.0  1.5747
  P  P124  1  0.364790  0.004760  0.941240  1.0  1.5279
  P  P125  1  0.295810  0.638410  0.473190  1.0  1.5767
  P  P126  1  0.364790  0.495240  0.558760  1.0  1.5275
  P  P127  1  0.204190  0.861590  0.473190  1.0  1.5793
  P  P128  1  0.135210  0.004760  0.558760  1.0  1.5287
  P  P129  1  0.026810  0.204190  0.638410  1.0  1.5745
  P  P130  1  0.941240  0.135210  0.495240  1.0  1.5291
  P  P131  1  0.026810  0.295810  0.861590  1.0  1.5733
  P  P132  1  0.941240  0.364790  0.004760  1.0  1.528
  P  P133  1  0.473190  0.295810  0.638410  1.0  1.5728
  P  P134  1  0.558760  0.364790  0.495240  1.0  1.5288
  P  P135  1  0.473190  0.204190  0.861590  1.0  1.575
  P  P136  1  0.558760  0.135210  0.004760  1.0  1.5283
  P  P137  1  0.638410  0.026810  0.204190  1.0  1.5818
  P  P138  1  0.495240  0.941240  0.135210  1.0  1.5248
  P  P139  1  0.861590  0.026810  0.295810  1.0  1.5818
  P  P140  1  0.004760  0.941240  0.364790  1.0  1.5244
  P  P141  1  0.638410  0.473190  0.295810  1.0  1.5822
  P  P142  1  0.495240  0.558760  0.364790  1.0  1.5254
  P  P143  1  0.861590  0.473190  0.204190  1.0  1.5828
  P  P144  1  0.004760  0.558760  0.135210  1.0  1.5248
  P  P145  1  0.638410  0.204190  0.473190  1.0  1.5827
  P  P146  1  0.495240  0.135210  0.558760  1.0  1.5246
  P  P147  1  0.861590  0.295810  0.473190  1.0  1.5817
  P  P148  1  0.004760  0.364790  0.558760  1.0  1.5236
  P  P149  1  0.638410  0.295810  0.026810  1.0  1.5783
  P  P150  1  0.495240  0.364790  0.941240  1.0  1.5244
  P  P151  1  0.861590  0.204190  0.026810  1.0  1.5817
  P  P152  1  0.004760  0.135210  0.941240  1.0  1.524
  P  P153  1  0.204190  0.026810  0.861590  1.0  1.5789
  P  P154  1  0.135210  0.941240  0.004760  1.0  1.5284
  P  P155  1  0.295810  0.026810  0.638410  1.0  1.5756
  P  P156  1  0.364790  0.941240  0.495240  1.0  1.5282
  P  P157  1  0.295810  0.473190  0.861590  1.0  1.577
  P  P158  1  0.364790  0.558760  0.004760  1.0  1.5281
  P  P159  1  0.204190  0.473190  0.638410  1.0  1.5791
  P  P160  1  0.135210  0.558760  0.495240  1.0  1.5297
  P  P161  1  0.026810  0.638410  0.295810  1.0  1.5741
  P  P162  1  0.941240  0.495240  0.364790  1.0  1.5284
  P  P163  1  0.026810  0.861590  0.204190  1.0  1.5741
  P  P164  1  0.941240  0.004760  0.135210  1.0  1.529
  P  P165  1  0.473190  0.638410  0.204190  1.0  1.5746
  P  P166  1  0.558760  0.495240  0.135210  1.0  1.5283
  P  P167  1  0.473190  0.861590  0.295810  1.0  1.5738
  P  P168  1  0.558760  0.004760  0.364790  1.0  1.5286
  P  P169  1  0.795810  0.361590  0.973190  1.0  1.5763
  P  P170  1  0.864790  0.504760  0.058760  1.0  1.5277
  P  P171  1  0.704190  0.138410  0.973190  1.0  1.5795
  P  P172  1  0.635210  0.995240  0.058760  1.0  1.5283
  P  P173  1  0.704190  0.361590  0.526810  1.0  1.5773
  P  P174  1  0.635210  0.504760  0.441240  1.0  1.5286
  P  P175  1  0.795810  0.138410  0.526810  1.0  1.5751
  P  P176  1  0.864790  0.995240  0.441240  1.0  1.5276
  P  P177  1  0.973190  0.795810  0.361590  1.0  1.5733
  P  P178  1  0.058760  0.864790  0.504760  1.0  1.5279
  P  P179  1  0.973190  0.704190  0.138410  1.0  1.5746
  P  P180  1  0.058760  0.635210  0.995240  1.0  1.529
  P  P181  1  0.526810  0.704190  0.361590  1.0  1.5749
  P  P182  1  0.441240  0.635210  0.504760  1.0  1.5285
  P  P183  1  0.526810  0.795810  0.138410  1.0  1.5727
  P  P184  1  0.441240  0.864790  0.995240  1.0  1.5288
  P  P185  1  0.361590  0.973190  0.795810  1.0  1.5826
  P  P186  1  0.504760  0.058760  0.864790  1.0  1.5247
  P  P187  1  0.138410  0.973190  0.704190  1.0  1.5822
  P  P188  1  0.995240  0.058760  0.635210  1.0  1.5255
  P  P189  1  0.361590  0.526810  0.704190  1.0  1.5827
  P  P190  1  0.504760  0.441240  0.635210  1.0  1.5243
  P  P191  1  0.138410  0.526810  0.795810  1.0  1.5808
  P  P192  1  0.995240  0.441240  0.864790  1.0  1.525
  P  P193  1  0.361590  0.795810  0.526810  1.0  1.5794
  P  P194  1  0.504760  0.864790  0.441240  1.0  1.5236
  P  P195  1  0.138410  0.704190  0.526810  1.0  1.5813
  P  P196  1  0.995240  0.635210  0.441240  1.0  1.5246
  P  P197  1  0.361590  0.704190  0.973190  1.0  1.5832
  P  P198  1  0.504760  0.635210  0.058760  1.0  1.524
  P  P199  1  0.138410  0.795810  0.973190  1.0  1.5806
  P  P200  1  0.995240  0.864790  0.058760  1.0  1.5244
  P  P201  1  0.795810  0.973190  0.138410  1.0  1.5765
  P  P202  1  0.864790  0.058760  0.995240  1.0  1.5287
  P  P203  1  0.704190  0.973190  0.361590  1.0  1.5796
  P  P204  1  0.635210  0.058760  0.504760  1.0  1.5289
  P  P205  1  0.704190  0.526810  0.138410  1.0  1.5784
  P  P206  1  0.635210  0.441240  0.995240  1.0  1.5291
  P  P207  1  0.795810  0.526810  0.361590  1.0  1.5761
  P  P208  1  0.864790  0.441240  0.504760  1.0  1.5278
  P  P209  1  0.973190  0.361590  0.704190  1.0  1.5744
  P  P210  1  0.058760  0.504760  0.635210  1.0  1.5288
  P  P211  1  0.973190  0.138410  0.795810  1.0  1.574
  P  P212  1  0.058760  0.995240  0.864790  1.0  1.5283
  P  P213  1  0.526810  0.361590  0.795810  1.0  1.5739
  P  P214  1  0.441240  0.504760  0.864790  1.0  1.5287
  P  P215  1  0.526810  0.138410  0.704190  1.0  1.5743
  P  P216  1  0.441240  0.995240  0.635210  1.0  1.5284
  H  H217  1  0.131500  0.639600  0.071400  1.0  0.0996
  H  H218  1  0.248300  0.653800  0.103700  1.0  0.1258
  H  H219  1  0.228200  0.658700  0.171200  1.0  0.1243
  H  H220  1  0.160500  0.655300  0.188400  1.0  0.1172
  H  H221  1  0.174600  0.454000  0.006700  1.0  0.1231
  H  H222  1  0.076000  0.428700  0.939200  1.0  0.1133
  H  H223  1  0.064800  0.371500  0.976400  1.0  0.1224
  H  H224  1  0.107100  0.355200  0.031100  1.0  0.1209
  H  H225  1  0.368500  0.860400  0.071400  1.0  0.0988
  H  H226  1  0.251700  0.846200  0.103700  1.0  0.1259
  H  H227  1  0.271800  0.841300  0.171200  1.0  0.1244
  H  H228  1  0.339500  0.844700  0.188400  1.0  0.1171
  H  H229  1  0.325400  0.046000  0.006700  1.0  0.122
  H  H230  1  0.424000  0.071300  0.939200  1.0  0.113
  H  H231  1  0.435200  0.128500  0.976400  1.0  0.1225
  H  H232  1  0.392900  0.144800  0.031100  1.0  0.121
  H  H233  1  0.368500  0.639600  0.428600  1.0  0.0994
  H  H234  1  0.251700  0.653800  0.396300  1.0  0.126
  H  H235  1  0.271800  0.658700  0.328800  1.0  0.1241
  H  H236  1  0.339500  0.655300  0.311600  1.0  0.1169
  H  H237  1  0.325400  0.454000  0.493300  1.0  0.1224
  H  H238  1  0.424000  0.428700  0.560800  1.0  0.1133
  H  H239  1  0.435200  0.371500  0.523600  1.0  0.1228
  H  H240  1  0.392900  0.355200  0.468900  1.0  0.1212
  H  H241  1  0.131500  0.860400  0.428600  1.0  0.099
  H  H242  1  0.248300  0.846200  0.396300  1.0  0.126
  H  H243  1  0.228200  0.841300  0.328800  1.0  0.124
  H  H244  1  0.160500  0.844700  0.311600  1.0  0.117
  H  H245  1  0.174600  0.046000  0.493300  1.0  0.1237
  H  H246  1  0.076000  0.071300  0.560800  1.0  0.1133
  H  H247  1  0.064800  0.128500  0.523600  1.0  0.123
  H  H248  1  0.107100  0.144800  0.468900  1.0  0.1216
  H  H249  1  0.071400  0.131500  0.639600  1.0  0.1009
  H  H250  1  0.103700  0.248300  0.653800  1.0  0.1245
  H  H251  1  0.171200  0.228200  0.658700  1.0  0.1233
  H  H252  1  0.188400  0.160500  0.655300  1.0  0.1159
  H  H253  1  0.006700  0.174600  0.454000  1.0  0.1212
  H  H254  1  0.939200  0.076000  0.428700  1.0  0.1128
  H  H255  1  0.976400  0.064800  0.371500  1.0  0.1225
  H  H256  1  0.031100  0.107100  0.355200  1.0  0.1217
  H  H257  1  0.071400  0.368500  0.860400  1.0  0.1006
  H  H258  1  0.103700  0.251700  0.846200  1.0  0.1246
  H  H259  1  0.171200  0.271800  0.841300  1.0  0.1229
  H  H260  1  0.188400  0.339500  0.844700  1.0  0.1164
  H  H261  1  0.006700  0.325400  0.046000  1.0  0.121
  H  H262  1  0.939200  0.424000  0.071300  1.0  0.1133
  H  H263  1  0.976400  0.435200  0.128500  1.0  0.1221
  H  H264  1  0.031100  0.392900  0.144800  1.0  0.1227
  H  H265  1  0.428600  0.368500  0.639600  1.0  0.1
  H  H266  1  0.396300  0.251700  0.653800  1.0  0.1249
  H  H267  1  0.328800  0.271800  0.658700  1.0  0.1232
  H  H268  1  0.311600  0.339500  0.655300  1.0  0.117
  H  H269  1  0.493300  0.325400  0.454000  1.0  0.1208
  H  H270  1  0.560800  0.424000  0.428700  1.0  0.1133
  H  H271  1  0.523600  0.435200  0.371500  1.0  0.1223
  H  H272  1  0.468900  0.392900  0.355200  1.0  0.1218
  H  H273  1  0.428600  0.131500  0.860400  1.0  0.1006
  H  H274  1  0.396300  0.248300  0.846200  1.0  0.1248
  H  H275  1  0.328800  0.228200  0.841300  1.0  0.1233
  H  H276  1  0.311600  0.160500  0.844700  1.0  0.117
  H  H277  1  0.493300  0.174600  0.046000  1.0  0.1218
  H  H278  1  0.560800  0.076000  0.071300  1.0  0.1132
  H  H279  1  0.523600  0.064800  0.128500  1.0  0.1224
  H  H280  1  0.468900  0.107100  0.144800  1.0  0.1222
  H  H281  1  0.639600  0.071400  0.131500  1.0  0.0992
  H  H282  1  0.653800  0.103700  0.248300  1.0  0.1264
  H  H283  1  0.658700  0.171200  0.228200  1.0  0.1237
  H  H284  1  0.655300  0.188400  0.160500  1.0  0.1165
  H  H285  1  0.454000  0.006700  0.174600  1.0  0.1235
  H  H286  1  0.428700  0.939200  0.076000  1.0  0.1137
  H  H287  1  0.371500  0.976400  0.064800  1.0  0.1224
  H  H288  1  0.355200  0.031100  0.107100  1.0  0.1231
  H  H289  1  0.860400  0.071400  0.368500  1.0  0.0989
  H  H290  1  0.846200  0.103700  0.251700  1.0  0.126
  H  H291  1  0.841300  0.171200  0.271800  1.0  0.1232
  H  H292  1  0.844700  0.188400  0.339500  1.0  0.1158
  H  H293  1  0.046000  0.006700  0.325400  1.0  0.1226
  H  H294  1  0.071300  0.939200  0.424000  1.0  0.1144
  H  H295  1  0.128500  0.976400  0.435200  1.0  0.1217
  H  H296  1  0.144800  0.031100  0.392900  1.0  0.123
  H  H297  1  0.639600  0.428600  0.368500  1.0  0.0983
  H  H298  1  0.653800  0.396300  0.251700  1.0  0.1259
  H  H299  1  0.658700  0.328800  0.271800  1.0  0.1227
  H  H300  1  0.655300  0.311600  0.339500  1.0  0.1153
  H  H301  1  0.454000  0.493300  0.325400  1.0  0.1232
  H  H302  1  0.428700  0.560800  0.424000  1.0  0.1139
  H  H303  1  0.371500  0.523600  0.435200  1.0  0.122
  H  H304  1  0.355200  0.468900  0.392900  1.0  0.1224
  H  H305  1  0.860400  0.428600  0.131500  1.0  0.0991
  H  H306  1  0.846200  0.396300  0.248300  1.0  0.1263
  H  H307  1  0.841300  0.328800  0.228200  1.0  0.1235
  H  H308  1  0.844700  0.311600  0.160500  1.0  0.1162
  H  H309  1  0.046000  0.493300  0.174600  1.0  0.1233
  H  H310  1  0.071300  0.560800  0.076000  1.0  0.1137
  H  H311  1  0.128500  0.523600  0.064800  1.0  0.1224
  H  H312  1  0.144800  0.468900  0.107100  1.0  0.1233
  H  H313  1  0.639600  0.131500  0.428600  1.0  0.0989
  H  H314  1  0.653800  0.248300  0.396300  1.0  0.1251
  H  H315  1  0.658700  0.228200  0.328800  1.0  0.1239
  H  H316  1  0.655300  0.160500  0.311600  1.0  0.1169
  H  H317  1  0.454000  0.174600  0.493300  1.0  0.1231
  H  H318  1  0.428700  0.076000  0.560800  1.0  0.1133
  H  H319  1  0.371500  0.064800  0.523600  1.0  0.1218
  H  H320  1  0.355200  0.107100  0.468900  1.0  0.1225
  H  H321  1  0.860400  0.368500  0.428600  1.0  0.0987
  H  H322  1  0.846200  0.251700  0.396300  1.0  0.1252
  H  H323  1  0.841300  0.271800  0.328800  1.0  0.1234
  H  H324  1  0.844700  0.339500  0.311600  1.0  0.1169
  H  H325  1  0.046000  0.325400  0.493300  1.0  0.1222
  H  H326  1  0.071300  0.424000  0.560800  1.0  0.1135
  H  H327  1  0.128500  0.435200  0.523600  1.0  0.1219
  H  H328  1  0.144800  0.392900  0.468900  1.0  0.1231
  H  H329  1  0.639600  0.368500  0.071400  1.0  0.0986
  H  H330  1  0.653800  0.251700  0.103700  1.0  0.1249
  H  H331  1  0.658700  0.271800  0.171200  1.0  0.124
  H  H332  1  0.655300  0.339500  0.188400  1.0  0.1169
  H  H333  1  0.454000  0.325400  0.006700  1.0  0.1225
  H  H334  1  0.428700  0.424000  0.939200  1.0  0.1135
  H  H335  1  0.371500  0.435200  0.976400  1.0  0.1221
  H  H336  1  0.355200  0.392900  0.031100  1.0  0.122
  H  H337  1  0.860400  0.131500  0.071400  1.0  0.099
  H  H338  1  0.846200  0.248300  0.103700  1.0  0.125
  H  H339  1  0.841300  0.228200  0.171200  1.0  0.1242
  H  H340  1  0.844700  0.160500  0.188400  1.0  0.117
  H  H341  1  0.046000  0.174600  0.006700  1.0  0.1224
  H  H342  1  0.071300  0.076000  0.939200  1.0  0.1133
  H  H343  1  0.128500  0.064800  0.976400  1.0  0.122
  H  H344  1  0.144800  0.107100  0.031100  1.0  0.1222
  H  H345  1  0.131500  0.071400  0.860400  1.0  0.1003
  H  H346  1  0.248300  0.103700  0.846200  1.0  0.1251
  H  H347  1  0.228200  0.171200  0.841300  1.0  0.1235
  H  H348  1  0.160500  0.188400  0.844700  1.0  0.1162
  H  H349  1  0.174600  0.006700  0.046000  1.0  0.1222
  H  H350  1  0.076000  0.939200  0.071300  1.0  0.1131
  H  H351  1  0.064800  0.976400  0.128500  1.0  0.1228
  H  H352  1  0.107100  0.031100  0.144800  1.0  0.1217
  H  H353  1  0.368500  0.071400  0.639600  1.0  0.1007
  H  H354  1  0.251700  0.103700  0.653800  1.0  0.1252
  H  H355  1  0.271800  0.171200  0.658700  1.0  0.1237
  H  H356  1  0.339500  0.188400  0.655300  1.0  0.1157
  H  H357  1  0.325400  0.006700  0.454000  1.0  0.1207
  H  H358  1  0.424000  0.939200  0.428700  1.0  0.1131
  H  H359  1  0.435200  0.976400  0.371500  1.0  0.1226
  H  H360  1  0.392900  0.031100  0.355200  1.0  0.1211
  H  H361  1  0.368500  0.428600  0.860400  1.0  0.1004
  H  H362  1  0.251700  0.396300  0.846200  1.0  0.1249
  H  H363  1  0.271800  0.328800  0.841300  1.0  0.123
  H  H364  1  0.339500  0.311600  0.844700  1.0  0.1155
  H  H365  1  0.325400  0.493300  0.046000  1.0  0.1211
  H  H366  1  0.424000  0.560800  0.071300  1.0  0.113
  H  H367  1  0.435200  0.523600  0.128500  1.0  0.1228
  H  H368  1  0.392900  0.468900  0.144800  1.0  0.1219
  H  H369  1  0.131500  0.428600  0.639600  1.0  0.1003
  H  H370  1  0.248300  0.396300  0.653800  1.0  0.125
  H  H371  1  0.228200  0.328800  0.658700  1.0  0.1234
  H  H372  1  0.160500  0.311600  0.655300  1.0  0.1156
  H  H373  1  0.174600  0.493300  0.454000  1.0  0.1216
  H  H374  1  0.076000  0.560800  0.428700  1.0  0.1132
  H  H375  1  0.064800  0.523600  0.371500  1.0  0.1231
  H  H376  1  0.107100  0.468900  0.355200  1.0  0.1213
  H  H377  1  0.071400  0.639600  0.368500  1.0  0.0996
  H  H378  1  0.103700  0.653800  0.251700  1.0  0.1263
  H  H379  1  0.171200  0.658700  0.271800  1.0  0.1236
  H  H380  1  0.188400  0.655300  0.339500  1.0  0.1164
  H  H381  1  0.006700  0.454000  0.325400  1.0  0.1228
  H  H382  1  0.939200  0.428700  0.424000  1.0  0.1138
  H  H383  1  0.976400  0.371500  0.435200  1.0  0.1221
  H  H384  1  0.031100  0.355200  0.392900  1.0  0.1221
  H  H385  1  0.071400  0.860400  0.131500  1.0  0.0994
  H  H386  1  0.103700  0.846200  0.248300  1.0  0.1268
  H  H387  1  0.171200  0.841300  0.228200  1.0  0.1239
  H  H388  1  0.188400  0.844700  0.160500  1.0  0.1169
  H  H389  1  0.006700  0.046000  0.174600  1.0  0.1234
  H  H390  1  0.939200  0.071300  0.076000  1.0  0.1131
  H  H391  1  0.976400  0.128500  0.064800  1.0  0.1227
  H  H392  1  0.031100  0.144800  0.107100  1.0  0.1227
  H  H393  1  0.428600  0.639600  0.131500  1.0  0.0999
  H  H394  1  0.396300  0.653800  0.248300  1.0  0.1268
  H  H395  1  0.328800  0.658700  0.228200  1.0  0.1239
  H  H396  1  0.311600  0.655300  0.160500  1.0  0.1178
  H  H397  1  0.493300  0.454000  0.174600  1.0  0.1236
  H  H398  1  0.560800  0.428700  0.076000  1.0  0.1138
  H  H399  1  0.523600  0.371500  0.064800  1.0  0.1224
  H  H400  1  0.468900  0.355200  0.107100  1.0  0.1225
  H  H401  1  0.428600  0.860400  0.368500  1.0  0.099
  H  H402  1  0.396300  0.846200  0.251700  1.0  0.1265
  H  H403  1  0.328800  0.841300  0.271800  1.0  0.1234
  H  H404  1  0.311600  0.844700  0.339500  1.0  0.1172
  H  H405  1  0.493300  0.046000  0.325400  1.0  0.1229
  H  H406  1  0.560800  0.071300  0.424000  1.0  0.1147
  H  H407  1  0.523600  0.128500  0.435200  1.0  0.1216
  H  H408  1  0.468900  0.144800  0.392900  1.0  0.1226
  H  H409  1  0.868500  0.360400  0.928600  1.0  0.0993
  H  H410  1  0.751700  0.346200  0.896300  1.0  0.1261
  H  H411  1  0.771800  0.341300  0.828800  1.0  0.124
  H  H412  1  0.839500  0.344700  0.811600  1.0  0.1169
  H  H413  1  0.825400  0.546000  0.993300  1.0  0.1224
  H  H414  1  0.924000  0.571300  0.060800  1.0  0.1134
  H  H415  1  0.935200  0.628500  0.023600  1.0  0.1226
  H  H416  1  0.892900  0.644800  0.968900  1.0  0.1214
  H  H417  1  0.631500  0.139600  0.928600  1.0  0.0994
  H  H418  1  0.748300  0.153800  0.896300  1.0  0.1258
  H  H419  1  0.728200  0.158700  0.828800  1.0  0.124
  H  H420  1  0.660500  0.155300  0.811600  1.0  0.117
  H  H421  1  0.674600  0.954000  0.993300  1.0  0.1237
  H  H422  1  0.576000  0.928700  0.060800  1.0  0.1134
  H  H423  1  0.564800  0.871500  0.023600  1.0  0.1227
  H  H424  1  0.607100  0.855200  0.968900  1.0  0.1214
  H  H425  1  0.631500  0.360400  0.571400  1.0  0.0987
  H  H426  1  0.748300  0.346200  0.603700  1.0  0.1258
  H  H427  1  0.728200  0.341300  0.671200  1.0  0.1243
  H  H428  1  0.660500  0.344700  0.688400  1.0  0.1172
  H  H429  1  0.674600  0.546000  0.506700  1.0  0.123
  H  H430  1  0.576000  0.571300  0.439200  1.0  0.1129
  H  H431  1  0.564800  0.628500  0.476400  1.0  0.1228
  H  H432  1  0.607100  0.644800  0.531100  1.0  0.1209
  H  H433  1  0.868500  0.139600  0.571400  1.0  0.0996
  H  H434  1  0.751700  0.153800  0.603700  1.0  0.1258
  H  H435  1  0.771800  0.158700  0.671200  1.0  0.1245
  H  H436  1  0.839500  0.155300  0.688400  1.0  0.1171
  H  H437  1  0.825400  0.954000  0.506700  1.0  0.122
  H  H438  1  0.924000  0.928700  0.439200  1.0  0.1131
  H  H439  1  0.935200  0.871500  0.476400  1.0  0.1224
  H  H440  1  0.892900  0.855200  0.531100  1.0  0.1209
  H  H441  1  0.928600  0.868500  0.360400  1.0  0.1001
  H  H442  1  0.896300  0.751700  0.346200  1.0  0.1248
  H  H443  1  0.828800  0.771800  0.341300  1.0  0.1228
  H  H444  1  0.811600  0.839500  0.344700  1.0  0.1171
  H  H445  1  0.993300  0.825400  0.546000  1.0  0.121
  H  H446  1  0.060800  0.924000  0.571300  1.0  0.1136
  H  H447  1  0.023600  0.935200  0.628500  1.0  0.1219
  H  H448  1  0.968900  0.892900  0.644800  1.0  0.1226
  H  H449  1  0.928600  0.631500  0.139600  1.0  0.1007
  H  H450  1  0.896300  0.748300  0.153800  1.0  0.1247
  H  H451  1  0.828800  0.728200  0.158700  1.0  0.1234
  H  H452  1  0.811600  0.660500  0.155300  1.0  0.117
  H  H453  1  0.993300  0.674600  0.954000  1.0  0.1212
  H  H454  1  0.060800  0.576000  0.928700  1.0  0.1135
  H  H455  1  0.023600  0.564800  0.871500  1.0  0.1223
  H  H456  1  0.968900  0.607100  0.855200  1.0  0.1216
  H  H457  1  0.571400  0.631500  0.360400  1.0  0.1008
  H  H458  1  0.603700  0.748300  0.346200  1.0  0.1247
  H  H459  1  0.671200  0.728200  0.341300  1.0  0.1234
  H  H460  1  0.688400  0.660500  0.344700  1.0  0.1164
  H  H461  1  0.506700  0.674600  0.546000  1.0  0.1216
  H  H462  1  0.439200  0.576000  0.571300  1.0  0.1126
  H  H463  1  0.476400  0.564800  0.628500  1.0  0.1226
  H  H464  1  0.531100  0.607100  0.644800  1.0  0.1223
  H  H465  1  0.571400  0.868500  0.139600  1.0  0.1005
  H  H466  1  0.603700  0.751700  0.153800  1.0  0.1246
  H  H467  1  0.671200  0.771800  0.158700  1.0  0.123
  H  H468  1  0.688400  0.839500  0.155300  1.0  0.1158
  H  H469  1  0.506700  0.825400  0.954000  1.0  0.1208
  H  H470  1  0.439200  0.924000  0.928700  1.0  0.113
  H  H471  1  0.476400  0.935200  0.871500  1.0  0.1226
  H  H472  1  0.531100  0.892900  0.855200  1.0  0.1219
  H  H473  1  0.360400  0.928600  0.868500  1.0  0.0986
  H  H474  1  0.346200  0.896300  0.751700  1.0  0.1259
  H  H475  1  0.341300  0.828800  0.771800  1.0  0.1226
  H  H476  1  0.344700  0.811600  0.839500  1.0  0.1156
  H  H477  1  0.546000  0.993300  0.825400  1.0  0.1227
  H  H478  1  0.571300  0.060800  0.924000  1.0  0.1142
  H  H479  1  0.628500  0.023600  0.935200  1.0  0.1216
  H  H480  1  0.644800  0.968900  0.892900  1.0  0.1228
  H  H481  1  0.139600  0.928600  0.631500  1.0  0.099
  H  H482  1  0.153800  0.896300  0.748300  1.0  0.1263
  H  H483  1  0.158700  0.828800  0.728200  1.0  0.1233
  H  H484  1  0.155300  0.811600  0.660500  1.0  0.1159
  H  H485  1  0.954000  0.993300  0.674600  1.0  0.1236
  H  H486  1  0.928700  0.060800  0.576000  1.0  0.1136
  H  H487  1  0.871500  0.023600  0.564800  1.0  0.1224
  H  H488  1  0.855200  0.968900  0.607100  1.0  0.1226
  H  H489  1  0.360400  0.571400  0.631500  1.0  0.0992
  H  H490  1  0.346200  0.603700  0.748300  1.0  0.1266
  H  H491  1  0.341300  0.671200  0.728200  1.0  0.1236
  H  H492  1  0.344700  0.688400  0.660500  1.0  0.1165
  H  H493  1  0.546000  0.506700  0.674600  1.0  0.1233
  H  H494  1  0.571300  0.439200  0.576000  1.0  0.1138
  H  H495  1  0.628500  0.476400  0.564800  1.0  0.1225
  H  H496  1  0.644800  0.531100  0.607100  1.0  0.1233
  H  H497  1  0.139600  0.571400  0.868500  1.0  0.0987
  H  H498  1  0.153800  0.603700  0.751700  1.0  0.126
  H  H499  1  0.158700  0.671200  0.771800  1.0  0.1235
  H  H500  1  0.155300  0.688400  0.839500  1.0  0.1158
  H  H501  1  0.954000  0.506700  0.825400  1.0  0.1231
  H  H502  1  0.928700  0.439200  0.924000  1.0  0.1143
  H  H503  1  0.871500  0.476400  0.935200  1.0  0.122
  H  H504  1  0.855200  0.531100  0.892900  1.0  0.1229
  H  H505  1  0.360400  0.868500  0.571400  1.0  0.0986
  H  H506  1  0.346200  0.751700  0.603700  1.0  0.1251
  H  H507  1  0.341300  0.771800  0.671200  1.0  0.1239
  H  H508  1  0.344700  0.839500  0.688400  1.0  0.117
  H  H509  1  0.546000  0.825400  0.506700  1.0  0.1219
  H  H510  1  0.571300  0.924000  0.439200  1.0  0.1137
  H  H511  1  0.628500  0.935200  0.476400  1.0  0.122
  H  H512  1  0.644800  0.892900  0.531100  1.0  0.1225
  H  H513  1  0.139600  0.631500  0.571400  1.0  0.099
  H  H514  1  0.153800  0.748300  0.603700  1.0  0.125
  H  H515  1  0.158700  0.728200  0.671200  1.0  0.1245
  H  H516  1  0.155300  0.660500  0.688400  1.0  0.1168
  H  H517  1  0.954000  0.674600  0.506700  1.0  0.1227
  H  H518  1  0.928700  0.576000  0.439200  1.0  0.1131
  H  H519  1  0.871500  0.564800  0.476400  1.0  0.1215
  H  H520  1  0.855200  0.607100  0.531100  1.0  0.1216
  H  H521  1  0.360400  0.631500  0.928600  1.0  0.0992
  H  H522  1  0.346200  0.748300  0.896300  1.0  0.125
  H  H523  1  0.341300  0.728200  0.828800  1.0  0.1236
  H  H524  1  0.344700  0.660500  0.811600  1.0  0.117
  H  H525  1  0.546000  0.674600  0.993300  1.0  0.1227
  H  H526  1  0.571300  0.576000  0.060800  1.0  0.1134
  H  H527  1  0.628500  0.564800  0.023600  1.0  0.1222
  H  H528  1  0.644800  0.607100  0.968900  1.0  0.1229
  H  H529  1  0.139600  0.868500  0.928600  1.0  0.0983
  H  H530  1  0.153800  0.751700  0.896300  1.0  0.125
  H  H531  1  0.158700  0.771800  0.828800  1.0  0.1236
  H  H532  1  0.155300  0.839500  0.811600  1.0  0.1168
  H  H533  1  0.954000  0.825400  0.993300  1.0  0.1229
  H  H534  1  0.928700  0.924000  0.060800  1.0  0.1134
  H  H535  1  0.871500  0.935200  0.023600  1.0  0.1222
  H  H536  1  0.855200  0.892900  0.968900  1.0  0.1227
  H  H537  1  0.868500  0.928600  0.139600  1.0  0.1002
  H  H538  1  0.751700  0.896300  0.153800  1.0  0.1249
  H  H539  1  0.771800  0.828800  0.158700  1.0  0.1232
  H  H540  1  0.839500  0.811600  0.155300  1.0  0.1155
  H  H541  1  0.825400  0.993300  0.954000  1.0  0.1208
  H  H542  1  0.924000  0.060800  0.928700  1.0  0.1129
  H  H543  1  0.935200  0.023600  0.871500  1.0  0.1227
  H  H544  1  0.892900  0.968900  0.855200  1.0  0.1212
  H  H545  1  0.631500  0.928600  0.360400  1.0  0.1005
  H  H546  1  0.748300  0.896300  0.346200  1.0  0.1249
  H  H547  1  0.728200  0.828800  0.341300  1.0  0.1231
  H  H548  1  0.660500  0.811600  0.344700  1.0  0.1157
  H  H549  1  0.674600  0.993300  0.546000  1.0  0.1222
  H  H550  1  0.576000  0.060800  0.571300  1.0  0.1133
  H  H551  1  0.564800  0.023600  0.628500  1.0  0.1228
  H  H552  1  0.607100  0.968900  0.644800  1.0  0.1219
  H  H553  1  0.631500  0.571400  0.139600  1.0  0.1006
  H  H554  1  0.748300  0.603700  0.153800  1.0  0.1251
  H  H555  1  0.728200  0.671200  0.158700  1.0  0.1235
  H  H556  1  0.660500  0.688400  0.155300  1.0  0.1158
  H  H557  1  0.674600  0.506700  0.954000  1.0  0.1214
  H  H558  1  0.576000  0.439200  0.928700  1.0  0.1131
  H  H559  1  0.564800  0.476400  0.871500  1.0  0.1229
  H  H560  1  0.607100  0.531100  0.855200  1.0  0.1211
  H  H561  1  0.868500  0.571400  0.360400  1.0  0.1005
  H  H562  1  0.751700  0.603700  0.346200  1.0  0.1252
  H  H563  1  0.771800  0.671200  0.341300  1.0  0.1237
  H  H564  1  0.839500  0.688400  0.344700  1.0  0.1161
  H  H565  1  0.825400  0.506700  0.546000  1.0  0.1211
  H  H566  1  0.924000  0.439200  0.571300  1.0  0.1132
  H  H567  1  0.935200  0.476400  0.628500  1.0  0.1228
  H  H568  1  0.892900  0.531100  0.644800  1.0  0.1218
  H  H569  1  0.928600  0.360400  0.631500  1.0  0.0991
  H  H570  1  0.896300  0.346200  0.748300  1.0  0.127
  H  H571  1  0.828800  0.341300  0.728200  1.0  0.1239
  H  H572  1  0.811600  0.344700  0.660500  1.0  0.1177
  H  H573  1  0.993300  0.546000  0.674600  1.0  0.1235
  H  H574  1  0.060800  0.571300  0.576000  1.0  0.1137
  H  H575  1  0.023600  0.628500  0.564800  1.0  0.1223
  H  H576  1  0.968900  0.644800  0.607100  1.0  0.123
  H  H577  1  0.928600  0.139600  0.868500  1.0  0.0992
  H  H578  1  0.896300  0.153800  0.751700  1.0  0.1265
  H  H579  1  0.828800  0.158700  0.771800  1.0  0.1237
  H  H580  1  0.811600  0.155300  0.839500  1.0  0.1172
  H  H581  1  0.993300  0.954000  0.825400  1.0  0.1229
  H  H582  1  0.060800  0.928700  0.924000  1.0  0.1144
  H  H583  1  0.023600  0.871500  0.935200  1.0  0.1219
  H  H584  1  0.968900  0.855200  0.892900  1.0  0.122
  H  H585  1  0.571400  0.360400  0.868500  1.0  0.0991
  H  H586  1  0.603700  0.346200  0.751700  1.0  0.1262
  H  H587  1  0.671200  0.341300  0.771800  1.0  0.1234
  H  H588  1  0.688400  0.344700  0.839500  1.0  0.1162
  H  H589  1  0.506700  0.546000  0.825400  1.0  0.1228
  H  H590  1  0.439200  0.571300  0.924000  1.0  0.1138
  H  H591  1  0.476400  0.628500  0.935200  1.0  0.1218
  H  H592  1  0.531100  0.644800  0.892900  1.0  0.1224
  H  H593  1  0.571400  0.139600  0.631500  1.0  0.1003
  H  H594  1  0.603700  0.153800  0.748300  1.0  0.1266
  H  H595  1  0.671200  0.158700  0.728200  1.0  0.1239
  H  H596  1  0.688400  0.155300  0.660500  1.0  0.1171
  H  H597  1  0.506700  0.954000  0.674600  1.0  0.1236
  H  H598  1  0.439200  0.928700  0.576000  1.0  0.1134
  H  H599  1  0.476400  0.871500  0.564800  1.0  0.1227
  H  H600  1  0.531100  0.855200  0.607100  1.0  0.1225
  C  C601  1  0.094070  0.645030  0.141580  1.0  0.7074
  C  C602  1  0.138820  0.646700  0.131340  1.0  -0.1666
  C  C603  1  0.151230  0.643070  0.091660  1.0  -0.0069
  C  C604  1  0.191690  0.644400  0.080340  1.0  -0.164
  C  C605  1  0.220700  0.651400  0.110600  1.0  -0.0517
  C  C606  1  0.208600  0.654900  0.150900  1.0  -0.1134
  C  C607  1  0.168300  0.652700  0.161200  1.0  -0.0348
  C  C608  1  0.176000  0.391100  0.055800  1.0  0.7106
  C  C609  1  0.147000  0.401800  0.022800  1.0  -0.1726
  C  C610  1  0.152730  0.436920  0.000360  1.0  0.0169
  C  C611  1  0.126430  0.447680  0.968210  1.0  -0.2454
  C  C612  1  0.093800  0.422300  0.960400  1.0  -0.0267
  C  C613  1  0.087000  0.388200  0.982700  1.0  -0.0872
  C  C614  1  0.112800  0.378000  0.014900  1.0  -0.065
  C  C615  1  0.405930  0.854970  0.141580  1.0  0.7087
  C  C616  1  0.361180  0.853300  0.131340  1.0  -0.1666
  C  C617  1  0.348770  0.856930  0.091660  1.0  -0.0065
  C  C618  1  0.308310  0.855600  0.080340  1.0  -0.163
  C  C619  1  0.279300  0.848600  0.110600  1.0  -0.0517
  C  C620  1  0.291400  0.845100  0.150900  1.0  -0.1151
  C  C621  1  0.331700  0.847300  0.161200  1.0  -0.0345
  C  C622  1  0.324000  0.108900  0.055800  1.0  0.7085
  C  C623  1  0.353000  0.098200  0.022800  1.0  -0.1702
  C  C624  1  0.347270  0.063080  0.000360  1.0  0.0164
  C  C625  1  0.373570  0.052320  0.968210  1.0  -0.2448
  C  C626  1  0.406200  0.077700  0.960400  1.0  -0.0273
  C  C627  1  0.413000  0.111800  0.982700  1.0  -0.0862
  C  C628  1  0.387200  0.122000  0.014900  1.0  -0.0639
  C  C629  1  0.405930  0.645030  0.358420  1.0  0.7088
  C  C630  1  0.361180  0.646700  0.368660  1.0  -0.1662
  C  C631  1  0.348770  0.643070  0.408340  1.0  -0.0063
  C  C632  1  0.308310  0.644400  0.419660  1.0  -0.1635
  C  C633  1  0.279300  0.651400  0.389400  1.0  -0.0524
  C  C634  1  0.291400  0.654900  0.349100  1.0  -0.1125
  C  C635  1  0.331700  0.652700  0.338800  1.0  -0.0348
  C  C636  1  0.324000  0.391100  0.444200  1.0  0.7076
  C  C637  1  0.353000  0.401800  0.477200  1.0  -0.1724
  C  C638  1  0.347270  0.436920  0.499640  1.0  0.016
  C  C639  1  0.373570  0.447680  0.531790  1.0  -0.2434
  C  C640  1  0.406200  0.422300  0.539600  1.0  -0.0275
  C  C641  1  0.413000  0.388200  0.517300  1.0  -0.0857
  C  C642  1  0.387200  0.378000  0.485100  1.0  -0.0634
  C  C643  1  0.094070  0.854970  0.358420  1.0  0.7077
  C  C644  1  0.138820  0.853300  0.368660  1.0  -0.1679
  C  C645  1  0.151230  0.856930  0.408340  1.0  -0.0067
  C  C646  1  0.191690  0.855600  0.419660  1.0  -0.1649
  C  C647  1  0.220700  0.848600  0.389400  1.0  -0.0529
  C  C648  1  0.208600  0.845100  0.349100  1.0  -0.1114
  C  C649  1  0.168300  0.847300  0.338800  1.0  -0.0352
  C  C650  1  0.176000  0.108900  0.444200  1.0  0.7063
  C  C651  1  0.147000  0.098200  0.477200  1.0  -0.1717
  C  C652  1  0.152730  0.063080  0.499640  1.0  0.0166
  C  C653  1  0.126430  0.052320  0.531790  1.0  -0.2445
  C  C654  1  0.093800  0.077700  0.539600  1.0  -0.0271
  C  C655  1  0.087000  0.111800  0.517300  1.0  -0.0873
  C  C656  1  0.112800  0.122000  0.485100  1.0  -0.0626
  C  C657  1  0.141580  0.094070  0.645030  1.0  0.7071
  C  C658  1  0.131340  0.138820  0.646700  1.0  -0.1654
  C  C659  1  0.091660  0.151230  0.643070  1.0  -0.0065
  C  C660  1  0.080340  0.191690  0.644400  1.0  -0.1647
  C  C661  1  0.110600  0.220700  0.651400  1.0  -0.0532
  C  C662  1  0.150900  0.208600  0.654900  1.0  -0.1127
  C  C663  1  0.161200  0.168300  0.652700  1.0  -0.0377
  C  C664  1  0.055800  0.176000  0.391100  1.0  0.7046
  C  C665  1  0.022800  0.147000  0.401800  1.0  -0.1674
  C  C666  1  0.000360  0.152730  0.436920  1.0  0.0162
  C  C667  1  0.968210  0.126430  0.447680  1.0  -0.245
  C  C668  1  0.960400  0.093800  0.422300  1.0  -0.0254
  C  C669  1  0.982700  0.087000  0.388200  1.0  -0.0864
  C  C670  1  0.014900  0.112800  0.378000  1.0  -0.0703
  C  C671  1  0.141580  0.405930  0.854970  1.0  0.7074
  C  C672  1  0.131340  0.361180  0.853300  1.0  -0.1668
  C  C673  1  0.091660  0.348770  0.856930  1.0  -0.0079
  C  C674  1  0.080340  0.308310  0.855600  1.0  -0.1653
  C  C675  1  0.110600  0.279300  0.848600  1.0  -0.0532
  C  C676  1  0.150900  0.291400  0.845100  1.0  -0.1125
  C  C677  1  0.161200  0.331700  0.847300  1.0  -0.0379
  C  C678  1  0.055800  0.324000  0.108900  1.0  0.7052
  C  C679  1  0.022800  0.353000  0.098200  1.0  -0.1676
  C  C680  1  0.000360  0.347270  0.063080  1.0  0.0177
  C  C681  1  0.968210  0.373570  0.052320  1.0  -0.2449
  C  C682  1  0.960400  0.406200  0.077700  1.0  -0.0259
  C  C683  1  0.982700  0.413000  0.111800  1.0  -0.0875
  C  C684  1  0.014900  0.387200  0.122000  1.0  -0.0694
  C  C685  1  0.358420  0.405930  0.645030  1.0  0.7065
  C  C686  1  0.368660  0.361180  0.646700  1.0  -0.1664
  C  C687  1  0.408340  0.348770  0.643070  1.0  -0.007
  C  C688  1  0.419660  0.308310  0.644400  1.0  -0.1654
  C  C689  1  0.389400  0.279300  0.651400  1.0  -0.0525
  C  C690  1  0.349100  0.291400  0.654900  1.0  -0.1146
  C  C691  1  0.338800  0.331700  0.652700  1.0  -0.0358
  C  C692  1  0.444200  0.324000  0.391100  1.0  0.705
  C  C693  1  0.477200  0.353000  0.401800  1.0  -0.1697
  C  C694  1  0.499640  0.347270  0.436920  1.0  0.017
  C  C695  1  0.531790  0.373570  0.447680  1.0  -0.2435
  C  C696  1  0.539600  0.406200  0.422300  1.0  -0.026
  C  C697  1  0.517300  0.413000  0.388200  1.0  -0.0868
  C  C698  1  0.485100  0.387200  0.378000  1.0  -0.0692
  C  C699  1  0.358420  0.094070  0.854970  1.0  0.7075
  C  C700  1  0.368660  0.138820  0.853300  1.0  -0.1661
  C  C701  1  0.408340  0.151230  0.856930  1.0  -0.0071
  C  C702  1  0.419660  0.191690  0.855600  1.0  -0.1656
  C  C703  1  0.389400  0.220700  0.848600  1.0  -0.0525
  C  C704  1  0.349100  0.208600  0.845100  1.0  -0.1143
  C  C705  1  0.338800  0.168300  0.847300  1.0  -0.0357
  C  C706  1  0.444200  0.176000  0.108900  1.0  0.7041
  C  C707  1  0.477200  0.147000  0.098200  1.0  -0.1685
  C  C708  1  0.499640  0.152730  0.063080  1.0  0.0157
  C  C709  1  0.531790  0.126430  0.052320  1.0  -0.2437
  C  C710  1  0.539600  0.093800  0.077700  1.0  -0.0247
  C  C711  1  0.517300  0.087000  0.111800  1.0  -0.0861
  C  C712  1  0.485100  0.112800  0.122000  1.0  -0.0706
  C  C713  1  0.645030  0.141580  0.094070  1.0  0.7119
  C  C714  1  0.646700  0.131340  0.138820  1.0  -0.1686
  C  C715  1  0.643070  0.091660  0.151230  1.0  -0.0076
  C  C716  1  0.644400  0.080340  0.191690  1.0  -0.1657
  C  C717  1  0.651400  0.110600  0.220700  1.0  -0.0528
  C  C718  1  0.654900  0.150900  0.208600  1.0  -0.1149
  C  C719  1  0.652700  0.161200  0.168300  1.0  -0.0336
  C  C720  1  0.391100  0.055800  0.176000  1.0  0.7053
  C  C721  1  0.401800  0.022800  0.147000  1.0  -0.169
  C  C722  1  0.436920  0.000360  0.152730  1.0  0.0165
  C  C723  1  0.447680  0.968210  0.126430  1.0  -0.244
  C  C724  1  0.422300  0.960400  0.093800  1.0  -0.0291
  C  C725  1  0.388200  0.982700  0.087000  1.0  -0.0889
  C  C726  1  0.378000  0.014900  0.112800  1.0  -0.0673
  C  C727  1  0.854970  0.141580  0.405930  1.0  0.7115
  C  C728  1  0.853300  0.131340  0.361180  1.0  -0.1701
  C  C729  1  0.856930  0.091660  0.348770  1.0  -0.0064
  C  C730  1  0.855600  0.080340  0.308310  1.0  -0.1652
  C  C731  1  0.848600  0.110600  0.279300  1.0  -0.054
  C  C732  1  0.845100  0.150900  0.291400  1.0  -0.1153
  C  C733  1  0.847300  0.161200  0.331700  1.0  -0.0335
  C  C734  1  0.108900  0.055800  0.324000  1.0  0.7069
  C  C735  1  0.098200  0.022800  0.353000  1.0  -0.1707
  C  C736  1  0.063080  0.000360  0.347270  1.0  0.0159
  C  C737  1  0.052320  0.968210  0.373570  1.0  -0.2442
  C  C738  1  0.077700  0.960400  0.406200  1.0  -0.0304
  C  C739  1  0.111800  0.982700  0.413000  1.0  -0.0873
  C  C740  1  0.122000  0.014900  0.387200  1.0  -0.0655
  C  C741  1  0.645030  0.358420  0.405930  1.0  0.7126
  C  C742  1  0.646700  0.368660  0.361180  1.0  -0.1703
  C  C743  1  0.643070  0.408340  0.348770  1.0  -0.0069
  C  C744  1  0.644400  0.419660  0.308310  1.0  -0.166
  C  C745  1  0.651400  0.389400  0.279300  1.0  -0.055
  C  C746  1  0.654900  0.349100  0.291400  1.0  -0.1137
  C  C747  1  0.652700  0.338800  0.331700  1.0  -0.034
  C  C748  1  0.391100  0.444200  0.324000  1.0  0.7069
  C  C749  1  0.401800  0.477200  0.353000  1.0  -0.1722
  C  C750  1  0.436920  0.499640  0.347270  1.0  0.0148
  C  C751  1  0.447680  0.531790  0.373570  1.0  -0.2447
  C  C752  1  0.422300  0.539600  0.406200  1.0  -0.0293
  C  C753  1  0.388200  0.517300  0.413000  1.0  -0.0895
  C  C754  1  0.378000  0.485100  0.387200  1.0  -0.0667
  C  C755  1  0.854970  0.358420  0.094070  1.0  0.7111
  C  C756  1  0.853300  0.368660  0.138820  1.0  -0.1709
  C  C757  1  0.856930  0.408340  0.151230  1.0  -0.0067
  C  C758  1  0.855600  0.419660  0.191690  1.0  -0.1648
  C  C759  1  0.848600  0.389400  0.220700  1.0  -0.0528
  C  C760  1  0.845100  0.349100  0.208600  1.0  -0.1161
  C  C761  1  0.847300  0.338800  0.168300  1.0  -0.0329
  C  C762  1  0.108900  0.444200  0.176000  1.0  0.7081
  C  C763  1  0.098200  0.477200  0.147000  1.0  -0.1701
  C  C764  1  0.063080  0.499640  0.152730  1.0  0.0165
  C  C765  1  0.052320  0.531790  0.126430  1.0  -0.2441
  C  C766  1  0.077700  0.539600  0.093800  1.0  -0.029
  C  C767  1  0.111800  0.517300  0.087000  1.0  -0.0869
  C  C768  1  0.122000  0.485100  0.112800  1.0  -0.0655
  C  C769  1  0.645030  0.094070  0.358420  1.0  0.7092
  C  C770  1  0.646700  0.138820  0.368660  1.0  -0.1649
  C  C771  1  0.643070  0.151230  0.408340  1.0  -0.0059
  C  C772  1  0.644400  0.191690  0.419660  1.0  -0.1656
  C  C773  1  0.651400  0.220700  0.389400  1.0  -0.0505
  C  C774  1  0.654900  0.208600  0.349100  1.0  -0.1141
  C  C775  1  0.652700  0.168300  0.338800  1.0  -0.0362
  C  C776  1  0.391100  0.176000  0.444200  1.0  0.7076
  C  C777  1  0.401800  0.147000  0.477200  1.0  -0.1713
  C  C778  1  0.436920  0.152730  0.499640  1.0  0.0153
  C  C779  1  0.447680  0.126430  0.531790  1.0  -0.2436
  C  C780  1  0.422300  0.093800  0.539600  1.0  -0.027
  C  C781  1  0.388200  0.087000  0.517300  1.0  -0.0882
  C  C782  1  0.378000  0.112800  0.485100  1.0  -0.0667
  C  C783  1  0.854970  0.405930  0.358420  1.0  0.7086
  C  C784  1  0.853300  0.361180  0.368660  1.0  -0.1663
  C  C785  1  0.856930  0.348770  0.408340  1.0  -0.0061
  C  C786  1  0.855600  0.308310  0.419660  1.0  -0.1639
  C  C787  1  0.848600  0.279300  0.389400  1.0  -0.0503
  C  C788  1  0.845100  0.291400  0.349100  1.0  -0.1139
  C  C789  1  0.847300  0.331700  0.338800  1.0  -0.0347
  C  C790  1  0.108900  0.324000  0.444200  1.0  0.7058
  C  C791  1  0.098200  0.353000  0.477200  1.0  -0.1723
  C  C792  1  0.063080  0.347270  0.499640  1.0  0.0173
  C  C793  1  0.052320  0.373570  0.531790  1.0  -0.2435
  C  C794  1  0.077700  0.406200  0.539600  1.0  -0.0283
  C  C795  1  0.111800  0.413000  0.517300  1.0  -0.0869
  C  C796  1  0.122000  0.387200  0.485100  1.0  -0.0648
  C  C797  1  0.645030  0.405930  0.141580  1.0  0.7089
  C  C798  1  0.646700  0.361180  0.131340  1.0  -0.1667
  C  C799  1  0.643070  0.348770  0.091660  1.0  -0.0067
  C  C800  1  0.644400  0.308310  0.080340  1.0  -0.1655
  C  C801  1  0.651400  0.279300  0.110600  1.0  -0.0497
  C  C802  1  0.654900  0.291400  0.150900  1.0  -0.1159
  C  C803  1  0.652700  0.331700  0.161200  1.0  -0.0345
  C  C804  1  0.391100  0.324000  0.055800  1.0  0.7069
  C  C805  1  0.401800  0.353000  0.022800  1.0  -0.172
  C  C806  1  0.436920  0.347270  0.000360  1.0  0.0168
  C  C807  1  0.447680  0.373570  0.968210  1.0  -0.2446
  C  C808  1  0.422300  0.406200  0.960400  1.0  -0.0275
  C  C809  1  0.388200  0.413000  0.982700  1.0  -0.0897
  C  C810  1  0.378000  0.387200  0.014900  1.0  -0.0678
  C  C811  1  0.854970  0.094070  0.141580  1.0  0.7084
  C  C812  1  0.853300  0.138820  0.131340  1.0  -0.1664
  C  C813  1  0.856930  0.151230  0.091660  1.0  -0.005
  C  C814  1  0.855600  0.191690  0.080340  1.0  -0.1636
  C  C815  1  0.848600  0.220700  0.110600  1.0  -0.0498
  C  C816  1  0.845100  0.208600  0.150900  1.0  -0.1172
  C  C817  1  0.847300  0.168300  0.161200  1.0  -0.035
  C  C818  1  0.108900  0.176000  0.055800  1.0  0.7088
  C  C819  1  0.098200  0.147000  0.022800  1.0  -0.1724
  C  C820  1  0.063080  0.152730  0.000360  1.0  0.0156
  C  C821  1  0.052320  0.126430  0.968210  1.0  -0.2448
  C  C822  1  0.077700  0.093800  0.960400  1.0  -0.0268
  C  C823  1  0.111800  0.087000  0.982700  1.0  -0.0872
  C  C824  1  0.122000  0.112800  0.014900  1.0  -0.066
  C  C825  1  0.094070  0.141580  0.854970  1.0  0.7078
  C  C826  1  0.138820  0.131340  0.853300  1.0  -0.1662
  C  C827  1  0.151230  0.091660  0.856930  1.0  -0.0084
  C  C828  1  0.191690  0.080340  0.855600  1.0  -0.166
  C  C829  1  0.220700  0.110600  0.848600  1.0  -0.0542
  C  C830  1  0.208600  0.150900  0.845100  1.0  -0.1126
  C  C831  1  0.168300  0.161200  0.847300  1.0  -0.0351
  C  C832  1  0.176000  0.055800  0.108900  1.0  0.7072
  C  C833  1  0.147000  0.022800  0.098200  1.0  -0.1695
  C  C834  1  0.152730  0.000360  0.063080  1.0  0.0168
  C  C835  1  0.126430  0.968210  0.052320  1.0  -0.2456
  C  C836  1  0.093800  0.960400  0.077700  1.0  -0.0259
  C  C837  1  0.087000  0.982700  0.111800  1.0  -0.0881
  C  C838  1  0.112800  0.014900  0.122000  1.0  -0.0691
  C  C839  1  0.405930  0.141580  0.645030  1.0  0.7081
  C  C840  1  0.361180  0.131340  0.646700  1.0  -0.1663
  C  C841  1  0.348770  0.091660  0.643070  1.0  -0.0073
  C  C842  1  0.308310  0.080340  0.644400  1.0  -0.1645
  C  C843  1  0.279300  0.110600  0.651400  1.0  -0.0535
  C  C844  1  0.291400  0.150900  0.654900  1.0  -0.1144
  C  C845  1  0.331700  0.161200  0.652700  1.0  -0.0349
  C  C846  1  0.324000  0.055800  0.391100  1.0  0.7074
  C  C847  1  0.353000  0.022800  0.401800  1.0  -0.1675
  C  C848  1  0.347270  0.000360  0.436920  1.0  0.0164
  C  C849  1  0.373570  0.968210  0.447680  1.0  -0.2442
  C  C850  1  0.406200  0.960400  0.422300  1.0  -0.0265
  C  C851  1  0.413000  0.982700  0.388200  1.0  -0.0866
  C  C852  1  0.387200  0.014900  0.378000  1.0  -0.0691
  C  C853  1  0.405930  0.358420  0.854970  1.0  0.7088
  C  C854  1  0.361180  0.368660  0.853300  1.0  -0.1662
  C  C855  1  0.348770  0.408340  0.856930  1.0  -0.0075
  C  C856  1  0.308310  0.419660  0.855600  1.0  -0.1641
  C  C857  1  0.279300  0.389400  0.848600  1.0  -0.0544
  C  C858  1  0.291400  0.349100  0.845100  1.0  -0.114
  C  C859  1  0.331700  0.338800  0.847300  1.0  -0.0343
  C  C860  1  0.324000  0.444200  0.108900  1.0  0.707
  C  C861  1  0.353000  0.477200  0.098200  1.0  -0.1673
  C  C862  1  0.347270  0.499640  0.063080  1.0  0.0163
  C  C863  1  0.373570  0.531790  0.052320  1.0  -0.2444
  C  C864  1  0.406200  0.539600  0.077700  1.0  -0.0259
  C  C865  1  0.413000  0.517300  0.111800  1.0  -0.0875
  C  C866  1  0.387200  0.485100  0.122000  1.0  -0.0689
  C  C867  1  0.094070  0.358420  0.645030  1.0  0.7069
  C  C868  1  0.138820  0.368660  0.646700  1.0  -0.1675
  C  C869  1  0.151230  0.408340  0.643070  1.0  -0.0073
  C  C870  1  0.191690  0.419660  0.644400  1.0  -0.1655
  C  C871  1  0.220700  0.389400  0.651400  1.0  -0.0543
  C  C872  1  0.208600  0.349100  0.654900  1.0  -0.1133
  C  C873  1  0.168300  0.338800  0.652700  1.0  -0.035
  C  C874  1  0.176000  0.444200  0.391100  1.0  0.7062
  C  C875  1  0.147000  0.477200  0.401800  1.0  -0.1701
  C  C876  1  0.152730  0.499640  0.436920  1.0  0.0169
  C  C877  1  0.126430  0.531790  0.447680  1.0  -0.2456
  C  C878  1  0.093800  0.539600  0.422300  1.0  -0.0263
  C  C879  1  0.087000  0.517300  0.388200  1.0  -0.0886
  C  C880  1  0.112800  0.485100  0.378000  1.0  -0.0692
  C  C881  1  0.141580  0.645030  0.405930  1.0  0.7108
  C  C882  1  0.131340  0.646700  0.361180  1.0  -0.171
  C  C883  1  0.091660  0.643070  0.348770  1.0  -0.0069
  C  C884  1  0.080340  0.644400  0.308310  1.0  -0.165
  C  C885  1  0.110600  0.651400  0.279300  1.0  -0.0549
  C  C886  1  0.150900  0.654900  0.291400  1.0  -0.1116
  C  C887  1  0.161200  0.652700  0.331700  1.0  -0.0359
  C  C888  1  0.055800  0.391100  0.324000  1.0  0.7037
  C  C889  1  0.022800  0.401800  0.353000  1.0  -0.1701
  C  C890  1  0.000360  0.436920  0.347270  1.0  0.0157
  C  C891  1  0.968210  0.447680  0.373570  1.0  -0.2445
  C  C892  1  0.960400  0.422300  0.406200  1.0  -0.0291
  C  C893  1  0.982700  0.388200  0.413000  1.0  -0.0858
  C  C894  1  0.014900  0.378000  0.387200  1.0  -0.0655
  C  C895  1  0.141580  0.854970  0.094070  1.0  0.7094
  C  C896  1  0.131340  0.853300  0.138820  1.0  -0.1694
  C  C897  1  0.091660  0.856930  0.151230  1.0  -0.0072
  C  C898  1  0.080340  0.855600  0.191690  1.0  -0.1643
  C  C899  1  0.110600  0.848600  0.220700  1.0  -0.0537
  C  C900  1  0.150900  0.845100  0.208600  1.0  -0.113
  C  C901  1  0.161200  0.847300  0.168300  1.0  -0.0369
  C  C902  1  0.055800  0.108900  0.176000  1.0  0.7055
  C  C903  1  0.022800  0.098200  0.147000  1.0  -0.1688
  C  C904  1  0.000360  0.063080  0.152730  1.0  0.017
  C  C905  1  0.968210  0.052320  0.126430  1.0  -0.2438
  C  C906  1  0.960400  0.077700  0.093800  1.0  -0.0281
  C  C907  1  0.982700  0.111800  0.087000  1.0  -0.0859
  C  C908  1  0.014900  0.122000  0.112800  1.0  -0.0647
  C  C909  1  0.358420  0.645030  0.094070  1.0  0.7104
  C  C910  1  0.368660  0.646700  0.138820  1.0  -0.1704
  C  C911  1  0.408340  0.643070  0.151230  1.0  -0.0071
  C  C912  1  0.419660  0.644400  0.191690  1.0  -0.1643
  C  C913  1  0.389400  0.651400  0.220700  1.0  -0.0529
  C  C914  1  0.349100  0.654900  0.208600  1.0  -0.1147
  C  C915  1  0.338800  0.652700  0.168300  1.0  -0.0348
  C  C916  1  0.444200  0.391100  0.176000  1.0  0.7066
  C  C917  1  0.477200  0.401800  0.147000  1.0  -0.1692
  C  C918  1  0.499640  0.436920  0.152730  1.0  0.0159
  C  C919  1  0.531790  0.447680  0.126430  1.0  -0.2435
  C  C920  1  0.539600  0.422300  0.093800  1.0  -0.0277
  C  C921  1  0.517300  0.388200  0.087000  1.0  -0.085
  C  C922  1  0.485100  0.378000  0.112800  1.0  -0.0655
  C  C923  1  0.358420  0.854970  0.405930  1.0  0.7101
  C  C924  1  0.368660  0.853300  0.361180  1.0  -0.1704
  C  C925  1  0.408340  0.856930  0.348770  1.0  -0.007
  C  C926  1  0.419660  0.855600  0.308310  1.0  -0.1646
  C  C927  1  0.389400  0.848600  0.279300  1.0  -0.054
  C  C928  1  0.349100  0.845100  0.291400  1.0  -0.1133
  C  C929  1  0.338800  0.847300  0.331700  1.0  -0.0342
  C  C930  1  0.444200  0.108900  0.324000  1.0  0.7054
  C  C931  1  0.477200  0.098200  0.353000  1.0  -0.1705
  C  C932  1  0.499640  0.063080  0.347270  1.0  0.0149
  C  C933  1  0.531790  0.052320  0.373570  1.0  -0.2444
  C  C934  1  0.539600  0.077700  0.406200  1.0  -0.0291
  C  C935  1  0.517300  0.111800  0.413000  1.0  -0.0859
  C  C936  1  0.485100  0.122000  0.387200  1.0  -0.065
  C  C937  1  0.905930  0.354970  0.858420  1.0  0.7084
  C  C938  1  0.861180  0.353300  0.868660  1.0  -0.1656
  C  C939  1  0.848770  0.356930  0.908340  1.0  -0.0065
  C  C940  1  0.808310  0.355600  0.919660  1.0  -0.1634
  C  C941  1  0.779300  0.348600  0.889400  1.0  -0.0523
  C  C942  1  0.791400  0.345100  0.849100  1.0  -0.1124
  C  C943  1  0.831700  0.347300  0.838800  1.0  -0.0345
  C  C944  1  0.824000  0.608900  0.944200  1.0  0.7081
  C  C945  1  0.853000  0.598200  0.977200  1.0  -0.1709
  C  C946  1  0.847270  0.563080  0.999640  1.0  0.016
  C  C947  1  0.873570  0.552320  0.031790  1.0  -0.2437
  C  C948  1  0.906200  0.577700  0.039600  1.0  -0.0276
  C  C949  1  0.913000  0.611800  0.017300  1.0  -0.0855
  C  C950  1  0.887200  0.622000  0.985100  1.0  -0.0628
  C  C951  1  0.594070  0.145030  0.858420  1.0  0.7078
  C  C952  1  0.638820  0.146700  0.868660  1.0  -0.1668
  C  C953  1  0.651230  0.143070  0.908340  1.0  -0.0069
  C  C954  1  0.691690  0.144400  0.919660  1.0  -0.1647
  C  C955  1  0.720700  0.151400  0.889400  1.0  -0.0527
  C  C956  1  0.708600  0.154900  0.849100  1.0  -0.1113
  C  C957  1  0.668300  0.152700  0.838800  1.0  -0.0352
  C  C958  1  0.676000  0.891100  0.944200  1.0  0.7059
  C  C959  1  0.647000  0.901800  0.977200  1.0  -0.1723
  C  C960  1  0.652730  0.936920  0.999640  1.0  0.0167
  C  C961  1  0.626430  0.947680  0.031790  1.0  -0.2444
  C  C962  1  0.593800  0.922300  0.039600  1.0  -0.0273
  C  C963  1  0.587000  0.888200  0.017300  1.0  -0.0866
  C  C964  1  0.612800  0.878000  0.985100  1.0  -0.0637
  C  C965  1  0.594070  0.354970  0.641580  1.0  0.7076
  C  C966  1  0.638820  0.353300  0.631340  1.0  -0.1676
  C  C967  1  0.651230  0.356930  0.591660  1.0  -0.0067
  C  C968  1  0.691690  0.355600  0.580340  1.0  -0.1639
  C  C969  1  0.720700  0.348600  0.610600  1.0  -0.0522
  C  C970  1  0.708600  0.345100  0.650900  1.0  -0.1136
  C  C971  1  0.668300  0.347300  0.661200  1.0  -0.0349
  C  C972  1  0.676000  0.608900  0.555800  1.0  0.7096
  C  C973  1  0.647000  0.598200  0.522800  1.0  -0.1722
  C  C974  1  0.652730  0.563080  0.500360  1.0  0.0168
  C  C975  1  0.626430  0.552320  0.468210  1.0  -0.2454
  C  C976  1  0.593800  0.577700  0.460400  1.0  -0.0267
  C  C977  1  0.587000  0.611800  0.482700  1.0  -0.0878
  C  C978  1  0.612800  0.622000  0.514900  1.0  -0.0638
  C  C979  1  0.905930  0.145030  0.641580  1.0  0.7089
  C  C980  1  0.861180  0.146700  0.631340  1.0  -0.1671
  C  C981  1  0.848770  0.143070  0.591660  1.0  -0.0062
  C  C982  1  0.808310  0.144400  0.580340  1.0  -0.1634
  C  C983  1  0.779300  0.151400  0.610600  1.0  -0.0516
  C  C984  1  0.791400  0.154900  0.650900  1.0  -0.1152
  C  C985  1  0.831700  0.152700  0.661200  1.0  -0.0345
  C  C986  1  0.824000  0.891100  0.555800  1.0  0.709
  C  C987  1  0.853000  0.901800  0.522800  1.0  -0.1715
  C  C988  1  0.847270  0.936920  0.500360  1.0  0.0163
  C  C989  1  0.873570  0.947680  0.468210  1.0  -0.2445
  C  C990  1  0.906200  0.922300  0.460400  1.0  -0.027
  C  C991  1  0.913000  0.888200  0.482700  1.0  -0.0863
  C  C992  1  0.887200  0.878000  0.514900  1.0  -0.0646
  C  C993  1  0.858420  0.905930  0.354970  1.0  0.7074
  C  C994  1  0.868660  0.861180  0.353300  1.0  -0.1665
  C  C995  1  0.908340  0.848770  0.356930  1.0  -0.0078
  C  C996  1  0.919660  0.808310  0.355600  1.0  -0.1656
  C  C997  1  0.889400  0.779300  0.348600  1.0  -0.0523
  C  C998  1  0.849100  0.791400  0.345100  1.0  -0.1144
  C  C999  1  0.838800  0.831700  0.347300  1.0  -0.0361
  C  C1000  1  0.944200  0.824000  0.608900  1.0  0.7063
  C  C1001  1  0.977200  0.853000  0.598200  1.0  -0.1687
  C  C1002  1  0.999640  0.847270  0.563080  1.0  0.0173
  C  C1003  1  0.031790  0.873570  0.552320  1.0  -0.2443
  C  C1004  1  0.039600  0.906200  0.577700  1.0  -0.0256
  C  C1005  1  0.017300  0.913000  0.611800  1.0  -0.0867
  C  C1006  1  0.985100  0.887200  0.622000  1.0  -0.0702
  C  C1007  1  0.858420  0.594070  0.145030  1.0  0.7067
  C  C1008  1  0.868660  0.638820  0.146700  1.0  -0.1659
  C  C1009  1  0.908340  0.651230  0.143070  1.0  -0.0064
  C  C1010  1  0.919660  0.691690  0.144400  1.0  -0.1655
  C  C1011  1  0.889400  0.720700  0.151400  1.0  -0.0528
  C  C1012  1  0.849100  0.708600  0.154900  1.0  -0.1145
  C  C1013  1  0.838800  0.668300  0.152700  1.0  -0.0356
  C  C1014  1  0.944200  0.676000  0.891100  1.0  0.7056
  C  C1015  1  0.977200  0.647000  0.901800  1.0  -0.1684
  C  C1016  1  0.999640  0.652730  0.936920  1.0  0.0154
  C  C1017  1  0.031790  0.626430  0.947680  1.0  -0.2438
  C  C1018  1  0.039600  0.593800  0.922300  1.0  -0.0253
  C  C1019  1  0.017300  0.587000  0.888200  1.0  -0.0855
  C  C1020  1  0.985100  0.612800  0.878000  1.0  -0.0695
  C  C1021  1  0.641580  0.594070  0.354970  1.0  0.7075
  C  C1022  1  0.631340  0.638820  0.353300  1.0  -0.1654
  C  C1023  1  0.591660  0.651230  0.356930  1.0  -0.0073
  C  C1024  1  0.580340  0.691690  0.355600  1.0  -0.1649
  C  C1025  1  0.610600  0.720700  0.348600  1.0  -0.0529
  C  C1026  1  0.650900  0.708600  0.345100  1.0  -0.1124
  C  C1027  1  0.661200  0.668300  0.347300  1.0  -0.0377
  C  C1028  1  0.555800  0.676000  0.608900  1.0  0.7041
  C  C1029  1  0.522800  0.647000  0.598200  1.0  -0.1676
  C  C1030  1  0.500360  0.652730  0.563080  1.0  0.0165
  C  C1031  1  0.468210  0.626430  0.552320  1.0  -0.2448
  C  C1032  1  0.460400  0.593800  0.577700  1.0  -0.0251
  C  C1033  1  0.482700  0.587000  0.611800  1.0  -0.0872
  C  C1034  1  0.514900  0.612800  0.622000  1.0  -0.0695
  C  C1035  1  0.641580  0.905930  0.145030  1.0  0.707
  C  C1036  1  0.631340  0.861180  0.146700  1.0  -0.1664
  C  C1037  1  0.591660  0.848770  0.143070  1.0  -0.007
  C  C1038  1  0.580340  0.808310  0.144400  1.0  -0.1651
  C  C1039  1  0.610600  0.779300  0.151400  1.0  -0.0533
  C  C1040  1  0.650900  0.791400  0.154900  1.0  -0.113
  C  C1041  1  0.661200  0.831700  0.152700  1.0  -0.0378
  C  C1042  1  0.555800  0.824000  0.891100  1.0  0.7028
  C  C1043  1  0.522800  0.853000  0.901800  1.0  -0.1686
  C  C1044  1  0.500360  0.847270  0.936920  1.0  0.0176
  C  C1045  1  0.468210  0.873570  0.947680  1.0  -0.2443
  C  C1046  1  0.460400  0.906200  0.922300  1.0  -0.0261
  C  C1047  1  0.482700  0.913000  0.888200  1.0  -0.0873
  C  C1048  1  0.514900  0.887200  0.878000  1.0  -0.0701
  C  C1049  1  0.354970  0.858420  0.905930  1.0  0.7112
  C  C1050  1  0.353300  0.868660  0.861180  1.0  -0.1702
  C  C1051  1  0.356930  0.908340  0.848770  1.0  -0.0063
  C  C1052  1  0.355600  0.919660  0.808310  1.0  -0.1642
  C  C1053  1  0.348600  0.889400  0.779300  1.0  -0.0542
  C  C1054  1  0.345100  0.849100  0.791400  1.0  -0.1145
  C  C1055  1  0.347300  0.838800  0.831700  1.0  -0.0333
  C  C1056  1  0.608900  0.944200  0.824000  1.0  0.7066
  C  C1057  1  0.598200  0.977200  0.853000  1.0  -0.1721
  C  C1058  1  0.563080  0.999640  0.847270  1.0  0.0158
  C  C1059  1  0.552320  0.031790  0.873570  1.0  -0.2446
  C  C1060  1  0.577700  0.039600  0.906200  1.0  -0.0296
  C  C1061  1  0.611800  0.017300  0.913000  1.0  -0.0876
  C  C1062  1  0.622000  0.985100  0.887200  1.0  -0.0655
  C  C1063  1  0.145030  0.858420  0.594070  1.0  0.7113
  C  C1064  1  0.146700  0.868660  0.638820  1.0  -0.1697
  C  C1065  1  0.143070  0.908340  0.651230  1.0  -0.0075
  C  C1066  1  0.144400  0.919660  0.691690  1.0  -0.1662
  C  C1067  1  0.151400  0.889400  0.720700  1.0  -0.0527
  C  C1068  1  0.154900  0.849100  0.708600  1.0  -0.1152
  C  C1069  1  0.152700  0.838800  0.668300  1.0  -0.0334
  C  C1070  1  0.891100  0.944200  0.676000  1.0  0.7063
  C  C1071  1  0.901800  0.977200  0.647000  1.0  -0.1689
  C  C1072  1  0.936920  0.999640  0.652730  1.0  0.0163
  C  C1073  1  0.947680  0.031790  0.626430  1.0  -0.2444
  C  C1074  1  0.922300  0.039600  0.593800  1.0  -0.0288
  C  C1075  1  0.888200  0.017300  0.587000  1.0  -0.0892
  C  C1076  1  0.878000  0.985100  0.612800  1.0  -0.0668
  C  C1077  1  0.354970  0.641580  0.594070  1.0  0.7119
  C  C1078  1  0.353300  0.631340  0.638820  1.0  -0.1695
  C  C1079  1  0.356930  0.591660  0.651230  1.0  -0.0071
  C  C1080  1  0.355600  0.580340  0.691690  1.0  -0.1644
  C  C1081  1  0.348600  0.610600  0.720700  1.0  -0.0526
  C  C1082  1  0.345100  0.650900  0.708600  1.0  -0.1165
  C  C1083  1  0.347300  0.661200  0.668300  1.0  -0.0339
  C  C1084  1  0.608900  0.555800  0.676000  1.0  0.7073
  C  C1085  1  0.598200  0.522800  0.647000  1.0  -0.1709
  C  C1086  1  0.563080  0.500360  0.652730  1.0  0.0168
  C  C1087  1  0.552320  0.468210  0.626430  1.0  -0.2433
  C  C1088  1  0.577700  0.460400  0.593800  1.0  -0.0293
  C  C1089  1  0.611800  0.482700  0.587000  1.0  -0.0867
  C  C1090  1  0.622000  0.514900  0.612800  1.0  -0.0655
  C  C1091  1  0.145030  0.641580  0.905930  1.0  0.7127
  C  C1092  1  0.146700  0.631340  0.861180  1.0  -0.1701
  C  C1093  1  0.143070  0.591660  0.848770  1.0  -0.0069
  C  C1094  1  0.144400  0.580340  0.808310  1.0  -0.1667
  C  C1095  1  0.151400  0.610600  0.779300  1.0  -0.0548
  C  C1096  1  0.154900  0.650900  0.791400  1.0  -0.1142
  C  C1097  1  0.152700  0.661200  0.831700  1.0  -0.0335
  C  C1098  1  0.891100  0.555800  0.824000  1.0  0.7066
  C  C1099  1  0.901800  0.522800  0.853000  1.0  -0.1699
  C  C1100  1  0.936920  0.500360  0.847270  1.0  0.0149
  C  C1101  1  0.947680  0.468210  0.873570  1.0  -0.2448
  C  C1102  1  0.922300  0.460400  0.906200  1.0  -0.0303
  C  C1103  1  0.888200  0.482700  0.913000  1.0  -0.089
  C  C1104  1  0.878000  0.514900  0.887200  1.0  -0.0671
  C  C1105  1  0.354970  0.905930  0.641580  1.0  0.7088
  C  C1106  1  0.353300  0.861180  0.631340  1.0  -0.1671
  C  C1107  1  0.356930  0.848770  0.591660  1.0  -0.0059
  C  C1108  1  0.355600  0.808310  0.580340  1.0  -0.164
  C  C1109  1  0.348600  0.779300  0.610600  1.0  -0.0494
  C  C1110  1  0.345100  0.791400  0.650900  1.0  -0.1167
  C  C1111  1  0.347300  0.831700  0.661200  1.0  -0.0345
  C  C1112  1  0.608900  0.824000  0.555800  1.0  0.7101
  C  C1113  1  0.598200  0.853000  0.522800  1.0  -0.1726
  C  C1114  1  0.563080  0.847270  0.500360  1.0  0.0179
  C  C1115  1  0.552320  0.873570  0.468210  1.0  -0.2448
  C  C1116  1  0.577700  0.906200  0.460400  1.0  -0.0276
  C  C1117  1  0.611800  0.913000  0.482700  1.0  -0.0877
  C  C1118  1  0.622000  0.887200  0.514900  1.0  -0.0659
  C  C1119  1  0.145030  0.594070  0.641580  1.0  0.7089
  C  C1120  1  0.146700  0.638820  0.631340  1.0  -0.1653
  C  C1121  1  0.143070  0.651230  0.591660  1.0  -0.0056
  C  C1122  1  0.144400  0.691690  0.580340  1.0  -0.1651
  C  C1123  1  0.151400  0.720700  0.610600  1.0  -0.0498
  C  C1124  1  0.154900  0.708600  0.650900  1.0  -0.1155
  C  C1125  1  0.152700  0.668300  0.661200  1.0  -0.0351
  C  C1126  1  0.891100  0.676000  0.555800  1.0  0.7073
  C  C1127  1  0.901800  0.647000  0.522800  1.0  -0.171
  C  C1128  1  0.936920  0.652730  0.500360  1.0  0.0152
  C  C1129  1  0.947680  0.626430  0.468210  1.0  -0.2445
  C  C1130  1  0.922300  0.593800  0.460400  1.0  -0.0267
  C  C1131  1  0.888200  0.587000  0.482700  1.0  -0.0889
  C  C1132  1  0.878000  0.612800  0.514900  1.0  -0.0678
  C  C1133  1  0.354970  0.594070  0.858420  1.0  0.7086
  C  C1134  1  0.353300  0.638820  0.868660  1.0  -0.1659
  C  C1135  1  0.356930  0.651230  0.908340  1.0  -0.0055
  C  C1136  1  0.355600  0.691690  0.919660  1.0  -0.1641
  C  C1137  1  0.348600  0.720700  0.889400  1.0  -0.0505
  C  C1138  1  0.345100  0.708600  0.849100  1.0  -0.115
  C  C1139  1  0.347300  0.668300  0.838800  1.0  -0.0348
  C  C1140  1  0.608900  0.676000  0.944200  1.0  0.7067
  C  C1141  1  0.598200  0.647000  0.977200  1.0  -0.1718
  C  C1142  1  0.563080  0.652730  0.999640  1.0  0.0158
  C  C1143  1  0.552320  0.626430  0.031790  1.0  -0.2436
  C  C1144  1  0.577700  0.593800  0.039600  1.0  -0.0271
  C  C1145  1  0.611800  0.587000  0.017300  1.0  -0.0865
  C  C1146  1  0.622000  0.612800  0.985100  1.0  -0.0652
  C  C1147  1  0.145030  0.905930  0.858420  1.0  0.7089
  C  C1148  1  0.146700  0.861180  0.868660  1.0  -0.1661
  C  C1149  1  0.143070  0.848770  0.908340  1.0  -0.0065
  C  C1150  1  0.144400  0.808310  0.919660  1.0  -0.1656
  C  C1151  1  0.151400  0.779300  0.889400  1.0  -0.0507
  C  C1152  1  0.154900  0.791400  0.849100  1.0  -0.1133
  C  C1153  1  0.152700  0.831700  0.838800  1.0  -0.0357
  C  C1154  1  0.891100  0.824000  0.944200  1.0  0.7054
  C  C1155  1  0.901800  0.853000  0.977200  1.0  -0.1726
  C  C1156  1  0.936920  0.847270  0.999640  1.0  0.0162
  C  C1157  1  0.947680  0.873570  0.031790  1.0  -0.2436
  C  C1158  1  0.922300  0.906200  0.039600  1.0  -0.0282
  C  C1159  1  0.888200  0.913000  0.017300  1.0  -0.0891
  C  C1160  1  0.878000  0.887200  0.985100  1.0  -0.0666
  C  C1161  1  0.905930  0.858420  0.145030  1.0  0.7081
  C  C1162  1  0.861180  0.868660  0.146700  1.0  -0.1664
  C  C1163  1  0.848770  0.908340  0.143070  1.0  -0.0068
  C  C1164  1  0.808310  0.919660  0.144400  1.0  -0.164
  C  C1165  1  0.779300  0.889400  0.151400  1.0  -0.0542
  C  C1166  1  0.791400  0.849100  0.154900  1.0  -0.1143
  C  C1167  1  0.831700  0.838800  0.152700  1.0  -0.0343
  C  C1168  1  0.824000  0.944200  0.891100  1.0  0.7071
  C  C1169  1  0.853000  0.977200  0.901800  1.0  -0.1695
  C  C1170  1  0.847270  0.999640  0.936920  1.0  0.0163
  C  C1171  1  0.873570  0.031790  0.947680  1.0  -0.2448
  C  C1172  1  0.906200  0.039600  0.922300  1.0  -0.0262
  C  C1173  1  0.913000  0.017300  0.888200  1.0  -0.087
  C  C1174  1  0.887200  0.985100  0.878000  1.0  -0.0691
  C  C1175  1  0.594070  0.858420  0.354970  1.0  0.7078
  C  C1176  1  0.638820  0.868660  0.353300  1.0  -0.168
  C  C1177  1  0.651230  0.908340  0.356930  1.0  -0.0083
  C  C1178  1  0.691690  0.919660  0.355600  1.0  -0.1658
  C  C1179  1  0.720700  0.889400  0.348600  1.0  -0.0545
  C  C1180  1  0.708600  0.849100  0.345100  1.0  -0.1126
  C  C1181  1  0.668300  0.838800  0.347300  1.0  -0.0348
  C  C1182  1  0.676000  0.944200  0.608900  1.0  0.7076
  C  C1183  1  0.647000  0.977200  0.598200  1.0  -0.1687
  C  C1184  1  0.652730  0.999640  0.563080  1.0  0.0167
  C  C1185  1  0.626430  0.031790  0.552320  1.0  -0.2455
  C  C1186  1  0.593800  0.039600  0.577700  1.0  -0.0259
  C  C1187  1  0.587000  0.017300  0.611800  1.0  -0.0887
  C  C1188  1  0.612800  0.985100  0.622000  1.0  -0.0693
  C  C1189  1  0.594070  0.641580  0.145030  1.0  0.7067
  C  C1190  1  0.638820  0.631340  0.146700  1.0  -0.1662
  C  C1191  1  0.651230  0.591660  0.143070  1.0  -0.0077
  C  C1192  1  0.691690  0.580340  0.144400  1.0  -0.1657
  C  C1193  1  0.720700  0.610600  0.151400  1.0  -0.0544
  C  C1194  1  0.708600  0.650900  0.154900  1.0  -0.113
  C  C1195  1  0.668300  0.661200  0.152700  1.0  -0.0351
  C  C1196  1  0.676000  0.555800  0.891100  1.0  0.7066
  C  C1197  1  0.647000  0.522800  0.901800  1.0  -0.169
  C  C1198  1  0.652730  0.500360  0.936920  1.0  0.0169
  C  C1199  1  0.626430  0.468210  0.947680  1.0  -0.2452
  C  C1200  1  0.593800  0.460400  0.922300  1.0  -0.0263
  C  C1201  1  0.587000  0.482700  0.888200  1.0  -0.088
  C  C1202  1  0.612800  0.514900  0.878000  1.0  -0.0691
  C  C1203  1  0.905930  0.641580  0.354970  1.0  0.7089
  C  C1204  1  0.861180  0.631340  0.353300  1.0  -0.1658
  C  C1205  1  0.848770  0.591660  0.356930  1.0  -0.0079
  C  C1206  1  0.808310  0.580340  0.355600  1.0  -0.1646
  C  C1207  1  0.779300  0.610600  0.348600  1.0  -0.0535
  C  C1208  1  0.791400  0.650900  0.345100  1.0  -0.1143
  C  C1209  1  0.831700  0.661200  0.347300  1.0  -0.0348
  C  C1210  1  0.824000  0.555800  0.608900  1.0  0.7064
  C  C1211  1  0.853000  0.522800  0.598200  1.0  -0.167
  C  C1212  1  0.847270  0.500360  0.563080  1.0  0.0166
  C  C1213  1  0.873570  0.468210  0.552320  1.0  -0.2447
  C  C1214  1  0.906200  0.460400  0.577700  1.0  -0.0261
  C  C1215  1  0.913000  0.482700  0.611800  1.0  -0.087
  C  C1216  1  0.887200  0.514900  0.622000  1.0  -0.069
  C  C1217  1  0.858420  0.354970  0.594070  1.0  0.7097
  C  C1218  1  0.868660  0.353300  0.638820  1.0  -0.1705
  C  C1219  1  0.908340  0.356930  0.651230  1.0  -0.0071
  C  C1220  1  0.919660  0.355600  0.691690  1.0  -0.1642
  C  C1221  1  0.889400  0.348600  0.720700  1.0  -0.0526
  C  C1222  1  0.849100  0.345100  0.708600  1.0  -0.1148
  C  C1223  1  0.838800  0.347300  0.668300  1.0  -0.0347
  C  C1224  1  0.944200  0.608900  0.676000  1.0  0.7038
  C  C1225  1  0.977200  0.598200  0.647000  1.0  -0.1692
  C  C1226  1  0.999640  0.563080  0.652730  1.0  0.0161
  C  C1227  1  0.031790  0.552320  0.626430  1.0  -0.2435
  C  C1228  1  0.039600  0.577700  0.593800  1.0  -0.0281
  C  C1229  1  0.017300  0.611800  0.587000  1.0  -0.0851
  C  C1230  1  0.985100  0.622000  0.612800  1.0  -0.0649
  C  C1231  1  0.858420  0.145030  0.905930  1.0  0.7099
  C  C1232  1  0.868660  0.146700  0.861180  1.0  -0.1704
  C  C1233  1  0.908340  0.143070  0.848770  1.0  -0.0068
  C  C1234  1  0.919660  0.144400  0.808310  1.0  -0.1649
  C  C1235  1  0.889400  0.151400  0.779300  1.0  -0.0542
  C  C1236  1  0.849100  0.154900  0.791400  1.0  -0.1132
  C  C1237  1  0.838800  0.152700  0.831700  1.0  -0.0343
  C  C1238  1  0.944200  0.891100  0.824000  1.0  0.7061
  C  C1239  1  0.977200  0.901800  0.853000  1.0  -0.1715
  C  C1240  1  0.999640  0.936920  0.847270  1.0  0.0149
  C  C1241  1  0.031790  0.947680  0.873570  1.0  -0.244
  C  C1242  1  0.039600  0.922300  0.906200  1.0  -0.0286
  C  C1243  1  0.017300  0.888200  0.913000  1.0  -0.0849
  C  C1244  1  0.985100  0.878000  0.887200  1.0  -0.0653
  C  C1245  1  0.641580  0.354970  0.905930  1.0  0.7108
  C  C1246  1  0.631340  0.353300  0.861180  1.0  -0.1708
  C  C1247  1  0.591660  0.356930  0.848770  1.0  -0.0069
  C  C1248  1  0.580340  0.355600  0.808310  1.0  -0.1649
  C  C1249  1  0.610600  0.348600  0.779300  1.0  -0.0545
  C  C1250  1  0.650900  0.345100  0.791400  1.0  -0.1117
  C  C1251  1  0.661200  0.347300  0.831700  1.0  -0.036
  C  C1252  1  0.555800  0.608900  0.824000  1.0  0.704
  C  C1253  1  0.522800  0.598200  0.853000  1.0  -0.1691
  C  C1254  1  0.500360  0.563080  0.847270  1.0  0.0157
  C  C1255  1  0.468210  0.552320  0.873570  1.0  -0.2445
  C  C1256  1  0.460400  0.577700  0.906200  1.0  -0.0291
  C  C1257  1  0.482700  0.611800  0.913000  1.0  -0.0866
  C  C1258  1  0.514900  0.622000  0.887200  1.0  -0.0645
  C  C1259  1  0.641580  0.145030  0.594070  1.0  0.7102
  C  C1260  1  0.631340  0.146700  0.638820  1.0  -0.1694
  C  C1261  1  0.591660  0.143070  0.651230  1.0  -0.0075
  C  C1262  1  0.580340  0.144400  0.691690  1.0  -0.1641
  C  C1263  1  0.610600  0.151400  0.720700  1.0  -0.054
  C  C1264  1  0.650900  0.154900  0.708600  1.0  -0.1129
  C  C1265  1  0.661200  0.152700  0.668300  1.0  -0.0367
  C  C1266  1  0.555800  0.891100  0.676000  1.0  0.7067
  C  C1267  1  0.522800  0.901800  0.647000  1.0  -0.1687
  C  C1268  1  0.500360  0.936920  0.652730  1.0  0.0169
  C  C1269  1  0.468210  0.947680  0.626430  1.0  -0.244
  C  C1270  1  0.460400  0.922300  0.593800  1.0  -0.0281
  C  C1271  1  0.482700  0.888200  0.587000  1.0  -0.0858
  C  C1272  1  0.514900  0.878000  0.612800  1.0  -0.0658
  O  O1273  1  0.084170  0.644830  0.178480  1.0  -0.5685
  O  O1274  1  0.069990  0.643440  0.112230  1.0  -0.6511
  O  O1275  1  0.249920  0.638930  0.022290  1.0  -0.833
  O  O1276  1  0.184470  0.673930  0.004810  1.0  -0.8058
  O  O1277  1  0.186230  0.597450  0.013970  1.0  -0.7277
  O  O1278  1  0.206130  0.414600  0.061400  1.0  -0.5729
  O  O1279  1  0.172500  0.358200  0.074400  1.0  -0.4394
  O  O1280  1  0.141340  0.526770  0.974810  1.0  -0.8249
  O  O1281  1  0.173940  0.491140  0.916350  1.0  -0.8062
  O  O1282  1  0.097880  0.504280  0.915150  1.0  -0.7715
  O  O1283  1  0.415830  0.855170  0.178480  1.0  -0.5682
  O  O1284  1  0.430010  0.856560  0.112230  1.0  -0.6489
  O  O1285  1  0.250080  0.861070  0.022290  1.0  -0.8312
  O  O1286  1  0.315530  0.826070  0.004810  1.0  -0.8067
  O  O1287  1  0.313770  0.902550  0.013970  1.0  -0.7271
  O  O1288  1  0.293870  0.085400  0.061400  1.0  -0.5728
  O  O1289  1  0.327500  0.141800  0.074400  1.0  -0.4366
  O  O1290  1  0.358660  0.973230  0.974810  1.0  -0.8248
  O  O1291  1  0.326060  0.008860  0.916350  1.0  -0.8087
  O  O1292  1  0.402120  0.995720  0.915150  1.0  -0.7718
  O  O1293  1  0.415830  0.644830  0.321520  1.0  -0.5687
  O  O1294  1  0.430010  0.643440  0.387770  1.0  -0.6509
  O  O1295  1  0.250080  0.638930  0.477710  1.0  -0.8306
  O  O1296  1  0.315530  0.673930  0.495190  1.0  -0.8061
  O  O1297  1  0.313770  0.597450  0.486030  1.0  -0.7272
  O  O1298  1  0.293870  0.414600  0.438600  1.0  -0.5724
  O  O1299  1  0.327500  0.358200  0.425600  1.0  -0.438
  O  O1300  1  0.358660  0.526770  0.525190  1.0  -0.8245
  O  O1301  1  0.326060  0.491140  0.583650  1.0  -0.8086
  O  O1302  1  0.402120  0.504280  0.584850  1.0  -0.7711
  O  O1303  1  0.084170  0.855170  0.321520  1.0  -0.5682
  O  O1304  1  0.069990  0.856560  0.387770  1.0  -0.6496
  O  O1305  1  0.249920  0.861070  0.477710  1.0  -0.833
  O  O1306  1  0.184470  0.826070  0.495190  1.0  -0.806
  O  O1307  1  0.186230  0.902550  0.486030  1.0  -0.7271
  O  O1308  1  0.206130  0.085400  0.438600  1.0  -0.574
  O  O1309  1  0.172500  0.141800  0.425600  1.0  -0.4346
  O  O1310  1  0.141340  0.973230  0.525190  1.0  -0.8247
  O  O1311  1  0.173940  0.008860  0.583650  1.0  -0.8067
  O  O1312  1  0.097880  0.995720  0.584850  1.0  -0.7719
  O  O1313  1  0.178480  0.084170  0.644830  1.0  -0.5673
  O  O1314  1  0.112230  0.069990  0.643440  1.0  -0.6477
  O  O1315  1  0.022290  0.249920  0.638930  1.0  -0.8324
  O  O1316  1  0.004810  0.184470  0.673930  1.0  -0.8048
  O  O1317  1  0.013970  0.186230  0.597450  1.0  -0.7308
  O  O1318  1  0.061400  0.206130  0.414600  1.0  -0.5713
  O  O1319  1  0.074400  0.172500  0.358200  1.0  -0.4353
  O  O1320  1  0.974810  0.141340  0.526770  1.0  -0.8255
  O  O1321  1  0.916350  0.173940  0.491140  1.0  -0.8127
  O  O1322  1  0.915150  0.097880  0.504280  1.0  -0.7714
  O  O1323  1  0.178480  0.415830  0.855170  1.0  -0.5675
  O  O1324  1  0.112230  0.430010  0.856560  1.0  -0.6468
  O  O1325  1  0.022290  0.250080  0.861070  1.0  -0.8314
  O  O1326  1  0.004810  0.315530  0.826070  1.0  -0.8055
  O  O1327  1  0.013970  0.313770  0.902550  1.0  -0.7299
  O  O1328  1  0.061400  0.293870  0.085400  1.0  -0.5726
  O  O1329  1  0.074400  0.327500  0.141800  1.0  -0.4371
  O  O1330  1  0.974810  0.358660  0.973230  1.0  -0.8261
  O  O1331  1  0.916350  0.326060  0.008860  1.0  -0.8085
  O  O1332  1  0.915150  0.402120  0.995720  1.0  -0.7708
  O  O1333  1  0.321520  0.415830  0.644830  1.0  -0.5665
  O  O1334  1  0.387770  0.430010  0.643440  1.0  -0.6472
  O  O1335  1  0.477710  0.250080  0.638930  1.0  -0.8321
  O  O1336  1  0.495190  0.315530  0.673930  1.0  -0.8047
  O  O1337  1  0.486030  0.313770  0.597450  1.0  -0.7302
  O  O1338  1  0.438600  0.293870  0.414600  1.0  -0.5723
  O  O1339  1  0.425600  0.327500  0.358200  1.0  -0.4358
  O  O1340  1  0.525190  0.358660  0.526770  1.0  -0.826
  O  O1341  1  0.583650  0.326060  0.491140  1.0  -0.8088
  O  O1342  1  0.584850  0.402120  0.504280  1.0  -0.773
  O  O1343  1  0.321520  0.084170  0.855170  1.0  -0.5668
  O  O1344  1  0.387770  0.069990  0.856560  1.0  -0.645
  O  O1345  1  0.477710  0.249920  0.861070  1.0  -0.833
  O  O1346  1  0.495190  0.184470  0.826070  1.0  -0.8057
  O  O1347  1  0.486030  0.186230  0.902550  1.0  -0.7297
  O  O1348  1  0.438600  0.206130  0.085400  1.0  -0.5733
  O  O1349  1  0.425600  0.172500  0.141800  1.0  -0.4368
  O  O1350  1  0.525190  0.141340  0.973230  1.0  -0.8261
  O  O1351  1  0.583650  0.173940  0.008860  1.0  -0.8133
  O  O1352  1  0.584850  0.097880  0.995720  1.0  -0.7733
  O  O1353  1  0.644830  0.178480  0.084170  1.0  -0.5693
  O  O1354  1  0.643440  0.112230  0.069990  1.0  -0.646
  O  O1355  1  0.638930  0.022290  0.249920  1.0  -0.8327
  O  O1356  1  0.673930  0.004810  0.184470  1.0  -0.8051
  O  O1357  1  0.597450  0.013970  0.186230  1.0  -0.7291
  O  O1358  1  0.414600  0.061400  0.206130  1.0  -0.5749
  O  O1359  1  0.358200  0.074400  0.172500  1.0  -0.4382
  O  O1360  1  0.526770  0.974810  0.141340  1.0  -0.8237
  O  O1361  1  0.491140  0.916350  0.173940  1.0  -0.8046
  O  O1362  1  0.504280  0.915150  0.097880  1.0  -0.7706
  O  O1363  1  0.855170  0.178480  0.415830  1.0  -0.57
  O  O1364  1  0.856560  0.112230  0.430010  1.0  -0.6464
  O  O1365  1  0.861070  0.022290  0.250080  1.0  -0.8334
  O  O1366  1  0.826070  0.004810  0.315530  1.0  -0.8068
  O  O1367  1  0.902550  0.013970  0.313770  1.0  -0.7307
  O  O1368  1  0.085400  0.061400  0.293870  1.0  -0.5759
  O  O1369  1  0.141800  0.074400  0.327500  1.0  -0.4371
  O  O1370  1  0.973230  0.974810  0.358660  1.0  -0.8238
  O  O1371  1  0.008860  0.916350  0.326060  1.0  -0.8052
  O  O1372  1  0.995720  0.915150  0.402120  1.0  -0.7721
  O  O1373  1  0.644830  0.321520  0.415830  1.0  -0.5696
  O  O1374  1  0.643440  0.387770  0.430010  1.0  -0.6482
  O  O1375  1  0.638930  0.477710  0.250080  1.0  -0.8341
  O  O1376  1  0.673930  0.495190  0.315530  1.0  -0.8054
  O  O1377  1  0.597450  0.486030  0.313770  1.0  -0.7298
  O  O1378  1  0.414600  0.438600  0.293870  1.0  -0.5749
  O  O1379  1  0.358200  0.425600  0.327500  1.0  -0.4368
  O  O1380  1  0.526770  0.525190  0.358660  1.0  -0.8245
  O  O1381  1  0.491140  0.583650  0.326060  1.0  -0.806
  O  O1382  1  0.504280  0.584850  0.402120  1.0  -0.7718
  O  O1383  1  0.855170  0.321520  0.084170  1.0  -0.5696
  O  O1384  1  0.856560  0.387770  0.069990  1.0  -0.6472
  O  O1385  1  0.861070  0.477710  0.249920  1.0  -0.8328
  O  O1386  1  0.826070  0.495190  0.184470  1.0  -0.8057
  O  O1387  1  0.902550  0.486030  0.186230  1.0  -0.7297
  O  O1388  1  0.085400  0.438600  0.206130  1.0  -0.5752
  O  O1389  1  0.141800  0.425600  0.172500  1.0  -0.4378
  O  O1390  1  0.973230  0.525190  0.141340  1.0  -0.8241
  O  O1391  1  0.008860  0.583650  0.173940  1.0  -0.805
  O  O1392  1  0.995720  0.584850  0.097880  1.0  -0.7714
  O  O1393  1  0.644830  0.084170  0.321520  1.0  -0.57
  O  O1394  1  0.643440  0.069990  0.387770  1.0  -0.6472
  O  O1395  1  0.638930  0.249920  0.477710  1.0  -0.834
  O  O1396  1  0.673930  0.184470  0.495190  1.0  -0.8044
  O  O1397  1  0.597450  0.186230  0.486030  1.0  -0.7277
  O  O1398  1  0.414600  0.206130  0.438600  1.0  -0.5707
  O  O1399  1  0.358200  0.172500  0.425600  1.0  -0.4391
  O  O1400  1  0.526770  0.141340  0.525190  1.0  -0.8243
  O  O1401  1  0.491140  0.173940  0.583650  1.0  -0.8125
  O  O1402  1  0.504280  0.097880  0.584850  1.0  -0.7706
  O  O1403  1  0.855170  0.415830  0.321520  1.0  -0.5699
  O  O1404  1  0.856560  0.430010  0.387770  1.0  -0.6475
  O  O1405  1  0.861070  0.250080  0.477710  1.0  -0.8325
  O  O1406  1  0.826070  0.315530  0.495190  1.0  -0.8059
  O  O1407  1  0.902550  0.313770  0.486030  1.0  -0.7283
  O  O1408  1  0.085400  0.293870  0.438600  1.0  -0.5724
  O  O1409  1  0.141800  0.327500  0.425600  1.0  -0.4376
  O  O1410  1  0.973230  0.358660  0.525190  1.0  -0.8253
  O  O1411  1  0.008860  0.326060  0.583650  1.0  -0.808
  O  O1412  1  0.995720  0.402120  0.584850  1.0  -0.7702
  O  O1413  1  0.644830  0.415830  0.178480  1.0  -0.5693
  O  O1414  1  0.643440  0.430010  0.112230  1.0  -0.6471
  O  O1415  1  0.638930  0.250080  0.022290  1.0  -0.8338
  O  O1416  1  0.673930  0.315530  0.004810  1.0  -0.8052
  O  O1417  1  0.597450  0.313770  0.013970  1.0  -0.7265
  O  O1418  1  0.414600  0.293870  0.061400  1.0  -0.5702
  O  O1419  1  0.358200  0.327500  0.074400  1.0  -0.4374
  O  O1420  1  0.526770  0.358660  0.974810  1.0  -0.825
  O  O1421  1  0.491140  0.326060  0.916350  1.0  -0.8081
  O  O1422  1  0.504280  0.402120  0.915150  1.0  -0.7698
  O  O1423  1  0.855170  0.084170  0.178480  1.0  -0.5699
  O  O1424  1  0.856560  0.069990  0.112230  1.0  -0.6464
  O  O1425  1  0.861070  0.249920  0.022290  1.0  -0.8341
  O  O1426  1  0.826070  0.184470  0.004810  1.0  -0.8057
  O  O1427  1  0.902550  0.186230  0.013970  1.0  -0.7278
  O  O1428  1  0.085400  0.206130  0.061400  1.0  -0.5711
  O  O1429  1  0.141800  0.172500  0.074400  1.0  -0.4408
  O  O1430  1  0.973230  0.141340  0.974810  1.0  -0.8249
  O  O1431  1  0.008860  0.173940  0.916350  1.0  -0.8124
  O  O1432  1  0.995720  0.097880  0.915150  1.0  -0.771
  O  O1433  1  0.084170  0.178480  0.855170  1.0  -0.5688
  O  O1434  1  0.069990  0.112230  0.856560  1.0  -0.6464
  O  O1435  1  0.249920  0.022290  0.861070  1.0  -0.8328
  O  O1436  1  0.184470  0.004810  0.826070  1.0  -0.8063
  O  O1437  1  0.186230  0.013970  0.902550  1.0  -0.7285
  O  O1438  1  0.206130  0.061400  0.085400  1.0  -0.5736
  O  O1439  1  0.172500  0.074400  0.141800  1.0  -0.4388
  O  O1440  1  0.141340  0.974810  0.973230  1.0  -0.8249
  O  O1441  1  0.173940  0.916350  0.008860  1.0  -0.8058
  O  O1442  1  0.097880  0.915150  0.995720  1.0  -0.7714
  O  O1443  1  0.415830  0.178480  0.644830  1.0  -0.5684
  O  O1444  1  0.430010  0.112230  0.643440  1.0  -0.6472
  O  O1445  1  0.250080  0.022290  0.638930  1.0  -0.8306
  O  O1446  1  0.315530  0.004810  0.673930  1.0  -0.8063
  O  O1447  1  0.313770  0.013970  0.597450  1.0  -0.7289
  O  O1448  1  0.293870  0.061400  0.414600  1.0  -0.5723
  O  O1449  1  0.327500  0.074400  0.358200  1.0  -0.4382
  O  O1450  1  0.358660  0.974810  0.526770  1.0  -0.8247
  O  O1451  1  0.326060  0.916350  0.491140  1.0  -0.8081
  O  O1452  1  0.402120  0.915150  0.504280  1.0  -0.7713
  O  O1453  1  0.415830  0.321520  0.855170  1.0  -0.5682
  O  O1454  1  0.430010  0.387770  0.856560  1.0  -0.6465
  O  O1455  1  0.250080  0.477710  0.861070  1.0  -0.8311
  O  O1456  1  0.315530  0.495190  0.826070  1.0  -0.8064
  O  O1457  1  0.313770  0.486030  0.902550  1.0  -0.7288
  O  O1458  1  0.293870  0.438600  0.085400  1.0  -0.5729
  O  O1459  1  0.327500  0.425600  0.141800  1.0  -0.4367
  O  O1460  1  0.358660  0.525190  0.973230  1.0  -0.8248
  O  O1461  1  0.326060  0.583650  0.008860  1.0  -0.8079
  O  O1462  1  0.402120  0.584850  0.995720  1.0  -0.7717
  O  O1463  1  0.084170  0.321520  0.644830  1.0  -0.5681
  O  O1464  1  0.069990  0.387770  0.643440  1.0  -0.6486
  O  O1465  1  0.249920  0.477710  0.638930  1.0  -0.8334
  O  O1466  1  0.184470  0.495190  0.673930  1.0  -0.8054
  O  O1467  1  0.186230  0.486030  0.597450  1.0  -0.7296
  O  O1468  1  0.206130  0.438600  0.414600  1.0  -0.5725
  O  O1469  1  0.172500  0.425600  0.358200  1.0  -0.4363
  O  O1470  1  0.141340  0.525190  0.526770  1.0  -0.8244
  O  O1471  1  0.173940  0.583650  0.491140  1.0  -0.8064
  O  O1472  1  0.097880  0.584850  0.504280  1.0  -0.7721
  O  O1473  1  0.178480  0.644830  0.415830  1.0  -0.5671
  O  O1474  1  0.112230  0.643440  0.430010  1.0  -0.6516
  O  O1475  1  0.022290  0.638930  0.250080  1.0  -0.8321
  O  O1476  1  0.004810  0.673930  0.315530  1.0  -0.807
  O  O1477  1  0.013970  0.597450  0.313770  1.0  -0.7318
  O  O1478  1  0.061400  0.414600  0.293870  1.0  -0.5761
  O  O1479  1  0.074400  0.358200  0.327500  1.0  -0.4348
  O  O1480  1  0.974810  0.526770  0.358660  1.0  -0.8244
  O  O1481  1  0.916350  0.491140  0.326060  1.0  -0.8061
  O  O1482  1  0.915150  0.504280  0.402120  1.0  -0.7725
  O  O1483  1  0.178480  0.855170  0.084170  1.0  -0.567
  O  O1484  1  0.112230  0.856560  0.069990  1.0  -0.649
  O  O1485  1  0.022290  0.861070  0.249920  1.0  -0.8312
  O  O1486  1  0.004810  0.826070  0.184470  1.0  -0.8051
  O  O1487  1  0.013970  0.902550  0.186230  1.0  -0.7302
  O  O1488  1  0.061400  0.085400  0.206130  1.0  -0.5759
  O  O1489  1  0.074400  0.141800  0.172500  1.0  -0.4332
  O  O1490  1  0.974810  0.973230  0.141340  1.0  -0.8249
  O  O1491  1  0.916350  0.008860  0.173940  1.0  -0.8054
  O  O1492  1  0.915150  0.995720  0.097880  1.0  -0.7722
  O  O1493  1  0.321520  0.644830  0.084170  1.0  -0.5665
  O  O1494  1  0.387770  0.643440  0.069990  1.0  -0.6495
  O  O1495  1  0.477710  0.638930  0.249920  1.0  -0.8315
  O  O1496  1  0.495190  0.673930  0.184470  1.0  -0.8054
  O  O1497  1  0.486030  0.597450  0.186230  1.0  -0.7313
  O  O1498  1  0.438600  0.414600  0.206130  1.0  -0.576
  O  O1499  1  0.425600  0.358200  0.172500  1.0  -0.4368
  O  O1500  1  0.525190  0.526770  0.141340  1.0  -0.8252
  O  O1501  1  0.583650  0.491140  0.173940  1.0  -0.8061
  O  O1502  1  0.584850  0.504280  0.097880  1.0  -0.7726
  O  O1503  1  0.321520  0.855170  0.415830  1.0  -0.5657
  O  O1504  1  0.387770  0.856560  0.430010  1.0  -0.6483
  O  O1505  1  0.477710  0.861070  0.250080  1.0  -0.8322
  O  O1506  1  0.495190  0.826070  0.315530  1.0  -0.8076
  O  O1507  1  0.486030  0.902550  0.313770  1.0  -0.7318
  O  O1508  1  0.438600  0.085400  0.293870  1.0  -0.5766
  O  O1509  1  0.425600  0.141800  0.327500  1.0  -0.4339
  O  O1510  1  0.525190  0.973230  0.358660  1.0  -0.8252
  O  O1511  1  0.583650  0.008860  0.326060  1.0  -0.8057
  O  O1512  1  0.584850  0.995720  0.402120  1.0  -0.7744
  O  O1513  1  0.915830  0.355170  0.821520  1.0  -0.5686
  O  O1514  1  0.930010  0.356560  0.887770  1.0  -0.6489
  O  O1515  1  0.750080  0.361070  0.977710  1.0  -0.8307
  O  O1516  1  0.815530  0.326070  0.995190  1.0  -0.8061
  O  O1517  1  0.813770  0.402550  0.986030  1.0  -0.7273
  O  O1518  1  0.793870  0.585400  0.938600  1.0  -0.5734
  O  O1519  1  0.827500  0.641800  0.925600  1.0  -0.4366
  O  O1520  1  0.858660  0.473230  0.025190  1.0  -0.8248
  O  O1521  1  0.826060  0.508860  0.083650  1.0  -0.8086
  O  O1522  1  0.902120  0.495720  0.084850  1.0  -0.7718
  O  O1523  1  0.584170  0.144830  0.821520  1.0  -0.5682
  O  O1524  1  0.569990  0.143440  0.887770  1.0  -0.6519
  O  O1525  1  0.749920  0.138930  0.977710  1.0  -0.8329
  O  O1526  1  0.684470  0.173930  0.995190  1.0  -0.8058
  O  O1527  1  0.686230  0.097450  0.986030  1.0  -0.7273
  O  O1528  1  0.706130  0.914600  0.938600  1.0  -0.5733
  O  O1529  1  0.672500  0.858200  0.925600  1.0  -0.4375
  O  O1530  1  0.641340  0.026770  0.025190  1.0  -0.8244
  O  O1531  1  0.673940  0.991140  0.083650  1.0  -0.8063
  O  O1532  1  0.597880  0.004280  0.084850  1.0  -0.7714
  O  O1533  1  0.584170  0.355170  0.678480  1.0  -0.5681
  O  O1534  1  0.569990  0.356560  0.612230  1.0  -0.6494
  O  O1535  1  0.749920  0.361070  0.522290  1.0  -0.8332
  O  O1536  1  0.684470  0.326070  0.504810  1.0  -0.8062
  O  O1537  1  0.686230  0.402550  0.513970  1.0  -0.7268
  O  O1538  1  0.706130  0.585400  0.561400  1.0  -0.5734
  O  O1539  1  0.672500  0.641800  0.574400  1.0  -0.4355
  O  O1540  1  0.641340  0.473230  0.474810  1.0  -0.8248
  O  O1541  1  0.673940  0.508860  0.416350  1.0  -0.8066
  O  O1542  1  0.597880  0.495720  0.415150  1.0  -0.7719
  O  O1543  1  0.915830  0.144830  0.678480  1.0  -0.5685
  O  O1544  1  0.930010  0.143440  0.612230  1.0  -0.6502
  O  O1545  1  0.750080  0.138930  0.522290  1.0  -0.8311
  O  O1546  1  0.815530  0.173930  0.504810  1.0  -0.8065
  O  O1547  1  0.813770  0.097450  0.513970  1.0  -0.7274
  O  O1548  1  0.793870  0.914600  0.561400  1.0  -0.572
  O  O1549  1  0.827500  0.858200  0.574400  1.0  -0.4377
  O  O1550  1  0.858660  0.026770  0.474810  1.0  -0.8249
  O  O1551  1  0.826060  0.991140  0.416350  1.0  -0.8089
  O  O1552  1  0.902120  0.004280  0.415150  1.0  -0.7712
  O  O1553  1  0.821520  0.915830  0.355170  1.0  -0.5664
  O  O1554  1  0.887770  0.930010  0.356560  1.0  -0.6458
  O  O1555  1  0.977710  0.750080  0.361070  1.0  -0.8319
  O  O1556  1  0.995190  0.815530  0.326070  1.0  -0.8059
  O  O1557  1  0.986030  0.813770  0.402550  1.0  -0.7297
  O  O1558  1  0.938600  0.793870  0.585400  1.0  -0.5729
  O  O1559  1  0.925600  0.827500  0.641800  1.0  -0.4362
  O  O1560  1  0.025190  0.858660  0.473230  1.0  -0.8262
  O  O1561  1  0.083650  0.826060  0.508860  1.0  -0.8089
  O  O1562  1  0.084850  0.902120  0.495720  1.0  -0.7724
  O  O1563  1  0.821520  0.584170  0.144830  1.0  -0.567
  O  O1564  1  0.887770  0.569990  0.143440  1.0  -0.6465
  O  O1565  1  0.977710  0.749920  0.138930  1.0  -0.8332
  O  O1566  1  0.995190  0.684470  0.173930  1.0  -0.8038
  O  O1567  1  0.986030  0.686230  0.097450  1.0  -0.7308
  O  O1568  1  0.938600  0.706130  0.914600  1.0  -0.5718
  O  O1569  1  0.925600  0.672500  0.858200  1.0  -0.4371
  O  O1570  1  0.025190  0.641340  0.026770  1.0  -0.8259
  O  O1571  1  0.083650  0.673940  0.991140  1.0  -0.8134
  O  O1572  1  0.084850  0.597880  0.004280  1.0  -0.7727
  O  O1573  1  0.678480  0.584170  0.355170  1.0  -0.5674
  O  O1574  1  0.612230  0.569990  0.356560  1.0  -0.6465
  O  O1575  1  0.522290  0.749920  0.361070  1.0  -0.8322
  O  O1576  1  0.504810  0.684470  0.326070  1.0  -0.8055
  O  O1577  1  0.513970  0.686230  0.402550  1.0  -0.7303
  O  O1578  1  0.561400  0.706130  0.585400  1.0  -0.5726
  O  O1579  1  0.574400  0.672500  0.641800  1.0  -0.4371
  O  O1580  1  0.474810  0.641340  0.473230  1.0  -0.8257
  O  O1581  1  0.416350  0.673940  0.508860  1.0  -0.8126
  O  O1582  1  0.415150  0.597880  0.495720  1.0  -0.7721
  O  O1583  1  0.678480  0.915830  0.144830  1.0  -0.5674
  O  O1584  1  0.612230  0.930010  0.143440  1.0  -0.6483
  O  O1585  1  0.522290  0.750080  0.138930  1.0  -0.8315
  O  O1586  1  0.504810  0.815530  0.173930  1.0  -0.8053
  O  O1587  1  0.513970  0.813770  0.097450  1.0  -0.7297
  O  O1588  1  0.561400  0.793870  0.914600  1.0  -0.5722
  O  O1589  1  0.574400  0.827500  0.858200  1.0  -0.4345
  O  O1590  1  0.474810  0.858660  0.026770  1.0  -0.8258
  O  O1591  1  0.416350  0.826060  0.991140  1.0  -0.8082
  O  O1592  1  0.415150  0.902120  0.004280  1.0  -0.7713
  O  O1593  1  0.355170  0.821520  0.915830  1.0  -0.5692
  O  O1594  1  0.356560  0.887770  0.930010  1.0  -0.6475
  O  O1595  1  0.361070  0.977710  0.750080  1.0  -0.8337
  O  O1596  1  0.326070  0.995190  0.815530  1.0  -0.8064
  O  O1597  1  0.402550  0.986030  0.813770  1.0  -0.7308
  O  O1598  1  0.585400  0.938600  0.793870  1.0  -0.576
  O  O1599  1  0.641800  0.925600  0.827500  1.0  -0.4372
  O  O1600  1  0.473230  0.025190  0.858660  1.0  -0.8244
  O  O1601  1  0.508860  0.083650  0.826060  1.0  -0.8053
  O  O1602  1  0.495720  0.084850  0.902120  1.0  -0.7722
  O  O1603  1  0.144830  0.821520  0.584170  1.0  -0.5699
  O  O1604  1  0.143440  0.887770  0.569990  1.0  -0.6471
  O  O1605  1  0.138930  0.977710  0.749920  1.0  -0.8332
  O  O1606  1  0.173930  0.995190  0.684470  1.0  -0.8049
  O  O1607  1  0.097450  0.986030  0.686230  1.0  -0.7299
  O  O1608  1  0.914600  0.938600  0.706130  1.0  -0.5742
  O  O1609  1  0.858200  0.925600  0.672500  1.0  -0.4374
  O  O1610  1  0.026770  0.025190  0.641340  1.0  -0.824
  O  O1611  1  0.991140  0.083650  0.673940  1.0  -0.8046
  O  O1612  1  0.004280  0.084850  0.597880  1.0  -0.7709
  O  O1613  1  0.355170  0.678480  0.584170  1.0  -0.5705
  O  O1614  1  0.356560  0.612230  0.569990  1.0  -0.6464
  O  O1615  1  0.361070  0.522290  0.749920  1.0  -0.8324
  O  O1616  1  0.326070  0.504810  0.684470  1.0  -0.8056
  O  O1617  1  0.402550  0.513970  0.686230  1.0  -0.7297
  O  O1618  1  0.585400  0.561400  0.706130  1.0  -0.5757
  O  O1619  1  0.641800  0.574400  0.672500  1.0  -0.4376
  O  O1620  1  0.473230  0.474810  0.641340  1.0  -0.824
  O  O1621  1  0.508860  0.416350  0.673940  1.0  -0.8049
  O  O1622  1  0.495720  0.415150  0.597880  1.0  -0.7711
  O  O1623  1  0.144830  0.678480  0.915830  1.0  -0.569
  O  O1624  1  0.143440  0.612230  0.930010  1.0  -0.6468
  O  O1625  1  0.138930  0.522290  0.750080  1.0  -0.8337
  O  O1626  1  0.173930  0.504810  0.815530  1.0  -0.8055
  O  O1627  1  0.097450  0.513970  0.813770  1.0  -0.7291
  O  O1628  1  0.914600  0.561400  0.793870  1.0  -0.5752
  O  O1629  1  0.858200  0.574400  0.827500  1.0  -0.438
  O  O1630  1  0.026770  0.474810  0.858660  1.0  -0.8238
  O  O1631  1  0.991140  0.416350  0.826060  1.0  -0.8057
  O  O1632  1  0.004280  0.415150  0.902120  1.0  -0.7718
  O  O1633  1  0.355170  0.915830  0.678480  1.0  -0.57
  O  O1634  1  0.356560  0.930010  0.612230  1.0  -0.6471
  O  O1635  1  0.361070  0.750080  0.522290  1.0  -0.8335
  O  O1636  1  0.326070  0.815530  0.504810  1.0  -0.8061
  O  O1637  1  0.402550  0.813770  0.513970  1.0  -0.7278
  O  O1638  1  0.585400  0.793870  0.561400  1.0  -0.572
  O  O1639  1  0.641800  0.827500  0.574400  1.0  -0.4408
  O  O1640  1  0.473230  0.858660  0.474810  1.0  -0.8253
  O  O1641  1  0.508860  0.826060  0.416350  1.0  -0.8078
  O  O1642  1  0.495720  0.902120  0.415150  1.0  -0.7704
  O  O1643  1  0.144830  0.584170  0.678480  1.0  -0.5693
  O  O1644  1  0.143440  0.569990  0.612230  1.0  -0.6462
  O  O1645  1  0.138930  0.749920  0.522290  1.0  -0.8344
  O  O1646  1  0.173930  0.684470  0.504810  1.0  -0.8037
  O  O1647  1  0.097450  0.686230  0.513970  1.0  -0.7276
  O  O1648  1  0.914600  0.706130  0.561400  1.0  -0.5702
  O  O1649  1  0.858200  0.672500  0.574400  1.0  -0.4392
  O  O1650  1  0.026770  0.641340  0.474810  1.0  -0.8247
  O  O1651  1  0.991140  0.673940  0.416350  1.0  -0.8123
  O  O1652  1  0.004280  0.597880  0.415150  1.0  -0.7704
  O  O1653  1  0.355170  0.584170  0.821520  1.0  -0.5706
  O  O1654  1  0.356560  0.569990  0.887770  1.0  -0.6469
  O  O1655  1  0.361070  0.749920  0.977710  1.0  -0.8337
  O  O1656  1  0.326070  0.684470  0.995190  1.0  -0.8055
  O  O1657  1  0.402550  0.686230  0.986030  1.0  -0.728
  O  O1658  1  0.585400  0.706130  0.938600  1.0  -0.5716
  O  O1659  1  0.641800  0.672500  0.925600  1.0  -0.437
  O  O1660  1  0.473230  0.641340  0.025190  1.0  -0.8244
  O  O1661  1  0.508860  0.673940  0.083650  1.0  -0.8128
  O  O1662  1  0.495720  0.597880  0.084850  1.0  -0.7711
  O  O1663  1  0.144830  0.915830  0.821520  1.0  -0.5695
  O  O1664  1  0.143440  0.930010  0.887770  1.0  -0.6483
  O  O1665  1  0.138930  0.750080  0.977710  1.0  -0.8328
  O  O1666  1  0.173930  0.815530  0.995190  1.0  -0.8058
  O  O1667  1  0.097450  0.813770  0.986030  1.0  -0.7269
  O  O1668  1  0.914600  0.793870  0.938600  1.0  -0.5705
  O  O1669  1  0.858200  0.827500  0.925600  1.0  -0.4379
  O  O1670  1  0.026770  0.858660  0.025190  1.0  -0.8252
  O  O1671  1  0.991140  0.826060  0.083650  1.0  -0.8081
  O  O1672  1  0.004280  0.902120  0.084850  1.0  -0.7697
  O  O1673  1  0.915830  0.821520  0.144830  1.0  -0.5681
  O  O1674  1  0.930010  0.887770  0.143440  1.0  -0.6479
  O  O1675  1  0.750080  0.977710  0.138930  1.0  -0.8313
  O  O1676  1  0.815530  0.995190  0.173930  1.0  -0.8066
  O  O1677  1  0.813770  0.986030  0.097450  1.0  -0.7294
  O  O1678  1  0.793870  0.938600  0.914600  1.0  -0.5718
  O  O1679  1  0.827500  0.925600  0.858200  1.0  -0.4381
  O  O1680  1  0.858660  0.025190  0.026770  1.0  -0.8246
  O  O1681  1  0.826060  0.083650  0.991140  1.0  -0.808
  O  O1682  1  0.902120  0.084850  0.004280  1.0  -0.7716
  O  O1683  1  0.584170  0.821520  0.355170  1.0  -0.5684
  O  O1684  1  0.569990  0.887770  0.356560  1.0  -0.6473
  O  O1685  1  0.749920  0.977710  0.361070  1.0  -0.8332
  O  O1686  1  0.684470  0.995190  0.326070  1.0  -0.8066
  O  O1687  1  0.686230  0.986030  0.402550  1.0  -0.729
  O  O1688  1  0.706130  0.938600  0.585400  1.0  -0.5732
  O  O1689  1  0.672500  0.925600  0.641800  1.0  -0.4372
  O  O1690  1  0.641340  0.025190  0.473230  1.0  -0.8249
  O  O1691  1  0.673940  0.083650  0.508860  1.0  -0.8062
  O  O1692  1  0.597880  0.084850  0.495720  1.0  -0.7718
  O  O1693  1  0.584170  0.678480  0.144830  1.0  -0.5684
  O  O1694  1  0.569990  0.612230  0.143440  1.0  -0.6479
  O  O1695  1  0.749920  0.522290  0.138930  1.0  -0.8329
  O  O1696  1  0.684470  0.504810  0.173930  1.0  -0.8051
  O  O1697  1  0.686230  0.513970  0.097450  1.0  -0.7294
  O  O1698  1  0.706130  0.561400  0.914600  1.0  -0.5732
  O  O1699  1  0.672500  0.574400  0.858200  1.0  -0.4366
  O  O1700  1  0.641340  0.474810  0.026770  1.0  -0.8247
  O  O1701  1  0.673940  0.416350  0.991140  1.0  -0.8057
  O  O1702  1  0.597880  0.415150  0.004280  1.0  -0.7714
  O  O1703  1  0.915830  0.678480  0.355170  1.0  -0.5688
  O  O1704  1  0.930010  0.612230  0.356560  1.0  -0.6455
  O  O1705  1  0.750080  0.522290  0.361070  1.0  -0.8305
  O  O1706  1  0.815530  0.504810  0.326070  1.0  -0.8063
  O  O1707  1  0.813770  0.513970  0.402550  1.0  -0.7282
  O  O1708  1  0.793870  0.561400  0.585400  1.0  -0.5731
  O  O1709  1  0.827500  0.574400  0.641800  1.0  -0.4385
  O  O1710  1  0.858660  0.474810  0.473230  1.0  -0.8248
  O  O1711  1  0.826060  0.416350  0.508860  1.0  -0.8077
  O  O1712  1  0.902120  0.415150  0.495720  1.0  -0.7713
  O  O1713  1  0.821520  0.355170  0.584170  1.0  -0.566
  O  O1714  1  0.887770  0.356560  0.569990  1.0  -0.6482
  O  O1715  1  0.977710  0.361070  0.749920  1.0  -0.8316
  O  O1716  1  0.995190  0.326070  0.684470  1.0  -0.8058
  O  O1717  1  0.986030  0.402550  0.686230  1.0  -0.7294
  O  O1718  1  0.938600  0.585400  0.706130  1.0  -0.5766
  O  O1719  1  0.925600  0.641800  0.672500  1.0  -0.4331
  O  O1720  1  0.025190  0.473230  0.641340  1.0  -0.8253
  O  O1721  1  0.083650  0.508860  0.673940  1.0  -0.806
  O  O1722  1  0.084850  0.495720  0.597880  1.0  -0.7735
  O  O1723  1  0.821520  0.144830  0.915830  1.0  -0.5661
  O  O1724  1  0.887770  0.143440  0.930010  1.0  -0.6504
  O  O1725  1  0.977710  0.138930  0.750080  1.0  -0.8321
  O  O1726  1  0.995190  0.173930  0.815530  1.0  -0.8065
  O  O1727  1  0.986030  0.097450  0.813770  1.0  -0.7317
  O  O1728  1  0.938600  0.914600  0.793870  1.0  -0.5765
  O  O1729  1  0.925600  0.858200  0.827500  1.0  -0.4363
  O  O1730  1  0.025190  0.026770  0.858660  1.0  -0.8248
  O  O1731  1  0.083650  0.991140  0.826060  1.0  -0.806
  O  O1732  1  0.084850  0.004280  0.902120  1.0  -0.774
  O  O1733  1  0.678480  0.355170  0.915830  1.0  -0.5668
  O  O1734  1  0.612230  0.356560  0.930010  1.0  -0.6492
  O  O1735  1  0.522290  0.361070  0.750080  1.0  -0.8321
  O  O1736  1  0.504810  0.326070  0.815530  1.0  -0.8069
  O  O1737  1  0.513970  0.402550  0.813770  1.0  -0.7317
  O  O1738  1  0.561400  0.585400  0.793870  1.0  -0.5766
  O  O1739  1  0.574400  0.641800  0.827500  1.0  -0.434
  O  O1740  1  0.474810  0.473230  0.858660  1.0  -0.8251
  O  O1741  1  0.416350  0.508860  0.826060  1.0  -0.8058
  O  O1742  1  0.415150  0.495720  0.902120  1.0  -0.773
  O  O1743  1  0.678480  0.144830  0.584170  1.0  -0.5673
  O  O1744  1  0.612230  0.143440  0.569990  1.0  -0.6509
  O  O1745  1  0.522290  0.138930  0.749920  1.0  -0.8312
  O  O1746  1  0.504810  0.173930  0.684470  1.0  -0.8058
  O  O1747  1  0.513970  0.097450  0.686230  1.0  -0.7317
  O  O1748  1  0.561400  0.914600  0.706130  1.0  -0.575
  O  O1749  1  0.574400  0.858200  0.672500  1.0  -0.4358
  O  O1750  1  0.474810  0.026770  0.641340  1.0  -0.8247
  O  O1751  1  0.416350  0.991140  0.673940  1.0  -0.8053
  O  O1752  1  0.415150  0.004280  0.597880  1.0  -0.7714
