# generated using pymatgen
data_Zn16C311O76
_symmetry_space_group_name_H-M   'P 1'
_cell_length_a   26.44520000
_cell_length_b   26.44520000
_cell_length_c   52.74000000
_cell_angle_alpha   90.89500000
_cell_angle_beta   90.89500000
_cell_angle_gamma   91.78000000
_symmetry_Int_Tables_number   1
_chemical_formula_structural   Zn16C311O76
_chemical_formula_sum   'Zn32 C622 O152'
_cell_volume   36856.56335131
_cell_formula_units_Z   2
loop_
 _symmetry_equiv_pos_site_id
 _symmetry_equiv_pos_as_xyz
  1  'x, y, z'
loop_
 _atom_site_type_symbol
 _atom_site_label
 _atom_site_symmetry_multiplicity
 _atom_site_fract_x
 _atom_site_fract_y
 _atom_site_fract_z
 _atom_site_occupancy
 _atom_site_charge
  Zn  Zn1  1  0.034630  0.027710  0.080560  1.0  1.0951
  Zn  Zn2  1  0.105500  0.221500  0.628140  1.0  1.0745
  Zn  Zn3  1  0.021580  0.133400  0.626220  1.0  0.9675
  Zn  Zn4  1  0.026840  0.108960  0.124390  1.0  1.0498
  Zn  Zn5  1  0.123600  0.115070  0.088480  1.0  1.0144
  Zn  Zn6  1  0.028480  0.210000  0.580980  1.0  1.0736
  Zn  Zn7  1  0.106210  0.024660  0.128460  1.0  1.0777
  Zn  Zn8  1  0.115310  0.129480  0.589270  1.0  1.0635
  Zn  Zn9  1  0.876400  0.884930  0.911520  1.0  1.0137
  Zn  Zn10  1  0.971520  0.790000  0.419020  1.0  1.0758
  Zn  Zn11  1  0.965370  0.972290  0.919440  1.0  1.0951
  Zn  Zn12  1  0.978420  0.866600  0.373780  1.0  0.9668
  Zn  Zn13  1  0.973160  0.891040  0.875610  1.0  1.0501
  Zn  Zn14  1  0.894500  0.778500  0.371860  1.0  1.0762
  Zn  Zn15  1  0.884690  0.870520  0.410730  1.0  1.0647
  Zn  Zn16  1  0.893790  0.975340  0.871540  1.0  1.0772
  Zn  Zn17  1  0.809780  0.711370  0.205400  1.0  1.0326
  Zn  Zn18  1  0.789140  0.609670  0.662180  1.0  0.9966
  Zn  Zn19  1  0.784920  0.520570  0.702580  1.0  1.0961
  Zn  Zn20  1  0.699350  0.605730  0.700750  1.0  1.0822
  Zn  Zn21  1  0.814710  0.628560  0.162600  1.0  1.0963
  Zn  Zn22  1  0.704510  0.523130  0.656650  1.0  1.0841
  Zn  Zn23  1  0.718650  0.627770  0.200360  1.0  1.0584
  Zn  Zn24  1  0.735330  0.714030  0.158860  1.0  1.0669
  Zn  Zn25  1  0.300650  0.394270  0.299250  1.0  1.0806
  Zn  Zn26  1  0.210860  0.390330  0.337820  1.0  0.9973
  Zn  Zn27  1  0.185290  0.371440  0.837400  1.0  1.0962
  Zn  Zn28  1  0.190220  0.288630  0.794600  1.0  1.0323
  Zn  Zn29  1  0.295490  0.476870  0.343350  1.0  1.0822
  Zn  Zn30  1  0.264670  0.285970  0.841140  1.0  1.0682
  Zn  Zn31  1  0.215080  0.479430  0.297420  1.0  1.0966
  Zn  Zn32  1  0.281350  0.372230  0.799640  1.0  1.0565
  C  C33  1  0.772400  0.184700  0.601800  1.0  -0.0368
  C  C34  1  0.062100  0.178400  0.701550  1.0  0.0711
  C  C35  1  0.068200  0.162500  0.781600  1.0  0.0528
  C  C36  1  0.035400  0.782600  0.602000  1.0  0.0351
  C  C37  1  0.543100  0.214600  0.579400  1.0  0.0127
  C  C38  1  0.012300  0.283100  0.112300  1.0  -0.0319
  C  C39  1  0.058300  0.365000  0.601860  1.0  -0.0477
  C  C40  1  0.016700  0.530100  0.103900  1.0  -0.0189
  C  C41  1  0.022300  0.384300  0.586000  1.0  0.0056
  C  C42  1  0.095300  0.602300  0.106700  1.0  -0.0209
  C  C43  1  0.091800  0.141400  0.432000  1.0  -0.038
  C  C44  1  0.047800  0.124100  0.212700  1.0  0.0177
  C  C45  1  0.113400  0.264400  0.879900  1.0  -0.0258
  C  C46  1  0.053500  0.852700  0.126900  1.0  0.0136
  C  C47  1  0.079500  0.105100  0.252200  1.0  0.0633
  C  C48  1  0.063700  0.095000  0.840400  1.0  0.1657
  C  C49  1  0.339100  0.236400  0.622700  1.0  0.0396
  C  C50  1  0.360900  0.211000  0.606400  1.0  0.3727
  C  C51  1  0.012500  0.335700  0.112600  1.0  -0.0036
  C  C52  1  0.068300  0.076200  0.172700  1.0  0.6888
  C  C53  1  0.875600  0.174300  0.600400  1.0  0.1398
  C  C54  1  0.254900  0.207300  0.607400  1.0  0.0843
  C  C55  1  0.519000  0.031000  0.111500  1.0  0.1181
  C  C56  1  0.041700  0.795600  0.079900  1.0  -0.0259
  C  C57  1  0.094400  0.206200  0.716840  1.0  -0.0145
  C  C58  1  0.100800  0.081600  0.343000  1.0  0.0579
  C  C59  1  0.035600  0.724200  0.601700  1.0  0.3933
  C  C60  1  0.035500  0.826800  0.601700  1.0  0.0471
  C  C61  1  0.042200  0.851400  0.081800  1.0  0.0179
  C  C62  1  0.798300  0.208300  0.579800  1.0  -0.0792
  C  C63  1  0.417200  0.203400  0.605000  1.0  0.0921
  C  C64  1  0.933800  0.173400  0.600400  1.0  0.6294
  C  C65  1  0.082300  0.081500  0.009100  1.0  -0.0281
  C  C66  1  0.094600  0.134500  0.408300  1.0  0.0651
  C  C67  1  0.722200  0.023300  0.102900  1.0  0.1871
  C  C68  1  0.054100  0.877200  0.105200  1.0  0.1252
  C  C69  1  0.057100  0.934100  0.105500  1.0  0.6667
  C  C70  1  0.793100  0.159900  0.620900  1.0  0.019
  C  C71  1  0.935600  0.051100  0.102100  1.0  0.6245
  C  C72  1  0.101600  0.063700  0.242200  1.0  -0.0348
  C  C73  1  0.065500  0.192200  0.100400  1.0  0.326
  C  C74  1  0.063300  0.187400  0.466400  1.0  -0.0246
  C  C75  1  0.048900  0.041600  0.608200  1.0  0.629
  C  C76  1  0.066300  0.168000  0.754680  1.0  0.0457
  C  C77  1  0.051600  0.798000  0.126100  1.0  0.0691
  C  C78  1  0.536500  0.208800  0.624700  1.0  0.0894
  C  C79  1  0.334300  0.005300  0.127200  1.0  -0.0737
  C  C80  1  0.901900  0.687000  0.592200  1.0  -0.0281
  C  C81  1  0.113800  0.128500  0.974800  1.0  0.0153
  C  C82  1  0.856200  0.013600  0.085200  1.0  0.0659
  C  C83  1  0.050100  0.466800  0.600900  1.0  0.0164
  C  C84  1  0.047400  0.775300  0.104300  1.0  0.2392
  C  C85  1  0.063700  0.180800  0.673960  1.0  0.6666
  C  C86  1  0.030700  0.958300  0.625800  1.0  0.0448
  C  C87  1  0.113000  0.119100  0.001700  1.0  -0.0634
  C  C88  1  0.595200  0.210500  0.581500  1.0  0.1406
  C  C89  1  0.030000  0.903300  0.624300  1.0  0.0429
  C  C90  1  0.561000  0.127900  0.154700  1.0  -0.0502
  C  C91  1  0.086800  0.178100  0.367800  1.0  -0.0101
  C  C92  1  0.085000  0.117600  0.908700  1.0  -0.0135
  C  C93  1  0.042000  0.626600  0.600500  1.0  0.1406
  C  C94  1  0.282200  0.011100  0.126100  1.0  -0.0164
  C  C95  1  0.066500  0.515000  0.104700  1.0  0.011
  C  C96  1  0.194200  0.553000  0.122800  1.0  -0.0406
  C  C97  1  0.853100  0.197300  0.582900  1.0  0.0353
  C  C98  1  0.365800  0.034800  0.112200  1.0  -0.0808
  C  C99  1  0.052900  0.363000  0.102400  1.0  0.0656
  C  C100  1  0.034000  0.135900  0.740400  1.0  -0.0468
  C  C101  1  0.052800  0.064500  0.966400  1.0  0.09
  C  C102  1  0.880400  0.044600  0.102500  1.0  0.2261
  C  C103  1  0.105900  0.551100  0.106000  1.0  0.163
  C  C104  1  0.042600  0.883600  0.603300  1.0  0.3443
  C  C105  1  0.513700  0.213800  0.601000  1.0  0.087
  C  C106  1  0.196500  0.208100  0.609700  1.0  0.6075
  C  C107  1  0.086000  0.116100  0.280200  1.0  -0.0735
  C  C108  1  0.279700  0.234000  0.625100  1.0  -0.0181
  C  C109  1  0.537500  0.005000  0.090600  1.0  0.0191
  C  C110  1  0.604300  0.051600  0.125600  1.0  0.0362
  C  C111  1  0.095100  0.173700  0.871910  1.0  0.1522
  C  C112  1  0.677800  0.022900  0.101300  1.0  -0.033
  C  C113  1  0.108600  0.125200  0.501200  1.0  0.0815
  C  C114  1  0.799000  0.061400  0.121300  1.0  0.0146
  C  C115  1  0.593000  0.236000  0.533100  1.0  -0.0257
  C  C116  1  0.800400  0.005600  0.084900  1.0  -0.054
  C  C117  1  0.588600  0.204700  0.626800  1.0  0.0751
  C  C118  1  0.093000  0.285100  0.091800  1.0  -0.0599
  C  C119  1  0.160600  0.659000  0.633400  1.0  -0.0318
  C  C120  1  0.989900  0.639500  0.596300  1.0  -0.0143
  C  C121  1  0.080400  0.161800  0.510200  1.0  0.0192
  C  C122  1  0.345300  0.070000  0.096000  1.0  -0.0238
  C  C123  1  0.070800  0.151100  0.804300  1.0  0.057
  C  C124  1  0.086400  0.449800  0.617800  1.0  0.0142
  C  C125  1  0.673100  0.201500  0.599600  1.0  0.0782
  C  C126  1  0.054500  0.903900  0.581700  1.0  -0.0061
  C  C127  1  0.082000  0.125400  0.882280  1.0  0.0215
  C  C128  1  0.552400  0.054300  0.128900  1.0  0.2252
  C  C129  1  0.046700  0.982400  0.606100  1.0  0.196
  C  C130  1  0.047100  0.418100  0.103700  1.0  0.0285
  C  C131  1  0.848200  0.152100  0.619100  1.0  -0.0326
  C  C132  1  0.017500  0.438300  0.584400  1.0  -0.0186
  C  C133  1  0.045300  0.053800  0.994000  1.0  -0.0633
  C  C134  1  0.589400  0.002300  0.087300  1.0  0.2023
  C  C135  1  0.077400  0.263900  0.339900  1.0  0.0149
  C  C136  1  0.774800  0.031800  0.102800  1.0  0.2397
  C  C137  1  0.046700  0.720700  0.103200  1.0  -0.0385
  C  C138  1  0.087700  0.644200  0.607800  1.0  -0.0132
  C  C139  1  0.072300  0.086300  0.201000  1.0  0.0187
  C  C140  1  0.463000  0.200000  0.652400  1.0  -0.0377
  C  C141  1  0.100200  0.055800  0.215600  1.0  -0.0054
  C  C142  1  0.915500  0.592600  0.109100  1.0  -0.02
  C  C143  1  0.088000  0.182800  0.846770  1.0  0.0963
  C  C144  1  0.084900  0.109500  0.931200  1.0  0.1186
  C  C145  1  0.082300  0.708600  0.606500  1.0  -0.0216
  C  C146  1  0.293300  0.075700  0.094800  1.0  -0.0411
  C  C147  1  0.055100  0.137100  0.239000  1.0  0.0286
  C  C148  1  0.066800  0.086900  0.865600  1.0  0.0976
  C  C149  1  0.042400  0.006200  0.831800  1.0  -0.0217
  C  C150  1  0.712900  0.182300  0.598700  1.0  0.0213
  C  C151  1  0.622800  0.025600  0.104700  1.0  -0.0343
  C  C152  1  0.618000  0.205500  0.605200  1.0  -0.0022
  C  C153  1  0.085900  0.172400  0.340800  1.0  0.2082
  C  C154  1  0.101700  0.086900  0.370100  1.0  0.1203
  C  C155  1  0.091300  0.121100  0.302700  1.0  -0.0141
  C  C156  1  0.088900  0.395800  0.618700  1.0  -0.0126
  C  C157  1  0.089000  0.146500  0.459300  1.0  0.0518
  C  C158  1  0.096700  0.133000  0.381900  1.0  -0.009
  C  C159  1  0.459400  0.210500  0.600000  1.0  0.1428
  C  C160  1  0.044100  0.568300  0.599500  1.0  0.0264
  C  C161  1  0.093100  0.337700  0.092000  1.0  0.0083
  C  C162  1  0.085800  0.099000  0.957100  1.0  0.2362
  C  C163  1  0.200500  0.044400  0.116900  1.0  0.4139
  C  C164  1  0.072800  0.069900  0.038000  1.0  0.598
  C  C165  1  0.112800  0.115300  0.475500  1.0  -0.0185
  C  C166  1  0.006100  0.581300  0.104600  1.0  0.1336
  C  C167  1  0.114300  0.993600  0.370400  1.0  -0.0187
  C  C168  1  0.467100  0.027100  0.110800  1.0  0.0542
  C  C169  1  0.276500  0.180700  0.589000  1.0  -0.0554
  C  C170  1  0.045400  0.617400  0.105900  1.0  0.0781
  C  C171  1  0.055900  0.962600  0.583700  1.0  -0.04
  C  C172  1  0.421800  0.028400  0.109300  1.0  -0.0163
  C  C173  1  0.067800  0.459900  0.105800  1.0  0.0305
  C  C174  1  0.052500  0.257800  0.101900  1.0  -0.0217
  C  C175  1  0.579000  0.963000  0.045800  1.0  -0.0534
  C  C176  1  0.049400  0.524100  0.599900  1.0  0.0635
  C  C177  1  0.062200  0.306100  0.603240  1.0  0.6428
  C  C178  1  0.999700  0.696500  0.596900  1.0  0.1537
  C  C179  1  0.094500  0.205000  0.744000  1.0  -0.0108
  C  C180  1  0.073900  0.168400  0.538500  1.0  0.6185
  C  C181  1  0.261700  0.046300  0.109900  1.0  -0.0306
  C  C182  1  0.092000  0.124600  0.329600  1.0  0.0545
  C  C183  1  0.054300  0.192200  0.494900  1.0  -0.0263
  C  C184  1  0.852500  0.063500  0.120600  1.0  0.0895
  C  C185  1  0.042400  0.672300  0.102900  1.0  0.0501
  C  C186  1  0.030600  0.142500  0.713200  1.0  -0.079
  C  C187  1  0.074400  0.143700  0.829980  1.0  0.0959
  C  C188  1  0.338500  0.186300  0.586800  1.0  -0.0541
  C  C189  1  0.957800  0.148600  0.918200  1.0  0.0201
  C  C190  1  0.932200  0.540100  0.894200  1.0  0.027
  C  C191  1  0.936700  0.812600  0.533600  1.0  -0.0249
  C  C192  1  0.983300  0.469900  0.896100  1.0  -0.0187
  C  C193  1  0.914200  0.901000  0.042900  1.0  0.2357
  C  C194  1  0.919600  0.838200  0.489800  1.0  0.0188
  C  C195  1  0.969400  0.857500  0.286800  1.0  -0.0792
  C  C196  1  0.952600  0.224700  0.895700  1.0  0.2426
  C  C197  1  0.660900  0.763600  0.377300  1.0  0.0395
  C  C198  1  0.898300  0.913100  0.629900  1.0  0.122
  C  C199  1  0.717800  0.988900  0.873900  1.0  -0.014
  C  C200  1  0.954600  0.382600  0.894100  1.0  0.079
  C  C201  1  0.946500  0.147300  0.873100  1.0  0.0129
  C  C202  1  0.287100  0.817700  0.401300  1.0  0.0238
  C  C203  1  0.914000  0.883900  0.719800  1.0  -0.0729
  C  C204  1  0.634200  0.965200  0.887800  1.0  -0.0792
  C  C205  1  0.905500  0.795000  0.256000  1.0  -0.0087
  C  C206  1  0.407000  0.764000  0.466900  1.0  -0.025
  C  C207  1  0.201000  0.938600  0.878700  1.0  0.0147
  C  C208  1  0.915100  0.890500  0.068800  1.0  0.1181
  C  C209  1  0.917700  0.918500  0.990900  1.0  -0.03
  C  C210  1  0.463500  0.791200  0.375300  1.0  0.0876
  C  C211  1  0.944100  0.037400  0.416300  1.0  -0.0405
  C  C212  1  0.803500  0.791900  0.390300  1.0  0.6078
  C  C213  1  0.227600  0.815300  0.398200  1.0  -0.0399
  C  C214  1  0.439000  0.872100  0.845300  1.0  -0.0491
  C  C215  1  0.098100  0.313000  0.407800  1.0  -0.0323
  C  C216  1  0.958000  0.373400  0.399500  1.0  0.1383
  C  C217  1  0.912000  0.817200  0.153230  1.0  0.0984
  C  C218  1  0.143800  0.986400  0.914800  1.0  0.0663
  C  C219  1  0.951100  0.958400  0.391800  1.0  0.6293
  C  C220  1  0.964600  0.217400  0.398000  1.0  0.0379
  C  C221  1  0.957400  0.116400  0.396700  1.0  0.3406
  C  C222  1  0.915000  0.882400  0.091300  1.0  -0.0125
  C  C223  1  0.987500  0.664300  0.887400  1.0  -0.0051
  C  C224  1  0.908200  0.858600  0.568000  1.0  -0.0364
  C  C225  1  0.949900  0.533200  0.399100  1.0  0.0165
  C  C226  1  0.886200  0.871500  0.025200  1.0  0.0156
  C  C227  1  0.913600  0.550200  0.382200  1.0  0.015
  C  C228  1  0.947500  0.742200  0.898100  1.0  -0.0234
  C  C229  1  0.977700  0.615700  0.414000  1.0  0.0094
  C  C230  1  0.931700  0.923800  0.827300  1.0  0.6884
  C  C231  1  0.964400  0.275800  0.398300  1.0  0.3929
  C  C232  1  0.201700  0.791700  0.420200  1.0  -0.0802
  C  C233  1  0.151800  0.847900  0.380900  1.0  -0.0347
  C  C234  1  0.382000  0.794500  0.394800  1.0  -0.0032
  C  C235  1  0.805800  0.447000  0.877200  1.0  -0.0404
  C  C236  1  0.914100  0.827600  0.659200  1.0  0.2115
  C  C237  1  0.927700  0.913700  0.799000  1.0  0.0193
  C  C238  1  0.894100  0.448900  0.894000  1.0  0.1626
  C  C239  1  0.898400  0.936300  0.757800  1.0  -0.0329
  C  C240  1  0.982500  0.561700  0.415600  1.0  -0.0177
  C  C241  1  0.377200  0.974400  0.895300  1.0  -0.0346
  C  C242  1  0.000300  0.303500  0.403100  1.0  0.1564
  C  C243  1  0.010100  0.360500  0.403700  1.0  -0.0151
  C  C244  1  0.147500  0.936500  0.879400  1.0  0.0914
  C  C245  1  0.964500  0.173200  0.398300  1.0  0.047
  C  C246  1  0.931800  0.837500  0.218400  1.0  0.0516
  C  C247  1  0.410600  0.997700  0.912700  1.0  0.205
  C  C248  1  0.955900  0.431700  0.400500  1.0  0.0298
  C  C249  1  0.952200  0.875900  0.787300  1.0  0.0167
  C  C250  1  0.639100  0.789000  0.393600  1.0  0.3742
  C  C251  1  0.661500  0.813700  0.413200  1.0  -0.0515
  C  C252  1  0.799500  0.955600  0.883100  1.0  0.4136
  C  C253  1  0.447600  0.945700  0.871100  1.0  0.2248
  C  C254  1  0.738300  0.953700  0.890100  1.0  -0.031
  C  C255  1  0.947200  0.935500  0.033600  1.0  0.0904
  C  C256  1  0.199600  0.994400  0.915100  1.0  -0.0481
  C  C257  1  0.537000  0.800000  0.347600  1.0  -0.0382
  C  C258  1  0.903300  0.867000  0.618100  1.0  -0.0128
  C  C259  1  0.952900  0.581900  0.896300  1.0  0.0295
  C  C260  1  0.404800  0.789500  0.418500  1.0  0.1408
  C  C261  1  0.899800  0.944200  0.784400  1.0  -0.0067
  C  C262  1  0.745100  0.792700  0.392600  1.0  0.0848
  C  C263  1  0.540600  0.789500  0.400000  1.0  0.1429
  C  C264  1  0.927200  0.930100  0.962000  1.0  0.5992
  C  C265  1  0.395700  0.948400  0.874400  1.0  0.0347
  C  C266  1  0.723500  0.819300  0.411000  1.0  -0.0575
  C  C267  1  0.936300  0.905000  0.159600  1.0  0.1676
  C  C268  1  0.944900  0.862900  0.761000  1.0  0.0296
  C  C269  1  0.456900  0.785400  0.420600  1.0  0.0144
  C  C270  1  0.839400  0.341000  0.366600  1.0  -0.032
  C  C271  1  0.987700  0.716900  0.887700  1.0  -0.0318
  C  C272  1  0.969300  0.041700  0.374200  1.0  0.0442
  C  C273  1  0.954700  0.946200  0.006000  1.0  -0.0665
  C  C274  1  0.891400  0.874800  0.498800  1.0  0.0816
  C  C275  1  0.481000  0.969000  0.888500  1.0  0.1175
  C  C276  1  0.970000  0.096700  0.375700  1.0  0.0451
  C  C277  1  0.322200  0.977100  0.898700  1.0  -0.0326
  C  C278  1  0.920500  0.894900  0.747800  1.0  0.0611
  C  C279  1  0.913200  0.821900  0.632200  1.0  -0.0084
  C  C280  1  0.486300  0.786200  0.399000  1.0  0.0868
  C  C281  1  0.904700  0.397700  0.893300  1.0  -0.0172
  C  C282  1  0.911100  0.604200  0.381300  1.0  -0.0114
  C  C283  1  0.925600  0.856300  0.170020  1.0  0.1037
  C  C284  1  0.941700  0.635000  0.398140  1.0  -0.0473
  C  C285  1  0.907000  0.714900  0.908200  1.0  -0.0578
  C  C286  1  0.411400  0.795300  0.373200  1.0  0.0784
  C  C287  1  0.908000  0.875400  0.670400  1.0  0.0548
  C  C288  1  0.957600  0.993800  0.168200  1.0  -0.0131
  C  C289  1  0.929200  0.848900  0.195700  1.0  0.0565
  C  C290  1  0.066200  0.826600  0.399600  1.0  0.6264
  C  C291  1  0.911000  0.853500  0.540700  1.0  0.0572
  C  C292  1  0.326900  0.798500  0.400400  1.0  0.0781
  C  C293  1  0.945700  0.807800  0.505100  1.0  -0.0286
  C  C294  1  0.899200  0.918400  0.657000  1.0  0.0568
  C  C295  1  0.706700  0.924300  0.905200  1.0  -0.0376
  C  C296  1  0.953300  0.279300  0.896800  1.0  -0.0366
  C  C297  1  0.720300  0.766000  0.374900  1.0  -0.0172
  C  C298  1  0.578200  0.971600  0.890700  1.0  -0.015
  C  C299  1  0.947100  0.637000  0.897600  1.0  0.0677
  C  C300  1  0.993900  0.418700  0.895400  1.0  0.1347
  C  C301  1  0.421000  0.037000  0.954200  1.0  -0.0509
  C  C302  1  0.887000  0.880900  0.998300  1.0  -0.0635
  C  C303  1  0.937800  0.693900  0.396760  1.0  0.6401
  C  C304  1  0.922600  0.736100  0.660100  1.0  0.014
  C  C305  1  0.937900  0.821600  0.298450  1.0  0.0715
  C  C306  1  0.206900  0.840100  0.379100  1.0  0.0247
  C  C307  1  0.933700  0.832000  0.245320  1.0  0.0462
  C  C308  1  0.942900  0.065900  0.894500  1.0  0.6653
  C  C309  1  0.462500  0.995000  0.909400  1.0  0.0224
  C  C310  1  0.926100  0.831600  0.461500  1.0  0.618
  C  C311  1  0.532900  0.972900  0.889200  1.0  0.0516
  C  C312  1  0.885700  0.006400  0.629600  1.0  -0.0201
  C  C313  1  0.582800  0.796600  0.395000  1.0  0.0922
  C  C314  1  0.064400  0.948900  0.897900  1.0  0.6235
  C  C315  1  0.934500  0.807800  0.899600  1.0  0.3256
  C  C316  1  0.905600  0.793800  0.283160  1.0  -0.0125
  C  C317  1  0.957600  0.327700  0.897100  1.0  0.0509
  C  C318  1  0.084500  0.407400  0.890900  1.0  -0.021
  C  C319  1  0.904900  0.826300  0.128090  1.0  0.1505
  C  C320  1  0.654700  0.930000  0.904000  1.0  -0.023
  C  C321  1  0.905400  0.865500  0.591700  1.0  0.0648
  C  C322  1  0.887200  0.884700  0.524500  1.0  -0.0191
  C  C323  1  0.966000  0.864100  0.259600  1.0  -0.042
  C  C324  1  0.936300  0.819200  0.326040  1.0  0.6693
  C  C325  1  0.886600  0.735600  0.120100  1.0  -0.0279
  C  C326  1  0.912300  0.355800  0.392200  1.0  -0.0112
  C  C327  1  0.933500  0.485000  0.895300  1.0  0.0119
  C  C328  1  0.665700  0.994700  0.872800  1.0  -0.0745
  C  C329  1  0.933200  0.913100  0.134400  1.0  0.096
  C  C330  1  0.917700  0.291400  0.393500  1.0  -0.0262
  C  C331  1  0.945500  0.096100  0.418300  1.0  -0.0066
  C  C332  1  0.953300  0.017600  0.393900  1.0  0.1992
  C  C333  1  0.225200  0.968200  0.897200  1.0  0.24
  C  C334  1  0.908700  0.878900  0.697300  1.0  -0.0143
  C  C335  1  0.124400  0.825700  0.399600  1.0  0.1395
  C  C336  1  0.918000  0.874600  0.117720  1.0  0.0263
  C  C337  1  0.277800  0.976700  0.897100  1.0  0.1869
  C  C338  1  0.948400  0.202000  0.873900  1.0  0.0719
  C  C339  1  0.958300  0.204400  0.920100  1.0  -0.0268
  C  C340  1  0.906900  0.662300  0.908000  1.0  0.0072
  C  C341  1  0.119600  0.955400  0.897500  1.0  0.2251
  C  C342  1  0.950600  0.475900  0.400100  1.0  0.0631
  C  C343  1  0.945900  0.122800  0.894800  1.0  0.1257
  C  C344  1  0.146900  0.802700  0.417100  1.0  0.0347
  C  C345  1  0.754300  0.596200  0.505500  1.0  -0.0451
  C  C346  1  0.741600  0.914800  0.683300  1.0  0.0593
  C  C347  1  0.527000  0.522900  0.658600  1.0  -0.0494
  C  C348  1  0.644000  0.695100  0.177200  1.0  0.4277
  C  C349  1  0.773300  0.475200  0.185100  1.0  0.2422
  C  C350  1  0.017200  0.583000  0.667500  1.0  0.0374
  C  C351  1  0.750700  0.577300  0.583800  1.0  -0.0584
  C  C352  1  0.725800  0.579200  0.441100  1.0  -0.021
  C  C353  1  0.733200  0.672900  0.045100  1.0  -0.0665
  C  C354  1  0.092300  0.545800  0.686600  1.0  -0.0547
  C  C355  1  0.324600  0.710800  0.185900  1.0  0.0084
  C  C356  1  0.745300  0.958200  0.678000  1.0  0.0261
  C  C357  1  0.609300  0.557200  0.675600  1.0  0.655
  C  C358  1  0.963700  0.593800  0.666900  1.0  -0.042
  C  C359  1  0.551300  0.550800  0.676400  1.0  -0.0124
  C  C360  1  0.746700  0.613000  0.285000  1.0  -0.0228
  C  C361  1  0.853500  0.713500  0.454600  1.0  -0.0165
  C  C362  1  0.781200  0.882900  0.161000  1.0  -0.0055
  C  C363  1  0.746000  0.604700  0.312500  1.0  -0.0301
  C  C364  1  0.300800  0.737200  0.205100  1.0  -0.0168
  C  C365  1  0.200000  0.528200  0.614600  1.0  -0.0311
  C  C366  1  0.755100  0.118200  0.683400  1.0  0.0595
  C  C367  1  0.010700  0.545300  0.707900  1.0  -0.0372
  C  C368  1  0.391100  0.533400  0.675700  1.0  0.2284
  C  C369  1  0.817100  0.461700  0.178400  1.0  -0.0174
  C  C370  1  0.991700  0.662300  0.167600  1.0  0.0541
  C  C371  1  0.737700  0.571200  0.747100  1.0  0.6718
  C  C372  1  0.794300  0.684400  0.319400  1.0  0.0243
  C  C373  1  0.219700  0.707000  0.188700  1.0  0.0077
  C  C374  1  0.767600  0.635000  0.354800  1.0  0.035
  C  C375  1  0.784800  0.573600  0.919100  1.0  0.0181
  C  C376  1  0.772500  0.217700  0.185000  1.0  0.1075
  C  C377  1  0.771200  0.641900  0.328600  1.0  -0.0003
  C  C378  1  0.794500  0.652200  0.420600  1.0  0.0573
  C  C379  1  0.268700  0.526900  0.701600  1.0  0.0791
  C  C380  1  0.660100  0.523100  0.406900  1.0  -0.03
  C  C381  1  0.749300  0.172100  0.684000  1.0  0.103
  C  C382  1  0.806800  0.887000  0.203600  1.0  0.0768
  C  C383  1  0.445800  0.539600  0.678100  1.0  0.0992
  C  C384  1  0.741000  0.585400  0.878300  1.0  0.0737
  C  C385  1  0.742700  0.861900  0.681600  1.0  0.2012
  C  C386  1  0.190200  0.533700  0.684700  1.0  0.1065
  C  C387  1  0.779600  0.661200  0.249600  1.0  0.6685
  C  C388  1  0.798900  0.691100  0.292900  1.0  -0.0402
  C  C389  1  0.706500  0.835000  0.695200  1.0  -0.0285
  C  C390  1  0.777100  0.836200  0.666900  1.0  0.0118
  C  C391  1  0.781700  0.803800  0.181300  1.0  0.6693
  C  C392  1  0.747100  0.585000  0.855500  1.0  0.0525
  C  C393  1  0.756500  0.610200  0.455400  1.0  0.0463
  C  C394  1  0.735800  0.436900  0.674300  1.0  0.563
  C  C395  1  0.685000  0.198000  0.148700  1.0  -0.0589
  C  C396  1  0.736600  0.679700  0.071500  1.0  0.0013
  C  C397  1  0.635000  0.088800  0.652200  1.0  -0.0822
  C  C398  1  0.796800  0.060900  0.184500  1.0  0.087
  C  C399  1  0.164300  0.711800  0.188400  1.0  0.0179
  C  C400  1  0.063900  0.701400  0.183700  1.0  0.2502
  C  C401  1  0.718100  0.548200  0.569900  1.0  -0.0673
  C  C402  1  0.739000  0.756700  0.679400  1.0  -0.088
  C  C403  1  0.243500  0.680600  0.169500  1.0  0.007
  C  C404  1  0.296000  0.682500  0.168100  1.0  0.1938
  C  C405  1  0.732900  0.182000  0.185600  1.0  0.2296
  C  C406  1  0.288000  0.599300  0.151800  1.0  -0.0205
  C  C407  1  0.117700  0.704100  0.185200  1.0  -0.0624
  C  C408  1  0.784300  0.615600  0.546800  1.0  0.0139
  C  C409  1  0.768100  0.628800  0.377000  1.0  -0.0263
  C  C410  1  0.349300  0.528700  0.679400  1.0  0.3431
  C  C411  1  0.780000  0.541800  0.182700  1.0  0.6249
  C  C412  1  0.422100  0.708900  0.185300  1.0  0.1022
  C  C413  1  0.216400  0.530500  0.707200  1.0  -0.011
  C  C414  1  0.704900  0.608800  0.815900  1.0  -0.0455
  C  C415  1  0.776300  0.553700  0.817200  1.0  0.001
  C  C416  1  0.758000  0.632800  0.035600  1.0  0.49
  C  C417  1  0.198000  0.760000  0.242700  1.0  -0.0326
  C  C418  1  0.524600  0.571400  0.697100  1.0  -0.0897
  C  C419  1  0.510200  0.738600  0.169400  1.0  -0.0573
  C  C420  1  0.380200  0.705300  0.181700  1.0  0.1821
  C  C421  1  0.738000  0.573000  0.775100  1.0  -0.0211
  C  C422  1  0.271700  0.511800  0.749300  1.0  -0.0304
  C  C423  1  0.708200  0.607700  0.788100  1.0  0.0198
  C  C424  1  0.935100  0.575300  0.686300  1.0  -0.0508
  C  C425  1  0.788600  0.647700  0.445800  1.0  0.2309
  C  C426  1  0.472000  0.564200  0.696500  1.0  0.0472
  C  C427  1  0.584000  0.691200  0.179400  1.0  -0.0306
  C  C428  1  0.736500  0.270000  0.680400  1.0  0.0549
  C  C429  1  0.704700  0.782400  0.694100  1.0  -0.0525
  C  C430  1  0.773000  0.662600  0.114620  1.0  0.6658
  C  C431  1  0.740600  0.698200  0.682200  1.0  0.5579
  C  C432  1  0.723100  0.547300  0.541400  1.0  -0.0785
  C  C433  1  0.806100  0.939800  0.207200  1.0  0.002
  C  C434  1  0.711800  0.090300  0.676100  1.0  0.2156
  C  C435  1  0.757100  0.605100  0.482500  1.0  -0.0224
  C  C436  1  0.775900  0.547600  0.789500  1.0  -0.099
  C  C437  1  0.752000  0.589900  0.532200  1.0  0.3521
  C  C438  1  0.873300  0.531200  0.947800  1.0  -0.0201
  C  C439  1  0.136900  0.541900  0.685300  1.0  0.0368
  C  C440  1  0.756800  0.013200  0.681200  1.0  -0.0255
  C  C441  1  0.562000  0.732200  0.167800  1.0  -0.0365
  C  C442  1  0.767100  0.652100  0.085100  1.0  -0.0725
  C  C443  1  0.822200  0.202200  0.184300  1.0  -0.0308
  C  C444  1  0.045300  0.667500  0.167500  1.0  0.0515
  C  C445  1  0.704900  0.626400  0.944800  1.0  0.001
  C  C446  1  0.709400  0.344300  0.658800  1.0  -0.0657
  C  C447  1  0.248300  0.735300  0.206500  1.0  0.1208
  C  C448  1  0.730300  0.374600  0.678300  1.0  -0.0752
  C  C449  1  0.906400  0.678100  0.183420  1.0  0.6684
  C  C450  1  0.729700  0.585700  0.413600  1.0  0.0602
  C  C451  1  0.779400  0.018400  0.186600  1.0  0.029
  C  C452  1  0.724400  0.401100  0.187500  1.0  -0.0188
  C  C453  1  0.746800  0.595000  0.906800  1.0  0.051
  C  C454  1  0.791600  0.610300  0.075100  1.0  -0.0774
  C  C455  1  0.800100  0.041200  0.688500  1.0  0.0504
  C  C456  1  0.750800  0.623700  0.008300  1.0  -0.0578
  C  C457  1  0.757300  0.300200  0.699900  1.0  -0.0497
  C  C458  1  0.626400  0.656100  0.917000  1.0  -0.0498
  C  C459  1  0.832300  0.150900  0.184100  1.0  0.1354
  C  C460  1  0.799300  0.093700  0.689600  1.0  0.039
  C  C461  1  0.771900  0.378400  0.187500  1.0  -0.0217
  C  C462  1  0.820700  0.398500  0.176600  1.0  -0.0897
  C  C463  1  0.784000  0.583200  0.947300  1.0  0.0313
  C  C464  1  0.742900  0.130700  0.185400  1.0  0.0029
  C  C465  1  0.036100  0.557500  0.686900  1.0  0.0487
  C  C466  1  0.754200  0.352600  0.698900  1.0  -0.0684
  C  C467  1  0.793000  0.861100  0.182100  1.0  0.1473
  C  C468  1  0.209800  0.533100  0.661900  1.0  0.1487
  C  C469  1  0.554100  0.656600  0.192500  1.0  -0.0377
  C  C470  1  0.712500  0.292000  0.659900  1.0  0.0035
  C  C471  1  0.480300  0.704000  0.182500  1.0  -0.0084
  C  C472  1  0.728800  0.457100  0.187200  1.0  -0.0086
  C  C473  1  0.774100  0.654500  0.276900  1.0  -0.0845
  C  C474  1  0.294800  0.530300  0.680100  1.0  0.2313
  C  C475  1  0.712600  0.037700  0.675000  1.0  -0.0063
  C  C476  1  0.771100  0.316800  0.183700  1.0  0.0609
  C  C477  1  0.266300  0.530000  0.657400  1.0  -0.0105
  C  C478  1  0.470500  0.519200  0.657200  1.0  -0.0834
  C  C479  1  0.792600  0.115200  0.184700  1.0  0.0906
  C  C480  1  0.704600  0.616200  0.916500  1.0  0.2181
  C  C481  1  0.876900  0.586300  0.689500  1.0  0.6119
  C  C482  1  0.735600  0.213000  0.680300  1.0  0.0529
  C  C483  1  0.738600  0.577900  0.827700  1.0  0.0735
  C  C484  1  0.776900  0.940800  0.164400  1.0  0.0118
  C  C485  1  0.787600  0.604600  0.048000  1.0  0.0471
  C  C486  1  0.762400  0.621700  0.404000  1.0  -0.0332
  C  C487  1  0.784100  0.613300  0.574400  1.0  -0.0663
  C  C488  1  0.750200  0.615100  0.984900  1.0  -0.0681
  C  C489  1  0.502300  0.663000  0.194100  1.0  -0.0097
  C  C490  1  0.984500  0.716900  0.200700  1.0  0.0493
  C  C491  1  0.954900  0.552800  0.708300  1.0  -0.1011
  C  C492  1  0.743700  0.609400  0.956700  1.0  0.1194
  C  C493  1  0.790800  0.963000  0.186100  1.0  0.1501
  C  C494  1  0.751000  0.572900  0.614400  1.0  0.6253
  C  C495  1  0.768800  0.274100  0.185100  1.0  0.2156
  C  C496  1  0.861000  0.979000  0.693000  1.0  -0.0347
  C  C497  1  0.040500  0.724600  0.203900  1.0  -0.0118
  C  C498  1  0.964100  0.686500  0.184100  1.0  0.3371
  C  C499  1  0.775200  0.783600  0.665800  1.0  -0.0364
  C  C500  1  0.064900  0.424700  0.313700  1.0  -0.0504
  C  C501  1  0.295300  0.217600  0.305900  1.0  -0.0548
  C  C502  1  0.215900  0.386700  0.425600  1.0  -0.062
  C  C503  1  0.237600  0.378300  0.596000  1.0  -0.0299
  C  C504  1  0.519700  0.296000  0.817500  1.0  -0.0056
  C  C505  1  0.274200  0.420800  0.558900  1.0  -0.0216
  C  C506  1  0.259400  0.301800  0.317800  1.0  0.5578
  C  C507  1  0.208400  0.389700  0.924900  1.0  -0.0785
  C  C508  1  0.093600  0.321900  0.816580  1.0  0.6683
  C  C509  1  0.835700  0.288200  0.811600  1.0  0.0145
  C  C510  1  0.252900  0.415000  0.144500  1.0  0.0505
  C  C511  1  0.365000  0.911200  0.347800  1.0  -0.0843
  C  C512  1  0.705200  0.469700  0.319900  1.0  0.2286
  C  C513  1  0.959500  0.275400  0.796100  1.0  -0.0125
  C  C514  1  0.863100  0.458100  0.314700  1.0  0.037
  C  C515  1  0.989300  0.454700  0.292100  1.0  -0.037
  C  C516  1  0.271200  0.542900  0.812800  1.0  -0.008
  C  C517  1  0.179300  0.601500  0.823400  1.0  -0.0931
  C  C518  1  0.215200  0.426400  0.080900  1.0  0.0146
  C  C519  1  0.207400  0.884800  0.815300  1.0  0.0916
  C  C520  1  0.231900  0.371200  0.623000  1.0  -0.0273
  C  C521  1  0.751700  0.264700  0.793500  1.0  0.1189
  C  C522  1  0.232400  0.365000  0.645200  1.0  0.0384
  C  C523  1  0.220600  0.981600  0.813400  1.0  0.0282
  C  C524  1  0.242900  0.394900  0.517500  1.0  -0.0236
  C  C525  1  0.287500  0.708000  0.340100  1.0  0.0021
  C  C526  1  0.177800  0.797800  0.815700  1.0  -0.0309
  C  C527  1  0.228900  0.683200  0.816300  1.0  0.0596
  C  C528  1  0.211400  0.352300  0.554200  1.0  0.231
  C  C529  1  0.228800  0.358100  0.671400  1.0  -0.0035
  C  C530  1  0.438000  0.267800  0.832200  1.0  -0.038
  C  C531  1  0.882300  0.295900  0.814800  1.0  -0.0619
  C  C532  1  0.270300  0.414300  0.586400  1.0  0.0567
  C  C533  1  0.276900  0.452700  0.458600  1.0  -0.0792
  C  C534  1  0.201100  0.308900  0.707100  1.0  -0.0431
  C  C535  1  0.650700  0.471300  0.320600  1.0  0.34
  C  C536  1  0.182900  0.538300  0.821600  1.0  -0.0172
  C  C537  1  0.936100  0.298600  0.816300  1.0  0.2507
  C  C538  1  0.244900  0.881800  0.316600  1.0  0.0563
  C  C539  1  0.199900  0.958800  0.311500  1.0  0.0517
  C  C540  1  0.266800  0.327100  0.954900  1.0  -0.0697
  C  C541  1  0.528000  0.435800  0.303500  1.0  0.051
  C  C542  1  0.577900  0.291100  0.814700  1.0  0.1044
  C  C543  1  0.254000  0.395300  0.687500  1.0  -0.03
  C  C544  1  0.015500  0.283100  0.799300  1.0  0.0506
  C  C545  1  0.473000  0.477100  0.341400  1.0  -0.0466
  C  C546  1  0.675400  0.289200  0.814100  1.0  0.0093
  C  C547  1  0.275600  0.598900  0.812500  1.0  -0.0192
  C  C548  1  0.356000  0.304900  0.822800  1.0  0.4271
  C  C549  1  0.146500  0.286500  0.545400  1.0  -0.0142
  C  C550  1  0.207000  0.138900  0.817900  1.0  0.1475
  C  C551  1  0.264400  0.787000  0.319700  1.0  0.0522
  C  C552  1  0.790200  0.466900  0.338100  1.0  0.1484
  C  C553  1  0.497700  0.337000  0.805900  1.0  -0.0126
  C  C554  1  0.699200  0.262800  0.794900  1.0  -0.0183
  C  C555  1  0.254700  0.041800  0.322000  1.0  0.0247
  C  C556  1  0.250700  0.827900  0.316000  1.0  0.1016
  C  C557  1  0.267100  0.818000  0.814400  1.0  0.2318
  C  C558  1  0.228100  0.621600  0.812500  1.0  -0.0221
  C  C559  1  0.800000  0.471800  0.385400  1.0  -0.0341
  C  C560  1  0.232900  0.347900  0.914900  1.0  -0.0735
  C  C561  1  0.295400  0.383800  0.083500  1.0  0.2187
  C  C562  1  0.222900  0.163800  0.333100  1.0  0.0109
  C  C563  1  0.249000  0.427100  0.385600  1.0  0.6256
  C  C564  1  0.281900  0.451800  0.430100  1.0  -0.0699
  C  C565  1  0.295100  0.373600  0.055200  1.0  0.004
  C  C566  1  0.315000  0.802000  0.851300  1.0  -0.059
  C  C567  1  0.475400  0.428600  0.302900  1.0  -0.0883
  C  C568  1  0.954700  0.332500  0.832500  1.0  0.05
  C  C569  1  0.373600  0.343900  0.083000  1.0  -0.0499
  C  C570  1  0.264200  0.563100  0.325700  1.0  0.5618
  C  C571  1  0.205700  0.315600  0.680600  1.0  0.0241
  C  C572  1  0.243200  0.986800  0.318800  1.0  -0.0239
  C  C573  1  0.704000  0.317500  0.831900  1.0  0.1933
  C  C574  1  0.215700  0.384400  0.453200  1.0  0.0147
  C  C575  1  0.269700  0.625400  0.321700  1.0  -0.0755
  C  C576  1  0.733700  0.470000  0.342600  1.0  -0.015
  C  C577  1  0.489800  0.261400  0.830600  1.0  -0.0561
  C  C578  1  0.288200  0.909700  0.323900  1.0  0.2152
  C  C579  1  0.218800  0.117100  0.839000  1.0  -0.0037
  C  C580  1  0.529500  0.480800  0.342800  1.0  -0.0821
  C  C581  1  0.257300  0.138100  0.318400  1.0  0.2016
  C  C582  1  0.261400  0.422100  0.172300  1.0  0.0736
  C  C583  1  0.036300  0.406200  0.333100  1.0  -0.0415
  C  C584  1  0.731300  0.473100  0.298400  1.0  0.0798
  C  C585  1  0.728300  0.488200  0.250700  1.0  -0.0303
  C  C586  1  0.223100  0.059200  0.835600  1.0  0.0075
  C  C587  1  0.295100  0.391200  0.184100  1.0  -0.0421
  C  C588  1  0.339900  0.476900  0.593100  1.0  -0.0336
  C  C589  1  0.249800  0.384900  0.015100  1.0  -0.0688
  C  C590  1  0.220000  0.458200  0.817300  1.0  0.6269
  C  C591  1  0.963900  0.442500  0.313100  1.0  0.0457
  C  C592  1  0.554200  0.460400  0.321900  1.0  0.1094
  C  C593  1  0.712000  0.400700  0.848200  1.0  -0.0203
  C  C594  1  0.126700  0.468800  0.052200  1.0  -0.019
  C  C595  1  0.220400  0.338800  0.750400  1.0  0.671
  C  C596  1  0.783600  0.469500  0.292800  1.0  -0.0116
  C  C597  1  0.248000  0.410100  0.467800  1.0  0.3526
  C  C598  1  0.253200  0.405000  0.093200  1.0  0.0512
  C  C599  1  0.242700  0.699800  0.300100  1.0  -0.0536
  C  C600  1  0.205500  0.347800  0.579400  1.0  0.0574
  C  C601  1  0.619800  0.294700  0.818300  1.0  0.1819
  C  C602  1  0.982800  0.417000  0.332500  1.0  0.0373
  C  C603  1  0.193200  0.113000  0.796400  1.0  0.0812
  C  C604  1  0.291800  0.392300  0.211900  1.0  0.0183
  C  C605  1  0.212400  0.395400  0.952000  1.0  0.0459
  C  C606  1  0.223700  0.446300  0.182800  1.0  0.0029
  C  C607  1  0.193900  0.060200  0.792800  1.0  0.0027
  C  C608  1  0.756500  0.319400  0.830500  1.0  0.0034
  C  C609  1  0.802000  0.240000  0.757300  1.0  -0.0336
  C  C610  1  0.416000  0.308800  0.820600  1.0  -0.0315
  C  C611  1  0.227000  0.337400  0.885380  1.0  0.6669
  C  C612  1  0.123100  0.413700  0.310500  1.0  0.6122
  C  C613  1  0.045100  0.447200  0.291700  1.0  -0.1048
  C  C614  1  0.261000  0.243300  0.320600  1.0  -0.0899
  C  C615  1  0.227500  0.782300  0.815000  1.0  0.1084
  C  C616  1  0.445900  0.343400  0.807500  1.0  -0.0418
  C  C617  1  0.243500  0.389800  0.544600  1.0  0.0493
  C  C618  1  0.263400  0.320300  0.928500  1.0  0.0002
  C  C619  1  0.224100  0.452400  0.210500  1.0  -0.1035
  C  C620  1  0.216000  0.416800  0.052700  1.0  0.0301
  C  C621  1  0.167700  0.849100  0.815900  1.0  0.1396
  C  C622  1  0.293500  0.165000  0.304800  1.0  -0.0307
  C  C623  1  0.242000  0.367200  0.964400  1.0  0.4891
  C  C624  1  0.231200  0.725900  0.814900  1.0  0.2156
  C  C625  1  0.287400  0.962300  0.325000  1.0  -0.0059
  C  C626  1  0.035900  0.313500  0.815900  1.0  0.3351
  C  C627  1  0.263500  0.730000  0.319600  1.0  0.0558
  C  C628  1  0.253300  0.387000  0.715000  1.0  -0.0241
  C  C629  1  0.608900  0.466600  0.324300  1.0  0.231
  C  C630  1  0.203200  0.939100  0.815500  1.0  0.0891
  C  C631  1  0.249300  0.422700  0.416200  1.0  -0.0587
  C  C632  1  0.907700  0.454200  0.313400  1.0  -0.0568
  C  C633  1  0.139000  0.021000  0.307000  1.0  -0.0348
  C  C634  1  0.218300  0.196200  0.818700  1.0  0.6712
  C  C635  1  0.780300  0.293000  0.811300  1.0  0.008
  C  C636  1  0.262000  0.427000  0.224900  1.0  -0.0218
  C  C637  1  0.249200  0.376300  0.991700  1.0  -0.0572
  C  C638  1  0.225900  0.345500  0.723100  1.0  -0.0871
  C  C639  1  0.245800  0.647400  0.301100  1.0  -0.0719
  C  C640  1  0.008300  0.337700  0.832400  1.0  0.0532
  C  C641  1  0.245700  0.403800  0.494500  1.0  -0.0433
  C  C642  1  0.809800  0.466300  0.315300  1.0  0.1056
  C  C643  1  0.200700  0.906300  0.310400  1.0  0.0399
  C  C644  1  0.262300  0.428800  0.252900  1.0  0.6735
  C  C645  1  0.259000  0.414600  0.121700  1.0  0.0735
  C  C646  1  0.257100  0.869300  0.814600  1.0  1e-04
  C  C647  1  0.258400  0.085200  0.316700  1.0  0.0594
  C  C648  1  0.390700  0.442800  0.324400  1.0  0.6559
  C  C649  1  0.256300  0.390600  0.043300  1.0  0.1207
  C  C650  1  0.226700  0.524800  0.814900  1.0  0.2419
  C  C651  1  0.209200  0.037000  0.813900  1.0  0.1524
  C  C652  1  0.448700  0.449200  0.323600  1.0  -0.0122
  C  C653  1  0.224800  0.216400  0.334200  1.0  -0.0347
  C  C654  1  0.290600  0.655700  0.341200  1.0  -0.0635
  O  O655  1  0.078600  0.213200  0.327080  1.0  -0.3163
  O  O656  1  0.103600  0.212600  0.890120  1.0  -0.2112
  O  O657  1  0.964900  0.612300  0.104200  1.0  -0.2466
  O  O658  1  0.537000  0.081000  0.150500  1.0  -0.2522
  O  O659  1  0.071800  0.173300  0.082600  1.0  -0.5788
  O  O660  1  0.037300  0.282500  0.586460  1.0  -0.578
  O  O661  1  0.091400  0.211500  0.664130  1.0  -0.5371
  O  O662  1  0.958700  0.081900  0.118990  1.0  -0.6396
  O  O663  1  0.175600  0.019000  0.128240  1.0  -0.4934
  O  O664  1  0.045400  0.201000  0.545840  1.0  -0.5245
  O  O665  1  0.612700  0.979000  0.066500  1.0  -0.2261
  O  O666  1  0.948500  0.146200  0.618970  1.0  -0.5772
  O  O667  1  0.070900  0.064400  0.588680  1.0  -0.6286
  O  O668  1  0.956900  0.195400  0.583500  1.0  -0.564
  O  O669  1  0.070700  0.068170  0.105370  1.0  -1.2146
  O  O670  1  0.948200  0.719400  0.592500  1.0  -0.3554
  O  O671  1  0.101700  0.138300  0.552280  1.0  -0.6203
  O  O672  1  0.041700  0.040800  0.045590  1.0  -0.519
  O  O673  1  0.611000  0.220000  0.556600  1.0  -0.515
  O  O674  1  0.180400  0.226400  0.627480  1.0  -0.5219
  O  O675  1  0.107900  0.098200  0.051790  1.0  -0.6336
  O  O676  1  0.519600  0.208600  0.651100  1.0  -0.4867
  O  O677  1  0.026800  0.060600  0.625460  1.0  -0.5316
  O  O678  1  0.109400  0.046300  0.385000  1.0  -0.5069
  O  O679  1  0.075700  0.955400  0.124140  1.0  -0.5769
  O  O680  1  0.147000  0.645000  0.606600  1.0  -0.5015
  O  O681  1  0.067620  0.175360  0.605900  1.0  -1.2261
  O  O682  1  0.029500  0.152000  0.662310  1.0  -0.6207
  O  O683  1  0.959100  0.030400  0.086010  1.0  -0.5447
  O  O684  1  0.090400  0.291700  0.620940  1.0  -0.5939
  O  O685  1  0.022700  0.181600  0.116360  1.0  -0.5946
  O  O686  1  0.092200  0.042100  0.163940  1.0  -0.5466
  O  O687  1  0.174200  0.184900  0.590320  1.0  -0.628
  O  O688  1  0.038500  0.105000  0.161030  1.0  -0.5749
  O  O689  1  0.044300  0.955200  0.084560  1.0  -0.5848
  O  O690  1  0.051400  0.057000  0.822360  1.0  -0.1976
  O  O691  1  0.185900  0.076400  0.096500  1.0  -0.6517
  O  O692  1  0.146900  0.520100  0.110500  1.0  -0.5557
  O  O693  1  0.962700  0.717500  0.413540  1.0  -0.5767
  O  O694  1  0.814100  0.923600  0.903500  1.0  -0.6527
  O  O695  1  0.890600  0.953700  0.615000  1.0  -0.5059
  O  O696  1  0.955700  0.044800  0.915440  1.0  -0.5836
  O  O697  1  0.051800  0.280600  0.407500  1.0  -0.3553
  O  O698  1  0.463000  0.919000  0.849500  1.0  -0.251
  O  O699  1  0.924300  0.044600  0.875860  1.0  -0.5749
  O  O700  1  0.898300  0.861700  0.447720  1.0  -0.6234
  O  O701  1  0.819600  0.773600  0.372520  1.0  -0.5204
  O  O702  1  0.041300  0.918100  0.881010  1.0  -0.6385
  O  O703  1  0.480400  0.791400  0.348900  1.0  -0.4897
  O  O704  1  0.908600  0.788500  0.335870  1.0  -0.5375
  O  O705  1  0.824400  0.981000  0.871760  1.0  -0.4931
  O  O706  1  0.892100  0.901800  0.948210  1.0  -0.6322
  O  O707  1  0.921400  0.786800  0.672920  1.0  -0.3168
  O  O708  1  0.954600  0.799000  0.454160  1.0  -0.5248
  O  O709  1  0.853000  0.355000  0.393400  1.0  -0.4992
  O  O710  1  0.973200  0.939400  0.374540  1.0  -0.5315
  O  O711  1  0.043100  0.804600  0.416500  1.0  -0.5623
  O  O712  1  0.853100  0.479900  0.889500  1.0  -0.5556
  O  O713  1  0.035100  0.387700  0.895800  1.0  -0.2473
  O  O714  1  0.929100  0.935600  0.411320  1.0  -0.6286
  O  O715  1  0.040900  0.969600  0.913990  1.0  -0.5446
  O  O716  1  0.896400  0.787400  0.109880  1.0  -0.2115
  O  O717  1  0.825800  0.815100  0.409680  1.0  -0.6282
  O  O718  1  0.929300  0.931830  0.894630  1.0  -1.2145
  O  O719  1  0.907800  0.957900  0.836060  1.0  -0.5452
  O  O720  1  0.051500  0.853800  0.381030  1.0  -0.577
  O  O721  1  0.389000  0.780000  0.443400  1.0  -0.5151
  O  O722  1  0.948600  0.943000  0.177640  1.0  -0.1984
  O  O723  1  0.958300  0.959200  0.954410  1.0  -0.5179
  O  O724  1  0.387300  0.021000  0.933500  1.0  -0.2224
  O  O725  1  0.909600  0.708300  0.379060  1.0  -0.5923
  O  O726  1  0.961500  0.895000  0.838970  1.0  -0.5749
  O  O727  1  0.977300  0.818400  0.883640  1.0  -0.5945
  O  O728  1  0.928200  0.826700  0.917400  1.0  -0.5785
  O  O729  1  0.970500  0.848000  0.337690  1.0  -0.6176
  O  O730  1  0.932380  0.824640  0.394100  1.0  -1.2264
  O  O731  1  0.777300  0.683500  0.666570  1.0  -0.5707
  O  O732  1  0.883600  0.705000  0.199600  1.0  -0.6146
  O  O733  1  0.800700  0.632100  0.125600  1.0  -0.5682
  O  O734  1  0.228100  0.775700  0.222700  1.0  -0.3157
  O  O735  1  0.803500  0.699000  0.241190  1.0  -0.5634
  O  O736  1  0.630100  0.534000  0.660470  1.0  -0.5371
  O  O737  1  0.852400  0.561400  0.703700  1.0  -0.5538
  O  O738  1  0.811600  0.556800  0.169940  1.0  -0.4994
  O  O739  1  0.828500  0.561200  0.962500  1.0  -0.7088
  O  O740  1  0.698000  0.559100  0.396200  1.0  -0.2191
  O  O741  1  0.672900  0.646000  0.904900  1.0  -0.2247
  O  O742  1  0.708300  0.450600  0.658810  1.0  -0.5131
  O  O743  1  0.766300  0.783300  0.162210  1.0  -0.5688
  O  O744  1  0.717100  0.540600  0.621900  1.0  -0.6061
  O  O745  1  0.707900  0.676700  0.693670  1.0  -0.5605
  O  O746  1  0.750500  0.697500  0.123030  1.0  -0.5469
  O  O747  1  0.658900  0.646200  0.177300  1.0  -0.5889
  O  O748  1  0.778300  0.601000  0.624760  1.0  -0.5495
  O  O749  1  0.663300  0.720400  0.160750  1.0  -0.5469
  O  O750  1  0.853400  0.032600  0.697100  1.0  -0.4431
  O  O751  1  0.889600  0.141600  0.178800  1.0  -0.531
  O  O752  1  0.628000  0.584700  0.693590  1.0  -0.6165
  O  O753  1  0.668000  0.116400  0.674100  1.0  -0.516
  O  O754  1  0.884800  0.649900  0.167710  1.0  -0.5823
  O  O755  1  0.744700  0.455000  0.696700  1.0  -0.6396
  O  O756  1  0.818400  0.673700  0.464280  1.0  -0.2157
  O  O757  1  0.862900  0.607800  0.668130  1.0  -0.578
  O  O758  1  0.735800  0.556500  0.189990  1.0  -0.6133
  O  O759  1  0.752900  0.628800  0.233870  1.0  -0.6737
  O  O760  1  0.686800  0.202000  0.176000  1.0  -0.4351
  O  O761  1  0.769600  0.669990  0.181180  1.0  -1.225
  O  O762  1  0.800600  0.784200  0.201370  1.0  -0.609
  O  O763  1  0.317900  0.643600  0.151900  1.0  -0.4162
  O  O764  1  0.706500  0.599000  0.736130  1.0  -0.5613
  O  O765  1  0.765800  0.540600  0.737510  1.0  -0.6113
  O  O766  1  0.741100  0.564140  0.680190  1.0  -1.0808
  O  O767  1  0.298100  0.522600  0.726500  1.0  -0.2493
  O  O768  1  0.180200  0.534800  0.639300  1.0  -0.1904
  O  O769  1  0.249500  0.302500  0.876970  1.0  -0.5471
  O  O770  1  0.115200  0.350100  0.832290  1.0  -0.5821
  O  O771  1  0.233700  0.216700  0.837790  1.0  -0.5702
  O  O772  1  0.293500  0.401000  0.263870  1.0  -0.5606
  O  O773  1  0.336700  0.279600  0.839250  1.0  -0.5462
  O  O774  1  0.372000  0.415300  0.306410  1.0  -0.6174
  O  O775  1  0.291700  0.549400  0.341190  1.0  -0.512
  O  O776  1  0.116400  0.295000  0.800400  1.0  -0.617
  O  O777  1  0.327100  0.354000  0.095100  1.0  -0.2239
  O  O778  1  0.230400  0.330010  0.818820  1.0  -1.225
  O  O779  1  0.181600  0.326300  0.535720  1.0  -0.2192
  O  O780  1  0.282900  0.459400  0.378100  1.0  -0.6027
  O  O781  1  0.221700  0.399000  0.375240  1.0  -0.548
  O  O782  1  0.110400  0.858400  0.821200  1.0  -0.5304
  O  O783  1  0.771900  0.224300  0.777300  1.0  -0.3134
  O  O784  1  0.332000  0.883600  0.325900  1.0  -0.515
  O  O785  1  0.819800  0.465200  0.360700  1.0  -0.1887
  O  O786  1  0.255300  0.545000  0.303300  1.0  -0.6417
  O  O787  1  0.137100  0.392200  0.331870  1.0  -0.5769
  O  O788  1  0.147600  0.438600  0.296300  1.0  -0.5545
  O  O789  1  0.146600  0.967400  0.302900  1.0  -0.4417
  O  O790  1  0.196500  0.301000  0.758810  1.0  -0.5638
  O  O791  1  0.199300  0.367900  0.874400  1.0  -0.5671
  O  O792  1  0.258900  0.435860  0.319810  1.0  -1.0803
  O  O793  1  0.188400  0.443200  0.830060  1.0  -0.5003
  O  O794  1  0.222700  0.316500  0.333430  1.0  -0.571
  O  O795  1  0.302000  0.440900  0.603800  1.0  -0.2169
  O  O796  1  0.313200  0.798000  0.824000  1.0  -0.4299
  O  O797  1  0.341100  0.353800  0.822700  1.0  -0.5861
  O  O798  1  0.682100  0.356400  0.848100  1.0  -0.4148
  O  O799  1  0.234200  0.459400  0.262490  1.0  -0.6093
  O  O800  1  0.199400  0.215800  0.798630  1.0  -0.6061
  O  O801  1  0.369900  0.466000  0.339530  1.0  -0.5355
  O  O802  1  0.247100  0.371200  0.766130  1.0  -0.6776
  O  O803  1  0.701900  0.477400  0.273500  1.0  -0.2502
  O  O804  1  0.171500  0.438800  0.037500  1.0  -0.713
  O  O805  1  0.292100  0.323300  0.306330  1.0  -0.561
  O  O806  1  0.264200  0.443500  0.810010  1.0  -0.612
