# generated using pymatgen
data_Zn8H60C96O25
_symmetry_space_group_name_H-M   'P 1'
_cell_length_a   52.93450000
_cell_length_b   52.93450000
_cell_length_c   52.93450000
_cell_angle_alpha   90.00000000
_cell_angle_beta   90.00000000
_cell_angle_gamma   90.00000000
_symmetry_Int_Tables_number   1
_chemical_formula_structural   Zn8H60C96O25
_chemical_formula_sum   'Zn64 H480 C768 O200'
_cell_volume   148325.71336874
_cell_formula_units_Z   8
loop_
 _symmetry_equiv_pos_site_id
 _symmetry_equiv_pos_as_xyz
  1  'x, y, z'
loop_
 _atom_site_type_symbol
 _atom_site_label
 _atom_site_symmetry_multiplicity
 _atom_site_fract_x
 _atom_site_fract_y
 _atom_site_fract_z
 _atom_site_occupancy
 _atom_site_charge
  Zn  Zn1  1  0.728200  0.271800  0.228200  1.0  0.8334
  Zn  Zn2  1  0.271800  0.728200  0.228200  1.0  0.833
  Zn  Zn3  1  0.271800  0.271800  0.771800  1.0  0.8318
  Zn  Zn4  1  0.728200  0.728200  0.771800  1.0  0.8315
  Zn  Zn5  1  0.228200  0.728200  0.271800  1.0  0.8315
  Zn  Zn6  1  0.228200  0.228200  0.771800  1.0  0.8315
  Zn  Zn7  1  0.228200  0.271800  0.728200  1.0  0.8334
  Zn  Zn8  1  0.228200  0.771800  0.228200  1.0  0.8334
  Zn  Zn9  1  0.771800  0.271800  0.271800  1.0  0.8318
  Zn  Zn10  1  0.771800  0.771800  0.771800  1.0  0.8318
  Zn  Zn11  1  0.771800  0.728200  0.728200  1.0  0.833
  Zn  Zn12  1  0.771800  0.228200  0.228200  1.0  0.833
  Zn  Zn13  1  0.271800  0.228200  0.728200  1.0  0.833
  Zn  Zn14  1  0.728200  0.228200  0.271800  1.0  0.8315
  Zn  Zn15  1  0.271800  0.771800  0.271800  1.0  0.8318
  Zn  Zn16  1  0.728200  0.771800  0.728200  1.0  0.8334
  Zn  Zn17  1  0.271800  0.728200  0.771800  1.0  0.8321
  Zn  Zn18  1  0.728200  0.271800  0.771800  1.0  0.8307
  Zn  Zn19  1  0.271800  0.271800  0.228200  1.0  0.8332
  Zn  Zn20  1  0.728200  0.728200  0.228200  1.0  0.8328
  Zn  Zn21  1  0.728200  0.228200  0.728200  1.0  0.8328
  Zn  Zn22  1  0.271800  0.228200  0.271800  1.0  0.8321
  Zn  Zn23  1  0.271800  0.771800  0.728200  1.0  0.8332
  Zn  Zn24  1  0.728200  0.771800  0.271800  1.0  0.8307
  Zn  Zn25  1  0.228200  0.271800  0.271800  1.0  0.8307
  Zn  Zn26  1  0.228200  0.771800  0.771800  1.0  0.8307
  Zn  Zn27  1  0.228200  0.728200  0.728200  1.0  0.8328
  Zn  Zn28  1  0.228200  0.228200  0.228200  1.0  0.8328
  Zn  Zn29  1  0.771800  0.271800  0.728200  1.0  0.8332
  Zn  Zn30  1  0.771800  0.771800  0.228200  1.0  0.8332
  Zn  Zn31  1  0.771800  0.728200  0.271800  1.0  0.8321
  Zn  Zn32  1  0.771800  0.228200  0.771800  1.0  0.8321
  Zn  Zn33  1  0.728840  0.228840  0.228840  1.0  0.8252
  Zn  Zn34  1  0.728840  0.728840  0.728840  1.0  0.8252
  Zn  Zn35  1  0.271160  0.771160  0.228840  1.0  0.8241
  Zn  Zn36  1  0.271160  0.271160  0.728840  1.0  0.8241
  Zn  Zn37  1  0.771160  0.771160  0.728840  1.0  0.8241
  Zn  Zn38  1  0.271160  0.228840  0.771160  1.0  0.8234
  Zn  Zn39  1  0.271160  0.728840  0.271160  1.0  0.8234
  Zn  Zn40  1  0.771160  0.728840  0.771160  1.0  0.8234
  Zn  Zn41  1  0.728840  0.771160  0.771160  1.0  0.8224
  Zn  Zn42  1  0.728840  0.271160  0.271160  1.0  0.8224
  Zn  Zn43  1  0.228840  0.728840  0.228840  1.0  0.8252
  Zn  Zn44  1  0.228840  0.271160  0.771160  1.0  0.8224
  Zn  Zn45  1  0.771160  0.271160  0.228840  1.0  0.8241
  Zn  Zn46  1  0.228840  0.228840  0.728840  1.0  0.8252
  Zn  Zn47  1  0.771160  0.228840  0.271160  1.0  0.8234
  Zn  Zn48  1  0.228840  0.771160  0.271160  1.0  0.8224
  Zn  Zn49  1  0.228840  0.728840  0.771160  1.0  0.8233
  Zn  Zn50  1  0.728840  0.728840  0.271160  1.0  0.8233
  Zn  Zn51  1  0.771160  0.271160  0.771160  1.0  0.8227
  Zn  Zn52  1  0.228840  0.271160  0.228840  1.0  0.8248
  Zn  Zn53  1  0.228840  0.771160  0.728840  1.0  0.8248
  Zn  Zn54  1  0.728840  0.771160  0.228840  1.0  0.8248
  Zn  Zn55  1  0.771160  0.728840  0.228840  1.0  0.8248
  Zn  Zn56  1  0.728840  0.228840  0.771160  1.0  0.8233
  Zn  Zn57  1  0.271160  0.228840  0.228840  1.0  0.8248
  Zn  Zn58  1  0.271160  0.728840  0.728840  1.0  0.8248
  Zn  Zn59  1  0.771160  0.228840  0.728840  1.0  0.8248
  Zn  Zn60  1  0.271160  0.771160  0.771160  1.0  0.8227
  Zn  Zn61  1  0.271160  0.271160  0.271160  1.0  0.8227
  Zn  Zn62  1  0.728840  0.271160  0.728840  1.0  0.8248
  Zn  Zn63  1  0.228840  0.228840  0.271160  1.0  0.8233
  Zn  Zn64  1  0.771160  0.771160  0.271160  1.0  0.8227
  H  H65  1  0.650600  0.277000  0.223000  1.0  0.1041
  H  H66  1  0.606600  0.276900  0.223100  1.0  0.1212
  H  H67  1  0.150600  0.277000  0.723000  1.0  0.1041
  H  H68  1  0.106600  0.276900  0.723100  1.0  0.1212
  H  H69  1  0.349400  0.723000  0.223000  1.0  0.1028
  H  H70  1  0.393400  0.723100  0.223100  1.0  0.1208
  H  H71  1  0.849400  0.723000  0.723000  1.0  0.1028
  H  H72  1  0.893400  0.723100  0.723100  1.0  0.1208
  H  H73  1  0.849400  0.223000  0.223000  1.0  0.1028
  H  H74  1  0.893400  0.223100  0.223100  1.0  0.1208
  H  H75  1  0.349400  0.277000  0.777000  1.0  0.1037
  H  H76  1  0.393400  0.276900  0.776900  1.0  0.1202
  H  H77  1  0.849400  0.277000  0.277000  1.0  0.1037
  H  H78  1  0.893400  0.276900  0.276900  1.0  0.1202
  H  H79  1  0.650600  0.723000  0.777000  1.0  0.1042
  H  H80  1  0.606600  0.723100  0.776900  1.0  0.1211
  H  H81  1  0.650600  0.223000  0.277000  1.0  0.1042
  H  H82  1  0.606600  0.223100  0.276900  1.0  0.1211
  H  H83  1  0.150600  0.723000  0.277000  1.0  0.1042
  H  H84  1  0.106600  0.723100  0.276900  1.0  0.1211
  H  H85  1  0.223000  0.650600  0.277000  1.0  0.1031
  H  H86  1  0.223100  0.606600  0.276900  1.0  0.1207
  H  H87  1  0.223000  0.150600  0.777000  1.0  0.1031
  H  H88  1  0.223100  0.106600  0.776900  1.0  0.1207
  H  H89  1  0.223000  0.349400  0.723000  1.0  0.1012
  H  H90  1  0.223100  0.393400  0.723100  1.0  0.1203
  H  H91  1  0.223000  0.849400  0.223000  1.0  0.1012
  H  H92  1  0.223100  0.893400  0.223100  1.0  0.1203
  H  H93  1  0.777000  0.349400  0.277000  1.0  0.1025
  H  H94  1  0.776900  0.393400  0.276900  1.0  0.1206
  H  H95  1  0.777000  0.849400  0.777000  1.0  0.1025
  H  H96  1  0.776900  0.893400  0.776900  1.0  0.1206
  H  H97  1  0.277000  0.849400  0.277000  1.0  0.1025
  H  H98  1  0.276900  0.893400  0.276900  1.0  0.1206
  H  H99  1  0.777000  0.650600  0.723000  1.0  0.103
  H  H100  1  0.776900  0.606600  0.723100  1.0  0.1211
  H  H101  1  0.777000  0.150600  0.223000  1.0  0.103
  H  H102  1  0.776900  0.106600  0.223100  1.0  0.1211
  H  H103  1  0.277000  0.650600  0.223000  1.0  0.103
  H  H104  1  0.276900  0.606600  0.223100  1.0  0.1211
  H  H105  1  0.277000  0.223000  0.650600  1.0  0.1019
  H  H106  1  0.276900  0.223100  0.606600  1.0  0.121
  H  H107  1  0.277000  0.723000  0.150600  1.0  0.1019
  H  H108  1  0.276900  0.723100  0.106600  1.0  0.121
  H  H109  1  0.723000  0.223000  0.349400  1.0  0.1008
  H  H110  1  0.723100  0.223100  0.393400  1.0  0.121
  H  H111  1  0.723000  0.723000  0.849400  1.0  0.1008
  H  H112  1  0.723100  0.723100  0.893400  1.0  0.121
  H  H113  1  0.223000  0.223000  0.849400  1.0  0.1008
  H  H114  1  0.223100  0.223100  0.893400  1.0  0.121
  H  H115  1  0.277000  0.777000  0.349400  1.0  0.1022
  H  H116  1  0.276900  0.776900  0.393400  1.0  0.1206
  H  H117  1  0.277000  0.277000  0.849400  1.0  0.1022
  H  H118  1  0.276900  0.276900  0.893400  1.0  0.1206
  H  H119  1  0.723000  0.777000  0.650600  1.0  0.1026
  H  H120  1  0.723100  0.776900  0.606600  1.0  0.1207
  H  H121  1  0.723000  0.277000  0.150600  1.0  0.1026
  H  H122  1  0.723100  0.276900  0.106600  1.0  0.1207
  H  H123  1  0.223000  0.277000  0.650600  1.0  0.1026
  H  H124  1  0.223100  0.276900  0.606600  1.0  0.1207
  H  H125  1  0.277000  0.650600  0.777000  1.0  0.1026
  H  H126  1  0.276900  0.606600  0.776900  1.0  0.1203
  H  H127  1  0.277000  0.150600  0.277000  1.0  0.1026
  H  H128  1  0.276900  0.106600  0.276900  1.0  0.1203
  H  H129  1  0.723000  0.349400  0.777000  1.0  0.1032
  H  H130  1  0.723100  0.393400  0.776900  1.0  0.1209
  H  H131  1  0.723000  0.849400  0.277000  1.0  0.1032
  H  H132  1  0.723100  0.893400  0.276900  1.0  0.1209
  H  H133  1  0.223000  0.349400  0.277000  1.0  0.1032
  H  H134  1  0.223100  0.393400  0.276900  1.0  0.1209
  H  H135  1  0.277000  0.349400  0.223000  1.0  0.1025
  H  H136  1  0.276900  0.393400  0.223100  1.0  0.1214
  H  H137  1  0.277000  0.849400  0.723000  1.0  0.1025
  H  H138  1  0.276900  0.893400  0.723100  1.0  0.1214
  H  H139  1  0.723000  0.650600  0.223000  1.0  0.1015
  H  H140  1  0.723100  0.606600  0.223100  1.0  0.1199
  H  H141  1  0.723000  0.150600  0.723000  1.0  0.1015
  H  H142  1  0.723100  0.106600  0.723100  1.0  0.1199
  H  H143  1  0.223000  0.150600  0.223000  1.0  0.1015
  H  H144  1  0.223100  0.106600  0.223100  1.0  0.1199
  H  H145  1  0.650600  0.223000  0.723000  1.0  0.1027
  H  H146  1  0.606600  0.223100  0.723100  1.0  0.1201
  H  H147  1  0.150600  0.223000  0.223000  1.0  0.1027
  H  H148  1  0.106600  0.223100  0.223100  1.0  0.1201
  H  H149  1  0.349400  0.223000  0.277000  1.0  0.1034
  H  H150  1  0.393400  0.223100  0.276900  1.0  0.121
  H  H151  1  0.849400  0.223000  0.777000  1.0  0.1034
  H  H152  1  0.893400  0.223100  0.776900  1.0  0.121
  H  H153  1  0.349400  0.777000  0.723000  1.0  0.1044
  H  H154  1  0.393400  0.776900  0.723100  1.0  0.1211
  H  H155  1  0.349400  0.277000  0.223000  1.0  0.1044
  H  H156  1  0.393400  0.276900  0.223100  1.0  0.1211
  H  H157  1  0.849400  0.777000  0.223000  1.0  0.1044
  H  H158  1  0.893400  0.776900  0.223100  1.0  0.1211
  H  H159  1  0.650600  0.777000  0.277000  1.0  0.1043
  H  H160  1  0.606600  0.776900  0.276900  1.0  0.1209
  H  H161  1  0.150600  0.777000  0.777000  1.0  0.1043
  H  H162  1  0.106600  0.776900  0.776900  1.0  0.1209
  H  H163  1  0.150600  0.277000  0.277000  1.0  0.1043
  H  H164  1  0.106600  0.276900  0.276900  1.0  0.1209
  H  H165  1  0.223000  0.277000  0.349400  1.0  0.1025
  H  H166  1  0.223100  0.276900  0.393400  1.0  0.1206
  H  H167  1  0.223000  0.777000  0.849400  1.0  0.1025
  H  H168  1  0.223100  0.776900  0.893400  1.0  0.1206
  H  H169  1  0.223000  0.723000  0.650600  1.0  0.1013
  H  H170  1  0.223100  0.723100  0.606600  1.0  0.1199
  H  H171  1  0.223000  0.223000  0.150600  1.0  0.1013
  H  H172  1  0.223100  0.223100  0.106600  1.0  0.1199
  H  H173  1  0.777000  0.277000  0.650600  1.0  0.1019
  H  H174  1  0.776900  0.276900  0.606600  1.0  0.121
  H  H175  1  0.777000  0.777000  0.150600  1.0  0.1019
  H  H176  1  0.776900  0.776900  0.106600  1.0  0.121
  H  H177  1  0.277000  0.277000  0.150600  1.0  0.1019
  H  H178  1  0.276900  0.276900  0.106600  1.0  0.121
  H  H179  1  0.777000  0.723000  0.349400  1.0  0.1019
  H  H180  1  0.776900  0.723100  0.393400  1.0  0.1217
  H  H181  1  0.777000  0.223000  0.849400  1.0  0.1019
  H  H182  1  0.776900  0.223100  0.893400  1.0  0.1217
  H  H183  1  0.277000  0.223000  0.349400  1.0  0.1019
  H  H184  1  0.276900  0.223100  0.393400  1.0  0.1217
  H  H185  1  0.349400  0.723000  0.777000  1.0  0.1034
  H  H186  1  0.393400  0.723100  0.776900  1.0  0.121
  H  H187  1  0.849400  0.723000  0.277000  1.0  0.1034
  H  H188  1  0.893400  0.723100  0.276900  1.0  0.121
  H  H189  1  0.650600  0.277000  0.777000  1.0  0.1043
  H  H190  1  0.606600  0.276900  0.776900  1.0  0.1209
  H  H191  1  0.650600  0.723000  0.223000  1.0  0.1027
  H  H192  1  0.606600  0.723100  0.223100  1.0  0.1201
  H  H193  1  0.150600  0.723000  0.723000  1.0  0.1027
  H  H194  1  0.106600  0.723100  0.723100  1.0  0.1201
  H  H195  1  0.849400  0.277000  0.723000  1.0  0.1044
  H  H196  1  0.893400  0.276900  0.723100  1.0  0.1211
  H  H197  1  0.777000  0.349400  0.723000  1.0  0.1025
  H  H198  1  0.776900  0.393400  0.723100  1.0  0.1214
  H  H199  1  0.777000  0.849400  0.223000  1.0  0.1025
  H  H200  1  0.776900  0.893400  0.223100  1.0  0.1214
  H  H201  1  0.777000  0.650600  0.277000  1.0  0.1026
  H  H202  1  0.776900  0.606600  0.276900  1.0  0.1203
  H  H203  1  0.777000  0.150600  0.777000  1.0  0.1026
  H  H204  1  0.776900  0.106600  0.776900  1.0  0.1203
  H  H205  1  0.223000  0.650600  0.723000  1.0  0.1015
  H  H206  1  0.223100  0.606600  0.723100  1.0  0.1199
  H  H207  1  0.223000  0.849400  0.777000  1.0  0.1032
  H  H208  1  0.223100  0.893400  0.776900  1.0  0.1209
  H  H209  1  0.723000  0.777000  0.349400  1.0  0.1025
  H  H210  1  0.723100  0.776900  0.393400  1.0  0.1206
  H  H211  1  0.723000  0.277000  0.849400  1.0  0.1025
  H  H212  1  0.723100  0.276900  0.893400  1.0  0.1206
  H  H213  1  0.277000  0.777000  0.650600  1.0  0.1019
  H  H214  1  0.276900  0.776900  0.606600  1.0  0.121
  H  H215  1  0.723000  0.223000  0.650600  1.0  0.1013
  H  H216  1  0.723100  0.223100  0.606600  1.0  0.1199
  H  H217  1  0.723000  0.723000  0.150600  1.0  0.1013
  H  H218  1  0.723100  0.723100  0.106600  1.0  0.1199
  H  H219  1  0.277000  0.723000  0.849400  1.0  0.1019
  H  H220  1  0.276900  0.723100  0.893400  1.0  0.1217
  H  H221  1  0.723000  0.349400  0.223000  1.0  0.1012
  H  H222  1  0.723100  0.393400  0.223100  1.0  0.1203
  H  H223  1  0.723000  0.849400  0.723000  1.0  0.1012
  H  H224  1  0.723100  0.893400  0.723100  1.0  0.1203
  H  H225  1  0.277000  0.150600  0.723000  1.0  0.103
  H  H226  1  0.276900  0.106600  0.723100  1.0  0.1211
  H  H227  1  0.723000  0.650600  0.777000  1.0  0.1031
  H  H228  1  0.723100  0.606600  0.776900  1.0  0.1207
  H  H229  1  0.723000  0.150600  0.277000  1.0  0.1031
  H  H230  1  0.723100  0.106600  0.276900  1.0  0.1207
  H  H231  1  0.277000  0.349400  0.777000  1.0  0.1025
  H  H232  1  0.276900  0.393400  0.776900  1.0  0.1206
  H  H233  1  0.349400  0.777000  0.277000  1.0  0.1037
  H  H234  1  0.393400  0.776900  0.276900  1.0  0.1202
  H  H235  1  0.849400  0.777000  0.777000  1.0  0.1037
  H  H236  1  0.893400  0.776900  0.776900  1.0  0.1202
  H  H237  1  0.650600  0.777000  0.723000  1.0  0.1041
  H  H238  1  0.606600  0.776900  0.723100  1.0  0.1212
  H  H239  1  0.150600  0.777000  0.223000  1.0  0.1041
  H  H240  1  0.106600  0.776900  0.223100  1.0  0.1212
  H  H241  1  0.150600  0.223000  0.777000  1.0  0.1042
  H  H242  1  0.106600  0.223100  0.776900  1.0  0.1211
  H  H243  1  0.349400  0.223000  0.723000  1.0  0.1028
  H  H244  1  0.393400  0.223100  0.723100  1.0  0.1208
  H  H245  1  0.777000  0.723000  0.650600  1.0  0.1019
  H  H246  1  0.776900  0.723100  0.606600  1.0  0.121
  H  H247  1  0.777000  0.223000  0.150600  1.0  0.1019
  H  H248  1  0.776900  0.223100  0.106600  1.0  0.121
  H  H249  1  0.777000  0.277000  0.349400  1.0  0.1022
  H  H250  1  0.776900  0.276900  0.393400  1.0  0.1206
  H  H251  1  0.777000  0.777000  0.849400  1.0  0.1022
  H  H252  1  0.776900  0.776900  0.893400  1.0  0.1206
  H  H253  1  0.223000  0.723000  0.349400  1.0  0.1008
  H  H254  1  0.223100  0.723100  0.393400  1.0  0.121
  H  H255  1  0.223000  0.777000  0.150600  1.0  0.1026
  H  H256  1  0.223100  0.776900  0.106600  1.0  0.1207
  H  H257  1  0.522500  0.222900  0.222900  1.0  0.121
  H  H258  1  0.606300  0.223300  0.223300  1.0  0.1091
  H  H259  1  0.650900  0.223300  0.223300  1.0  0.113
  H  H260  1  0.522500  0.722900  0.722900  1.0  0.121
  H  H261  1  0.606300  0.723300  0.723300  1.0  0.1091
  H  H262  1  0.650900  0.723300  0.723300  1.0  0.113
  H  H263  1  0.022500  0.222900  0.722900  1.0  0.121
  H  H264  1  0.106300  0.223300  0.723300  1.0  0.1091
  H  H265  1  0.150900  0.223300  0.723300  1.0  0.113
  H  H266  1  0.022500  0.722900  0.222900  1.0  0.121
  H  H267  1  0.106300  0.723300  0.223300  1.0  0.1091
  H  H268  1  0.150900  0.723300  0.223300  1.0  0.113
  H  H269  1  0.477500  0.777100  0.222900  1.0  0.1217
  H  H270  1  0.393700  0.776700  0.223300  1.0  0.1098
  H  H271  1  0.349100  0.776700  0.223300  1.0  0.1137
  H  H272  1  0.477500  0.277100  0.722900  1.0  0.1217
  H  H273  1  0.393700  0.276700  0.723300  1.0  0.1098
  H  H274  1  0.349100  0.276700  0.723300  1.0  0.1137
  H  H275  1  0.977500  0.777100  0.722900  1.0  0.1217
  H  H276  1  0.893700  0.776700  0.723300  1.0  0.1098
  H  H277  1  0.849100  0.776700  0.723300  1.0  0.1137
  H  H278  1  0.977500  0.277100  0.222900  1.0  0.1217
  H  H279  1  0.893700  0.276700  0.223300  1.0  0.1098
  H  H280  1  0.849100  0.276700  0.223300  1.0  0.1137
  H  H281  1  0.477500  0.222900  0.777100  1.0  0.1221
  H  H282  1  0.393700  0.223300  0.776700  1.0  0.1096
  H  H283  1  0.349100  0.223300  0.776700  1.0  0.1129
  H  H284  1  0.477500  0.722900  0.277100  1.0  0.1221
  H  H285  1  0.393700  0.723300  0.276700  1.0  0.1096
  H  H286  1  0.349100  0.723300  0.276700  1.0  0.1129
  H  H287  1  0.977500  0.222900  0.277100  1.0  0.1221
  H  H288  1  0.893700  0.223300  0.276700  1.0  0.1096
  H  H289  1  0.849100  0.223300  0.276700  1.0  0.1129
  H  H290  1  0.977500  0.722900  0.777100  1.0  0.1221
  H  H291  1  0.893700  0.723300  0.776700  1.0  0.1096
  H  H292  1  0.849100  0.723300  0.776700  1.0  0.1129
  H  H293  1  0.522500  0.777100  0.777100  1.0  0.1219
  H  H294  1  0.606300  0.776700  0.776700  1.0  0.1103
  H  H295  1  0.650900  0.776700  0.776700  1.0  0.1131
  H  H296  1  0.522500  0.277100  0.277100  1.0  0.1219
  H  H297  1  0.606300  0.276700  0.276700  1.0  0.1103
  H  H298  1  0.650900  0.276700  0.276700  1.0  0.1131
  H  H299  1  0.022500  0.777100  0.277100  1.0  0.1219
  H  H300  1  0.106300  0.776700  0.276700  1.0  0.1103
  H  H301  1  0.150900  0.776700  0.276700  1.0  0.1131
  H  H302  1  0.022500  0.277100  0.777100  1.0  0.1219
  H  H303  1  0.106300  0.276700  0.776700  1.0  0.1103
  H  H304  1  0.150900  0.276700  0.776700  1.0  0.1131
  H  H305  1  0.222900  0.522500  0.222900  1.0  0.1208
  H  H306  1  0.223300  0.606300  0.223300  1.0  0.1091
  H  H307  1  0.223300  0.650900  0.223300  1.0  0.1125
  H  H308  1  0.222900  0.022500  0.722900  1.0  0.1208
  H  H309  1  0.223300  0.106300  0.723300  1.0  0.1091
  H  H310  1  0.223300  0.150900  0.723300  1.0  0.1125
  H  H311  1  0.722900  0.522500  0.722900  1.0  0.1208
  H  H312  1  0.723300  0.606300  0.723300  1.0  0.1091
  H  H313  1  0.723300  0.650900  0.723300  1.0  0.1125
  H  H314  1  0.722900  0.022500  0.222900  1.0  0.1208
  H  H315  1  0.723300  0.106300  0.223300  1.0  0.1091
  H  H316  1  0.723300  0.150900  0.223300  1.0  0.1125
  H  H317  1  0.222900  0.477500  0.777100  1.0  0.1216
  H  H318  1  0.223300  0.393700  0.776700  1.0  0.1098
  H  H319  1  0.223300  0.349100  0.776700  1.0  0.1132
  H  H320  1  0.222900  0.977500  0.277100  1.0  0.1216
  H  H321  1  0.223300  0.893700  0.276700  1.0  0.1098
  H  H322  1  0.223300  0.849100  0.276700  1.0  0.1132
  H  H323  1  0.722900  0.477500  0.277100  1.0  0.1216
  H  H324  1  0.723300  0.393700  0.276700  1.0  0.1098
  H  H325  1  0.723300  0.349100  0.276700  1.0  0.1132
  H  H326  1  0.722900  0.977500  0.777100  1.0  0.1216
  H  H327  1  0.723300  0.893700  0.776700  1.0  0.1098
  H  H328  1  0.723300  0.849100  0.776700  1.0  0.1132
  H  H329  1  0.777100  0.477500  0.222900  1.0  0.1214
  H  H330  1  0.776700  0.393700  0.223300  1.0  0.1096
  H  H331  1  0.776700  0.349100  0.223300  1.0  0.1127
  H  H332  1  0.777100  0.977500  0.722900  1.0  0.1214
  H  H333  1  0.776700  0.893700  0.723300  1.0  0.1096
  H  H334  1  0.776700  0.849100  0.723300  1.0  0.1127
  H  H335  1  0.277100  0.477500  0.722900  1.0  0.1214
  H  H336  1  0.276700  0.393700  0.723300  1.0  0.1096
  H  H337  1  0.276700  0.349100  0.723300  1.0  0.1127
  H  H338  1  0.277100  0.977500  0.222900  1.0  0.1214
  H  H339  1  0.276700  0.893700  0.223300  1.0  0.1096
  H  H340  1  0.276700  0.849100  0.223300  1.0  0.1127
  H  H341  1  0.777100  0.522500  0.777100  1.0  0.1217
  H  H342  1  0.776700  0.606300  0.776700  1.0  0.1091
  H  H343  1  0.776700  0.650900  0.776700  1.0  0.1116
  H  H344  1  0.777100  0.022500  0.277100  1.0  0.1217
  H  H345  1  0.776700  0.106300  0.276700  1.0  0.1091
  H  H346  1  0.776700  0.150900  0.276700  1.0  0.1116
  H  H347  1  0.277100  0.522500  0.277100  1.0  0.1217
  H  H348  1  0.276700  0.606300  0.276700  1.0  0.1091
  H  H349  1  0.276700  0.650900  0.276700  1.0  0.1116
  H  H350  1  0.277100  0.022500  0.777100  1.0  0.1217
  H  H351  1  0.276700  0.106300  0.776700  1.0  0.1091
  H  H352  1  0.276700  0.150900  0.776700  1.0  0.1116
  H  H353  1  0.222900  0.222900  0.522500  1.0  0.1219
  H  H354  1  0.223300  0.223300  0.606300  1.0  0.1087
  H  H355  1  0.223300  0.223300  0.650900  1.0  0.1122
  H  H356  1  0.222900  0.722900  0.022500  1.0  0.1219
  H  H357  1  0.223300  0.723300  0.106300  1.0  0.1087
  H  H358  1  0.223300  0.723300  0.150900  1.0  0.1122
  H  H359  1  0.722900  0.222900  0.022500  1.0  0.1219
  H  H360  1  0.723300  0.223300  0.106300  1.0  0.1087
  H  H361  1  0.723300  0.223300  0.150900  1.0  0.1122
  H  H362  1  0.722900  0.722900  0.522500  1.0  0.1219
  H  H363  1  0.723300  0.723300  0.606300  1.0  0.1087
  H  H364  1  0.723300  0.723300  0.650900  1.0  0.1122
  H  H365  1  0.777100  0.222900  0.477500  1.0  0.1216
  H  H366  1  0.776700  0.223300  0.393700  1.0  0.1099
  H  H367  1  0.776700  0.223300  0.349100  1.0  0.1125
  H  H368  1  0.777100  0.722900  0.977500  1.0  0.1216
  H  H369  1  0.776700  0.723300  0.893700  1.0  0.1099
  H  H370  1  0.776700  0.723300  0.849100  1.0  0.1125
  H  H371  1  0.277100  0.222900  0.977500  1.0  0.1216
  H  H372  1  0.276700  0.223300  0.893700  1.0  0.1099
  H  H373  1  0.276700  0.223300  0.849100  1.0  0.1125
  H  H374  1  0.277100  0.722900  0.477500  1.0  0.1216
  H  H375  1  0.276700  0.723300  0.393700  1.0  0.1099
  H  H376  1  0.276700  0.723300  0.349100  1.0  0.1125
  H  H377  1  0.222900  0.777100  0.477500  1.0  0.1214
  H  H378  1  0.223300  0.776700  0.393700  1.0  0.1098
  H  H379  1  0.223300  0.776700  0.349100  1.0  0.1134
  H  H380  1  0.222900  0.277100  0.977500  1.0  0.1214
  H  H381  1  0.223300  0.276700  0.893700  1.0  0.1098
  H  H382  1  0.223300  0.276700  0.849100  1.0  0.1134
  H  H383  1  0.722900  0.777100  0.977500  1.0  0.1214
  H  H384  1  0.723300  0.776700  0.893700  1.0  0.1098
  H  H385  1  0.723300  0.776700  0.849100  1.0  0.1134
  H  H386  1  0.722900  0.277100  0.477500  1.0  0.1214
  H  H387  1  0.723300  0.276700  0.393700  1.0  0.1098
  H  H388  1  0.723300  0.276700  0.349100  1.0  0.1134
  H  H389  1  0.777100  0.777100  0.522500  1.0  0.1223
  H  H390  1  0.776700  0.776700  0.606300  1.0  0.1093
  H  H391  1  0.776700  0.776700  0.650900  1.0  0.1124
  H  H392  1  0.777100  0.277100  0.022500  1.0  0.1223
  H  H393  1  0.776700  0.276700  0.106300  1.0  0.1093
  H  H394  1  0.776700  0.276700  0.150900  1.0  0.1124
  H  H395  1  0.277100  0.777100  0.022500  1.0  0.1223
  H  H396  1  0.276700  0.776700  0.106300  1.0  0.1093
  H  H397  1  0.276700  0.776700  0.150900  1.0  0.1124
  H  H398  1  0.277100  0.277100  0.522500  1.0  0.1223
  H  H399  1  0.276700  0.276700  0.606300  1.0  0.1093
  H  H400  1  0.276700  0.276700  0.650900  1.0  0.1124
  H  H401  1  0.222900  0.522500  0.777100  1.0  0.1211
  H  H402  1  0.223300  0.606300  0.776700  1.0  0.11
  H  H403  1  0.223300  0.650900  0.776700  1.0  0.1134
  H  H404  1  0.222900  0.022500  0.277100  1.0  0.1211
  H  H405  1  0.223300  0.106300  0.276700  1.0  0.11
  H  H406  1  0.223300  0.150900  0.276700  1.0  0.1134
  H  H407  1  0.722900  0.522500  0.277100  1.0  0.1211
  H  H408  1  0.723300  0.606300  0.276700  1.0  0.11
  H  H409  1  0.723300  0.650900  0.276700  1.0  0.1134
  H  H410  1  0.722900  0.022500  0.777100  1.0  0.1211
  H  H411  1  0.723300  0.106300  0.776700  1.0  0.11
  H  H412  1  0.723300  0.150900  0.776700  1.0  0.1134
  H  H413  1  0.777100  0.477500  0.777100  1.0  0.122
  H  H414  1  0.776700  0.393700  0.776700  1.0  0.109
  H  H415  1  0.776700  0.349100  0.776700  1.0  0.1119
  H  H416  1  0.777100  0.977500  0.277100  1.0  0.122
  H  H417  1  0.776700  0.893700  0.276700  1.0  0.109
  H  H418  1  0.776700  0.849100  0.276700  1.0  0.1119
  H  H419  1  0.277100  0.477500  0.277100  1.0  0.122
  H  H420  1  0.276700  0.393700  0.276700  1.0  0.109
  H  H421  1  0.276700  0.349100  0.276700  1.0  0.1119
  H  H422  1  0.277100  0.977500  0.777100  1.0  0.122
  H  H423  1  0.276700  0.893700  0.776700  1.0  0.109
  H  H424  1  0.276700  0.849100  0.776700  1.0  0.1119
  H  H425  1  0.222900  0.477500  0.222900  1.0  0.1208
  H  H426  1  0.223300  0.393700  0.223300  1.0  0.1094
  H  H427  1  0.223300  0.349100  0.223300  1.0  0.1122
  H  H428  1  0.222900  0.977500  0.722900  1.0  0.1208
  H  H429  1  0.223300  0.893700  0.723300  1.0  0.1094
  H  H430  1  0.223300  0.849100  0.723300  1.0  0.1122
  H  H431  1  0.722900  0.477500  0.722900  1.0  0.1208
  H  H432  1  0.723300  0.393700  0.723300  1.0  0.1094
  H  H433  1  0.723300  0.349100  0.723300  1.0  0.1122
  H  H434  1  0.722900  0.977500  0.222900  1.0  0.1208
  H  H435  1  0.723300  0.893700  0.223300  1.0  0.1094
  H  H436  1  0.723300  0.849100  0.223300  1.0  0.1122
  H  H437  1  0.777100  0.522500  0.222900  1.0  0.1215
  H  H438  1  0.776700  0.606300  0.223300  1.0  0.1093
  H  H439  1  0.776700  0.650900  0.223300  1.0  0.1129
  H  H440  1  0.777100  0.022500  0.722900  1.0  0.1215
  H  H441  1  0.776700  0.106300  0.723300  1.0  0.1093
  H  H442  1  0.776700  0.150900  0.723300  1.0  0.1129
  H  H443  1  0.277100  0.522500  0.722900  1.0  0.1215
  H  H444  1  0.276700  0.606300  0.723300  1.0  0.1093
  H  H445  1  0.276700  0.650900  0.723300  1.0  0.1129
  H  H446  1  0.277100  0.022500  0.222900  1.0  0.1215
  H  H447  1  0.276700  0.106300  0.223300  1.0  0.1093
  H  H448  1  0.276700  0.150900  0.223300  1.0  0.1129
  H  H449  1  0.522500  0.222900  0.777100  1.0  0.1218
  H  H450  1  0.606300  0.223300  0.776700  1.0  0.11
  H  H451  1  0.650900  0.223300  0.776700  1.0  0.1139
  H  H452  1  0.522500  0.722900  0.277100  1.0  0.1218
  H  H453  1  0.606300  0.723300  0.276700  1.0  0.11
  H  H454  1  0.650900  0.723300  0.276700  1.0  0.1139
  H  H455  1  0.022500  0.222900  0.277100  1.0  0.1218
  H  H456  1  0.106300  0.223300  0.276700  1.0  0.11
  H  H457  1  0.150900  0.223300  0.276700  1.0  0.1139
  H  H458  1  0.022500  0.722900  0.777100  1.0  0.1218
  H  H459  1  0.106300  0.723300  0.776700  1.0  0.11
  H  H460  1  0.150900  0.723300  0.776700  1.0  0.1139
  H  H461  1  0.477500  0.222900  0.222900  1.0  0.1213
  H  H462  1  0.393700  0.223300  0.223300  1.0  0.1091
  H  H463  1  0.349100  0.223300  0.223300  1.0  0.1118
  H  H464  1  0.477500  0.722900  0.722900  1.0  0.1213
  H  H465  1  0.393700  0.723300  0.723300  1.0  0.1091
  H  H466  1  0.349100  0.723300  0.723300  1.0  0.1118
  H  H467  1  0.977500  0.222900  0.722900  1.0  0.1213
  H  H468  1  0.893700  0.223300  0.723300  1.0  0.1091
  H  H469  1  0.849100  0.223300  0.723300  1.0  0.1118
  H  H470  1  0.977500  0.722900  0.222900  1.0  0.1213
  H  H471  1  0.893700  0.723300  0.223300  1.0  0.1091
  H  H472  1  0.849100  0.723300  0.223300  1.0  0.1118
  H  H473  1  0.477500  0.777100  0.777100  1.0  0.1222
  H  H474  1  0.393700  0.776700  0.776700  1.0  0.109
  H  H475  1  0.349100  0.776700  0.776700  1.0  0.1126
  H  H476  1  0.477500  0.277100  0.277100  1.0  0.1222
  H  H477  1  0.393700  0.276700  0.276700  1.0  0.109
  H  H478  1  0.349100  0.276700  0.276700  1.0  0.1126
  H  H479  1  0.977500  0.777100  0.277100  1.0  0.1222
  H  H480  1  0.893700  0.776700  0.276700  1.0  0.109
  H  H481  1  0.849100  0.776700  0.276700  1.0  0.1126
  H  H482  1  0.977500  0.277100  0.777100  1.0  0.1222
  H  H483  1  0.893700  0.276700  0.776700  1.0  0.109
  H  H484  1  0.849100  0.276700  0.776700  1.0  0.1126
  H  H485  1  0.522500  0.777100  0.222900  1.0  0.1214
  H  H486  1  0.606300  0.776700  0.223300  1.0  0.1103
  H  H487  1  0.650900  0.776700  0.223300  1.0  0.1143
  H  H488  1  0.522500  0.277100  0.722900  1.0  0.1214
  H  H489  1  0.606300  0.276700  0.723300  1.0  0.1103
  H  H490  1  0.650900  0.276700  0.723300  1.0  0.1143
  H  H491  1  0.022500  0.777100  0.722900  1.0  0.1214
  H  H492  1  0.106300  0.776700  0.723300  1.0  0.1103
  H  H493  1  0.150900  0.776700  0.723300  1.0  0.1143
  H  H494  1  0.022500  0.277100  0.222900  1.0  0.1214
  H  H495  1  0.106300  0.276700  0.223300  1.0  0.1103
  H  H496  1  0.150900  0.276700  0.223300  1.0  0.1143
  H  H497  1  0.222900  0.222900  0.477500  1.0  0.1209
  H  H498  1  0.223300  0.223300  0.393700  1.0  0.1098
  H  H499  1  0.223300  0.223300  0.349100  1.0  0.1121
  H  H500  1  0.222900  0.722900  0.977500  1.0  0.1209
  H  H501  1  0.223300  0.723300  0.893700  1.0  0.1098
  H  H502  1  0.223300  0.723300  0.849100  1.0  0.1121
  H  H503  1  0.722900  0.222900  0.977500  1.0  0.1209
  H  H504  1  0.723300  0.223300  0.893700  1.0  0.1098
  H  H505  1  0.723300  0.223300  0.849100  1.0  0.1121
  H  H506  1  0.722900  0.722900  0.477500  1.0  0.1209
  H  H507  1  0.723300  0.723300  0.393700  1.0  0.1098
  H  H508  1  0.723300  0.723300  0.349100  1.0  0.1121
  H  H509  1  0.222900  0.777100  0.522500  1.0  0.1219
  H  H510  1  0.223300  0.776700  0.606300  1.0  0.1094
  H  H511  1  0.223300  0.776700  0.650900  1.0  0.1128
  H  H512  1  0.222900  0.277100  0.022500  1.0  0.1219
  H  H513  1  0.223300  0.276700  0.106300  1.0  0.1094
  H  H514  1  0.223300  0.276700  0.150900  1.0  0.1128
  H  H515  1  0.722900  0.777100  0.022500  1.0  0.1219
  H  H516  1  0.723300  0.776700  0.106300  1.0  0.1094
  H  H517  1  0.723300  0.776700  0.150900  1.0  0.1128
  H  H518  1  0.722900  0.277100  0.522500  1.0  0.1219
  H  H519  1  0.723300  0.276700  0.606300  1.0  0.1094
  H  H520  1  0.723300  0.276700  0.650900  1.0  0.1128
  H  H521  1  0.777100  0.222900  0.522500  1.0  0.1222
  H  H522  1  0.776700  0.223300  0.606300  1.0  0.1089
  H  H523  1  0.776700  0.223300  0.650900  1.0  0.1125
  H  H524  1  0.777100  0.722900  0.022500  1.0  0.1222
  H  H525  1  0.776700  0.723300  0.106300  1.0  0.1089
  H  H526  1  0.776700  0.723300  0.150900  1.0  0.1125
  H  H527  1  0.277100  0.222900  0.022500  1.0  0.1222
  H  H528  1  0.276700  0.223300  0.106300  1.0  0.1089
  H  H529  1  0.276700  0.223300  0.150900  1.0  0.1125
  H  H530  1  0.277100  0.722900  0.522500  1.0  0.1222
  H  H531  1  0.276700  0.723300  0.606300  1.0  0.1089
  H  H532  1  0.276700  0.723300  0.650900  1.0  0.1125
  H  H533  1  0.777100  0.777100  0.477500  1.0  0.122
  H  H534  1  0.776700  0.776700  0.393700  1.0  0.1092
  H  H535  1  0.776700  0.776700  0.349100  1.0  0.113
  H  H536  1  0.777100  0.277100  0.977500  1.0  0.122
  H  H537  1  0.776700  0.276700  0.893700  1.0  0.1092
  H  H538  1  0.776700  0.276700  0.849100  1.0  0.113
  H  H539  1  0.277100  0.777100  0.977500  1.0  0.122
  H  H540  1  0.276700  0.776700  0.893700  1.0  0.1092
  H  H541  1  0.276700  0.776700  0.849100  1.0  0.113
  H  H542  1  0.277100  0.277100  0.477500  1.0  0.122
  H  H543  1  0.276700  0.276700  0.393700  1.0  0.1092
  H  H544  1  0.276700  0.276700  0.349100  1.0  0.113
  C  C545  1  0.641900  0.266200  0.233800  1.0  -0.0992
  C  C546  1  0.615500  0.266200  0.233800  1.0  -0.0632
  C  C547  1  0.141900  0.266200  0.733800  1.0  -0.0992
  C  C548  1  0.115500  0.266200  0.733800  1.0  -0.0632
  C  C549  1  0.358100  0.733800  0.233800  1.0  -0.0994
  C  C550  1  0.384500  0.733800  0.233800  1.0  -0.0662
  C  C551  1  0.858100  0.733800  0.733800  1.0  -0.0994
  C  C552  1  0.884500  0.733800  0.733800  1.0  -0.0662
  C  C553  1  0.858100  0.233800  0.233800  1.0  -0.0994
  C  C554  1  0.884500  0.233800  0.233800  1.0  -0.0662
  C  C555  1  0.358100  0.266200  0.766200  1.0  -0.1008
  C  C556  1  0.384500  0.266200  0.766200  1.0  -0.0663
  C  C557  1  0.858100  0.266200  0.266200  1.0  -0.1008
  C  C558  1  0.884500  0.266200  0.266200  1.0  -0.0663
  C  C559  1  0.641900  0.733800  0.766200  1.0  -0.0993
  C  C560  1  0.615500  0.733800  0.766200  1.0  -0.0651
  C  C561  1  0.641900  0.233800  0.266200  1.0  -0.0993
  C  C562  1  0.615500  0.233800  0.266200  1.0  -0.0651
  C  C563  1  0.141900  0.733800  0.266200  1.0  -0.0993
  C  C564  1  0.115500  0.733800  0.266200  1.0  -0.0651
  C  C565  1  0.233800  0.641900  0.266200  1.0  -0.1003
  C  C566  1  0.233800  0.615500  0.266200  1.0  -0.0668
  C  C567  1  0.233800  0.141900  0.766200  1.0  -0.1003
  C  C568  1  0.233800  0.115500  0.766200  1.0  -0.0668
  C  C569  1  0.233800  0.358100  0.733800  1.0  -0.0989
  C  C570  1  0.233800  0.384500  0.733800  1.0  -0.0626
  C  C571  1  0.233800  0.858100  0.233800  1.0  -0.0989
  C  C572  1  0.233800  0.884500  0.233800  1.0  -0.0626
  C  C573  1  0.766200  0.358100  0.266200  1.0  -0.0985
  C  C574  1  0.766200  0.384500  0.266200  1.0  -0.0632
  C  C575  1  0.766200  0.858100  0.766200  1.0  -0.0985
  C  C576  1  0.766200  0.884500  0.766200  1.0  -0.0632
  C  C577  1  0.266200  0.858100  0.266200  1.0  -0.0985
  C  C578  1  0.266200  0.884500  0.266200  1.0  -0.0632
  C  C579  1  0.766200  0.641900  0.733800  1.0  -0.0998
  C  C580  1  0.766200  0.615500  0.733800  1.0  -0.0626
  C  C581  1  0.766200  0.141900  0.233800  1.0  -0.0998
  C  C582  1  0.766200  0.115500  0.233800  1.0  -0.0626
  C  C583  1  0.266200  0.641900  0.233800  1.0  -0.0998
  C  C584  1  0.266200  0.615500  0.233800  1.0  -0.0626
  C  C585  1  0.266200  0.233800  0.641900  1.0  -0.0991
  C  C586  1  0.266200  0.233800  0.615500  1.0  -0.0645
  C  C587  1  0.266200  0.733800  0.141900  1.0  -0.0991
  C  C588  1  0.266200  0.733800  0.115500  1.0  -0.0645
  C  C589  1  0.733800  0.233800  0.358100  1.0  -0.1023
  C  C590  1  0.733800  0.233800  0.384500  1.0  -0.0656
  C  C591  1  0.733800  0.733800  0.858100  1.0  -0.1023
  C  C592  1  0.733800  0.733800  0.884500  1.0  -0.0656
  C  C593  1  0.233800  0.233800  0.858100  1.0  -0.1023
  C  C594  1  0.233800  0.233800  0.884500  1.0  -0.0656
  C  C595  1  0.266200  0.766200  0.358100  1.0  -0.1007
  C  C596  1  0.266200  0.766200  0.384500  1.0  -0.0643
  C  C597  1  0.266200  0.266200  0.858100  1.0  -0.1007
  C  C598  1  0.266200  0.266200  0.884500  1.0  -0.0643
  C  C599  1  0.733800  0.766200  0.641900  1.0  -0.1006
  C  C600  1  0.733800  0.766200  0.615500  1.0  -0.0658
  C  C601  1  0.733800  0.266200  0.141900  1.0  -0.1006
  C  C602  1  0.733800  0.266200  0.115500  1.0  -0.0658
  C  C603  1  0.233800  0.266200  0.641900  1.0  -0.1006
  C  C604  1  0.233800  0.266200  0.615500  1.0  -0.0658
  C  C605  1  0.266200  0.641900  0.766200  1.0  -0.099
  C  C606  1  0.266200  0.615500  0.766200  1.0  -0.0644
  C  C607  1  0.266200  0.141900  0.266200  1.0  -0.099
  C  C608  1  0.266200  0.115500  0.266200  1.0  -0.0644
  C  C609  1  0.733800  0.358100  0.766200  1.0  -0.0994
  C  C610  1  0.733800  0.384500  0.766200  1.0  -0.0663
  C  C611  1  0.733800  0.858100  0.266200  1.0  -0.0994
  C  C612  1  0.733800  0.884500  0.266200  1.0  -0.0663
  C  C613  1  0.233800  0.358100  0.266200  1.0  -0.0994
  C  C614  1  0.233800  0.384500  0.266200  1.0  -0.0663
  C  C615  1  0.266200  0.358100  0.233800  1.0  -0.099
  C  C616  1  0.266200  0.384500  0.233800  1.0  -0.0608
  C  C617  1  0.266200  0.858100  0.733800  1.0  -0.099
  C  C618  1  0.266200  0.884500  0.733800  1.0  -0.0608
  C  C619  1  0.733800  0.641900  0.233800  1.0  -0.0997
  C  C620  1  0.733800  0.615500  0.233800  1.0  -0.0647
  C  C621  1  0.733800  0.141900  0.733800  1.0  -0.0997
  C  C622  1  0.733800  0.115500  0.733800  1.0  -0.0647
  C  C623  1  0.233800  0.141900  0.233800  1.0  -0.0997
  C  C624  1  0.233800  0.115500  0.233800  1.0  -0.0647
  C  C625  1  0.641900  0.233800  0.733800  1.0  -0.1009
  C  C626  1  0.615500  0.233800  0.733800  1.0  -0.0643
  C  C627  1  0.141900  0.233800  0.233800  1.0  -0.1009
  C  C628  1  0.115500  0.233800  0.233800  1.0  -0.0643
  C  C629  1  0.358100  0.233800  0.266200  1.0  -0.0994
  C  C630  1  0.384500  0.233800  0.266200  1.0  -0.0671
  C  C631  1  0.858100  0.233800  0.766200  1.0  -0.0994
  C  C632  1  0.884500  0.233800  0.766200  1.0  -0.0671
  C  C633  1  0.358100  0.766200  0.733800  1.0  -0.0997
  C  C634  1  0.384500  0.766200  0.733800  1.0  -0.064
  C  C635  1  0.358100  0.266200  0.233800  1.0  -0.0997
  C  C636  1  0.384500  0.266200  0.233800  1.0  -0.064
  C  C637  1  0.858100  0.766200  0.233800  1.0  -0.0997
  C  C638  1  0.884500  0.766200  0.233800  1.0  -0.064
  C  C639  1  0.641900  0.766200  0.266200  1.0  -0.1
  C  C640  1  0.615500  0.766200  0.266200  1.0  -0.0675
  C  C641  1  0.141900  0.766200  0.766200  1.0  -0.1
  C  C642  1  0.115500  0.766200  0.766200  1.0  -0.0675
  C  C643  1  0.141900  0.266200  0.266200  1.0  -0.1
  C  C644  1  0.115500  0.266200  0.266200  1.0  -0.0675
  C  C645  1  0.233800  0.266200  0.358100  1.0  -0.102
  C  C646  1  0.233800  0.266200  0.384500  1.0  -0.0673
  C  C647  1  0.233800  0.766200  0.858100  1.0  -0.102
  C  C648  1  0.233800  0.766200  0.884500  1.0  -0.0673
  C  C649  1  0.233800  0.733800  0.641900  1.0  -0.0999
  C  C650  1  0.233800  0.733800  0.615500  1.0  -0.0662
  C  C651  1  0.233800  0.233800  0.141900  1.0  -0.0999
  C  C652  1  0.233800  0.233800  0.115500  1.0  -0.0662
  C  C653  1  0.766200  0.266200  0.641900  1.0  -0.0997
  C  C654  1  0.766200  0.266200  0.615500  1.0  -0.0634
  C  C655  1  0.766200  0.766200  0.141900  1.0  -0.0997
  C  C656  1  0.766200  0.766200  0.115500  1.0  -0.0634
  C  C657  1  0.266200  0.266200  0.141900  1.0  -0.0997
  C  C658  1  0.266200  0.266200  0.115500  1.0  -0.0634
  C  C659  1  0.766200  0.733800  0.358100  1.0  -0.1014
  C  C660  1  0.766200  0.733800  0.384500  1.0  -0.0646
  C  C661  1  0.766200  0.233800  0.858100  1.0  -0.1014
  C  C662  1  0.766200  0.233800  0.884500  1.0  -0.0646
  C  C663  1  0.266200  0.233800  0.358100  1.0  -0.1014
  C  C664  1  0.266200  0.233800  0.384500  1.0  -0.0646
  C  C665  1  0.358100  0.733800  0.766200  1.0  -0.0994
  C  C666  1  0.384500  0.733800  0.766200  1.0  -0.0671
  C  C667  1  0.858100  0.733800  0.266200  1.0  -0.0994
  C  C668  1  0.884500  0.733800  0.266200  1.0  -0.0671
  C  C669  1  0.641900  0.266200  0.766200  1.0  -0.1
  C  C670  1  0.615500  0.266200  0.766200  1.0  -0.0675
  C  C671  1  0.641900  0.733800  0.233800  1.0  -0.1009
  C  C672  1  0.615500  0.733800  0.233800  1.0  -0.0643
  C  C673  1  0.141900  0.733800  0.733800  1.0  -0.1009
  C  C674  1  0.115500  0.733800  0.733800  1.0  -0.0643
  C  C675  1  0.858100  0.266200  0.733800  1.0  -0.0997
  C  C676  1  0.884500  0.266200  0.733800  1.0  -0.064
  C  C677  1  0.766200  0.358100  0.733800  1.0  -0.099
  C  C678  1  0.766200  0.384500  0.733800  1.0  -0.0608
  C  C679  1  0.766200  0.858100  0.233800  1.0  -0.099
  C  C680  1  0.766200  0.884500  0.233800  1.0  -0.0608
  C  C681  1  0.766200  0.641900  0.266200  1.0  -0.099
  C  C682  1  0.766200  0.615500  0.266200  1.0  -0.0644
  C  C683  1  0.766200  0.141900  0.766200  1.0  -0.099
  C  C684  1  0.766200  0.115500  0.766200  1.0  -0.0644
  C  C685  1  0.233800  0.641900  0.733800  1.0  -0.0997
  C  C686  1  0.233800  0.615500  0.733800  1.0  -0.0647
  C  C687  1  0.233800  0.858100  0.766200  1.0  -0.0994
  C  C688  1  0.233800  0.884500  0.766200  1.0  -0.0663
  C  C689  1  0.733800  0.766200  0.358100  1.0  -0.102
  C  C690  1  0.733800  0.766200  0.384500  1.0  -0.0673
  C  C691  1  0.733800  0.266200  0.858100  1.0  -0.102
  C  C692  1  0.733800  0.266200  0.884500  1.0  -0.0673
  C  C693  1  0.266200  0.766200  0.641900  1.0  -0.0997
  C  C694  1  0.266200  0.766200  0.615500  1.0  -0.0634
  C  C695  1  0.733800  0.233800  0.641900  1.0  -0.0999
  C  C696  1  0.733800  0.233800  0.615500  1.0  -0.0662
  C  C697  1  0.733800  0.733800  0.141900  1.0  -0.0999
  C  C698  1  0.733800  0.733800  0.115500  1.0  -0.0662
  C  C699  1  0.266200  0.733800  0.858100  1.0  -0.1014
  C  C700  1  0.266200  0.733800  0.884500  1.0  -0.0646
  C  C701  1  0.733800  0.358100  0.233800  1.0  -0.0989
  C  C702  1  0.733800  0.384500  0.233800  1.0  -0.0626
  C  C703  1  0.733800  0.858100  0.733800  1.0  -0.0989
  C  C704  1  0.733800  0.884500  0.733800  1.0  -0.0626
  C  C705  1  0.266200  0.141900  0.733800  1.0  -0.0998
  C  C706  1  0.266200  0.115500  0.733800  1.0  -0.0626
  C  C707  1  0.733800  0.641900  0.766200  1.0  -0.1003
  C  C708  1  0.733800  0.615500  0.766200  1.0  -0.0668
  C  C709  1  0.733800  0.141900  0.266200  1.0  -0.1003
  C  C710  1  0.733800  0.115500  0.266200  1.0  -0.0668
  C  C711  1  0.266200  0.358100  0.766200  1.0  -0.0985
  C  C712  1  0.266200  0.384500  0.766200  1.0  -0.0632
  C  C713  1  0.358100  0.766200  0.266200  1.0  -0.1008
  C  C714  1  0.384500  0.766200  0.266200  1.0  -0.0663
  C  C715  1  0.858100  0.766200  0.766200  1.0  -0.1008
  C  C716  1  0.884500  0.766200  0.766200  1.0  -0.0663
  C  C717  1  0.641900  0.766200  0.733800  1.0  -0.0992
  C  C718  1  0.615500  0.766200  0.733800  1.0  -0.0632
  C  C719  1  0.141900  0.766200  0.233800  1.0  -0.0992
  C  C720  1  0.115500  0.766200  0.233800  1.0  -0.0632
  C  C721  1  0.141900  0.233800  0.766200  1.0  -0.0993
  C  C722  1  0.115500  0.233800  0.766200  1.0  -0.0651
  C  C723  1  0.358100  0.233800  0.733800  1.0  -0.0994
  C  C724  1  0.384500  0.233800  0.733800  1.0  -0.0662
  C  C725  1  0.766200  0.733800  0.641900  1.0  -0.0991
  C  C726  1  0.766200  0.733800  0.615500  1.0  -0.0645
  C  C727  1  0.766200  0.233800  0.141900  1.0  -0.0991
  C  C728  1  0.766200  0.233800  0.115500  1.0  -0.0645
  C  C729  1  0.766200  0.266200  0.358100  1.0  -0.1007
  C  C730  1  0.766200  0.266200  0.384500  1.0  -0.0643
  C  C731  1  0.766200  0.766200  0.858100  1.0  -0.1007
  C  C732  1  0.766200  0.766200  0.884500  1.0  -0.0643
  C  C733  1  0.233800  0.733800  0.358100  1.0  -0.1023
  C  C734  1  0.233800  0.733800  0.384500  1.0  -0.0656
  C  C735  1  0.233800  0.766200  0.141900  1.0  -0.1006
  C  C736  1  0.233800  0.766200  0.115500  1.0  -0.0658
  C  C737  1  0.513500  0.233650  0.233650  1.0  -0.1052
  C  C738  1  0.615300  0.234000  0.234000  1.0  -0.0711
  C  C739  1  0.642100  0.234000  0.234000  1.0  -0.0819
  C  C740  1  0.513500  0.733650  0.733650  1.0  -0.1052
  C  C741  1  0.615300  0.734000  0.734000  1.0  -0.0711
  C  C742  1  0.642100  0.734000  0.734000  1.0  -0.0819
  C  C743  1  0.013500  0.233650  0.733650  1.0  -0.1054
  C  C744  1  0.115300  0.234000  0.734000  1.0  -0.0711
  C  C745  1  0.142100  0.234000  0.734000  1.0  -0.0819
  C  C746  1  0.013500  0.733650  0.233650  1.0  -0.1054
  C  C747  1  0.115300  0.734000  0.234000  1.0  -0.0711
  C  C748  1  0.142100  0.734000  0.234000  1.0  -0.0819
  C  C749  1  0.486500  0.766350  0.233650  1.0  -0.106
  C  C750  1  0.384700  0.766000  0.234000  1.0  -0.0737
  C  C751  1  0.357900  0.766000  0.234000  1.0  -0.0836
  C  C752  1  0.486500  0.266350  0.733650  1.0  -0.106
  C  C753  1  0.384700  0.266000  0.734000  1.0  -0.0737
  C  C754  1  0.357900  0.266000  0.734000  1.0  -0.0836
  C  C755  1  0.986500  0.766350  0.733650  1.0  -0.106
  C  C756  1  0.884700  0.766000  0.734000  1.0  -0.0737
  C  C757  1  0.857900  0.766000  0.734000  1.0  -0.0836
  C  C758  1  0.986500  0.266350  0.233650  1.0  -0.106
  C  C759  1  0.884700  0.266000  0.234000  1.0  -0.0737
  C  C760  1  0.857900  0.266000  0.234000  1.0  -0.0836
  C  C761  1  0.486500  0.233650  0.766350  1.0  -0.1032
  C  C762  1  0.384700  0.234000  0.766000  1.0  -0.074
  C  C763  1  0.357900  0.234000  0.766000  1.0  -0.081
  C  C764  1  0.486500  0.733650  0.266350  1.0  -0.1032
  C  C765  1  0.384700  0.734000  0.266000  1.0  -0.074
  C  C766  1  0.357900  0.734000  0.266000  1.0  -0.081
  C  C767  1  0.986500  0.233650  0.266350  1.0  -0.1032
  C  C768  1  0.884700  0.234000  0.266000  1.0  -0.074
  C  C769  1  0.857900  0.234000  0.266000  1.0  -0.081
  C  C770  1  0.986500  0.733650  0.766350  1.0  -0.1032
  C  C771  1  0.884700  0.734000  0.766000  1.0  -0.074
  C  C772  1  0.857900  0.734000  0.766000  1.0  -0.081
  C  C773  1  0.513500  0.766350  0.766350  1.0  -0.1053
  C  C774  1  0.615300  0.766000  0.766000  1.0  -0.0751
  C  C775  1  0.642100  0.766000  0.766000  1.0  -0.0861
  C  C776  1  0.513500  0.266350  0.266350  1.0  -0.1053
  C  C777  1  0.615300  0.266000  0.266000  1.0  -0.0751
  C  C778  1  0.642100  0.266000  0.266000  1.0  -0.0861
  C  C779  1  0.013500  0.766350  0.266350  1.0  -0.1053
  C  C780  1  0.115300  0.766000  0.266000  1.0  -0.0751
  C  C781  1  0.142100  0.766000  0.266000  1.0  -0.0861
  C  C782  1  0.013500  0.266350  0.766350  1.0  -0.1053
  C  C783  1  0.115300  0.266000  0.766000  1.0  -0.0751
  C  C784  1  0.142100  0.266000  0.766000  1.0  -0.0861
  C  C785  1  0.233650  0.513500  0.233650  1.0  -0.1033
  C  C786  1  0.234000  0.615300  0.234000  1.0  -0.07
  C  C787  1  0.234000  0.642100  0.234000  1.0  -0.0814
  C  C788  1  0.233650  0.013500  0.733650  1.0  -0.1033
  C  C789  1  0.234000  0.115300  0.734000  1.0  -0.07
  C  C790  1  0.234000  0.142100  0.734000  1.0  -0.0814
  C  C791  1  0.733650  0.513500  0.733650  1.0  -0.1033
  C  C792  1  0.734000  0.615300  0.734000  1.0  -0.07
  C  C793  1  0.734000  0.642100  0.734000  1.0  -0.0814
  C  C794  1  0.733650  0.013500  0.233650  1.0  -0.1033
  C  C795  1  0.734000  0.115300  0.234000  1.0  -0.07
  C  C796  1  0.734000  0.142100  0.234000  1.0  -0.0814
  C  C797  1  0.233650  0.486500  0.766350  1.0  -0.1031
  C  C798  1  0.234000  0.384700  0.766000  1.0  -0.0731
  C  C799  1  0.234000  0.357900  0.766000  1.0  -0.0825
  C  C800  1  0.233650  0.986500  0.266350  1.0  -0.1031
  C  C801  1  0.234000  0.884700  0.266000  1.0  -0.0731
  C  C802  1  0.234000  0.857900  0.266000  1.0  -0.0825
  C  C803  1  0.733650  0.486500  0.266350  1.0  -0.1031
  C  C804  1  0.734000  0.384700  0.266000  1.0  -0.0731
  C  C805  1  0.734000  0.357900  0.266000  1.0  -0.0825
  C  C806  1  0.733650  0.986500  0.766350  1.0  -0.1031
  C  C807  1  0.734000  0.884700  0.766000  1.0  -0.0731
  C  C808  1  0.734000  0.857900  0.766000  1.0  -0.0825
  C  C809  1  0.766350  0.486500  0.233650  1.0  -0.1037
  C  C810  1  0.766000  0.384700  0.234000  1.0  -0.0718
  C  C811  1  0.766000  0.357900  0.234000  1.0  -0.0824
  C  C812  1  0.766350  0.986500  0.733650  1.0  -0.1037
  C  C813  1  0.766000  0.884700  0.734000  1.0  -0.0718
  C  C814  1  0.766000  0.857900  0.734000  1.0  -0.0824
  C  C815  1  0.266350  0.486500  0.733650  1.0  -0.1037
  C  C816  1  0.266000  0.384700  0.734000  1.0  -0.0718
  C  C817  1  0.266000  0.357900  0.734000  1.0  -0.0824
  C  C818  1  0.266350  0.986500  0.233650  1.0  -0.1037
  C  C819  1  0.266000  0.884700  0.234000  1.0  -0.0718
  C  C820  1  0.266000  0.857900  0.234000  1.0  -0.0824
  C  C821  1  0.766350  0.513500  0.766350  1.0  -0.1023
  C  C822  1  0.766000  0.615300  0.766000  1.0  -0.0734
  C  C823  1  0.766000  0.642100  0.766000  1.0  -0.0837
  C  C824  1  0.766350  0.013500  0.266350  1.0  -0.1023
  C  C825  1  0.766000  0.115300  0.266000  1.0  -0.0734
  C  C826  1  0.766000  0.142100  0.266000  1.0  -0.0837
  C  C827  1  0.266350  0.513500  0.266350  1.0  -0.1023
  C  C828  1  0.266000  0.615300  0.266000  1.0  -0.0734
  C  C829  1  0.266000  0.642100  0.266000  1.0  -0.0837
  C  C830  1  0.266350  0.013500  0.766350  1.0  -0.1023
  C  C831  1  0.266000  0.115300  0.766000  1.0  -0.0734
  C  C832  1  0.266000  0.142100  0.766000  1.0  -0.0837
  C  C833  1  0.233650  0.233650  0.513500  1.0  -0.1012
  C  C834  1  0.234000  0.234000  0.615300  1.0  -0.0726
  C  C835  1  0.234000  0.234000  0.642100  1.0  -0.0822
  C  C836  1  0.233650  0.733650  0.013500  1.0  -0.1014
  C  C837  1  0.234000  0.734000  0.115300  1.0  -0.0726
  C  C838  1  0.234000  0.734000  0.142100  1.0  -0.0822
  C  C839  1  0.733650  0.233650  0.013500  1.0  -0.1014
  C  C840  1  0.734000  0.234000  0.115300  1.0  -0.0726
  C  C841  1  0.734000  0.234000  0.142100  1.0  -0.0822
  C  C842  1  0.733650  0.733650  0.513500  1.0  -0.1012
  C  C843  1  0.734000  0.734000  0.615300  1.0  -0.0726
  C  C844  1  0.734000  0.734000  0.642100  1.0  -0.0822
  C  C845  1  0.766350  0.233650  0.486500  1.0  -0.1031
  C  C846  1  0.766000  0.234000  0.384700  1.0  -0.0737
  C  C847  1  0.766000  0.234000  0.357900  1.0  -0.0836
  C  C848  1  0.766350  0.733650  0.986500  1.0  -0.1031
  C  C849  1  0.766000  0.734000  0.884700  1.0  -0.0737
  C  C850  1  0.766000  0.734000  0.857900  1.0  -0.0836
  C  C851  1  0.266350  0.233650  0.986500  1.0  -0.1031
  C  C852  1  0.266000  0.234000  0.884700  1.0  -0.0737
  C  C853  1  0.266000  0.234000  0.857900  1.0  -0.0836
  C  C854  1  0.266350  0.733650  0.486500  1.0  -0.1031
  C  C855  1  0.266000  0.734000  0.384700  1.0  -0.0737
  C  C856  1  0.266000  0.734000  0.357900  1.0  -0.0836
  C  C857  1  0.233650  0.766350  0.486500  1.0  -0.1051
  C  C858  1  0.234000  0.766000  0.384700  1.0  -0.0751
  C  C859  1  0.234000  0.766000  0.357900  1.0  -0.0858
  C  C860  1  0.233650  0.266350  0.986500  1.0  -0.1051
  C  C861  1  0.234000  0.266000  0.884700  1.0  -0.0751
  C  C862  1  0.234000  0.266000  0.857900  1.0  -0.0858
  C  C863  1  0.733650  0.766350  0.986500  1.0  -0.1051
  C  C864  1  0.734000  0.766000  0.884700  1.0  -0.0751
  C  C865  1  0.734000  0.766000  0.857900  1.0  -0.0858
  C  C866  1  0.733650  0.266350  0.486500  1.0  -0.1051
  C  C867  1  0.734000  0.266000  0.384700  1.0  -0.0751
  C  C868  1  0.734000  0.266000  0.357900  1.0  -0.0858
  C  C869  1  0.766350  0.766350  0.513500  1.0  -0.1034
  C  C870  1  0.766000  0.766000  0.615300  1.0  -0.0737
  C  C871  1  0.766000  0.766000  0.642100  1.0  -0.0848
  C  C872  1  0.766350  0.266350  0.013500  1.0  -0.1034
  C  C873  1  0.766000  0.266000  0.115300  1.0  -0.0737
  C  C874  1  0.766000  0.266000  0.142100  1.0  -0.0848
  C  C875  1  0.266350  0.766350  0.013500  1.0  -0.1034
  C  C876  1  0.266000  0.766000  0.115300  1.0  -0.0737
  C  C877  1  0.266000  0.766000  0.142100  1.0  -0.0848
  C  C878  1  0.266350  0.266350  0.513500  1.0  -0.1034
  C  C879  1  0.266000  0.266000  0.615300  1.0  -0.0737
  C  C880  1  0.266000  0.266000  0.642100  1.0  -0.0848
  C  C881  1  0.233650  0.513500  0.766350  1.0  -0.1036
  C  C882  1  0.234000  0.615300  0.766000  1.0  -0.0727
  C  C883  1  0.234000  0.642100  0.766000  1.0  -0.0835
  C  C884  1  0.233650  0.013500  0.266350  1.0  -0.1036
  C  C885  1  0.234000  0.115300  0.266000  1.0  -0.0727
  C  C886  1  0.234000  0.142100  0.266000  1.0  -0.0835
  C  C887  1  0.733650  0.513500  0.266350  1.0  -0.1036
  C  C888  1  0.734000  0.615300  0.266000  1.0  -0.0727
  C  C889  1  0.734000  0.642100  0.266000  1.0  -0.0835
  C  C890  1  0.733650  0.013500  0.766350  1.0  -0.1036
  C  C891  1  0.734000  0.115300  0.766000  1.0  -0.0727
  C  C892  1  0.734000  0.142100  0.766000  1.0  -0.0835
  C  C893  1  0.766350  0.486500  0.766350  1.0  -0.1022
  C  C894  1  0.766000  0.384700  0.766000  1.0  -0.0735
  C  C895  1  0.766000  0.357900  0.766000  1.0  -0.083
  C  C896  1  0.766350  0.986500  0.266350  1.0  -0.1022
  C  C897  1  0.766000  0.884700  0.266000  1.0  -0.0735
  C  C898  1  0.766000  0.857900  0.266000  1.0  -0.083
  C  C899  1  0.266350  0.486500  0.266350  1.0  -0.1022
  C  C900  1  0.266000  0.384700  0.266000  1.0  -0.0735
  C  C901  1  0.266000  0.357900  0.266000  1.0  -0.083
  C  C902  1  0.266350  0.986500  0.766350  1.0  -0.1022
  C  C903  1  0.266000  0.884700  0.766000  1.0  -0.0735
  C  C904  1  0.266000  0.857900  0.766000  1.0  -0.083
  C  C905  1  0.233650  0.486500  0.233650  1.0  -0.1035
  C  C906  1  0.234000  0.384700  0.234000  1.0  -0.0696
  C  C907  1  0.234000  0.357900  0.234000  1.0  -0.0812
  C  C908  1  0.233650  0.986500  0.733650  1.0  -0.1035
  C  C909  1  0.234000  0.884700  0.734000  1.0  -0.0696
  C  C910  1  0.234000  0.857900  0.734000  1.0  -0.0812
  C  C911  1  0.733650  0.486500  0.733650  1.0  -0.1035
  C  C912  1  0.734000  0.384700  0.734000  1.0  -0.0696
  C  C913  1  0.734000  0.357900  0.734000  1.0  -0.0812
  C  C914  1  0.733650  0.986500  0.233650  1.0  -0.1035
  C  C915  1  0.734000  0.884700  0.234000  1.0  -0.0696
  C  C916  1  0.734000  0.857900  0.234000  1.0  -0.0812
  C  C917  1  0.766350  0.513500  0.233650  1.0  -0.1038
  C  C918  1  0.766000  0.615300  0.234000  1.0  -0.0703
  C  C919  1  0.766000  0.642100  0.234000  1.0  -0.0821
  C  C920  1  0.766350  0.013500  0.733650  1.0  -0.1038
  C  C921  1  0.766000  0.115300  0.734000  1.0  -0.0703
  C  C922  1  0.766000  0.142100  0.734000  1.0  -0.0821
  C  C923  1  0.266350  0.513500  0.733650  1.0  -0.1038
  C  C924  1  0.266000  0.615300  0.734000  1.0  -0.0703
  C  C925  1  0.266000  0.642100  0.734000  1.0  -0.0821
  C  C926  1  0.266350  0.013500  0.233650  1.0  -0.1041
  C  C927  1  0.266000  0.115300  0.234000  1.0  -0.0703
  C  C928  1  0.266000  0.142100  0.234000  1.0  -0.0821
  C  C929  1  0.513500  0.233650  0.766350  1.0  -0.1034
  C  C930  1  0.615300  0.234000  0.766000  1.0  -0.0727
  C  C931  1  0.642100  0.234000  0.766000  1.0  -0.0824
  C  C932  1  0.513500  0.733650  0.266350  1.0  -0.1034
  C  C933  1  0.615300  0.734000  0.266000  1.0  -0.0727
  C  C934  1  0.642100  0.734000  0.266000  1.0  -0.0824
  C  C935  1  0.013500  0.233650  0.266350  1.0  -0.1036
  C  C936  1  0.115300  0.234000  0.266000  1.0  -0.0727
  C  C937  1  0.142100  0.234000  0.266000  1.0  -0.0824
  C  C938  1  0.013500  0.733650  0.766350  1.0  -0.1036
  C  C939  1  0.115300  0.734000  0.766000  1.0  -0.0727
  C  C940  1  0.142100  0.734000  0.766000  1.0  -0.0824
  C  C941  1  0.486500  0.233650  0.233650  1.0  -0.1043
  C  C942  1  0.384700  0.234000  0.234000  1.0  -0.0731
  C  C943  1  0.357900  0.234000  0.234000  1.0  -0.08
  C  C944  1  0.486500  0.733650  0.733650  1.0  -0.1043
  C  C945  1  0.384700  0.734000  0.734000  1.0  -0.0731
  C  C946  1  0.357900  0.734000  0.734000  1.0  -0.08
  C  C947  1  0.986500  0.233650  0.733650  1.0  -0.1043
  C  C948  1  0.884700  0.234000  0.734000  1.0  -0.0731
  C  C949  1  0.857900  0.234000  0.734000  1.0  -0.08
  C  C950  1  0.986500  0.733650  0.233650  1.0  -0.1043
  C  C951  1  0.884700  0.734000  0.234000  1.0  -0.0731
  C  C952  1  0.857900  0.734000  0.234000  1.0  -0.08
  C  C953  1  0.486500  0.766350  0.766350  1.0  -0.1059
  C  C954  1  0.384700  0.766000  0.766000  1.0  -0.0748
  C  C955  1  0.357900  0.766000  0.766000  1.0  -0.0855
  C  C956  1  0.486500  0.266350  0.266350  1.0  -0.1059
  C  C957  1  0.384700  0.266000  0.266000  1.0  -0.0748
  C  C958  1  0.357900  0.266000  0.266000  1.0  -0.0855
  C  C959  1  0.986500  0.766350  0.266350  1.0  -0.1059
  C  C960  1  0.884700  0.766000  0.266000  1.0  -0.0748
  C  C961  1  0.857900  0.766000  0.266000  1.0  -0.0855
  C  C962  1  0.986500  0.266350  0.766350  1.0  -0.1059
  C  C963  1  0.884700  0.266000  0.766000  1.0  -0.0748
  C  C964  1  0.857900  0.266000  0.766000  1.0  -0.0855
  C  C965  1  0.513500  0.766350  0.233650  1.0  -0.1074
  C  C966  1  0.615300  0.766000  0.234000  1.0  -0.0713
  C  C967  1  0.642100  0.766000  0.234000  1.0  -0.0836
  C  C968  1  0.513500  0.266350  0.733650  1.0  -0.1074
  C  C969  1  0.615300  0.266000  0.734000  1.0  -0.0713
  C  C970  1  0.642100  0.266000  0.734000  1.0  -0.0836
  C  C971  1  0.013500  0.766350  0.733650  1.0  -0.1074
  C  C972  1  0.115300  0.766000  0.734000  1.0  -0.0713
  C  C973  1  0.142100  0.766000  0.734000  1.0  -0.0836
  C  C974  1  0.013500  0.266350  0.233650  1.0  -0.1073
  C  C975  1  0.115300  0.266000  0.234000  1.0  -0.0713
  C  C976  1  0.142100  0.266000  0.234000  1.0  -0.0836
  C  C977  1  0.233650  0.233650  0.486500  1.0  -0.1035
  C  C978  1  0.234000  0.234000  0.384700  1.0  -0.0731
  C  C979  1  0.234000  0.234000  0.357900  1.0  -0.0836
  C  C980  1  0.233650  0.733650  0.986500  1.0  -0.1035
  C  C981  1  0.234000  0.734000  0.884700  1.0  -0.0731
  C  C982  1  0.234000  0.734000  0.857900  1.0  -0.0836
  C  C983  1  0.733650  0.233650  0.986500  1.0  -0.1035
  C  C984  1  0.734000  0.234000  0.884700  1.0  -0.0731
  C  C985  1  0.734000  0.234000  0.857900  1.0  -0.0836
  C  C986  1  0.733650  0.733650  0.486500  1.0  -0.1035
  C  C987  1  0.734000  0.734000  0.384700  1.0  -0.0731
  C  C988  1  0.734000  0.734000  0.357900  1.0  -0.0836
  C  C989  1  0.233650  0.766350  0.513500  1.0  -0.1043
  C  C990  1  0.234000  0.766000  0.615300  1.0  -0.0724
  C  C991  1  0.234000  0.766000  0.642100  1.0  -0.0854
  C  C992  1  0.233650  0.266350  0.013500  1.0  -0.1043
  C  C993  1  0.234000  0.266000  0.115300  1.0  -0.0724
  C  C994  1  0.234000  0.266000  0.142100  1.0  -0.0854
  C  C995  1  0.733650  0.766350  0.013500  1.0  -0.1043
  C  C996  1  0.734000  0.766000  0.115300  1.0  -0.0724
  C  C997  1  0.734000  0.766000  0.142100  1.0  -0.0854
  C  C998  1  0.733650  0.266350  0.513500  1.0  -0.1043
  C  C999  1  0.734000  0.266000  0.615300  1.0  -0.0724
  C  C1000  1  0.734000  0.266000  0.642100  1.0  -0.0854
  C  C1001  1  0.766350  0.233650  0.513500  1.0  -0.1015
  C  C1002  1  0.766000  0.234000  0.615300  1.0  -0.0727
  C  C1003  1  0.766000  0.234000  0.642100  1.0  -0.0815
  C  C1004  1  0.766350  0.733650  0.013500  1.0  -0.1015
  C  C1005  1  0.766000  0.734000  0.115300  1.0  -0.0727
  C  C1006  1  0.766000  0.734000  0.142100  1.0  -0.0815
  C  C1007  1  0.266350  0.233650  0.013500  1.0  -0.1015
  C  C1008  1  0.266000  0.234000  0.115300  1.0  -0.0727
  C  C1009  1  0.266000  0.234000  0.142100  1.0  -0.0815
  C  C1010  1  0.266350  0.733650  0.513500  1.0  -0.1015
  C  C1011  1  0.266000  0.734000  0.615300  1.0  -0.0727
  C  C1012  1  0.266000  0.734000  0.642100  1.0  -0.0815
  C  C1013  1  0.766350  0.766350  0.486500  1.0  -0.1049
  C  C1014  1  0.766000  0.766000  0.384700  1.0  -0.0755
  C  C1015  1  0.766000  0.766000  0.357900  1.0  -0.0852
  C  C1016  1  0.766350  0.266350  0.986500  1.0  -0.1049
  C  C1017  1  0.766000  0.266000  0.884700  1.0  -0.0755
  C  C1018  1  0.766000  0.266000  0.857900  1.0  -0.0852
  C  C1019  1  0.266350  0.766350  0.986500  1.0  -0.1049
  C  C1020  1  0.266000  0.766000  0.884700  1.0  -0.0755
  C  C1021  1  0.266000  0.766000  0.857900  1.0  -0.0852
  C  C1022  1  0.266350  0.266350  0.486500  1.0  -0.1049
  C  C1023  1  0.266000  0.266000  0.384700  1.0  -0.0755
  C  C1024  1  0.266000  0.266000  0.357900  1.0  -0.0852
  C  C1025  1  0.683800  0.250000  0.250000  1.0  0.112
  C  C1026  1  0.655100  0.250000  0.250000  1.0  0.2811
  C  C1027  1  0.602800  0.250000  0.250000  1.0  0.2126
  C  C1028  1  0.575700  0.250000  0.250000  1.0  0.1969
  C  C1029  1  0.554400  0.250000  0.250000  1.0  0.2074
  C  C1030  1  0.526300  0.250000  0.250000  1.0  0.0768
  C  C1031  1  0.183800  0.250000  0.750000  1.0  0.112
  C  C1032  1  0.155100  0.250000  0.750000  1.0  0.2811
  C  C1033  1  0.102800  0.250000  0.750000  1.0  0.2126
  C  C1034  1  0.075700  0.250000  0.750000  1.0  0.1969
  C  C1035  1  0.054400  0.250000  0.750000  1.0  0.2074
  C  C1036  1  0.026300  0.250000  0.750000  1.0  0.0768
  C  C1037  1  0.316200  0.750000  0.250000  1.0  0.1153
  C  C1038  1  0.344900  0.750000  0.250000  1.0  0.2773
  C  C1039  1  0.397200  0.750000  0.250000  1.0  0.2186
  C  C1040  1  0.424300  0.750000  0.250000  1.0  0.1938
  C  C1041  1  0.445600  0.750000  0.250000  1.0  0.2073
  C  C1042  1  0.473700  0.750000  0.250000  1.0  0.0779
  C  C1043  1  0.816200  0.750000  0.750000  1.0  0.1153
  C  C1044  1  0.844900  0.750000  0.750000  1.0  0.2773
  C  C1045  1  0.897200  0.750000  0.750000  1.0  0.2186
  C  C1046  1  0.924300  0.750000  0.750000  1.0  0.1938
  C  C1047  1  0.945600  0.750000  0.750000  1.0  0.2073
  C  C1048  1  0.973700  0.750000  0.750000  1.0  0.0779
  C  C1049  1  0.816200  0.250000  0.250000  1.0  0.1153
  C  C1050  1  0.844900  0.250000  0.250000  1.0  0.2773
  C  C1051  1  0.897200  0.250000  0.250000  1.0  0.2186
  C  C1052  1  0.924300  0.250000  0.250000  1.0  0.1938
  C  C1053  1  0.945600  0.250000  0.250000  1.0  0.2073
  C  C1054  1  0.973700  0.250000  0.250000  1.0  0.0779
  C  C1055  1  0.316200  0.250000  0.750000  1.0  0.1153
  C  C1056  1  0.344900  0.250000  0.750000  1.0  0.2773
  C  C1057  1  0.397200  0.250000  0.750000  1.0  0.2186
  C  C1058  1  0.424300  0.250000  0.750000  1.0  0.1938
  C  C1059  1  0.445600  0.250000  0.750000  1.0  0.2073
  C  C1060  1  0.473700  0.250000  0.750000  1.0  0.0779
  C  C1061  1  0.683800  0.750000  0.750000  1.0  0.112
  C  C1062  1  0.655100  0.750000  0.750000  1.0  0.2811
  C  C1063  1  0.602800  0.750000  0.750000  1.0  0.2126
  C  C1064  1  0.575700  0.750000  0.750000  1.0  0.1969
  C  C1065  1  0.554400  0.750000  0.750000  1.0  0.2074
  C  C1066  1  0.526300  0.750000  0.750000  1.0  0.0768
  C  C1067  1  0.183800  0.750000  0.250000  1.0  0.112
  C  C1068  1  0.155100  0.750000  0.250000  1.0  0.2811
  C  C1069  1  0.102800  0.750000  0.250000  1.0  0.2126
  C  C1070  1  0.075700  0.750000  0.250000  1.0  0.1969
  C  C1071  1  0.054400  0.750000  0.250000  1.0  0.2074
  C  C1072  1  0.026300  0.750000  0.250000  1.0  0.0768
  C  C1073  1  0.250000  0.683800  0.250000  1.0  0.1175
  C  C1074  1  0.250000  0.655100  0.250000  1.0  0.2787
  C  C1075  1  0.250000  0.602800  0.250000  1.0  0.2111
  C  C1076  1  0.250000  0.575700  0.250000  1.0  0.1915
  C  C1077  1  0.250000  0.554400  0.250000  1.0  0.207
  C  C1078  1  0.250000  0.526300  0.250000  1.0  0.0776
  C  C1079  1  0.250000  0.183800  0.750000  1.0  0.1175
  C  C1080  1  0.250000  0.155100  0.750000  1.0  0.2787
  C  C1081  1  0.250000  0.102800  0.750000  1.0  0.2111
  C  C1082  1  0.250000  0.075700  0.750000  1.0  0.1915
  C  C1083  1  0.250000  0.054400  0.750000  1.0  0.207
  C  C1084  1  0.250000  0.026300  0.750000  1.0  0.0776
  C  C1085  1  0.250000  0.316200  0.750000  1.0  0.1169
  C  C1086  1  0.250000  0.344900  0.750000  1.0  0.2797
  C  C1087  1  0.250000  0.397200  0.750000  1.0  0.2126
  C  C1088  1  0.250000  0.424300  0.750000  1.0  0.1912
  C  C1089  1  0.250000  0.445600  0.750000  1.0  0.2069
  C  C1090  1  0.250000  0.473700  0.750000  1.0  0.0756
  C  C1091  1  0.250000  0.816200  0.250000  1.0  0.1169
  C  C1092  1  0.250000  0.844900  0.250000  1.0  0.2797
  C  C1093  1  0.250000  0.897200  0.250000  1.0  0.2126
  C  C1094  1  0.250000  0.924300  0.250000  1.0  0.1912
  C  C1095  1  0.250000  0.945600  0.250000  1.0  0.2069
  C  C1096  1  0.250000  0.973700  0.250000  1.0  0.0756
  C  C1097  1  0.750000  0.316200  0.250000  1.0  0.1169
  C  C1098  1  0.750000  0.344900  0.250000  1.0  0.2797
  C  C1099  1  0.750000  0.397200  0.250000  1.0  0.2126
  C  C1100  1  0.750000  0.424300  0.250000  1.0  0.1912
  C  C1101  1  0.750000  0.445600  0.250000  1.0  0.2069
  C  C1102  1  0.750000  0.473700  0.250000  1.0  0.0756
  C  C1103  1  0.750000  0.816200  0.750000  1.0  0.1169
  C  C1104  1  0.750000  0.844900  0.750000  1.0  0.2797
  C  C1105  1  0.750000  0.897200  0.750000  1.0  0.2126
  C  C1106  1  0.750000  0.924300  0.750000  1.0  0.1912
  C  C1107  1  0.750000  0.945600  0.750000  1.0  0.2069
  C  C1108  1  0.750000  0.973700  0.750000  1.0  0.0756
  C  C1109  1  0.750000  0.683800  0.750000  1.0  0.1175
  C  C1110  1  0.750000  0.655100  0.750000  1.0  0.2787
  C  C1111  1  0.750000  0.602800  0.750000  1.0  0.2111
  C  C1112  1  0.750000  0.575700  0.750000  1.0  0.1915
  C  C1113  1  0.750000  0.554400  0.750000  1.0  0.207
  C  C1114  1  0.750000  0.526300  0.750000  1.0  0.0776
  C  C1115  1  0.750000  0.183800  0.250000  1.0  0.1175
  C  C1116  1  0.750000  0.155100  0.250000  1.0  0.2787
  C  C1117  1  0.750000  0.102800  0.250000  1.0  0.2111
  C  C1118  1  0.750000  0.075700  0.250000  1.0  0.1915
  C  C1119  1  0.750000  0.054400  0.250000  1.0  0.207
  C  C1120  1  0.750000  0.026300  0.250000  1.0  0.0776
  C  C1121  1  0.250000  0.250000  0.683800  1.0  0.1126
  C  C1122  1  0.250000  0.250000  0.655100  1.0  0.2714
  C  C1123  1  0.250000  0.250000  0.602800  1.0  0.2061
  C  C1124  1  0.250000  0.250000  0.575700  1.0  0.1902
  C  C1125  1  0.250000  0.250000  0.554400  1.0  0.208
  C  C1126  1  0.250000  0.250000  0.526300  1.0  0.0775
  C  C1127  1  0.250000  0.750000  0.183800  1.0  0.1126
  C  C1128  1  0.250000  0.750000  0.155100  1.0  0.2714
  C  C1129  1  0.250000  0.750000  0.102800  1.0  0.2061
  C  C1130  1  0.250000  0.750000  0.075700  1.0  0.1902
  C  C1131  1  0.250000  0.750000  0.054400  1.0  0.208
  C  C1132  1  0.250000  0.750000  0.026300  1.0  0.0775
  C  C1133  1  0.750000  0.250000  0.316200  1.0  0.1139
  C  C1134  1  0.750000  0.250000  0.344900  1.0  0.2711
  C  C1135  1  0.750000  0.250000  0.397200  1.0  0.2062
  C  C1136  1  0.750000  0.250000  0.424300  1.0  0.1901
  C  C1137  1  0.750000  0.250000  0.445600  1.0  0.2086
  C  C1138  1  0.750000  0.250000  0.473700  1.0  0.0776
  C  C1139  1  0.750000  0.750000  0.816200  1.0  0.1139
  C  C1140  1  0.750000  0.750000  0.844900  1.0  0.2711
  C  C1141  1  0.750000  0.750000  0.897200  1.0  0.2062
  C  C1142  1  0.750000  0.750000  0.924300  1.0  0.1901
  C  C1143  1  0.750000  0.750000  0.945600  1.0  0.2086
  C  C1144  1  0.750000  0.750000  0.973700  1.0  0.0776
  C  C1145  1  0.250000  0.250000  0.816200  1.0  0.1139
  C  C1146  1  0.250000  0.250000  0.844900  1.0  0.2711
  C  C1147  1  0.250000  0.250000  0.897200  1.0  0.2062
  C  C1148  1  0.250000  0.250000  0.924300  1.0  0.1901
  C  C1149  1  0.250000  0.250000  0.945600  1.0  0.2086
  C  C1150  1  0.250000  0.250000  0.973700  1.0  0.0776
  C  C1151  1  0.250000  0.750000  0.316200  1.0  0.1139
  C  C1152  1  0.250000  0.750000  0.344900  1.0  0.2711
  C  C1153  1  0.250000  0.750000  0.397200  1.0  0.2062
  C  C1154  1  0.250000  0.750000  0.424300  1.0  0.1901
  C  C1155  1  0.250000  0.750000  0.445600  1.0  0.2086
  C  C1156  1  0.250000  0.750000  0.473700  1.0  0.0776
  C  C1157  1  0.750000  0.750000  0.683800  1.0  0.1126
  C  C1158  1  0.750000  0.750000  0.655100  1.0  0.2714
  C  C1159  1  0.750000  0.750000  0.602800  1.0  0.2061
  C  C1160  1  0.750000  0.750000  0.575700  1.0  0.1902
  C  C1161  1  0.750000  0.750000  0.554400  1.0  0.208
  C  C1162  1  0.750000  0.750000  0.526300  1.0  0.0775
  C  C1163  1  0.750000  0.250000  0.183800  1.0  0.1126
  C  C1164  1  0.750000  0.250000  0.155100  1.0  0.2714
  C  C1165  1  0.750000  0.250000  0.102800  1.0  0.2061
  C  C1166  1  0.750000  0.250000  0.075700  1.0  0.1902
  C  C1167  1  0.750000  0.250000  0.054400  1.0  0.208
  C  C1168  1  0.750000  0.250000  0.026300  1.0  0.0775
  C  C1169  1  0.250000  0.683800  0.750000  1.0  0.1175
  C  C1170  1  0.250000  0.655100  0.750000  1.0  0.2787
  C  C1171  1  0.250000  0.602800  0.750000  1.0  0.2111
  C  C1172  1  0.250000  0.575700  0.750000  1.0  0.1915
  C  C1173  1  0.250000  0.554400  0.750000  1.0  0.207
  C  C1174  1  0.250000  0.526300  0.750000  1.0  0.0727
  C  C1175  1  0.250000  0.183800  0.250000  1.0  0.1175
  C  C1176  1  0.250000  0.155100  0.250000  1.0  0.2787
  C  C1177  1  0.250000  0.102800  0.250000  1.0  0.2111
  C  C1178  1  0.250000  0.075700  0.250000  1.0  0.1915
  C  C1179  1  0.250000  0.054400  0.250000  1.0  0.207
  C  C1180  1  0.250000  0.026300  0.250000  1.0  0.0727
  C  C1181  1  0.750000  0.316200  0.750000  1.0  0.1169
  C  C1182  1  0.750000  0.344900  0.750000  1.0  0.2797
  C  C1183  1  0.750000  0.397200  0.750000  1.0  0.2126
  C  C1184  1  0.750000  0.424300  0.750000  1.0  0.1912
  C  C1185  1  0.750000  0.445600  0.750000  1.0  0.2069
  C  C1186  1  0.750000  0.473700  0.750000  1.0  0.0703
  C  C1187  1  0.750000  0.816200  0.250000  1.0  0.1169
  C  C1188  1  0.750000  0.844900  0.250000  1.0  0.2797
  C  C1189  1  0.750000  0.897200  0.250000  1.0  0.2126
  C  C1190  1  0.750000  0.924300  0.250000  1.0  0.1912
  C  C1191  1  0.750000  0.945600  0.250000  1.0  0.2069
  C  C1192  1  0.750000  0.973700  0.250000  1.0  0.0703
  C  C1193  1  0.250000  0.316200  0.250000  1.0  0.1169
  C  C1194  1  0.250000  0.344900  0.250000  1.0  0.2797
  C  C1195  1  0.250000  0.397200  0.250000  1.0  0.2126
  C  C1196  1  0.250000  0.424300  0.250000  1.0  0.1912
  C  C1197  1  0.250000  0.445600  0.250000  1.0  0.2069
  C  C1198  1  0.250000  0.473700  0.250000  1.0  0.0703
  C  C1199  1  0.250000  0.816200  0.750000  1.0  0.1169
  C  C1200  1  0.250000  0.844900  0.750000  1.0  0.2797
  C  C1201  1  0.250000  0.897200  0.750000  1.0  0.2126
  C  C1202  1  0.250000  0.924300  0.750000  1.0  0.1912
  C  C1203  1  0.250000  0.945600  0.750000  1.0  0.2069
  C  C1204  1  0.250000  0.973700  0.750000  1.0  0.0703
  C  C1205  1  0.750000  0.683800  0.250000  1.0  0.1175
  C  C1206  1  0.750000  0.655100  0.250000  1.0  0.2787
  C  C1207  1  0.750000  0.602800  0.250000  1.0  0.2111
  C  C1208  1  0.750000  0.575700  0.250000  1.0  0.1915
  C  C1209  1  0.750000  0.554400  0.250000  1.0  0.207
  C  C1210  1  0.750000  0.526300  0.250000  1.0  0.0727
  C  C1211  1  0.750000  0.183800  0.750000  1.0  0.1175
  C  C1212  1  0.750000  0.155100  0.750000  1.0  0.2787
  C  C1213  1  0.750000  0.102800  0.750000  1.0  0.2111
  C  C1214  1  0.750000  0.075700  0.750000  1.0  0.1915
  C  C1215  1  0.750000  0.054400  0.750000  1.0  0.207
  C  C1216  1  0.750000  0.026300  0.750000  1.0  0.0727
  C  C1217  1  0.683800  0.250000  0.750000  1.0  0.112
  C  C1218  1  0.655100  0.250000  0.750000  1.0  0.2811
  C  C1219  1  0.602800  0.250000  0.750000  1.0  0.2126
  C  C1220  1  0.575700  0.250000  0.750000  1.0  0.1969
  C  C1221  1  0.554400  0.250000  0.750000  1.0  0.2074
  C  C1222  1  0.526300  0.250000  0.750000  1.0  0.0716
  C  C1223  1  0.183800  0.250000  0.250000  1.0  0.112
  C  C1224  1  0.155100  0.250000  0.250000  1.0  0.2811
  C  C1225  1  0.102800  0.250000  0.250000  1.0  0.2126
  C  C1226  1  0.075700  0.250000  0.250000  1.0  0.1969
  C  C1227  1  0.054400  0.250000  0.250000  1.0  0.2074
  C  C1228  1  0.026300  0.250000  0.250000  1.0  0.0716
  C  C1229  1  0.316200  0.250000  0.250000  1.0  0.1153
  C  C1230  1  0.344900  0.250000  0.250000  1.0  0.2773
  C  C1231  1  0.397200  0.250000  0.250000  1.0  0.2186
  C  C1232  1  0.424300  0.250000  0.250000  1.0  0.1938
  C  C1233  1  0.445600  0.250000  0.250000  1.0  0.2073
  C  C1234  1  0.473700  0.250000  0.250000  1.0  0.0723
  C  C1235  1  0.816200  0.250000  0.750000  1.0  0.1153
  C  C1236  1  0.844900  0.250000  0.750000  1.0  0.2773
  C  C1237  1  0.897200  0.250000  0.750000  1.0  0.2186
  C  C1238  1  0.924300  0.250000  0.750000  1.0  0.1938
  C  C1239  1  0.945600  0.250000  0.750000  1.0  0.2073
  C  C1240  1  0.973700  0.250000  0.750000  1.0  0.0723
  C  C1241  1  0.316200  0.750000  0.750000  1.0  0.1153
  C  C1242  1  0.344900  0.750000  0.750000  1.0  0.2773
  C  C1243  1  0.397200  0.750000  0.750000  1.0  0.2186
  C  C1244  1  0.424300  0.750000  0.750000  1.0  0.1938
  C  C1245  1  0.445600  0.750000  0.750000  1.0  0.2073
  C  C1246  1  0.473700  0.750000  0.750000  1.0  0.0723
  C  C1247  1  0.816200  0.750000  0.250000  1.0  0.1153
  C  C1248  1  0.844900  0.750000  0.250000  1.0  0.2773
  C  C1249  1  0.897200  0.750000  0.250000  1.0  0.2186
  C  C1250  1  0.924300  0.750000  0.250000  1.0  0.1938
  C  C1251  1  0.945600  0.750000  0.250000  1.0  0.2073
  C  C1252  1  0.973700  0.750000  0.250000  1.0  0.0723
  C  C1253  1  0.683800  0.750000  0.250000  1.0  0.112
  C  C1254  1  0.655100  0.750000  0.250000  1.0  0.2811
  C  C1255  1  0.602800  0.750000  0.250000  1.0  0.2126
  C  C1256  1  0.575700  0.750000  0.250000  1.0  0.1969
  C  C1257  1  0.554400  0.750000  0.250000  1.0  0.2074
  C  C1258  1  0.526300  0.750000  0.250000  1.0  0.0716
  C  C1259  1  0.183800  0.750000  0.750000  1.0  0.112
  C  C1260  1  0.155100  0.750000  0.750000  1.0  0.2811
  C  C1261  1  0.102800  0.750000  0.750000  1.0  0.2126
  C  C1262  1  0.075700  0.750000  0.750000  1.0  0.1969
  C  C1263  1  0.054400  0.750000  0.750000  1.0  0.2074
  C  C1264  1  0.026300  0.750000  0.750000  1.0  0.0716
  C  C1265  1  0.250000  0.250000  0.316200  1.0  0.1139
  C  C1266  1  0.250000  0.250000  0.344900  1.0  0.2711
  C  C1267  1  0.250000  0.250000  0.397200  1.0  0.2062
  C  C1268  1  0.250000  0.250000  0.424300  1.0  0.1901
  C  C1269  1  0.250000  0.250000  0.445600  1.0  0.2086
  C  C1270  1  0.250000  0.250000  0.473700  1.0  0.0723
  C  C1271  1  0.250000  0.750000  0.816200  1.0  0.1139
  C  C1272  1  0.250000  0.750000  0.844900  1.0  0.2711
  C  C1273  1  0.250000  0.750000  0.897200  1.0  0.2062
  C  C1274  1  0.250000  0.750000  0.924300  1.0  0.1901
  C  C1275  1  0.250000  0.750000  0.945600  1.0  0.2086
  C  C1276  1  0.250000  0.750000  0.973700  1.0  0.0723
  C  C1277  1  0.250000  0.750000  0.683800  1.0  0.1126
  C  C1278  1  0.250000  0.750000  0.655100  1.0  0.2714
  C  C1279  1  0.250000  0.750000  0.602800  1.0  0.2061
  C  C1280  1  0.250000  0.750000  0.575700  1.0  0.1902
  C  C1281  1  0.250000  0.750000  0.554400  1.0  0.208
  C  C1282  1  0.250000  0.750000  0.526300  1.0  0.0715
  C  C1283  1  0.250000  0.250000  0.183800  1.0  0.1126
  C  C1284  1  0.250000  0.250000  0.155100  1.0  0.2714
  C  C1285  1  0.250000  0.250000  0.102800  1.0  0.2061
  C  C1286  1  0.250000  0.250000  0.075700  1.0  0.1902
  C  C1287  1  0.250000  0.250000  0.054400  1.0  0.208
  C  C1288  1  0.250000  0.250000  0.026300  1.0  0.0715
  C  C1289  1  0.750000  0.250000  0.683800  1.0  0.1126
  C  C1290  1  0.750000  0.250000  0.655100  1.0  0.2714
  C  C1291  1  0.750000  0.250000  0.602800  1.0  0.2061
  C  C1292  1  0.750000  0.250000  0.575700  1.0  0.1902
  C  C1293  1  0.750000  0.250000  0.554400  1.0  0.208
  C  C1294  1  0.750000  0.250000  0.526300  1.0  0.0715
  C  C1295  1  0.750000  0.750000  0.183800  1.0  0.1126
  C  C1296  1  0.750000  0.750000  0.155100  1.0  0.2714
  C  C1297  1  0.750000  0.750000  0.102800  1.0  0.2061
  C  C1298  1  0.750000  0.750000  0.075700  1.0  0.1902
  C  C1299  1  0.750000  0.750000  0.054400  1.0  0.208
  C  C1300  1  0.750000  0.750000  0.026300  1.0  0.0715
  C  C1301  1  0.750000  0.750000  0.316200  1.0  0.1139
  C  C1302  1  0.750000  0.750000  0.344900  1.0  0.2711
  C  C1303  1  0.750000  0.750000  0.397200  1.0  0.2062
  C  C1304  1  0.750000  0.750000  0.424300  1.0  0.1901
  C  C1305  1  0.750000  0.750000  0.445600  1.0  0.2086
  C  C1306  1  0.750000  0.750000  0.473700  1.0  0.0723
  C  C1307  1  0.750000  0.250000  0.816200  1.0  0.1139
  C  C1308  1  0.750000  0.250000  0.844900  1.0  0.2711
  C  C1309  1  0.750000  0.250000  0.897200  1.0  0.2062
  C  C1310  1  0.750000  0.250000  0.924300  1.0  0.1901
  C  C1311  1  0.750000  0.250000  0.945600  1.0  0.2086
  C  C1312  1  0.750000  0.250000  0.973700  1.0  0.0723
  O  O1313  1  0.690000  0.267500  0.232500  1.0  -0.6035
  O  O1314  1  0.190000  0.267500  0.732500  1.0  -0.6035
  O  O1315  1  0.310000  0.732500  0.232500  1.0  -0.6034
  O  O1316  1  0.810000  0.732500  0.732500  1.0  -0.6034
  O  O1317  1  0.810000  0.232500  0.232500  1.0  -0.6034
  O  O1318  1  0.310000  0.267500  0.767500  1.0  -0.6005
  O  O1319  1  0.810000  0.267500  0.267500  1.0  -0.6005
  O  O1320  1  0.690000  0.732500  0.767500  1.0  -0.6053
  O  O1321  1  0.690000  0.232500  0.267500  1.0  -0.6053
  O  O1322  1  0.190000  0.732500  0.267500  1.0  -0.6053
  O  O1323  1  0.232500  0.690000  0.267500  1.0  -0.6021
  O  O1324  1  0.232500  0.190000  0.767500  1.0  -0.6021
  O  O1325  1  0.232500  0.310000  0.732500  1.0  -0.6038
  O  O1326  1  0.232500  0.810000  0.232500  1.0  -0.6038
  O  O1327  1  0.767500  0.310000  0.267500  1.0  -0.603
  O  O1328  1  0.767500  0.810000  0.767500  1.0  -0.603
  O  O1329  1  0.267500  0.810000  0.267500  1.0  -0.603
  O  O1330  1  0.767500  0.690000  0.732500  1.0  -0.6039
  O  O1331  1  0.767500  0.190000  0.232500  1.0  -0.6039
  O  O1332  1  0.267500  0.690000  0.232500  1.0  -0.6039
  O  O1333  1  0.267500  0.232500  0.690000  1.0  -0.6007
  O  O1334  1  0.267500  0.732500  0.190000  1.0  -0.6007
  O  O1335  1  0.732500  0.232500  0.310000  1.0  -0.6029
  O  O1336  1  0.732500  0.732500  0.810000  1.0  -0.6029
  O  O1337  1  0.232500  0.232500  0.810000  1.0  -0.6029
  O  O1338  1  0.267500  0.767500  0.310000  1.0  -0.6009
  O  O1339  1  0.267500  0.267500  0.810000  1.0  -0.6009
  O  O1340  1  0.732500  0.767500  0.690000  1.0  -0.602
  O  O1341  1  0.732500  0.267500  0.190000  1.0  -0.602
  O  O1342  1  0.232500  0.267500  0.690000  1.0  -0.602
  O  O1343  1  0.267500  0.690000  0.767500  1.0  -0.6036
  O  O1344  1  0.267500  0.190000  0.267500  1.0  -0.6036
  O  O1345  1  0.732500  0.310000  0.767500  1.0  -0.6017
  O  O1346  1  0.732500  0.810000  0.267500  1.0  -0.6017
  O  O1347  1  0.232500  0.310000  0.267500  1.0  -0.6017
  O  O1348  1  0.267500  0.310000  0.232500  1.0  -0.6042
  O  O1349  1  0.267500  0.810000  0.732500  1.0  -0.6042
  O  O1350  1  0.732500  0.690000  0.232500  1.0  -0.6039
  O  O1351  1  0.732500  0.190000  0.732500  1.0  -0.6039
  O  O1352  1  0.232500  0.190000  0.232500  1.0  -0.6039
  O  O1353  1  0.690000  0.232500  0.732500  1.0  -0.6021
  O  O1354  1  0.190000  0.232500  0.232500  1.0  -0.6021
  O  O1355  1  0.310000  0.232500  0.267500  1.0  -0.6052
  O  O1356  1  0.810000  0.232500  0.767500  1.0  -0.6052
  O  O1357  1  0.310000  0.767500  0.732500  1.0  -0.6034
  O  O1358  1  0.310000  0.267500  0.232500  1.0  -0.6034
  O  O1359  1  0.810000  0.767500  0.232500  1.0  -0.6034
  O  O1360  1  0.690000  0.767500  0.267500  1.0  -0.6024
  O  O1361  1  0.190000  0.767500  0.767500  1.0  -0.6024
  O  O1362  1  0.190000  0.267500  0.267500  1.0  -0.6024
  O  O1363  1  0.232500  0.267500  0.310000  1.0  -0.6025
  O  O1364  1  0.232500  0.767500  0.810000  1.0  -0.6025
  O  O1365  1  0.232500  0.732500  0.690000  1.0  -0.6024
  O  O1366  1  0.232500  0.232500  0.190000  1.0  -0.6024
  O  O1367  1  0.767500  0.267500  0.690000  1.0  -0.6008
  O  O1368  1  0.767500  0.767500  0.190000  1.0  -0.6008
  O  O1369  1  0.267500  0.267500  0.190000  1.0  -0.6008
  O  O1370  1  0.767500  0.732500  0.310000  1.0  -0.6009
  O  O1371  1  0.767500  0.232500  0.810000  1.0  -0.6009
  O  O1372  1  0.267500  0.232500  0.310000  1.0  -0.6009
  O  O1373  1  0.310000  0.732500  0.767500  1.0  -0.6052
  O  O1374  1  0.810000  0.732500  0.267500  1.0  -0.6052
  O  O1375  1  0.690000  0.267500  0.767500  1.0  -0.6024
  O  O1376  1  0.690000  0.732500  0.232500  1.0  -0.6021
  O  O1377  1  0.190000  0.732500  0.732500  1.0  -0.6021
  O  O1378  1  0.810000  0.267500  0.732500  1.0  -0.6034
  O  O1379  1  0.767500  0.310000  0.732500  1.0  -0.6042
  O  O1380  1  0.767500  0.810000  0.232500  1.0  -0.6042
  O  O1381  1  0.767500  0.690000  0.267500  1.0  -0.6036
  O  O1382  1  0.767500  0.190000  0.767500  1.0  -0.6036
  O  O1383  1  0.232500  0.690000  0.732500  1.0  -0.6039
  O  O1384  1  0.232500  0.810000  0.767500  1.0  -0.6017
  O  O1385  1  0.732500  0.767500  0.310000  1.0  -0.6025
  O  O1386  1  0.732500  0.267500  0.810000  1.0  -0.6025
  O  O1387  1  0.267500  0.767500  0.690000  1.0  -0.6008
  O  O1388  1  0.732500  0.232500  0.690000  1.0  -0.6024
  O  O1389  1  0.732500  0.732500  0.190000  1.0  -0.6024
  O  O1390  1  0.267500  0.732500  0.810000  1.0  -0.6009
  O  O1391  1  0.732500  0.310000  0.232500  1.0  -0.6038
  O  O1392  1  0.732500  0.810000  0.732500  1.0  -0.6038
  O  O1393  1  0.267500  0.190000  0.732500  1.0  -0.6039
  O  O1394  1  0.732500  0.690000  0.767500  1.0  -0.6021
  O  O1395  1  0.732500  0.190000  0.267500  1.0  -0.6021
  O  O1396  1  0.267500  0.310000  0.767500  1.0  -0.603
  O  O1397  1  0.310000  0.767500  0.267500  1.0  -0.6005
  O  O1398  1  0.810000  0.767500  0.767500  1.0  -0.6005
  O  O1399  1  0.690000  0.767500  0.732500  1.0  -0.6035
  O  O1400  1  0.190000  0.767500  0.232500  1.0  -0.6035
  O  O1401  1  0.190000  0.232500  0.767500  1.0  -0.6053
  O  O1402  1  0.310000  0.232500  0.732500  1.0  -0.6034
  O  O1403  1  0.767500  0.732500  0.690000  1.0  -0.6007
  O  O1404  1  0.767500  0.232500  0.190000  1.0  -0.6007
  O  O1405  1  0.767500  0.267500  0.310000  1.0  -0.6009
  O  O1406  1  0.767500  0.767500  0.810000  1.0  -0.6009
  O  O1407  1  0.232500  0.732500  0.310000  1.0  -0.6029
  O  O1408  1  0.232500  0.767500  0.190000  1.0  -0.602
  O  O1409  1  0.693800  0.235400  0.235400  1.0  -0.5622
  O  O1410  1  0.693800  0.735400  0.735400  1.0  -0.5622
  O  O1411  1  0.193800  0.235400  0.735400  1.0  -0.5622
  O  O1412  1  0.193800  0.735400  0.235400  1.0  -0.5622
  O  O1413  1  0.306200  0.764600  0.235400  1.0  -0.561
  O  O1414  1  0.306200  0.264600  0.735400  1.0  -0.561
  O  O1415  1  0.806200  0.764600  0.735400  1.0  -0.561
  O  O1416  1  0.806200  0.264600  0.235400  1.0  -0.561
  O  O1417  1  0.306200  0.235400  0.764600  1.0  -0.5611
  O  O1418  1  0.306200  0.735400  0.264600  1.0  -0.5611
  O  O1419  1  0.806200  0.235400  0.264600  1.0  -0.5611
  O  O1420  1  0.806200  0.735400  0.764600  1.0  -0.5611
  O  O1421  1  0.693800  0.764600  0.764600  1.0  -0.5625
  O  O1422  1  0.693800  0.264600  0.264600  1.0  -0.5625
  O  O1423  1  0.193800  0.764600  0.264600  1.0  -0.5625
  O  O1424  1  0.193800  0.264600  0.764600  1.0  -0.5625
  O  O1425  1  0.235400  0.693800  0.235400  1.0  -0.5663
  O  O1426  1  0.235400  0.193800  0.735400  1.0  -0.5663
  O  O1427  1  0.735400  0.693800  0.735400  1.0  -0.5663
  O  O1428  1  0.735400  0.193800  0.235400  1.0  -0.5663
  O  O1429  1  0.235400  0.306200  0.764600  1.0  -0.5645
  O  O1430  1  0.235400  0.806200  0.264600  1.0  -0.5645
  O  O1431  1  0.735400  0.306200  0.264600  1.0  -0.5645
  O  O1432  1  0.735400  0.806200  0.764600  1.0  -0.5645
  O  O1433  1  0.764600  0.306200  0.235400  1.0  -0.5659
  O  O1434  1  0.764600  0.806200  0.735400  1.0  -0.5659
  O  O1435  1  0.264600  0.306200  0.735400  1.0  -0.5659
  O  O1436  1  0.264600  0.806200  0.235400  1.0  -0.5659
  O  O1437  1  0.764600  0.693800  0.764600  1.0  -0.5663
  O  O1438  1  0.764600  0.193800  0.264600  1.0  -0.5663
  O  O1439  1  0.264600  0.693800  0.264600  1.0  -0.5663
  O  O1440  1  0.264600  0.193800  0.764600  1.0  -0.5663
  O  O1441  1  0.235400  0.235400  0.693800  1.0  -0.5629
  O  O1442  1  0.235400  0.735400  0.193800  1.0  -0.5629
  O  O1443  1  0.735400  0.235400  0.193800  1.0  -0.5629
  O  O1444  1  0.735400  0.735400  0.693800  1.0  -0.5629
  O  O1445  1  0.764600  0.235400  0.306200  1.0  -0.5611
  O  O1446  1  0.764600  0.735400  0.806200  1.0  -0.5611
  O  O1447  1  0.264600  0.235400  0.806200  1.0  -0.5611
  O  O1448  1  0.264600  0.735400  0.306200  1.0  -0.5611
  O  O1449  1  0.235400  0.764600  0.306200  1.0  -0.562
  O  O1450  1  0.235400  0.264600  0.806200  1.0  -0.562
  O  O1451  1  0.735400  0.764600  0.806200  1.0  -0.562
  O  O1452  1  0.735400  0.264600  0.306200  1.0  -0.562
  O  O1453  1  0.764600  0.764600  0.693800  1.0  -0.564
  O  O1454  1  0.764600  0.264600  0.193800  1.0  -0.564
  O  O1455  1  0.264600  0.764600  0.193800  1.0  -0.564
  O  O1456  1  0.264600  0.264600  0.693800  1.0  -0.564
  O  O1457  1  0.235400  0.693800  0.764600  1.0  -0.5662
  O  O1458  1  0.235400  0.193800  0.264600  1.0  -0.5662
  O  O1459  1  0.735400  0.693800  0.264600  1.0  -0.5662
  O  O1460  1  0.735400  0.193800  0.764600  1.0  -0.5662
  O  O1461  1  0.764600  0.306200  0.764600  1.0  -0.5644
  O  O1462  1  0.764600  0.806200  0.264600  1.0  -0.5644
  O  O1463  1  0.264600  0.306200  0.264600  1.0  -0.5644
  O  O1464  1  0.264600  0.806200  0.764600  1.0  -0.5644
  O  O1465  1  0.235400  0.306200  0.235400  1.0  -0.5655
  O  O1466  1  0.235400  0.806200  0.735400  1.0  -0.5655
  O  O1467  1  0.735400  0.306200  0.735400  1.0  -0.5655
  O  O1468  1  0.735400  0.806200  0.235400  1.0  -0.5655
  O  O1469  1  0.764600  0.693800  0.235400  1.0  -0.5672
  O  O1470  1  0.764600  0.193800  0.735400  1.0  -0.5672
  O  O1471  1  0.264600  0.693800  0.735400  1.0  -0.5672
  O  O1472  1  0.264600  0.193800  0.235400  1.0  -0.5672
  O  O1473  1  0.693800  0.235400  0.764600  1.0  -0.5623
  O  O1474  1  0.693800  0.735400  0.264600  1.0  -0.5623
  O  O1475  1  0.193800  0.235400  0.264600  1.0  -0.5623
  O  O1476  1  0.193800  0.735400  0.764600  1.0  -0.5623
  O  O1477  1  0.306200  0.235400  0.235400  1.0  -0.561
  O  O1478  1  0.306200  0.735400  0.735400  1.0  -0.561
  O  O1479  1  0.806200  0.235400  0.735400  1.0  -0.561
  O  O1480  1  0.806200  0.735400  0.235400  1.0  -0.561
  O  O1481  1  0.306200  0.764600  0.764600  1.0  -0.5607
  O  O1482  1  0.306200  0.264600  0.264600  1.0  -0.5607
  O  O1483  1  0.806200  0.764600  0.264600  1.0  -0.5607
  O  O1484  1  0.806200  0.264600  0.764600  1.0  -0.5607
  O  O1485  1  0.693800  0.764600  0.235400  1.0  -0.5627
  O  O1486  1  0.693800  0.264600  0.735400  1.0  -0.5627
  O  O1487  1  0.193800  0.764600  0.735400  1.0  -0.5627
  O  O1488  1  0.193800  0.264600  0.235400  1.0  -0.5627
  O  O1489  1  0.235400  0.235400  0.306200  1.0  -0.5627
  O  O1490  1  0.235400  0.735400  0.806200  1.0  -0.5627
  O  O1491  1  0.735400  0.235400  0.806200  1.0  -0.5627
  O  O1492  1  0.735400  0.735400  0.306200  1.0  -0.5627
  O  O1493  1  0.235400  0.764600  0.693800  1.0  -0.5623
  O  O1494  1  0.235400  0.264600  0.193800  1.0  -0.5623
  O  O1495  1  0.735400  0.764600  0.193800  1.0  -0.5623
  O  O1496  1  0.735400  0.264600  0.693800  1.0  -0.5623
  O  O1497  1  0.764600  0.235400  0.693800  1.0  -0.563
  O  O1498  1  0.764600  0.735400  0.193800  1.0  -0.563
  O  O1499  1  0.264600  0.235400  0.193800  1.0  -0.563
  O  O1500  1  0.264600  0.735400  0.693800  1.0  -0.563
  O  O1501  1  0.764600  0.764600  0.306200  1.0  -0.5625
  O  O1502  1  0.764600  0.264600  0.806200  1.0  -0.5625
  O  O1503  1  0.264600  0.764600  0.806200  1.0  -0.5625
  O  O1504  1  0.264600  0.264600  0.306200  1.0  -0.5625
  O  O1505  1  0.750000  0.250000  0.250000  1.0  -0.803
  O  O1506  1  0.250000  0.750000  0.250000  1.0  -0.803
  O  O1507  1  0.250000  0.250000  0.750000  1.0  -0.803
  O  O1508  1  0.750000  0.750000  0.750000  1.0  -0.803
  O  O1509  1  0.250000  0.750000  0.750000  1.0  -0.803
  O  O1510  1  0.750000  0.250000  0.750000  1.0  -0.803
  O  O1511  1  0.250000  0.250000  0.250000  1.0  -0.803
  O  O1512  1  0.750000  0.750000  0.250000  1.0  -0.803
