# generated using pymatgen
data_ZnH24C28S(N2O3)2
_symmetry_space_group_name_H-M   'P 1'
_cell_length_a   47.23300000
_cell_length_b   11.45710000
_cell_length_c   25.45500000
_cell_angle_alpha   90.00000000
_cell_angle_beta   119.85600000
_cell_angle_gamma   90.00000000
_symmetry_Int_Tables_number   1
_chemical_formula_structural   ZnH24C28S(N2O3)2
_chemical_formula_sum   'Zn16 H384 C448 S16 N64 O96'
_cell_volume   11946.81995814
_cell_formula_units_Z   16
loop_
 _symmetry_equiv_pos_site_id
 _symmetry_equiv_pos_as_xyz
  1  'x, y, z'
loop_
 _atom_site_type_symbol
 _atom_site_label
 _atom_site_symmetry_multiplicity
 _atom_site_fract_x
 _atom_site_fract_y
 _atom_site_fract_z
 _atom_site_occupancy
 _atom_site_charge
  Zn  Zn1  1  0.231340  0.045700  0.249840  1.0  0.8053
  Zn  Zn2  1  0.731340  0.545700  0.249840  1.0  0.8053
  Zn  Zn3  1  0.768660  0.045700  0.250160  1.0  0.8052
  Zn  Zn4  1  0.268660  0.545700  0.250160  1.0  0.8052
  Zn  Zn5  1  0.768660  0.954300  0.750160  1.0  0.8051
  Zn  Zn6  1  0.268660  0.454300  0.750160  1.0  0.8051
  Zn  Zn7  1  0.231340  0.954300  0.749840  1.0  0.8052
  Zn  Zn8  1  0.731340  0.454300  0.749840  1.0  0.8052
  Zn  Zn9  1  0.000000  0.739200  0.250000  1.0  0.847
  Zn  Zn10  1  0.000000  0.365040  0.250000  1.0  0.8379
  Zn  Zn11  1  0.500000  0.239200  0.250000  1.0  0.847
  Zn  Zn12  1  0.500000  0.865040  0.250000  1.0  0.8379
  Zn  Zn13  1  0.000000  0.260800  0.750000  1.0  0.8473
  Zn  Zn14  1  0.000000  0.634960  0.750000  1.0  0.8377
  Zn  Zn15  1  0.500000  0.760800  0.750000  1.0  0.8473
  Zn  Zn16  1  0.500000  0.134960  0.750000  1.0  0.8377
  H  H17  1  0.221000  0.272900  0.737300  1.0  0.0683
  H  H18  1  0.176100  0.173800  0.664800  1.0  0.1084
  H  H19  1  0.172300  0.407200  0.541900  1.0  0.1409
  H  H20  1  0.218500  0.491700  0.616900  1.0  0.0755
  H  H21  1  0.139400  0.313000  0.479200  1.0  0.0716
  H  H22  1  0.106100  0.295400  0.480500  1.0  0.0856
  H  H23  1  0.108200  0.152500  0.560400  1.0  0.0919
  H  H24  1  0.142300  0.088600  0.602500  1.0  0.0891
  H  H25  1  0.137600  0.980300  0.524700  1.0  0.0935
  H  H26  1  0.104000  0.969300  0.525000  1.0  0.0645
  H  H27  1  0.102400  0.187500  0.401100  1.0  0.0761
  H  H28  1  0.136900  0.126400  0.444100  1.0  0.0959
  H  H29  1  0.071300  0.873600  0.462300  1.0  0.1268
  H  H30  1  0.032400  0.761800  0.385300  1.0  0.0793
  H  H31  1  0.041600  0.949200  0.264900  1.0  0.0825
  H  H32  1  0.077900  0.070900  0.337800  1.0  0.1148
  H  H33  1  0.011100  0.482300  0.137100  1.0  0.0861
  H  H34  1  0.020000  0.376000  0.067600  1.0  0.1131
  H  H35  1  0.077800  0.637900  0.067700  1.0  0.1009
  H  H36  1  0.065700  0.749800  0.132700  1.0  0.1094
  H  H37  1  0.069200  0.207100  0.074400  1.0  0.0992
  H  H38  1  0.115900  0.096500  0.136700  1.0  0.1098
  H  H39  1  0.172100  0.352200  0.127800  1.0  0.094
  H  H40  1  0.125100  0.459600  0.060800  1.0  0.1046
  H  H41  1  0.271200  0.863500  0.236000  1.0  0.0672
  H  H42  1  0.275000  0.762700  0.162600  1.0  0.1054
  H  H43  1  0.217300  0.007700  0.041800  1.0  0.1184
  H  H44  1  0.212300  0.093200  0.117700  1.0  0.0784
  H  H45  1  0.229100  0.936900  0.983200  1.0  0.0881
  H  H46  1  0.207600  0.820700  0.968000  1.0  0.0845
  H  H47  1  0.272500  0.672300  0.094900  1.0  0.0875
  H  H48  1  0.236400  0.646100  0.040900  1.0  0.0736
  H  H49  1  0.177000  0.002100  0.365800  1.0  0.1171
  H  H50  1  0.165700  0.894900  0.432100  1.0  0.0935
  H  H51  1  0.225800  0.637600  0.438800  1.0  0.096
  H  H52  1  0.235300  0.739000  0.368800  1.0  0.0972
  H  H53  1  0.118700  0.716900  0.441900  1.0  0.0987
  H  H54  1  0.071900  0.614900  0.374400  1.0  0.0913
  H  H55  1  0.128000  0.362200  0.362600  1.0  0.0975
  H  H56  1  0.174600  0.462700  0.428600  1.0  0.1092
  H  H57  1  0.032600  0.152500  0.236500  1.0  0.0687
  H  H58  1  0.030600  0.030100  0.163900  1.0  0.1137
  H  H59  1  0.960000  0.234800  0.037500  1.0  0.1253
  H  H60  1  0.963300  0.348800  0.115100  1.0  0.0787
  H  H61  1  0.028400  0.931100  0.099900  1.0  0.0885
  H  H62  1  0.995100  0.876200  0.047100  1.0  0.0806
  H  H63  1  0.964500  0.156000  0.976200  1.0  0.0708
  H  H64  1  0.954700  0.021000  0.967200  1.0  0.0815
  H  H65  1  0.721000  0.772900  0.737300  1.0  0.0683
  H  H66  1  0.676100  0.673800  0.664800  1.0  0.1084
  H  H67  1  0.672300  0.907200  0.541900  1.0  0.1409
  H  H68  1  0.718500  0.991700  0.616900  1.0  0.0755
  H  H69  1  0.639400  0.813000  0.479200  1.0  0.0716
  H  H70  1  0.606100  0.795400  0.480500  1.0  0.0856
  H  H71  1  0.608200  0.652500  0.560400  1.0  0.0919
  H  H72  1  0.642300  0.588600  0.602500  1.0  0.0891
  H  H73  1  0.637600  0.480300  0.524700  1.0  0.0935
  H  H74  1  0.604000  0.469300  0.525000  1.0  0.0645
  H  H75  1  0.602400  0.687500  0.401100  1.0  0.0761
  H  H76  1  0.636900  0.626400  0.444100  1.0  0.0959
  H  H77  1  0.571300  0.373600  0.462300  1.0  0.1268
  H  H78  1  0.532400  0.261800  0.385300  1.0  0.0793
  H  H79  1  0.541600  0.449200  0.264900  1.0  0.0825
  H  H80  1  0.577900  0.570900  0.337800  1.0  0.1148
  H  H81  1  0.511100  0.982300  0.137100  1.0  0.0861
  H  H82  1  0.520000  0.876000  0.067600  1.0  0.1131
  H  H83  1  0.577800  0.137900  0.067700  1.0  0.101
  H  H84  1  0.565700  0.249800  0.132700  1.0  0.1094
  H  H85  1  0.569200  0.707100  0.074400  1.0  0.0992
  H  H86  1  0.615900  0.596500  0.136700  1.0  0.1098
  H  H87  1  0.672100  0.852200  0.127800  1.0  0.094
  H  H88  1  0.625100  0.959600  0.060800  1.0  0.1046
  H  H89  1  0.771200  0.363500  0.236000  1.0  0.0674
  H  H90  1  0.775000  0.262700  0.162600  1.0  0.1054
  H  H91  1  0.717300  0.507700  0.041800  1.0  0.1184
  H  H92  1  0.712300  0.593200  0.117700  1.0  0.0784
  H  H93  1  0.729100  0.436900  0.983200  1.0  0.0881
  H  H94  1  0.707600  0.320700  0.968000  1.0  0.0845
  H  H95  1  0.772500  0.172300  0.094900  1.0  0.0875
  H  H96  1  0.736400  0.146100  0.040900  1.0  0.0736
  H  H97  1  0.677000  0.502100  0.365800  1.0  0.1171
  H  H98  1  0.665700  0.394900  0.432100  1.0  0.0935
  H  H99  1  0.725800  0.137600  0.438800  1.0  0.096
  H  H100  1  0.735300  0.239000  0.368800  1.0  0.0972
  H  H101  1  0.618700  0.216900  0.441900  1.0  0.0987
  H  H102  1  0.571900  0.114900  0.374400  1.0  0.0913
  H  H103  1  0.628000  0.862200  0.362600  1.0  0.0975
  H  H104  1  0.674600  0.962700  0.428600  1.0  0.1092
  H  H105  1  0.532600  0.652500  0.236500  1.0  0.0687
  H  H106  1  0.530600  0.530100  0.163900  1.0  0.1137
  H  H107  1  0.460000  0.734800  0.037500  1.0  0.1253
  H  H108  1  0.463300  0.848800  0.115100  1.0  0.0787
  H  H109  1  0.528400  0.431100  0.099900  1.0  0.0882
  H  H110  1  0.495100  0.376200  0.047100  1.0  0.0806
  H  H111  1  0.464500  0.656000  0.976200  1.0  0.0708
  H  H112  1  0.454700  0.521000  0.967200  1.0  0.0815
  H  H113  1  0.779000  0.272900  0.762700  1.0  0.0681
  H  H114  1  0.823900  0.173800  0.835200  1.0  0.1058
  H  H115  1  0.827700  0.407200  0.958100  1.0  0.1424
  H  H116  1  0.781500  0.491700  0.883100  1.0  0.0751
  H  H117  1  0.860600  0.313000  0.020800  1.0  0.0727
  H  H118  1  0.893900  0.295400  0.019500  1.0  0.0862
  H  H119  1  0.891800  0.152500  0.939600  1.0  0.092
  H  H120  1  0.857700  0.088600  0.897500  1.0  0.0864
  H  H121  1  0.862400  0.980300  0.975300  1.0  0.0924
  H  H122  1  0.896000  0.969300  0.975000  1.0  0.0631
  H  H123  1  0.897600  0.187500  0.098900  1.0  0.0763
  H  H124  1  0.863100  0.126400  0.055900  1.0  0.0961
  H  H125  1  0.928700  0.873600  0.037700  1.0  0.1255
  H  H126  1  0.967600  0.761800  0.114700  1.0  0.0789
  H  H127  1  0.958400  0.949200  0.235100  1.0  0.0815
  H  H128  1  0.922100  0.070900  0.162200  1.0  0.1156
  H  H129  1  0.988900  0.482300  0.362900  1.0  0.0868
  H  H130  1  0.980000  0.376000  0.432400  1.0  0.1128
  H  H131  1  0.922200  0.637900  0.432300  1.0  0.1012
  H  H132  1  0.934300  0.749800  0.367300  1.0  0.1101
  H  H133  1  0.930800  0.207100  0.425600  1.0  0.0986
  H  H134  1  0.884100  0.096500  0.363300  1.0  0.1102
  H  H135  1  0.827900  0.352200  0.372200  1.0  0.0939
  H  H136  1  0.874900  0.459600  0.439200  1.0  0.1041
  H  H137  1  0.728800  0.863500  0.264000  1.0  0.0675
  H  H138  1  0.725000  0.762700  0.337400  1.0  0.1035
  H  H139  1  0.782700  0.007700  0.458200  1.0  0.1188
  H  H140  1  0.787700  0.093200  0.382300  1.0  0.0792
  H  H141  1  0.770900  0.936900  0.516800  1.0  0.0883
  H  H142  1  0.792400  0.820700  0.532000  1.0  0.0843
  H  H143  1  0.727500  0.672300  0.405100  1.0  0.0871
  H  H144  1  0.763600  0.646100  0.459100  1.0  0.075
  H  H145  1  0.823000  0.002100  0.134200  1.0  0.1164
  H  H146  1  0.834300  0.894900  0.067900  1.0  0.093
  H  H147  1  0.774200  0.637600  0.061200  1.0  0.0955
  H  H148  1  0.764700  0.739000  0.131200  1.0  0.0978
  H  H149  1  0.881300  0.716900  0.058100  1.0  0.0981
  H  H150  1  0.928100  0.614900  0.125600  1.0  0.0917
  H  H151  1  0.872000  0.362200  0.137400  1.0  0.0968
  H  H152  1  0.825400  0.462700  0.071400  1.0  0.1087
  H  H153  1  0.967400  0.152500  0.263500  1.0  0.0685
  H  H154  1  0.969400  0.030100  0.336100  1.0  0.1122
  H  H155  1  0.040000  0.234800  0.462500  1.0  0.1249
  H  H156  1  0.036700  0.348800  0.384900  1.0  0.0781
  H  H157  1  0.971600  0.931100  0.400100  1.0  0.0891
  H  H158  1  0.004900  0.876200  0.452900  1.0  0.08
  H  H159  1  0.035500  0.156000  0.523800  1.0  0.0705
  H  H160  1  0.045300  0.021000  0.532800  1.0  0.0812
  H  H161  1  0.279000  0.772900  0.762700  1.0  0.0681
  H  H162  1  0.323900  0.673800  0.835200  1.0  0.1058
  H  H163  1  0.327700  0.907200  0.958100  1.0  0.1424
  H  H164  1  0.281500  0.991700  0.883100  1.0  0.0751
  H  H165  1  0.360600  0.813000  0.020800  1.0  0.0727
  H  H166  1  0.393900  0.795400  0.019500  1.0  0.0862
  H  H167  1  0.391800  0.652500  0.939600  1.0  0.092
  H  H168  1  0.357700  0.588600  0.897500  1.0  0.0864
  H  H169  1  0.362400  0.480300  0.975300  1.0  0.0924
  H  H170  1  0.396000  0.469300  0.975000  1.0  0.0631
  H  H171  1  0.397600  0.687500  0.098900  1.0  0.0763
  H  H172  1  0.363100  0.626400  0.055900  1.0  0.0961
  H  H173  1  0.428700  0.373600  0.037700  1.0  0.1255
  H  H174  1  0.467600  0.261800  0.114700  1.0  0.0789
  H  H175  1  0.458400  0.449200  0.235100  1.0  0.0815
  H  H176  1  0.422100  0.570900  0.162200  1.0  0.1156
  H  H177  1  0.488900  0.982300  0.362900  1.0  0.0868
  H  H178  1  0.480000  0.876000  0.432400  1.0  0.1128
  H  H179  1  0.422200  0.137900  0.432300  1.0  0.1012
  H  H180  1  0.434300  0.249800  0.367300  1.0  0.1101
  H  H181  1  0.430800  0.707100  0.425600  1.0  0.0986
  H  H182  1  0.384100  0.596500  0.363300  1.0  0.1102
  H  H183  1  0.327900  0.852200  0.372200  1.0  0.0939
  H  H184  1  0.374900  0.959600  0.439200  1.0  0.1041
  H  H185  1  0.228800  0.363500  0.264000  1.0  0.0676
  H  H186  1  0.225000  0.262700  0.337400  1.0  0.1035
  H  H187  1  0.282700  0.507700  0.458200  1.0  0.1188
  H  H188  1  0.287700  0.593200  0.382300  1.0  0.0778
  H  H189  1  0.270900  0.436900  0.516800  1.0  0.0883
  H  H190  1  0.292400  0.320700  0.532000  1.0  0.0843
  H  H191  1  0.227500  0.172300  0.405100  1.0  0.0871
  H  H192  1  0.263600  0.146100  0.459100  1.0  0.075
  H  H193  1  0.323000  0.502100  0.134200  1.0  0.1164
  H  H194  1  0.334300  0.394900  0.067900  1.0  0.0929
  H  H195  1  0.274200  0.137600  0.061200  1.0  0.0955
  H  H196  1  0.264700  0.239000  0.131200  1.0  0.0978
  H  H197  1  0.381300  0.216900  0.058100  1.0  0.0981
  H  H198  1  0.428100  0.114900  0.125600  1.0  0.0917
  H  H199  1  0.372000  0.862200  0.137400  1.0  0.0968
  H  H200  1  0.325400  0.962700  0.071400  1.0  0.1087
  H  H201  1  0.467400  0.652500  0.263500  1.0  0.0684
  H  H202  1  0.469400  0.530100  0.336100  1.0  0.1122
  H  H203  1  0.540000  0.734800  0.462500  1.0  0.1249
  H  H204  1  0.536700  0.848800  0.384900  1.0  0.0781
  H  H205  1  0.471600  0.431100  0.400100  1.0  0.0893
  H  H206  1  0.504900  0.376200  0.452900  1.0  0.08
  H  H207  1  0.535500  0.656000  0.523800  1.0  0.0705
  H  H208  1  0.545300  0.521000  0.532800  1.0  0.0812
  H  H209  1  0.779000  0.727100  0.262700  1.0  0.0677
  H  H210  1  0.823900  0.826200  0.335200  1.0  0.1067
  H  H211  1  0.827700  0.592800  0.458100  1.0  0.1428
  H  H212  1  0.781500  0.508300  0.383100  1.0  0.0752
  H  H213  1  0.860600  0.687000  0.520800  1.0  0.0736
  H  H214  1  0.893900  0.704600  0.519500  1.0  0.0863
  H  H215  1  0.891800  0.847500  0.439600  1.0  0.0915
  H  H216  1  0.857700  0.911400  0.397500  1.0  0.0878
  H  H217  1  0.862400  0.019700  0.475300  1.0  0.0912
  H  H218  1  0.896000  0.030700  0.475000  1.0  0.0646
  H  H219  1  0.897600  0.812500  0.598900  1.0  0.0762
  H  H220  1  0.863100  0.873600  0.555900  1.0  0.0957
  H  H221  1  0.928700  0.126400  0.537700  1.0  0.1259
  H  H222  1  0.967600  0.238200  0.614700  1.0  0.0792
  H  H223  1  0.958400  0.050800  0.735100  1.0  0.0814
  H  H224  1  0.922100  0.929100  0.662200  1.0  0.1157
  H  H225  1  0.988900  0.517700  0.862900  1.0  0.0865
  H  H226  1  0.980000  0.624000  0.932400  1.0  0.1132
  H  H227  1  0.922200  0.362100  0.932300  1.0  0.0998
  H  H228  1  0.934300  0.250200  0.867300  1.0  0.1093
  H  H229  1  0.930800  0.792900  0.925600  1.0  0.0986
  H  H230  1  0.884100  0.903500  0.863300  1.0  0.1107
  H  H231  1  0.827900  0.647800  0.872200  1.0  0.0937
  H  H232  1  0.874900  0.540400  0.939200  1.0  0.1044
  H  H233  1  0.728800  0.136500  0.764000  1.0  0.0675
  H  H234  1  0.725000  0.237300  0.837400  1.0  0.104
  H  H235  1  0.782700  0.992300  0.958200  1.0  0.1187
  H  H236  1  0.787700  0.906800  0.882300  1.0  0.0799
  H  H237  1  0.770900  0.063100  0.016800  1.0  0.0867
  H  H238  1  0.792400  0.179300  0.032000  1.0  0.0844
  H  H239  1  0.727500  0.327700  0.905100  1.0  0.0873
  H  H240  1  0.763600  0.353900  0.959100  1.0  0.0752
  H  H241  1  0.823000  0.997900  0.634200  1.0  0.1163
  H  H242  1  0.834300  0.105100  0.567900  1.0  0.0929
  H  H243  1  0.774200  0.362400  0.561200  1.0  0.0955
  H  H244  1  0.764700  0.261000  0.631200  1.0  0.0978
  H  H245  1  0.881300  0.283100  0.558100  1.0  0.0984
  H  H246  1  0.928100  0.385100  0.625600  1.0  0.0918
  H  H247  1  0.872000  0.637800  0.637400  1.0  0.0968
  H  H248  1  0.825400  0.537300  0.571400  1.0  0.1089
  H  H249  1  0.967400  0.847500  0.763500  1.0  0.0686
  H  H250  1  0.969400  0.969900  0.836100  1.0  0.114
  H  H251  1  0.040000  0.765200  0.962500  1.0  0.1263
  H  H252  1  0.036700  0.651200  0.884900  1.0  0.0779
  H  H253  1  0.971600  0.068900  0.900100  1.0  0.0897
  H  H254  1  0.004900  0.123800  0.952900  1.0  0.0797
  H  H255  1  0.035500  0.844000  0.023800  1.0  0.0698
  H  H256  1  0.045300  0.979000  0.032800  1.0  0.0813
  H  H257  1  0.279000  0.227100  0.262700  1.0  0.0677
  H  H258  1  0.323900  0.326200  0.335200  1.0  0.1067
  H  H259  1  0.327700  0.092800  0.458100  1.0  0.1428
  H  H260  1  0.281500  0.008300  0.383100  1.0  0.0752
  H  H261  1  0.360600  0.187000  0.520800  1.0  0.0736
  H  H262  1  0.393900  0.204600  0.519500  1.0  0.0863
  H  H263  1  0.391800  0.347500  0.439600  1.0  0.0915
  H  H264  1  0.357700  0.411400  0.397500  1.0  0.0865
  H  H265  1  0.362400  0.519700  0.475300  1.0  0.0912
  H  H266  1  0.396000  0.530700  0.475000  1.0  0.0649
  H  H267  1  0.397600  0.312500  0.598900  1.0  0.0762
  H  H268  1  0.363100  0.373600  0.555900  1.0  0.0957
  H  H269  1  0.428700  0.626400  0.537700  1.0  0.1259
  H  H270  1  0.467600  0.738200  0.614700  1.0  0.0792
  H  H271  1  0.458400  0.550800  0.735100  1.0  0.0814
  H  H272  1  0.422100  0.429100  0.662200  1.0  0.1143
  H  H273  1  0.488900  0.017700  0.862900  1.0  0.0865
  H  H274  1  0.480000  0.124000  0.932400  1.0  0.1132
  H  H275  1  0.422200  0.862100  0.932300  1.0  0.0996
  H  H276  1  0.434300  0.750200  0.867300  1.0  0.1093
  H  H277  1  0.430800  0.292900  0.925600  1.0  0.0986
  H  H278  1  0.384100  0.403500  0.863300  1.0  0.1107
  H  H279  1  0.327900  0.147800  0.872200  1.0  0.0937
  H  H280  1  0.374900  0.040400  0.939200  1.0  0.1044
  H  H281  1  0.228800  0.636500  0.764000  1.0  0.0675
  H  H282  1  0.225000  0.737300  0.837400  1.0  0.104
  H  H283  1  0.282700  0.492300  0.958200  1.0  0.1187
  H  H284  1  0.287700  0.406800  0.882300  1.0  0.0798
  H  H285  1  0.270900  0.563100  0.016800  1.0  0.0867
  H  H286  1  0.292400  0.679300  0.032000  1.0  0.0844
  H  H287  1  0.227500  0.827700  0.905100  1.0  0.0873
  H  H288  1  0.263600  0.853900  0.959100  1.0  0.0752
  H  H289  1  0.323000  0.497900  0.634200  1.0  0.1163
  H  H290  1  0.334300  0.605100  0.567900  1.0  0.0929
  H  H291  1  0.274200  0.862400  0.561200  1.0  0.0955
  H  H292  1  0.264700  0.761000  0.631200  1.0  0.0978
  H  H293  1  0.381300  0.783100  0.558100  1.0  0.0984
  H  H294  1  0.428100  0.885100  0.625600  1.0  0.0918
  H  H295  1  0.372000  0.137800  0.637400  1.0  0.0968
  H  H296  1  0.325400  0.037300  0.571400  1.0  0.1089
  H  H297  1  0.467400  0.347500  0.763500  1.0  0.0685
  H  H298  1  0.469400  0.469900  0.836100  1.0  0.114
  H  H299  1  0.540000  0.265200  0.962500  1.0  0.1263
  H  H300  1  0.536700  0.151200  0.884900  1.0  0.0779
  H  H301  1  0.471600  0.568900  0.900100  1.0  0.0894
  H  H302  1  0.504900  0.623800  0.952900  1.0  0.0797
  H  H303  1  0.535500  0.344000  0.023800  1.0  0.0698
  H  H304  1  0.545300  0.479000  0.032800  1.0  0.0813
  H  H305  1  0.221000  0.727100  0.237300  1.0  0.0683
  H  H306  1  0.176100  0.826200  0.164800  1.0  0.1083
  H  H307  1  0.172300  0.592800  0.041900  1.0  0.1407
  H  H308  1  0.218500  0.508300  0.116900  1.0  0.0757
  H  H309  1  0.139400  0.687000  0.979200  1.0  0.0709
  H  H310  1  0.106100  0.704600  0.980500  1.0  0.0864
  H  H311  1  0.108200  0.847500  0.060400  1.0  0.0923
  H  H312  1  0.142300  0.911400  0.102500  1.0  0.09
  H  H313  1  0.137600  0.019700  0.024700  1.0  0.0936
  H  H314  1  0.104000  0.030700  0.025000  1.0  0.0649
  H  H315  1  0.102400  0.812500  0.901100  1.0  0.0752
  H  H316  1  0.136900  0.873600  0.944100  1.0  0.0961
  H  H317  1  0.071300  0.126400  0.962300  1.0  0.1265
  H  H318  1  0.032400  0.238200  0.885300  1.0  0.0796
  H  H319  1  0.041600  0.050800  0.764900  1.0  0.0828
  H  H320  1  0.077900  0.929100  0.837800  1.0  0.1143
  H  H321  1  0.011100  0.517700  0.637100  1.0  0.0859
  H  H322  1  0.020000  0.624000  0.567600  1.0  0.1135
  H  H323  1  0.077800  0.362100  0.567700  1.0  0.1008
  H  H324  1  0.065700  0.250200  0.632700  1.0  0.1093
  H  H325  1  0.069200  0.792900  0.574400  1.0  0.0992
  H  H326  1  0.115900  0.903500  0.636700  1.0  0.1097
  H  H327  1  0.172100  0.647800  0.627800  1.0  0.094
  H  H328  1  0.125100  0.540400  0.560800  1.0  0.1048
  H  H329  1  0.271200  0.136500  0.736000  1.0  0.0679
  H  H330  1  0.275000  0.237300  0.662600  1.0  0.1044
  H  H331  1  0.217300  0.992300  0.541800  1.0  0.1174
  H  H332  1  0.212300  0.906800  0.617700  1.0  0.0787
  H  H333  1  0.229100  0.063100  0.483200  1.0  0.0866
  H  H334  1  0.207600  0.179300  0.468000  1.0  0.0844
  H  H335  1  0.272500  0.327700  0.594900  1.0  0.0886
  H  H336  1  0.236400  0.353900  0.540900  1.0  0.0737
  H  H337  1  0.177000  0.997900  0.865800  1.0  0.1164
  H  H338  1  0.165700  0.105100  0.932100  1.0  0.093
  H  H339  1  0.225800  0.362400  0.938800  1.0  0.0961
  H  H340  1  0.235300  0.261000  0.868800  1.0  0.0971
  H  H341  1  0.118700  0.283100  0.941900  1.0  0.0992
  H  H342  1  0.071900  0.385100  0.874400  1.0  0.0913
  H  H343  1  0.128000  0.637800  0.862600  1.0  0.0975
  H  H344  1  0.174600  0.537300  0.928600  1.0  0.1091
  H  H345  1  0.032600  0.847500  0.736500  1.0  0.0688
  H  H346  1  0.030600  0.969900  0.663900  1.0  0.1154
  H  H347  1  0.960000  0.765200  0.537500  1.0  0.1242
  H  H348  1  0.963300  0.651200  0.615100  1.0  0.0779
  H  H349  1  0.028400  0.068900  0.599900  1.0  0.0887
  H  H350  1  0.995100  0.123800  0.547100  1.0  0.0804
  H  H351  1  0.964500  0.844000  0.476200  1.0  0.0698
  H  H352  1  0.954700  0.979000  0.467200  1.0  0.0819
  H  H353  1  0.721000  0.227100  0.237300  1.0  0.0683
  H  H354  1  0.676100  0.326200  0.164800  1.0  0.1083
  H  H355  1  0.672300  0.092800  0.041900  1.0  0.1407
  H  H356  1  0.718500  0.008300  0.116900  1.0  0.0757
  H  H357  1  0.639400  0.187000  0.979200  1.0  0.0709
  H  H358  1  0.606100  0.204600  0.980500  1.0  0.0864
  H  H359  1  0.608200  0.347500  0.060400  1.0  0.0923
  H  H360  1  0.642300  0.411400  0.102500  1.0  0.0891
  H  H361  1  0.637600  0.519700  0.024700  1.0  0.0936
  H  H362  1  0.604000  0.530700  0.025000  1.0  0.0645
  H  H363  1  0.602400  0.312500  0.901100  1.0  0.0752
  H  H364  1  0.636900  0.373600  0.944100  1.0  0.0961
  H  H365  1  0.571300  0.626400  0.962300  1.0  0.1265
  H  H366  1  0.532400  0.738200  0.885300  1.0  0.0796
  H  H367  1  0.541600  0.550800  0.764900  1.0  0.0828
  H  H368  1  0.577900  0.429100  0.837800  1.0  0.114
  H  H369  1  0.511100  0.017700  0.637100  1.0  0.0859
  H  H370  1  0.520000  0.124000  0.567600  1.0  0.1135
  H  H371  1  0.577800  0.862100  0.567700  1.0  0.1006
  H  H372  1  0.565700  0.750200  0.632700  1.0  0.1093
  H  H373  1  0.569200  0.292900  0.574400  1.0  0.0992
  H  H374  1  0.615900  0.403500  0.636700  1.0  0.1097
  H  H375  1  0.672100  0.147800  0.627800  1.0  0.094
  H  H376  1  0.625100  0.040400  0.560800  1.0  0.1048
  H  H377  1  0.771200  0.636500  0.736000  1.0  0.0679
  H  H378  1  0.775000  0.737300  0.662600  1.0  0.1044
  H  H379  1  0.717300  0.492300  0.541800  1.0  0.1174
  H  H380  1  0.712300  0.406800  0.617700  1.0  0.0786
  H  H381  1  0.729100  0.563100  0.483200  1.0  0.0866
  H  H382  1  0.707600  0.679300  0.468000  1.0  0.0844
  H  H383  1  0.772500  0.827700  0.594900  1.0  0.0886
  H  H384  1  0.736400  0.853900  0.540900  1.0  0.0737
  H  H385  1  0.677000  0.497900  0.865800  1.0  0.1164
  H  H386  1  0.665700  0.605100  0.932100  1.0  0.093
  H  H387  1  0.725800  0.862400  0.938800  1.0  0.0961
  H  H388  1  0.735300  0.761000  0.868800  1.0  0.0971
  H  H389  1  0.618700  0.783100  0.941900  1.0  0.0992
  H  H390  1  0.571900  0.885100  0.874400  1.0  0.0913
  H  H391  1  0.628000  0.137800  0.862600  1.0  0.0975
  H  H392  1  0.674600  0.037300  0.928600  1.0  0.1091
  H  H393  1  0.532600  0.347500  0.736500  1.0  0.0688
  H  H394  1  0.530600  0.469900  0.663900  1.0  0.1154
  H  H395  1  0.460000  0.265200  0.537500  1.0  0.1242
  H  H396  1  0.463300  0.151200  0.615100  1.0  0.0779
  H  H397  1  0.528400  0.568900  0.599900  1.0  0.0885
  H  H398  1  0.495100  0.623800  0.547100  1.0  0.0804
  H  H399  1  0.464500  0.344000  0.476200  1.0  0.0698
  H  H400  1  0.454700  0.479000  0.467200  1.0  0.0819
  C  C401  1  0.211100  0.299600  0.696600  1.0  0.1798
  C  C402  1  0.184400  0.238900  0.653600  1.0  -0.2566
  C  C403  1  0.169800  0.274500  0.593700  1.0  0.2026
  C  C404  1  0.182500  0.375400  0.581600  1.0  -0.2557
  C  C405  1  0.209400  0.427300  0.627000  1.0  0.1695
  C  C406  1  0.126100  0.255600  0.486600  1.0  -0.0257
  C  C407  1  0.127900  0.119700  0.561300  1.0  0.0148
  C  C408  1  0.117900  0.023700  0.517800  1.0  0.0085
  C  C409  1  0.116900  0.157600  0.442500  1.0  0.0172
  C  C410  1  0.079500  0.991000  0.410200  1.0  0.203
  C  C411  1  0.065000  0.892700  0.421700  1.0  -0.2312
  C  C412  1  0.042200  0.824200  0.375400  1.0  0.1501
  C  C413  1  0.047400  0.934200  0.305800  1.0  0.1571
  C  C414  1  0.069400  0.007300  0.349400  1.0  -0.2448
  C  C415  1  0.029900  0.697800  0.183200  1.0  0.6463
  C  C416  1  0.037300  0.625400  0.141000  1.0  -0.1484
  C  C417  1  0.024200  0.514900  0.122100  1.0  -0.0245
  C  C418  1  0.029700  0.450500  0.081600  1.0  -0.0704
  C  C419  1  0.049700  0.499200  0.062700  1.0  -0.1813
  C  C420  1  0.063800  0.607800  0.081200  1.0  -0.0514
  C  C421  1  0.057000  0.673500  0.120500  1.0  -0.0033
  C  C422  1  0.093500  0.340300  0.061000  1.0  -0.1774
  C  C423  1  0.090200  0.234900  0.084300  1.0  -0.0503
  C  C424  1  0.117800  0.170600  0.122000  1.0  -0.0176
  C  C425  1  0.148100  0.215500  0.137800  1.0  -0.1393
  C  C426  1  0.151000  0.322000  0.115900  1.0  -0.03
  C  C427  1  0.123200  0.386400  0.076400  1.0  -0.0452
  C  C428  1  0.177700  0.144200  0.177900  1.0  0.6252
  C  C429  1  0.259200  0.890900  0.195400  1.0  0.1607
  C  C430  1  0.261900  0.831200  0.151900  1.0  -0.2236
  C  C431  1  0.245900  0.868700  0.091900  1.0  0.1888
  C  C432  1  0.227800  0.973600  0.081000  1.0  -0.2223
  C  C433  1  0.225400  0.025100  0.126800  1.0  0.1769
  C  C434  1  0.230100  0.850600  0.984800  1.0  0.0188
  C  C435  1  0.256700  0.690200  0.052000  1.0  0.0186
  C  C436  1  0.215500  0.953500  0.321600  1.0  0.6414
  C  C437  1  0.207600  0.880300  0.362300  1.0  -0.1163
  C  C438  1  0.186700  0.927700  0.380200  1.0  -0.0848
  C  C439  1  0.180200  0.864600  0.419700  1.0  -0.0316
  C  C440  1  0.195100  0.756100  0.441200  1.0  -0.1708
  C  C441  1  0.215600  0.710800  0.423400  1.0  -0.0246
  C  C442  1  0.221700  0.771800  0.382500  1.0  -0.04
  C  C443  1  0.150300  0.599700  0.441300  1.0  -0.2339
  C  C444  1  0.120500  0.644500  0.425600  1.0  -0.035
  C  C445  1  0.092800  0.583700  0.385600  1.0  -0.0285
  C  C446  1  0.095100  0.478700  0.361900  1.0  -0.1681
  C  C447  1  0.126200  0.434700  0.378800  1.0  -0.0572
  C  C448  1  0.153600  0.493000  0.417600  1.0  -0.1127
  C  C449  1  0.065600  0.408000  0.320200  1.0  0.642
  C  C450  1  0.017400  0.169200  0.195300  1.0  0.1648
  C  C451  1  0.016700  0.096200  0.151700  1.0  -0.2379
  C  C452  1  0.995800  0.116900  0.090100  1.0  0.246
  C  C453  1  0.975400  0.215200  0.078200  1.0  -0.2485
  C  C454  1  0.977400  0.283500  0.125000  1.0  0.1596
  C  C455  1  0.011500  0.938300  0.056700  1.0  -0.0103
  C  C456  1  0.973300  0.075800  0.981400  1.0  0.0302
  C  C457  1  0.711100  0.799600  0.696600  1.0  0.1798
  C  C458  1  0.684400  0.738900  0.653600  1.0  -0.2566
  C  C459  1  0.669800  0.774500  0.593700  1.0  0.2026
  C  C460  1  0.682500  0.875400  0.581600  1.0  -0.2557
  C  C461  1  0.709400  0.927300  0.627000  1.0  0.1695
  C  C462  1  0.626100  0.755600  0.486600  1.0  -0.0257
  C  C463  1  0.627900  0.619700  0.561300  1.0  0.0148
  C  C464  1  0.617900  0.523700  0.517800  1.0  0.0085
  C  C465  1  0.616900  0.657600  0.442500  1.0  0.0172
  C  C466  1  0.579500  0.491000  0.410200  1.0  0.203
  C  C467  1  0.565000  0.392700  0.421700  1.0  -0.2312
  C  C468  1  0.542200  0.324200  0.375400  1.0  0.1501
  C  C469  1  0.547400  0.434200  0.305800  1.0  0.1571
  C  C470  1  0.569400  0.507300  0.349400  1.0  -0.2448
  C  C471  1  0.529900  0.197800  0.183200  1.0  0.6463
  C  C472  1  0.537300  0.125400  0.141000  1.0  -0.1484
  C  C473  1  0.524200  0.014900  0.122100  1.0  -0.0245
  C  C474  1  0.529700  0.950500  0.081600  1.0  -0.0704
  C  C475  1  0.549700  0.999200  0.062700  1.0  -0.1813
  C  C476  1  0.563800  0.107800  0.081200  1.0  -0.0514
  C  C477  1  0.557000  0.173500  0.120500  1.0  -0.0033
  C  C478  1  0.593500  0.840300  0.061000  1.0  -0.1774
  C  C479  1  0.590200  0.734900  0.084300  1.0  -0.0503
  C  C480  1  0.617800  0.670600  0.122000  1.0  -0.0176
  C  C481  1  0.648100  0.715500  0.137800  1.0  -0.1393
  C  C482  1  0.651000  0.822000  0.115900  1.0  -0.03
  C  C483  1  0.623200  0.886400  0.076400  1.0  -0.0452
  C  C484  1  0.677700  0.644200  0.177900  1.0  0.6252
  C  C485  1  0.759200  0.390900  0.195400  1.0  0.1605
  C  C486  1  0.761900  0.331200  0.151900  1.0  -0.2236
  C  C487  1  0.745900  0.368700  0.091900  1.0  0.1888
  C  C488  1  0.727800  0.473600  0.081000  1.0  -0.2223
  C  C489  1  0.725400  0.525100  0.126800  1.0  0.1769
  C  C490  1  0.730100  0.350600  0.984800  1.0  0.0188
  C  C491  1  0.756700  0.190200  0.052000  1.0  0.0186
  C  C492  1  0.715500  0.453500  0.321600  1.0  0.6414
  C  C493  1  0.707600  0.380300  0.362300  1.0  -0.1163
  C  C494  1  0.686700  0.427700  0.380200  1.0  -0.0848
  C  C495  1  0.680200  0.364600  0.419700  1.0  -0.0316
  C  C496  1  0.695100  0.256100  0.441200  1.0  -0.1708
  C  C497  1  0.715600  0.210800  0.423400  1.0  -0.0246
  C  C498  1  0.721700  0.271800  0.382500  1.0  -0.04
  C  C499  1  0.650300  0.099700  0.441300  1.0  -0.2339
  C  C500  1  0.620500  0.144500  0.425600  1.0  -0.031
  C  C501  1  0.592800  0.083700  0.385600  1.0  -0.0285
  C  C502  1  0.595100  0.978700  0.361900  1.0  -0.1681
  C  C503  1  0.626200  0.934700  0.378800  1.0  -0.0572
  C  C504  1  0.653600  0.993000  0.417600  1.0  -0.1127
  C  C505  1  0.565600  0.908000  0.320200  1.0  0.642
  C  C506  1  0.517400  0.669200  0.195300  1.0  0.1648
  C  C507  1  0.516700  0.596200  0.151700  1.0  -0.2369
  C  C508  1  0.495800  0.616900  0.090100  1.0  0.246
  C  C509  1  0.475400  0.715200  0.078200  1.0  -0.2485
  C  C510  1  0.477400  0.783500  0.125000  1.0  0.1596
  C  C511  1  0.511500  0.438300  0.056700  1.0  -0.0103
  C  C512  1  0.473300  0.575800  0.981400  1.0  0.029
  C  C513  1  0.788900  0.299600  0.803400  1.0  0.1815
  C  C514  1  0.815600  0.238900  0.846400  1.0  -0.2626
  C  C515  1  0.830200  0.274500  0.906300  1.0  0.203
  C  C516  1  0.817500  0.375400  0.918400  1.0  -0.2521
  C  C517  1  0.790600  0.427300  0.873000  1.0  0.1689
  C  C518  1  0.873900  0.255600  0.013400  1.0  -0.0258
  C  C519  1  0.872100  0.119700  0.938700  1.0  0.0136
  C  C520  1  0.882100  0.023700  0.982200  1.0  0.0071
  C  C521  1  0.883100  0.157600  0.057500  1.0  0.0173
  C  C522  1  0.920500  0.991000  0.089800  1.0  0.2031
  C  C523  1  0.935000  0.892700  0.078300  1.0  -0.2301
  C  C524  1  0.957800  0.824200  0.124600  1.0  0.1505
  C  C525  1  0.952600  0.934200  0.194200  1.0  0.1577
  C  C526  1  0.930600  0.007300  0.150600  1.0  -0.2442
  C  C527  1  0.970100  0.697800  0.316800  1.0  0.6467
  C  C528  1  0.962700  0.625400  0.359000  1.0  -0.1475
  C  C529  1  0.975800  0.514900  0.377900  1.0  -0.0169
  C  C530  1  0.970300  0.450500  0.418400  1.0  -0.0732
  C  C531  1  0.950300  0.499200  0.437300  1.0  -0.1809
  C  C532  1  0.936200  0.607800  0.418800  1.0  -0.0519
  C  C533  1  0.943000  0.673500  0.379500  1.0  -0.0117
  C  C534  1  0.906500  0.340300  0.439000  1.0  -0.1817
  C  C535  1  0.909800  0.234900  0.415700  1.0  -0.0497
  C  C536  1  0.882200  0.170600  0.378000  1.0  -0.014
  C  C537  1  0.851900  0.215500  0.362200  1.0  -0.1409
  C  C538  1  0.849000  0.322000  0.384100  1.0  -0.0257
  C  C539  1  0.876800  0.386400  0.423600  1.0  -0.0487
  C  C540  1  0.822300  0.144200  0.322100  1.0  0.625
  C  C541  1  0.740800  0.890900  0.304600  1.0  0.1639
  C  C542  1  0.738100  0.831200  0.348100  1.0  -0.2265
  C  C543  1  0.754100  0.868700  0.408100  1.0  0.1884
  C  C544  1  0.772200  0.973600  0.419000  1.0  -0.222
  C  C545  1  0.774600  0.025100  0.373200  1.0  0.1768
  C  C546  1  0.769900  0.850600  0.515200  1.0  0.0193
  C  C547  1  0.743300  0.690200  0.448000  1.0  0.0169
  C  C548  1  0.784500  0.953500  0.178400  1.0  0.6415
  C  C549  1  0.792400  0.880300  0.137700  1.0  -0.1174
  C  C550  1  0.813300  0.927700  0.119800  1.0  -0.0834
  C  C551  1  0.819800  0.864600  0.080300  1.0  -0.0322
  C  C552  1  0.804900  0.756100  0.058800  1.0  -0.1724
  C  C553  1  0.784400  0.710800  0.076600  1.0  -0.0266
  C  C554  1  0.778300  0.771800  0.117500  1.0  -0.0384
  C  C555  1  0.849700  0.599700  0.058700  1.0  -0.2345
  C  C556  1  0.879500  0.644500  0.074400  1.0  -0.0294
  C  C557  1  0.907200  0.583700  0.114400  1.0  -0.0285
  C  C558  1  0.904900  0.478700  0.138100  1.0  -0.1635
  C  C559  1  0.873800  0.434700  0.121200  1.0  -0.0585
  C  C560  1  0.846400  0.493000  0.082400  1.0  -0.1154
  C  C561  1  0.934400  0.408000  0.179800  1.0  0.6417
  C  C562  1  0.982600  0.169200  0.304700  1.0  0.1651
  C  C563  1  0.983300  0.096200  0.348300  1.0  -0.2416
  C  C564  1  0.004200  0.116900  0.409900  1.0  0.2456
  C  C565  1  0.024600  0.215200  0.421800  1.0  -0.2457
  C  C566  1  0.022600  0.283500  0.375000  1.0  0.159
  C  C567  1  0.988500  0.938300  0.443300  1.0  -0.0103
  C  C568  1  0.026700  0.075800  0.518600  1.0  0.0309
  C  C569  1  0.288900  0.799600  0.803400  1.0  0.1815
  C  C570  1  0.315600  0.738900  0.846400  1.0  -0.2626
  C  C571  1  0.330200  0.774500  0.906300  1.0  0.203
  C  C572  1  0.317500  0.875400  0.918400  1.0  -0.2521
  C  C573  1  0.290600  0.927300  0.873000  1.0  0.1689
  C  C574  1  0.373900  0.755600  0.013400  1.0  -0.0258
  C  C575  1  0.372100  0.619700  0.938700  1.0  0.0136
  C  C576  1  0.382100  0.523700  0.982200  1.0  0.0071
  C  C577  1  0.383100  0.657600  0.057500  1.0  0.0173
  C  C578  1  0.420500  0.491000  0.089800  1.0  0.2031
  C  C579  1  0.435000  0.392700  0.078300  1.0  -0.2301
  C  C580  1  0.457800  0.324200  0.124600  1.0  0.1505
  C  C581  1  0.452600  0.434200  0.194200  1.0  0.1577
  C  C582  1  0.430600  0.507300  0.150600  1.0  -0.2442
  C  C583  1  0.470100  0.197800  0.316800  1.0  0.6467
  C  C584  1  0.462700  0.125400  0.359000  1.0  -0.1475
  C  C585  1  0.475800  0.014900  0.377900  1.0  -0.0169
  C  C586  1  0.470300  0.950500  0.418400  1.0  -0.0732
  C  C587  1  0.450300  0.999200  0.437300  1.0  -0.1809
  C  C588  1  0.436200  0.107800  0.418800  1.0  -0.0519
  C  C589  1  0.443000  0.173500  0.379500  1.0  -0.0117
  C  C590  1  0.406500  0.840300  0.439000  1.0  -0.1817
  C  C591  1  0.409800  0.734900  0.415700  1.0  -0.0497
  C  C592  1  0.382200  0.670600  0.378000  1.0  -0.014
  C  C593  1  0.351900  0.715500  0.362200  1.0  -0.1409
  C  C594  1  0.349000  0.822000  0.384100  1.0  -0.0257
  C  C595  1  0.376800  0.886400  0.423600  1.0  -0.0487
  C  C596  1  0.322300  0.644200  0.322100  1.0  0.625
  C  C597  1  0.240800  0.390900  0.304600  1.0  0.1639
  C  C598  1  0.238100  0.331200  0.348100  1.0  -0.2265
  C  C599  1  0.254100  0.368700  0.408100  1.0  0.1884
  C  C600  1  0.272200  0.473600  0.419000  1.0  -0.222
  C  C601  1  0.274600  0.525100  0.373200  1.0  0.1768
  C  C602  1  0.269900  0.350600  0.515200  1.0  0.0193
  C  C603  1  0.243300  0.190200  0.448000  1.0  0.0169
  C  C604  1  0.284500  0.453500  0.178400  1.0  0.6415
  C  C605  1  0.292400  0.380300  0.137700  1.0  -0.1174
  C  C606  1  0.313300  0.427700  0.119800  1.0  -0.0834
  C  C607  1  0.319800  0.364600  0.080300  1.0  -0.0322
  C  C608  1  0.304900  0.256100  0.058800  1.0  -0.1724
  C  C609  1  0.284400  0.210800  0.076600  1.0  -0.0266
  C  C610  1  0.278300  0.271800  0.117500  1.0  -0.0384
  C  C611  1  0.349700  0.099700  0.058700  1.0  -0.2345
  C  C612  1  0.379500  0.144500  0.074400  1.0  -0.0291
  C  C613  1  0.407200  0.083700  0.114400  1.0  -0.0285
  C  C614  1  0.404900  0.978700  0.138100  1.0  -0.1635
  C  C615  1  0.373800  0.934700  0.121200  1.0  -0.0585
  C  C616  1  0.346400  0.993000  0.082400  1.0  -0.1154
  C  C617  1  0.434400  0.908000  0.179800  1.0  0.6417
  C  C618  1  0.482600  0.669200  0.304700  1.0  0.1651
  C  C619  1  0.483300  0.596200  0.348300  1.0  -0.2436
  C  C620  1  0.504200  0.616900  0.409900  1.0  0.2456
  C  C621  1  0.524600  0.715200  0.421800  1.0  -0.2457
  C  C622  1  0.522600  0.783500  0.375000  1.0  0.159
  C  C623  1  0.488500  0.438300  0.443300  1.0  -0.0103
  C  C624  1  0.526700  0.575800  0.518600  1.0  0.0309
  C  C625  1  0.788900  0.700400  0.303400  1.0  0.1799
  C  C626  1  0.815600  0.761100  0.346400  1.0  -0.2572
  C  C627  1  0.830200  0.725500  0.406300  1.0  0.2028
  C  C628  1  0.817500  0.624600  0.418400  1.0  -0.2516
  C  C629  1  0.790600  0.572700  0.373000  1.0  0.1685
  C  C630  1  0.873900  0.744400  0.513400  1.0  -0.0254
  C  C631  1  0.872100  0.880300  0.438700  1.0  0.0143
  C  C632  1  0.882100  0.976300  0.482200  1.0  0.0082
  C  C633  1  0.883100  0.842400  0.557500  1.0  0.0183
  C  C634  1  0.920500  0.009000  0.589800  1.0  0.2028
  C  C635  1  0.935000  0.107300  0.578300  1.0  -0.2298
  C  C636  1  0.957800  0.175800  0.624600  1.0  0.1508
  C  C637  1  0.952600  0.065800  0.694200  1.0  0.1572
  C  C638  1  0.930600  0.992700  0.650600  1.0  -0.2443
  C  C639  1  0.970100  0.302200  0.816800  1.0  0.6466
  C  C640  1  0.962700  0.374600  0.859000  1.0  -0.1478
  C  C641  1  0.975800  0.485100  0.877900  1.0  -0.0213
  C  C642  1  0.970300  0.549500  0.918400  1.0  -0.0721
  C  C643  1  0.950300  0.500800  0.937300  1.0  -0.1811
  C  C644  1  0.936200  0.392200  0.918800  1.0  -0.0587
  C  C645  1  0.943000  0.326500  0.879500  1.0  -0.0115
  C  C646  1  0.906500  0.659700  0.939000  1.0  -0.1811
  C  C647  1  0.909800  0.765100  0.915700  1.0  -0.0438
  C  C648  1  0.882200  0.829400  0.878000  1.0  -0.0131
  C  C649  1  0.851900  0.784500  0.862200  1.0  -0.1406
  C  C650  1  0.849000  0.678000  0.884100  1.0  -0.0307
  C  C651  1  0.876800  0.613600  0.923600  1.0  -0.0478
  C  C652  1  0.822300  0.855800  0.822100  1.0  0.6246
  C  C653  1  0.740800  0.109100  0.804600  1.0  0.164
  C  C654  1  0.738100  0.168800  0.848100  1.0  -0.2266
  C  C655  1  0.754100  0.131300  0.908100  1.0  0.188
  C  C656  1  0.772200  0.026400  0.919000  1.0  -0.2223
  C  C657  1  0.774600  0.974900  0.873200  1.0  0.1766
  C  C658  1  0.769900  0.149400  0.015200  1.0  0.0188
  C  C659  1  0.743300  0.309800  0.948000  1.0  0.0162
  C  C660  1  0.784500  0.046500  0.678400  1.0  0.6392
  C  C661  1  0.792400  0.119700  0.637700  1.0  -0.1168
  C  C662  1  0.813300  0.072300  0.619800  1.0  -0.0845
  C  C663  1  0.819800  0.135400  0.580300  1.0  -0.0359
  C  C664  1  0.804900  0.243900  0.558800  1.0  -0.1724
  C  C665  1  0.784400  0.289200  0.576600  1.0  -0.0257
  C  C666  1  0.778300  0.228200  0.617500  1.0  -0.0388
  C  C667  1  0.849700  0.400300  0.558700  1.0  -0.2344
  C  C668  1  0.879500  0.355500  0.574400  1.0  -0.0346
  C  C669  1  0.907200  0.416300  0.614400  1.0  -0.0281
  C  C670  1  0.904900  0.521300  0.638100  1.0  -0.1635
  C  C671  1  0.873800  0.565300  0.621200  1.0  -0.0581
  C  C672  1  0.846400  0.507000  0.582400  1.0  -0.116
  C  C673  1  0.934400  0.592000  0.679800  1.0  0.6423
  C  C674  1  0.982600  0.830800  0.804700  1.0  0.1658
  C  C675  1  0.983300  0.903800  0.848300  1.0  -0.2424
  C  C676  1  0.004200  0.883100  0.909900  1.0  0.2461
  C  C677  1  0.024600  0.784800  0.921800  1.0  -0.2462
  C  C678  1  0.022600  0.716500  0.875000  1.0  0.159
  C  C679  1  0.988500  0.061700  0.943300  1.0  -0.0112
  C  C680  1  0.026700  0.924200  0.018600  1.0  0.0318
  C  C681  1  0.288900  0.200400  0.303400  1.0  0.1799
  C  C682  1  0.315600  0.261100  0.346400  1.0  -0.2572
  C  C683  1  0.330200  0.225500  0.406300  1.0  0.2028
  C  C684  1  0.317500  0.124600  0.418400  1.0  -0.2516
  C  C685  1  0.290600  0.072700  0.373000  1.0  0.1685
  C  C686  1  0.373900  0.244400  0.513400  1.0  -0.0254
  C  C687  1  0.372100  0.380300  0.438700  1.0  0.0135
  C  C688  1  0.382100  0.476300  0.482200  1.0  0.0082
  C  C689  1  0.383100  0.342400  0.557500  1.0  0.0183
  C  C690  1  0.420500  0.509000  0.589800  1.0  0.2028
  C  C691  1  0.435000  0.607300  0.578300  1.0  -0.2301
  C  C692  1  0.457800  0.675800  0.624600  1.0  0.1508
  C  C693  1  0.452600  0.565800  0.694200  1.0  0.1572
  C  C694  1  0.430600  0.492700  0.650600  1.0  -0.2443
  C  C695  1  0.470100  0.802200  0.816800  1.0  0.6466
  C  C696  1  0.462700  0.874600  0.859000  1.0  -0.1478
  C  C697  1  0.475800  0.985100  0.877900  1.0  -0.0213
  C  C698  1  0.470300  0.049500  0.918400  1.0  -0.0721
  C  C699  1  0.450300  0.000800  0.937300  1.0  -0.1811
  C  C700  1  0.436200  0.892200  0.918800  1.0  -0.0587
  C  C701  1  0.443000  0.826500  0.879500  1.0  -0.0115
  C  C702  1  0.406500  0.159700  0.939000  1.0  -0.1811
  C  C703  1  0.409800  0.265100  0.915700  1.0  -0.0438
  C  C704  1  0.382200  0.329400  0.878000  1.0  -0.0131
  C  C705  1  0.351900  0.284500  0.862200  1.0  -0.1406
  C  C706  1  0.349000  0.178000  0.884100  1.0  -0.0307
  C  C707  1  0.376800  0.113600  0.923600  1.0  -0.0478
  C  C708  1  0.322300  0.355800  0.822100  1.0  0.6246
  C  C709  1  0.240800  0.609100  0.804600  1.0  0.164
  C  C710  1  0.238100  0.668800  0.848100  1.0  -0.2266
  C  C711  1  0.254100  0.631300  0.908100  1.0  0.188
  C  C712  1  0.272200  0.526400  0.919000  1.0  -0.2223
  C  C713  1  0.274600  0.474900  0.873200  1.0  0.1766
  C  C714  1  0.269900  0.649400  0.015200  1.0  0.0188
  C  C715  1  0.243300  0.809800  0.948000  1.0  0.0162
  C  C716  1  0.284500  0.546500  0.678400  1.0  0.6392
  C  C717  1  0.292400  0.619700  0.637700  1.0  -0.1168
  C  C718  1  0.313300  0.572300  0.619800  1.0  -0.0845
  C  C719  1  0.319800  0.635400  0.580300  1.0  -0.0359
  C  C720  1  0.304900  0.743900  0.558800  1.0  -0.1724
  C  C721  1  0.284400  0.789200  0.576600  1.0  -0.0257
  C  C722  1  0.278300  0.728200  0.617500  1.0  -0.0388
  C  C723  1  0.349700  0.900300  0.558700  1.0  -0.2344
  C  C724  1  0.379500  0.855500  0.574400  1.0  -0.0346
  C  C725  1  0.407200  0.916300  0.614400  1.0  -0.0281
  C  C726  1  0.404900  0.021300  0.638100  1.0  -0.1635
  C  C727  1  0.373800  0.065300  0.621200  1.0  -0.0581
  C  C728  1  0.346400  0.007000  0.582400  1.0  -0.116
  C  C729  1  0.434400  0.092000  0.679800  1.0  0.6423
  C  C730  1  0.482600  0.330800  0.804700  1.0  0.1658
  C  C731  1  0.483300  0.403800  0.848300  1.0  -0.2424
  C  C732  1  0.504200  0.383100  0.909900  1.0  0.2461
  C  C733  1  0.524600  0.284800  0.921800  1.0  -0.2462
  C  C734  1  0.522600  0.216500  0.875000  1.0  0.159
  C  C735  1  0.488500  0.561700  0.943300  1.0  -0.0112
  C  C736  1  0.526700  0.424200  0.018600  1.0  0.0339
  C  C737  1  0.211100  0.700400  0.196600  1.0  0.1788
  C  C738  1  0.184400  0.761100  0.153600  1.0  -0.2579
  C  C739  1  0.169800  0.725500  0.093700  1.0  0.2026
  C  C740  1  0.182500  0.624600  0.081600  1.0  -0.2549
  C  C741  1  0.209400  0.572700  0.127000  1.0  0.1691
  C  C742  1  0.126100  0.744400  0.986600  1.0  -0.0263
  C  C743  1  0.127900  0.880300  0.061300  1.0  0.0162
  C  C744  1  0.117900  0.976300  0.017800  1.0  0.0087
  C  C745  1  0.116900  0.842400  0.942500  1.0  0.0171
  C  C746  1  0.079500  0.009000  0.910200  1.0  0.2034
  C  C747  1  0.065000  0.107300  0.921700  1.0  -0.2306
  C  C748  1  0.042200  0.175800  0.875400  1.0  0.1501
  C  C749  1  0.047400  0.065800  0.805800  1.0  0.1567
  C  C750  1  0.069400  0.992700  0.849400  1.0  -0.2459
  C  C751  1  0.029900  0.302200  0.683200  1.0  0.6458
  C  C752  1  0.037300  0.374600  0.641000  1.0  -0.1484
  C  C753  1  0.024200  0.485100  0.622100  1.0  -0.0235
  C  C754  1  0.029700  0.549500  0.581600  1.0  -0.0706
  C  C755  1  0.049700  0.500800  0.562700  1.0  -0.1815
  C  C756  1  0.063800  0.392200  0.581200  1.0  -0.0578
  C  C757  1  0.057000  0.326500  0.620500  1.0  -0.0103
  C  C758  1  0.093500  0.659700  0.561000  1.0  -0.1775
  C  C759  1  0.090200  0.765100  0.584300  1.0  -0.0477
  C  C760  1  0.117800  0.829400  0.622000  1.0  -0.0174
  C  C761  1  0.148100  0.784500  0.637800  1.0  -0.1386
  C  C762  1  0.151000  0.678000  0.615900  1.0  -0.0265
  C  C763  1  0.123200  0.613600  0.576400  1.0  -0.0445
  C  C764  1  0.177700  0.855800  0.677900  1.0  0.6247
  C  C765  1  0.259200  0.109100  0.695400  1.0  0.1612
  C  C766  1  0.261900  0.168800  0.651900  1.0  -0.2247
  C  C767  1  0.245900  0.131300  0.591900  1.0  0.1886
  C  C768  1  0.227800  0.026400  0.581000  1.0  -0.2231
  C  C769  1  0.225400  0.974900  0.626800  1.0  0.1771
  C  C770  1  0.230100  0.149400  0.484800  1.0  0.0188
  C  C771  1  0.256700  0.309800  0.552000  1.0  0.0188
  C  C772  1  0.215500  0.046500  0.821600  1.0  0.6409
  C  C773  1  0.207600  0.119700  0.862300  1.0  -0.1166
  C  C774  1  0.186700  0.072300  0.880200  1.0  -0.0851
  C  C775  1  0.180200  0.135400  0.919700  1.0  -0.036
  C  C776  1  0.195100  0.243900  0.941200  1.0  -0.1711
  C  C777  1  0.215600  0.289200  0.923400  1.0  -0.0263
  C  C778  1  0.221700  0.228200  0.882500  1.0  -0.04
  C  C779  1  0.150300  0.400300  0.941300  1.0  -0.2326
  C  C780  1  0.120500  0.355500  0.925600  1.0  -0.0358
  C  C781  1  0.092800  0.416300  0.885600  1.0  -0.0281
  C  C782  1  0.095100  0.521300  0.861900  1.0  -0.1677
  C  C783  1  0.126200  0.565300  0.878800  1.0  -0.0564
  C  C784  1  0.153600  0.507000  0.917600  1.0  -0.1128
  C  C785  1  0.065600  0.592000  0.820200  1.0  0.642
  C  C786  1  0.017400  0.830800  0.695300  1.0  0.1652
  C  C787  1  0.016700  0.903800  0.651700  1.0  -0.2377
  C  C788  1  0.995800  0.883100  0.590100  1.0  0.2465
  C  C789  1  0.975400  0.784800  0.578200  1.0  -0.2491
  C  C790  1  0.977400  0.716500  0.625000  1.0  0.1598
  C  C791  1  0.011500  0.061700  0.556700  1.0  -0.0106
  C  C792  1  0.973300  0.924200  0.481400  1.0  0.032
  C  C793  1  0.711100  0.200400  0.196600  1.0  0.1788
  C  C794  1  0.684400  0.261100  0.153600  1.0  -0.2579
  C  C795  1  0.669800  0.225500  0.093700  1.0  0.2026
  C  C796  1  0.682500  0.124600  0.081600  1.0  -0.2549
  C  C797  1  0.709400  0.072700  0.127000  1.0  0.1691
  C  C798  1  0.626100  0.244400  0.986600  1.0  -0.0263
  C  C799  1  0.627900  0.380300  0.061300  1.0  0.0144
  C  C800  1  0.617900  0.476300  0.017800  1.0  0.0087
  C  C801  1  0.616900  0.342400  0.942500  1.0  0.0171
  C  C802  1  0.579500  0.509000  0.910200  1.0  0.2034
  C  C803  1  0.565000  0.607300  0.921700  1.0  -0.2304
  C  C804  1  0.542200  0.675800  0.875400  1.0  0.1501
  C  C805  1  0.547400  0.565800  0.805800  1.0  0.1567
  C  C806  1  0.569400  0.492700  0.849400  1.0  -0.2459
  C  C807  1  0.529900  0.802200  0.683200  1.0  0.6458
  C  C808  1  0.537300  0.874600  0.641000  1.0  -0.1484
  C  C809  1  0.524200  0.985100  0.622100  1.0  -0.0235
  C  C810  1  0.529700  0.049500  0.581600  1.0  -0.0713
  C  C811  1  0.549700  0.000800  0.562700  1.0  -0.1815
  C  C812  1  0.563800  0.892200  0.581200  1.0  -0.0578
  C  C813  1  0.557000  0.826500  0.620500  1.0  -0.0103
  C  C814  1  0.593500  0.159700  0.561000  1.0  -0.1775
  C  C815  1  0.590200  0.265100  0.584300  1.0  -0.0477
  C  C816  1  0.617800  0.329400  0.622000  1.0  -0.0174
  C  C817  1  0.648100  0.284500  0.637800  1.0  -0.1386
  C  C818  1  0.651000  0.178000  0.615900  1.0  -0.0265
  C  C819  1  0.623200  0.113600  0.576400  1.0  -0.0445
  C  C820  1  0.677700  0.355800  0.677900  1.0  0.6247
  C  C821  1  0.759200  0.609100  0.695400  1.0  0.1612
  C  C822  1  0.761900  0.668800  0.651900  1.0  -0.2247
  C  C823  1  0.745900  0.631300  0.591900  1.0  0.1886
  C  C824  1  0.727800  0.526400  0.581000  1.0  -0.2231
  C  C825  1  0.725400  0.474900  0.626800  1.0  0.1771
  C  C826  1  0.730100  0.649400  0.484800  1.0  0.0188
  C  C827  1  0.756700  0.809800  0.552000  1.0  0.0188
  C  C828  1  0.715500  0.546500  0.821600  1.0  0.6409
  C  C829  1  0.707600  0.619700  0.862300  1.0  -0.1166
  C  C830  1  0.686700  0.572300  0.880200  1.0  -0.0851
  C  C831  1  0.680200  0.635400  0.919700  1.0  -0.036
  C  C832  1  0.695100  0.743900  0.941200  1.0  -0.1711
  C  C833  1  0.715600  0.789200  0.923400  1.0  -0.0263
  C  C834  1  0.721700  0.728200  0.882500  1.0  -0.04
  C  C835  1  0.650300  0.900300  0.941300  1.0  -0.2326
  C  C836  1  0.620500  0.855500  0.925600  1.0  -0.0358
  C  C837  1  0.592800  0.916300  0.885600  1.0  -0.0281
  C  C838  1  0.595100  0.021300  0.861900  1.0  -0.1677
  C  C839  1  0.626200  0.065300  0.878800  1.0  -0.0564
  C  C840  1  0.653600  0.007000  0.917600  1.0  -0.1128
  C  C841  1  0.565600  0.092000  0.820200  1.0  0.642
  C  C842  1  0.517400  0.330800  0.695300  1.0  0.1652
  C  C843  1  0.516700  0.403800  0.651700  1.0  -0.2377
  C  C844  1  0.495800  0.383100  0.590100  1.0  0.2465
  C  C845  1  0.475400  0.284800  0.578200  1.0  -0.2491
  C  C846  1  0.477400  0.216500  0.625000  1.0  0.1598
  C  C847  1  0.511500  0.561700  0.556700  1.0  -0.0106
  C  C848  1  0.473300  0.424200  0.481400  1.0  0.03
  S  S849  1  0.058010  0.418900  0.012180  1.0  1.0933
  S  S850  1  0.186070  0.678500  0.490640  1.0  1.0723
  S  S851  1  0.558010  0.918900  0.012180  1.0  1.0933
  S  S852  1  0.686070  0.178500  0.490640  1.0  1.0731
  S  S853  1  0.941990  0.418900  0.487820  1.0  1.094
  S  S854  1  0.813930  0.678500  0.009360  1.0  1.0729
  S  S855  1  0.441990  0.918900  0.487820  1.0  1.094
  S  S856  1  0.313930  0.178500  0.009360  1.0  1.0733
  S  S857  1  0.941990  0.581100  0.987820  1.0  1.0938
  S  S858  1  0.813930  0.321500  0.509360  1.0  1.0735
  S  S859  1  0.441990  0.081100  0.987820  1.0  1.0938
  S  S860  1  0.313930  0.821500  0.509360  1.0  1.0735
  S  S861  1  0.058010  0.581100  0.512180  1.0  1.0928
  S  S862  1  0.186070  0.321500  0.990640  1.0  1.0738
  S  S863  1  0.558010  0.081100  0.512180  1.0  1.0928
  S  S864  1  0.686070  0.821500  0.990640  1.0  1.0738
  N  N865  1  0.224100  0.393600  0.685200  1.0  -0.3442
  N  N866  1  0.144800  0.212600  0.549500  1.0  -0.1522
  N  N867  1  0.100300  0.062600  0.455100  1.0  -0.1522
  N  N868  1  0.033300  0.841800  0.317000  1.0  -0.3574
  N  N869  1  0.240700  0.985300  0.184400  1.0  -0.3296
  N  N870  1  0.249200  0.814300  0.046900  1.0  -0.2195
  N  N871  1  0.995500  0.055300  0.045500  1.0  -0.1694
  N  N872  1  0.998300  0.261100  0.183100  1.0  -0.3307
  N  N873  1  0.724100  0.893600  0.685200  1.0  -0.3442
  N  N874  1  0.644800  0.712600  0.549500  1.0  -0.1522
  N  N875  1  0.600300  0.562600  0.455100  1.0  -0.1522
  N  N876  1  0.533300  0.341800  0.317000  1.0  -0.3574
  N  N877  1  0.740700  0.485300  0.184400  1.0  -0.3296
  N  N878  1  0.749200  0.314300  0.046900  1.0  -0.2195
  N  N879  1  0.495500  0.555300  0.045500  1.0  -0.1694
  N  N880  1  0.498300  0.761100  0.183100  1.0  -0.3307
  N  N881  1  0.775900  0.393600  0.814800  1.0  -0.341
  N  N882  1  0.855200  0.212600  0.950500  1.0  -0.152
  N  N883  1  0.899700  0.062600  0.044900  1.0  -0.1511
  N  N884  1  0.966700  0.841800  0.183000  1.0  -0.3575
  N  N885  1  0.759300  0.985300  0.315600  1.0  -0.3306
  N  N886  1  0.750800  0.814300  0.453100  1.0  -0.2187
  N  N887  1  0.004500  0.055300  0.454500  1.0  -0.1689
  N  N888  1  0.001700  0.261100  0.316900  1.0  -0.3316
  N  N889  1  0.275900  0.893600  0.814800  1.0  -0.341
  N  N890  1  0.355200  0.712600  0.950500  1.0  -0.152
  N  N891  1  0.399700  0.562600  0.044900  1.0  -0.1511
  N  N892  1  0.466700  0.341800  0.183000  1.0  -0.3575
  N  N893  1  0.259300  0.485300  0.315600  1.0  -0.3306
  N  N894  1  0.250800  0.314300  0.453100  1.0  -0.2187
  N  N895  1  0.504500  0.555300  0.454500  1.0  -0.1689
  N  N896  1  0.501700  0.761100  0.316900  1.0  -0.3316
  N  N897  1  0.775900  0.606400  0.314800  1.0  -0.342
  N  N898  1  0.855200  0.787400  0.450500  1.0  -0.1519
  N  N899  1  0.899700  0.937400  0.544900  1.0  -0.1512
  N  N900  1  0.966700  0.158200  0.683000  1.0  -0.3575
  N  N901  1  0.759300  0.014700  0.815600  1.0  -0.3321
  N  N902  1  0.750800  0.185700  0.953100  1.0  -0.2189
  N  N903  1  0.004500  0.944700  0.954500  1.0  -0.1696
  N  N904  1  0.001700  0.738900  0.816900  1.0  -0.3317
  N  N905  1  0.275900  0.106400  0.314800  1.0  -0.342
  N  N906  1  0.355200  0.287400  0.450500  1.0  -0.1519
  N  N907  1  0.399700  0.437400  0.544900  1.0  -0.1512
  N  N908  1  0.466700  0.658200  0.683000  1.0  -0.3575
  N  N909  1  0.259300  0.514700  0.815600  1.0  -0.3321
  N  N910  1  0.250800  0.685700  0.953100  1.0  -0.2189
  N  N911  1  0.504500  0.444700  0.954500  1.0  -0.1696
  N  N912  1  0.501700  0.238900  0.816900  1.0  -0.3317
  N  N913  1  0.224100  0.606400  0.185200  1.0  -0.3427
  N  N914  1  0.144800  0.787400  0.049500  1.0  -0.1523
  N  N915  1  0.100300  0.937400  0.955100  1.0  -0.152
  N  N916  1  0.033300  0.158200  0.817000  1.0  -0.3577
  N  N917  1  0.240700  0.014700  0.684400  1.0  -0.3295
  N  N918  1  0.249200  0.185700  0.546900  1.0  -0.2206
  N  N919  1  0.995500  0.944700  0.545500  1.0  -0.1693
  N  N920  1  0.998300  0.738900  0.683100  1.0  -0.3292
  N  N921  1  0.724100  0.106400  0.185200  1.0  -0.3427
  N  N922  1  0.644800  0.287400  0.049500  1.0  -0.1523
  N  N923  1  0.600300  0.437400  0.955100  1.0  -0.152
  N  N924  1  0.533300  0.658200  0.817000  1.0  -0.3576
  N  N925  1  0.740700  0.514700  0.684400  1.0  -0.3295
  N  N926  1  0.749200  0.685700  0.546900  1.0  -0.2206
  N  N927  1  0.495500  0.444700  0.545500  1.0  -0.1693
  N  N928  1  0.498300  0.238900  0.683100  1.0  -0.3292
  O  O929  1  0.013570  0.645300  0.203100  1.0  -0.6038
  O  O930  1  0.037800  0.800200  0.190200  1.0  -0.5593
  O  O931  1  0.066400  0.500500  0.979400  1.0  -0.5223
  O  O932  1  0.032300  0.333900  0.980400  1.0  -0.5977
  O  O933  1  0.174270  0.035900  0.181500  1.0  -0.6162
  O  O934  1  0.204900  0.193800  0.205900  1.0  -0.5758
  O  O935  1  0.209700  0.059100  0.317200  1.0  -0.6155
  O  O936  1  0.228220  0.901600  0.294200  1.0  -0.5816
  O  O937  1  0.211500  0.592900  0.522300  1.0  -0.6228
  O  O938  1  0.178100  0.760600  0.523800  1.0  -0.5727
  O  O939  1  0.038590  0.463100  0.299100  1.0  -0.6175
  O  O940  1  0.068500  0.304300  0.308800  1.0  -0.573
  O  O941  1  0.513570  0.145300  0.203100  1.0  -0.6038
  O  O942  1  0.537800  0.300200  0.190200  1.0  -0.5593
  O  O943  1  0.566400  0.000500  0.979400  1.0  -0.5223
  O  O944  1  0.532300  0.833900  0.980400  1.0  -0.5977
  O  O945  1  0.674270  0.535900  0.181500  1.0  -0.6162
  O  O946  1  0.704900  0.693800  0.205900  1.0  -0.5758
  O  O947  1  0.709700  0.559100  0.317200  1.0  -0.6168
  O  O948  1  0.728220  0.401600  0.294200  1.0  -0.5816
  O  O949  1  0.711500  0.092900  0.522300  1.0  -0.6228
  O  O950  1  0.678100  0.260600  0.523800  1.0  -0.5727
  O  O951  1  0.538590  0.963100  0.299100  1.0  -0.6178
  O  O952  1  0.568500  0.804300  0.308800  1.0  -0.573
  O  O953  1  0.986430  0.645300  0.296900  1.0  -0.6044
  O  O954  1  0.962200  0.800200  0.309800  1.0  -0.5611
  O  O955  1  0.933600  0.500500  0.520600  1.0  -0.5233
  O  O956  1  0.967700  0.333900  0.519600  1.0  -0.6014
  O  O957  1  0.825730  0.035900  0.318500  1.0  -0.6149
  O  O958  1  0.795100  0.193800  0.294100  1.0  -0.5765
  O  O959  1  0.790300  0.059100  0.182800  1.0  -0.6128
  O  O960  1  0.771780  0.901600  0.205800  1.0  -0.5848
  O  O961  1  0.788500  0.592900  0.977700  1.0  -0.6213
  O  O962  1  0.821900  0.760600  0.976200  1.0  -0.572
  O  O963  1  0.961410  0.463100  0.200900  1.0  -0.6175
  O  O964  1  0.931500  0.304300  0.191200  1.0  -0.5738
  O  O965  1  0.486430  0.145300  0.296900  1.0  -0.6044
  O  O966  1  0.462200  0.300200  0.309800  1.0  -0.5611
  O  O967  1  0.433600  0.000500  0.520600  1.0  -0.5233
  O  O968  1  0.467700  0.833900  0.519600  1.0  -0.6014
  O  O969  1  0.325730  0.535900  0.318500  1.0  -0.6149
  O  O970  1  0.295100  0.693800  0.294100  1.0  -0.5765
  O  O971  1  0.290300  0.559100  0.182800  1.0  -0.6128
  O  O972  1  0.271780  0.401600  0.205800  1.0  -0.5848
  O  O973  1  0.288500  0.092900  0.977700  1.0  -0.6213
  O  O974  1  0.321900  0.260600  0.976200  1.0  -0.572
  O  O975  1  0.461410  0.963100  0.200900  1.0  -0.6175
  O  O976  1  0.431500  0.804300  0.191200  1.0  -0.5738
  O  O977  1  0.986430  0.354700  0.796900  1.0  -0.6058
  O  O978  1  0.962200  0.199800  0.809800  1.0  -0.5604
  O  O979  1  0.933600  0.499500  0.020600  1.0  -0.5244
  O  O980  1  0.967700  0.666100  0.019600  1.0  -0.6009
  O  O981  1  0.825730  0.964100  0.818500  1.0  -0.6151
  O  O982  1  0.795100  0.806200  0.794100  1.0  -0.5768
  O  O983  1  0.790300  0.940900  0.682800  1.0  -0.6134
  O  O984  1  0.771780  0.098400  0.705800  1.0  -0.5859
  O  O985  1  0.788500  0.407100  0.477700  1.0  -0.6221
  O  O986  1  0.821900  0.239400  0.476200  1.0  -0.5721
  O  O987  1  0.961410  0.536900  0.700900  1.0  -0.6149
  O  O988  1  0.931500  0.695700  0.691200  1.0  -0.5737
  O  O989  1  0.486430  0.854700  0.796900  1.0  -0.6058
  O  O990  1  0.462200  0.699800  0.809800  1.0  -0.5604
  O  O991  1  0.433600  0.999500  0.020600  1.0  -0.5244
  O  O992  1  0.467700  0.166100  0.019600  1.0  -0.6009
  O  O993  1  0.325730  0.464100  0.818500  1.0  -0.6151
  O  O994  1  0.295100  0.306200  0.794100  1.0  -0.5768
  O  O995  1  0.290300  0.440900  0.682800  1.0  -0.6134
  O  O996  1  0.271780  0.598400  0.705800  1.0  -0.5839
  O  O997  1  0.288500  0.907100  0.477700  1.0  -0.6221
  O  O998  1  0.321900  0.739400  0.476200  1.0  -0.5721
  O  O999  1  0.461410  0.036900  0.700900  1.0  -0.6149
  O  O1000  1  0.431500  0.195700  0.691200  1.0  -0.5737
  O  O1001  1  0.013570  0.354700  0.703100  1.0  -0.6055
  O  O1002  1  0.037800  0.199800  0.690200  1.0  -0.5598
  O  O1003  1  0.066400  0.499500  0.479400  1.0  -0.5228
  O  O1004  1  0.032300  0.666100  0.480400  1.0  -0.5976
  O  O1005  1  0.174270  0.964100  0.681500  1.0  -0.6167
  O  O1006  1  0.204900  0.806200  0.705900  1.0  -0.5773
  O  O1007  1  0.209700  0.940900  0.817200  1.0  -0.6154
  O  O1008  1  0.228220  0.098400  0.794200  1.0  -0.5821
  O  O1009  1  0.211500  0.407100  0.022300  1.0  -0.6231
  O  O1010  1  0.178100  0.239400  0.023800  1.0  -0.5724
  O  O1011  1  0.038590  0.536900  0.799100  1.0  -0.619
  O  O1012  1  0.068500  0.695700  0.808800  1.0  -0.5728
  O  O1013  1  0.513570  0.854700  0.703100  1.0  -0.6055
  O  O1014  1  0.537800  0.699800  0.690200  1.0  -0.5598
  O  O1015  1  0.566400  0.999500  0.479400  1.0  -0.5228
  O  O1016  1  0.532300  0.166100  0.480400  1.0  -0.5976
  O  O1017  1  0.674270  0.464100  0.681500  1.0  -0.6167
  O  O1018  1  0.704900  0.306200  0.705900  1.0  -0.5773
  O  O1019  1  0.709700  0.440900  0.817200  1.0  -0.6154
  O  O1020  1  0.728220  0.598400  0.794200  1.0  -0.5821
  O  O1021  1  0.711500  0.907100  0.022300  1.0  -0.6231
  O  O1022  1  0.678100  0.739400  0.023800  1.0  -0.5724
  O  O1023  1  0.538590  0.036900  0.799100  1.0  -0.619
  O  O1024  1  0.568500  0.195700  0.808800  1.0  -0.5728
