# generated using pymatgen
data_CuH15C14NO3
_symmetry_space_group_name_H-M   'P 1'
_cell_length_a   33.53750000
_cell_length_b   33.53750000
_cell_length_c   33.53750000
_cell_angle_alpha   90.00000000
_cell_angle_beta   90.00000000
_cell_angle_gamma   90.00000000
_symmetry_Int_Tables_number   1
_chemical_formula_structural   CuH15C14NO3
_chemical_formula_sum   'Cu96 H1440 C1344 N96 O288'
_cell_volume   37721.76950586
_cell_formula_units_Z   96
loop_
 _symmetry_equiv_pos_site_id
 _symmetry_equiv_pos_as_xyz
  1  'x, y, z'
loop_
 _atom_site_type_symbol
 _atom_site_label
 _atom_site_symmetry_multiplicity
 _atom_site_fract_x
 _atom_site_fract_y
 _atom_site_fract_z
 _atom_site_occupancy
 _atom_site_charge
  Cu  Cu1  1  0.063700  0.158520  0.856840  1.0  0.8943
  Cu  Cu2  1  0.563700  0.658520  0.356840  1.0  0.8943
  Cu  Cu3  1  0.436300  0.841480  0.356840  1.0  0.8934
  Cu  Cu4  1  0.936300  0.341480  0.856840  1.0  0.8934
  Cu  Cu5  1  0.936300  0.658520  0.643160  1.0  0.8948
  Cu  Cu6  1  0.436300  0.158520  0.143160  1.0  0.8948
  Cu  Cu7  1  0.563700  0.341480  0.143160  1.0  0.8952
  Cu  Cu8  1  0.063700  0.841480  0.643160  1.0  0.8952
  Cu  Cu9  1  0.856840  0.063700  0.158520  1.0  0.8923
  Cu  Cu10  1  0.356840  0.563700  0.658520  1.0  0.8923
  Cu  Cu11  1  0.356840  0.436300  0.841480  1.0  0.8913
  Cu  Cu12  1  0.856840  0.936300  0.341480  1.0  0.8913
  Cu  Cu13  1  0.643160  0.936300  0.658520  1.0  0.8927
  Cu  Cu14  1  0.143160  0.436300  0.158520  1.0  0.8927
  Cu  Cu15  1  0.143160  0.563700  0.341480  1.0  0.8938
  Cu  Cu16  1  0.643160  0.063700  0.841480  1.0  0.8938
  Cu  Cu17  1  0.158520  0.856840  0.063700  1.0  0.8936
  Cu  Cu18  1  0.658520  0.356840  0.563700  1.0  0.8936
  Cu  Cu19  1  0.841480  0.356840  0.436300  1.0  0.8921
  Cu  Cu20  1  0.341480  0.856840  0.936300  1.0  0.8921
  Cu  Cu21  1  0.658520  0.643160  0.936300  1.0  0.8936
  Cu  Cu22  1  0.158520  0.143160  0.436300  1.0  0.8936
  Cu  Cu23  1  0.341480  0.143160  0.563700  1.0  0.8935
  Cu  Cu24  1  0.841480  0.643160  0.063700  1.0  0.8935
  Cu  Cu25  1  0.908520  0.313700  0.393160  1.0  0.8958
  Cu  Cu26  1  0.408520  0.813700  0.893160  1.0  0.8958
  Cu  Cu27  1  0.591480  0.686300  0.893160  1.0  0.8948
  Cu  Cu28  1  0.091480  0.186300  0.393160  1.0  0.8948
  Cu  Cu29  1  0.408520  0.186300  0.606840  1.0  0.8938
  Cu  Cu30  1  0.908520  0.686300  0.106840  1.0  0.8938
  Cu  Cu31  1  0.091480  0.813700  0.106840  1.0  0.8947
  Cu  Cu32  1  0.591480  0.313700  0.606840  1.0  0.8947
  Cu  Cu33  1  0.813700  0.106840  0.091480  1.0  0.8925
  Cu  Cu34  1  0.313700  0.606840  0.591480  1.0  0.8925
  Cu  Cu35  1  0.186300  0.606840  0.408520  1.0  0.8917
  Cu  Cu36  1  0.686300  0.106840  0.908520  1.0  0.8917
  Cu  Cu37  1  0.686300  0.893160  0.591480  1.0  0.8926
  Cu  Cu38  1  0.186300  0.393160  0.091480  1.0  0.8926
  Cu  Cu39  1  0.313700  0.393160  0.908520  1.0  0.893
  Cu  Cu40  1  0.813700  0.893160  0.408520  1.0  0.893
  Cu  Cu41  1  0.606840  0.408520  0.186300  1.0  0.8923
  Cu  Cu42  1  0.106840  0.908520  0.686300  1.0  0.8923
  Cu  Cu43  1  0.106840  0.091480  0.813700  1.0  0.8923
  Cu  Cu44  1  0.606840  0.591480  0.313700  1.0  0.8923
  Cu  Cu45  1  0.393160  0.908520  0.313700  1.0  0.8941
  Cu  Cu46  1  0.893160  0.408520  0.813700  1.0  0.8941
  Cu  Cu47  1  0.893160  0.591480  0.686300  1.0  0.8935
  Cu  Cu48  1  0.393160  0.091480  0.186300  1.0  0.8935
  Cu  Cu49  1  0.936300  0.841480  0.143160  1.0  0.8947
  Cu  Cu50  1  0.436300  0.341480  0.643160  1.0  0.8947
  Cu  Cu51  1  0.563700  0.158520  0.643160  1.0  0.8953
  Cu  Cu52  1  0.063700  0.658520  0.143160  1.0  0.8953
  Cu  Cu53  1  0.063700  0.341480  0.356840  1.0  0.894
  Cu  Cu54  1  0.563700  0.841480  0.856840  1.0  0.894
  Cu  Cu55  1  0.436300  0.658520  0.856840  1.0  0.8937
  Cu  Cu56  1  0.936300  0.158520  0.356840  1.0  0.8937
  Cu  Cu57  1  0.143160  0.936300  0.841480  1.0  0.8929
  Cu  Cu58  1  0.643160  0.436300  0.341480  1.0  0.8929
  Cu  Cu59  1  0.643160  0.563700  0.158520  1.0  0.8937
  Cu  Cu60  1  0.143160  0.063700  0.658520  1.0  0.8937
  Cu  Cu61  1  0.356840  0.063700  0.341480  1.0  0.8923
  Cu  Cu62  1  0.856840  0.563700  0.841480  1.0  0.8923
  Cu  Cu63  1  0.856840  0.436300  0.658520  1.0  0.8912
  Cu  Cu64  1  0.356840  0.936300  0.158520  1.0  0.8912
  Cu  Cu65  1  0.841480  0.143160  0.936300  1.0  0.8933
  Cu  Cu66  1  0.341480  0.643160  0.436300  1.0  0.8933
  Cu  Cu67  1  0.158520  0.643160  0.563700  1.0  0.8938
  Cu  Cu68  1  0.658520  0.143160  0.063700  1.0  0.8938
  Cu  Cu69  1  0.341480  0.356840  0.063700  1.0  0.8932
  Cu  Cu70  1  0.841480  0.856840  0.563700  1.0  0.8932
  Cu  Cu71  1  0.658520  0.856840  0.436300  1.0  0.8925
  Cu  Cu72  1  0.158520  0.356840  0.936300  1.0  0.8925
  Cu  Cu73  1  0.091480  0.686300  0.606840  1.0  0.8935
  Cu  Cu74  1  0.591480  0.186300  0.106840  1.0  0.8935
  Cu  Cu75  1  0.408520  0.313700  0.106840  1.0  0.8951
  Cu  Cu76  1  0.908520  0.813700  0.606840  1.0  0.8951
  Cu  Cu77  1  0.591480  0.813700  0.393160  1.0  0.8955
  Cu  Cu78  1  0.091480  0.313700  0.893160  1.0  0.8955
  Cu  Cu79  1  0.908520  0.186300  0.893160  1.0  0.8951
  Cu  Cu80  1  0.408520  0.686300  0.393160  1.0  0.8951
  Cu  Cu81  1  0.186300  0.893160  0.908520  1.0  0.8924
  Cu  Cu82  1  0.686300  0.393160  0.408520  1.0  0.8924
  Cu  Cu83  1  0.813700  0.393160  0.591480  1.0  0.8931
  Cu  Cu84  1  0.313700  0.893160  0.091480  1.0  0.8931
  Cu  Cu85  1  0.313700  0.106840  0.408520  1.0  0.8923
  Cu  Cu86  1  0.813700  0.606840  0.908520  1.0  0.8923
  Cu  Cu87  1  0.686300  0.606840  0.091480  1.0  0.8919
  Cu  Cu88  1  0.186300  0.106840  0.591480  1.0  0.8919
  Cu  Cu89  1  0.393160  0.591480  0.813700  1.0  0.894
  Cu  Cu90  1  0.893160  0.091480  0.313700  1.0  0.894
  Cu  Cu91  1  0.893160  0.908520  0.186300  1.0  0.8938
  Cu  Cu92  1  0.393160  0.408520  0.686300  1.0  0.8938
  Cu  Cu93  1  0.606840  0.091480  0.686300  1.0  0.8918
  Cu  Cu94  1  0.106840  0.591480  0.186300  1.0  0.8918
  Cu  Cu95  1  0.106840  0.408520  0.313700  1.0  0.8926
  Cu  Cu96  1  0.606840  0.908520  0.813700  1.0  0.8926
  H  H97  1  0.022500  0.051900  0.810100  1.0  0.1124
  H  H98  1  0.962900  0.021900  0.827400  1.0  0.1075
  H  H99  1  0.934400  0.034100  0.889400  1.0  0.1032
  H  H100  1  0.965900  0.076700  0.933900  1.0  0.0908
  H  H101  1  0.019400  0.118500  0.953000  1.0  0.0737
  H  H102  1  0.060700  0.104800  0.934600  1.0  0.0696
  H  H103  1  0.019100  0.167500  0.908600  1.0  0.1967
  H  H104  1  0.032800  0.223500  0.973000  1.0  0.0712
  H  H105  1  0.026700  0.177600  0.983400  1.0  0.0705
  H  H106  1  0.070300  0.196000  0.032000  1.0  0.0809
  H  H107  1  0.094000  0.225400  0.002800  1.0  0.138
  H  H108  1  0.133500  0.166800  0.001700  1.0  0.1035
  H  H109  1  0.095100  0.139000  0.998600  1.0  0.0767
  H  H110  1  0.111200  0.143000  0.932800  1.0  0.0715
  H  H111  1  0.128200  0.187200  0.937300  1.0  0.1167
  H  H112  1  0.522500  0.551900  0.310100  1.0  0.1124
  H  H113  1  0.462900  0.521900  0.327400  1.0  0.1075
  H  H114  1  0.434400  0.534100  0.389400  1.0  0.1032
  H  H115  1  0.465900  0.576700  0.433900  1.0  0.0908
  H  H116  1  0.519400  0.618500  0.453000  1.0  0.0737
  H  H117  1  0.560700  0.604800  0.434600  1.0  0.0696
  H  H118  1  0.519100  0.667500  0.408600  1.0  0.1967
  H  H119  1  0.532800  0.723500  0.473000  1.0  0.0712
  H  H120  1  0.526700  0.677600  0.483400  1.0  0.0705
  H  H121  1  0.570300  0.696000  0.532000  1.0  0.0809
  H  H122  1  0.594000  0.725400  0.502800  1.0  0.138
  H  H123  1  0.633500  0.666800  0.501700  1.0  0.1035
  H  H124  1  0.595100  0.639000  0.498600  1.0  0.0767
  H  H125  1  0.611200  0.643000  0.432800  1.0  0.0715
  H  H126  1  0.628200  0.687200  0.437300  1.0  0.1167
  H  H127  1  0.477500  0.948100  0.310100  1.0  0.1124
  H  H128  1  0.537100  0.978100  0.327400  1.0  0.1079
  H  H129  1  0.565600  0.965900  0.389400  1.0  0.1037
  H  H130  1  0.534100  0.923300  0.433900  1.0  0.0904
  H  H131  1  0.480600  0.881500  0.453000  1.0  0.0738
  H  H132  1  0.439300  0.895200  0.434600  1.0  0.0686
  H  H133  1  0.480900  0.832500  0.408600  1.0  0.1977
  H  H134  1  0.467200  0.776500  0.473000  1.0  0.072
  H  H135  1  0.473300  0.822400  0.483400  1.0  0.0692
  H  H136  1  0.429700  0.804000  0.532000  1.0  0.0804
  H  H137  1  0.406000  0.774600  0.502800  1.0  0.1399
  H  H138  1  0.366500  0.833200  0.501700  1.0  0.1048
  H  H139  1  0.404900  0.861000  0.498600  1.0  0.0746
  H  H140  1  0.388800  0.857000  0.432800  1.0  0.0713
  H  H141  1  0.371800  0.812800  0.437300  1.0  0.1139
  H  H142  1  0.977500  0.448100  0.810100  1.0  0.1124
  H  H143  1  0.037100  0.478100  0.827400  1.0  0.1079
  H  H144  1  0.065600  0.465900  0.889400  1.0  0.1037
  H  H145  1  0.034100  0.423300  0.933900  1.0  0.0904
  H  H146  1  0.980600  0.381500  0.953000  1.0  0.0738
  H  H147  1  0.939300  0.395200  0.934600  1.0  0.0686
  H  H148  1  0.980900  0.332500  0.908600  1.0  0.1977
  H  H149  1  0.967200  0.276500  0.973000  1.0  0.072
  H  H150  1  0.973300  0.322400  0.983400  1.0  0.0692
  H  H151  1  0.929700  0.304000  0.032000  1.0  0.0804
  H  H152  1  0.906000  0.274600  0.002800  1.0  0.1399
  H  H153  1  0.866500  0.333200  0.001700  1.0  0.1048
  H  H154  1  0.904900  0.361000  0.998600  1.0  0.0746
  H  H155  1  0.888800  0.357000  0.932800  1.0  0.0713
  H  H156  1  0.871800  0.312800  0.937300  1.0  0.1139
  H  H157  1  0.977500  0.551900  0.689900  1.0  0.112
  H  H158  1  0.037100  0.521900  0.672600  1.0  0.1077
  H  H159  1  0.065600  0.534100  0.610600  1.0  0.1035
  H  H160  1  0.034100  0.576700  0.566100  1.0  0.0916
  H  H161  1  0.980600  0.618500  0.547000  1.0  0.0735
  H  H162  1  0.939300  0.604800  0.565400  1.0  0.0686
  H  H163  1  0.980900  0.667500  0.591400  1.0  0.1984
  H  H164  1  0.967200  0.723500  0.527000  1.0  0.0707
  H  H165  1  0.973300  0.677600  0.516600  1.0  0.0699
  H  H166  1  0.929700  0.696000  0.468000  1.0  0.0813
  H  H167  1  0.906000  0.725400  0.497200  1.0  0.1393
  H  H168  1  0.866500  0.666800  0.498300  1.0  0.1017
  H  H169  1  0.904900  0.639000  0.501400  1.0  0.0735
  H  H170  1  0.888800  0.643000  0.567200  1.0  0.0709
  H  H171  1  0.871800  0.687200  0.562700  1.0  0.1146
  H  H172  1  0.477500  0.051900  0.189900  1.0  0.112
  H  H173  1  0.537100  0.021900  0.172600  1.0  0.1077
  H  H174  1  0.565600  0.034100  0.110600  1.0  0.1035
  H  H175  1  0.534100  0.076700  0.066100  1.0  0.0916
  H  H176  1  0.480600  0.118500  0.047000  1.0  0.0735
  H  H177  1  0.439300  0.104800  0.065400  1.0  0.0686
  H  H178  1  0.480900  0.167500  0.091400  1.0  0.1984
  H  H179  1  0.467200  0.223500  0.027000  1.0  0.0707
  H  H180  1  0.473300  0.177600  0.016600  1.0  0.0699
  H  H181  1  0.429700  0.196000  0.968000  1.0  0.0813
  H  H182  1  0.406000  0.225400  0.997200  1.0  0.1393
  H  H183  1  0.366500  0.166800  0.998300  1.0  0.1017
  H  H184  1  0.404900  0.139000  0.001400  1.0  0.0735
  H  H185  1  0.388800  0.143000  0.067200  1.0  0.0709
  H  H186  1  0.371800  0.187200  0.062700  1.0  0.1146
  H  H187  1  0.522500  0.448100  0.189900  1.0  0.1127
  H  H188  1  0.462900  0.478100  0.172600  1.0  0.1076
  H  H189  1  0.434400  0.465900  0.110600  1.0  0.1038
  H  H190  1  0.465900  0.423300  0.066100  1.0  0.0914
  H  H191  1  0.519400  0.381500  0.047000  1.0  0.0746
  H  H192  1  0.560700  0.395200  0.065400  1.0  0.0682
  H  H193  1  0.519100  0.332500  0.091400  1.0  0.1959
  H  H194  1  0.532800  0.276500  0.027000  1.0  0.0713
  H  H195  1  0.526700  0.322400  0.016600  1.0  0.0697
  H  H196  1  0.570300  0.304000  0.968000  1.0  0.0804
  H  H197  1  0.594000  0.274600  0.997200  1.0  0.1418
  H  H198  1  0.633500  0.333200  0.998300  1.0  0.1036
  H  H199  1  0.595100  0.361000  0.001400  1.0  0.0775
  H  H200  1  0.611200  0.357000  0.067200  1.0  0.071
  H  H201  1  0.628200  0.312800  0.062700  1.0  0.1157
  H  H202  1  0.022500  0.948100  0.689900  1.0  0.1127
  H  H203  1  0.962900  0.978100  0.672600  1.0  0.1076
  H  H204  1  0.934400  0.965900  0.610600  1.0  0.1038
  H  H205  1  0.965900  0.923300  0.566100  1.0  0.0914
  H  H206  1  0.019400  0.881500  0.547000  1.0  0.0746
  H  H207  1  0.060700  0.895200  0.565400  1.0  0.0682
  H  H208  1  0.019100  0.832500  0.591400  1.0  0.1959
  H  H209  1  0.032800  0.776500  0.527000  1.0  0.0713
  H  H210  1  0.026700  0.822400  0.516600  1.0  0.0697
  H  H211  1  0.070300  0.804000  0.468000  1.0  0.0804
  H  H212  1  0.094000  0.774600  0.497200  1.0  0.1418
  H  H213  1  0.133500  0.833200  0.498300  1.0  0.1036
  H  H214  1  0.095100  0.861000  0.501400  1.0  0.0775
  H  H215  1  0.111200  0.857000  0.567200  1.0  0.071
  H  H216  1  0.128200  0.812800  0.562700  1.0  0.1157
  H  H217  1  0.810100  0.022500  0.051900  1.0  0.1112
  H  H218  1  0.827400  0.962900  0.021900  1.0  0.1078
  H  H219  1  0.889400  0.934400  0.034100  1.0  0.1014
  H  H220  1  0.933900  0.965900  0.076700  1.0  0.0904
  H  H221  1  0.953000  0.019400  0.118500  1.0  0.0759
  H  H222  1  0.934600  0.060700  0.104800  1.0  0.0703
  H  H223  1  0.908600  0.019100  0.167500  1.0  0.1937
  H  H224  1  0.973000  0.032800  0.223500  1.0  0.0709
  H  H225  1  0.983400  0.026700  0.177600  1.0  0.0685
  H  H226  1  0.032000  0.070300  0.196000  1.0  0.0789
  H  H227  1  0.002800  0.094000  0.225400  1.0  0.1401
  H  H228  1  0.001700  0.133500  0.166800  1.0  0.0982
  H  H229  1  0.998600  0.095100  0.139000  1.0  0.074
  H  H230  1  0.932800  0.111200  0.143000  1.0  0.0721
  H  H231  1  0.937300  0.128200  0.187200  1.0  0.1181
  H  H232  1  0.310100  0.522500  0.551900  1.0  0.1112
  H  H233  1  0.327400  0.462900  0.521900  1.0  0.1078
  H  H234  1  0.389400  0.434400  0.534100  1.0  0.1014
  H  H235  1  0.433900  0.465900  0.576700  1.0  0.0904
  H  H236  1  0.453000  0.519400  0.618500  1.0  0.0759
  H  H237  1  0.434600  0.560700  0.604800  1.0  0.0703
  H  H238  1  0.408600  0.519100  0.667500  1.0  0.1937
  H  H239  1  0.473000  0.532800  0.723500  1.0  0.0709
  H  H240  1  0.483400  0.526700  0.677600  1.0  0.0685
  H  H241  1  0.532000  0.570300  0.696000  1.0  0.0789
  H  H242  1  0.502800  0.594000  0.725400  1.0  0.1401
  H  H243  1  0.501700  0.633500  0.666800  1.0  0.0982
  H  H244  1  0.498600  0.595100  0.639000  1.0  0.074
  H  H245  1  0.432800  0.611200  0.643000  1.0  0.0721
  H  H246  1  0.437300  0.628200  0.687200  1.0  0.1181
  H  H247  1  0.310100  0.477500  0.948100  1.0  0.1113
  H  H248  1  0.327400  0.537100  0.978100  1.0  0.1082
  H  H249  1  0.389400  0.565600  0.965900  1.0  0.1016
  H  H250  1  0.433900  0.534100  0.923300  1.0  0.0908
  H  H251  1  0.453000  0.480600  0.881500  1.0  0.0743
  H  H252  1  0.434600  0.439300  0.895200  1.0  0.0709
  H  H253  1  0.408600  0.480900  0.832500  1.0  0.1932
  H  H254  1  0.473000  0.467200  0.776500  1.0  0.0709
  H  H255  1  0.483400  0.473300  0.822400  1.0  0.0687
  H  H256  1  0.532000  0.429700  0.804000  1.0  0.0784
  H  H257  1  0.502800  0.406000  0.774600  1.0  0.1386
  H  H258  1  0.501700  0.366500  0.833200  1.0  0.0985
  H  H259  1  0.498600  0.404900  0.861000  1.0  0.0729
  H  H260  1  0.432800  0.388800  0.857000  1.0  0.0737
  H  H261  1  0.437300  0.371800  0.812800  1.0  0.1167
  H  H262  1  0.810100  0.977500  0.448100  1.0  0.1113
  H  H263  1  0.827400  0.037100  0.478100  1.0  0.1082
  H  H264  1  0.889400  0.065600  0.465900  1.0  0.1016
  H  H265  1  0.933900  0.034100  0.423300  1.0  0.0908
  H  H266  1  0.953000  0.980600  0.381500  1.0  0.0743
  H  H267  1  0.934600  0.939300  0.395200  1.0  0.0709
  H  H268  1  0.908600  0.980900  0.332500  1.0  0.1932
  H  H269  1  0.973000  0.967200  0.276500  1.0  0.0709
  H  H270  1  0.983400  0.973300  0.322400  1.0  0.0687
  H  H271  1  0.032000  0.929700  0.304000  1.0  0.0784
  H  H272  1  0.002800  0.906000  0.274600  1.0  0.1386
  H  H273  1  0.001700  0.866500  0.333200  1.0  0.0985
  H  H274  1  0.998600  0.904900  0.361000  1.0  0.0729
  H  H275  1  0.932800  0.888800  0.357000  1.0  0.0737
  H  H276  1  0.937300  0.871800  0.312800  1.0  0.1167
  H  H277  1  0.689900  0.977500  0.551900  1.0  0.1121
  H  H278  1  0.672600  0.037100  0.521900  1.0  0.1082
  H  H279  1  0.610600  0.065600  0.534100  1.0  0.1024
  H  H280  1  0.566100  0.034100  0.576700  1.0  0.0907
  H  H281  1  0.547000  0.980600  0.618500  1.0  0.0764
  H  H282  1  0.565400  0.939300  0.604800  1.0  0.0701
  H  H283  1  0.591400  0.980900  0.667500  1.0  0.1918
  H  H284  1  0.527000  0.967200  0.723500  1.0  0.0702
  H  H285  1  0.516600  0.973300  0.677600  1.0  0.0691
  H  H286  1  0.468000  0.929700  0.696000  1.0  0.0814
  H  H287  1  0.497200  0.906000  0.725400  1.0  0.1403
  H  H288  1  0.498300  0.866500  0.666800  1.0  0.0976
  H  H289  1  0.501400  0.904900  0.639000  1.0  0.0732
  H  H290  1  0.567200  0.888800  0.643000  1.0  0.0719
  H  H291  1  0.562700  0.871800  0.687200  1.0  0.1163
  H  H292  1  0.189900  0.477500  0.051900  1.0  0.1121
  H  H293  1  0.172600  0.537100  0.021900  1.0  0.1082
  H  H294  1  0.110600  0.565600  0.034100  1.0  0.1024
  H  H295  1  0.066100  0.534100  0.076700  1.0  0.0907
  H  H296  1  0.047000  0.480600  0.118500  1.0  0.0764
  H  H297  1  0.065400  0.439300  0.104800  1.0  0.0701
  H  H298  1  0.091400  0.480900  0.167500  1.0  0.1918
  H  H299  1  0.027000  0.467200  0.223500  1.0  0.0702
  H  H300  1  0.016600  0.473300  0.177600  1.0  0.0691
  H  H301  1  0.968000  0.429700  0.196000  1.0  0.0814
  H  H302  1  0.997200  0.406000  0.225400  1.0  0.1403
  H  H303  1  0.998300  0.366500  0.166800  1.0  0.0976
  H  H304  1  0.001400  0.404900  0.139000  1.0  0.0732
  H  H305  1  0.067200  0.388800  0.143000  1.0  0.0719
  H  H306  1  0.062700  0.371800  0.187200  1.0  0.1163
  H  H307  1  0.189900  0.522500  0.448100  1.0  0.1121
  H  H308  1  0.172600  0.462900  0.478100  1.0  0.1075
  H  H309  1  0.110600  0.434400  0.465900  1.0  0.1021
  H  H310  1  0.066100  0.465900  0.423300  1.0  0.0909
  H  H311  1  0.047000  0.519400  0.381500  1.0  0.0773
  H  H312  1  0.065400  0.560700  0.395200  1.0  0.0698
  H  H313  1  0.091400  0.519100  0.332500  1.0  0.1901
  H  H314  1  0.027000  0.532800  0.276500  1.0  0.0714
  H  H315  1  0.016600  0.526700  0.322400  1.0  0.0711
  H  H316  1  0.968000  0.570300  0.304000  1.0  0.0808
  H  H317  1  0.997200  0.594000  0.274600  1.0  0.1394
  H  H318  1  0.998300  0.633500  0.333200  1.0  0.1004
  H  H319  1  0.001400  0.595100  0.361000  1.0  0.073
  H  H320  1  0.067200  0.611200  0.357000  1.0  0.071
  H  H321  1  0.062700  0.628200  0.312800  1.0  0.115
  H  H322  1  0.689900  0.022500  0.948100  1.0  0.1121
  H  H323  1  0.672600  0.962900  0.978100  1.0  0.1075
  H  H324  1  0.610600  0.934400  0.965900  1.0  0.1021
  H  H325  1  0.566100  0.965900  0.923300  1.0  0.0909
  H  H326  1  0.547000  0.019400  0.881500  1.0  0.0773
  H  H327  1  0.565400  0.060700  0.895200  1.0  0.0698
  H  H328  1  0.591400  0.019100  0.832500  1.0  0.1901
  H  H329  1  0.527000  0.032800  0.776500  1.0  0.0714
  H  H330  1  0.516600  0.026700  0.822400  1.0  0.0711
  H  H331  1  0.468000  0.070300  0.804000  1.0  0.0808
  H  H332  1  0.497200  0.094000  0.774600  1.0  0.1394
  H  H333  1  0.498300  0.133500  0.833200  1.0  0.1004
  H  H334  1  0.501400  0.095100  0.861000  1.0  0.073
  H  H335  1  0.567200  0.111200  0.857000  1.0  0.071
  H  H336  1  0.562700  0.128200  0.812800  1.0  0.115
  H  H337  1  0.051900  0.810100  0.022500  1.0  0.1113
  H  H338  1  0.021900  0.827400  0.962900  1.0  0.107
  H  H339  1  0.034100  0.889400  0.934400  1.0  0.1018
  H  H340  1  0.076700  0.933900  0.965900  1.0  0.0897
  H  H341  1  0.118500  0.953000  0.019400  1.0  0.0749
  H  H342  1  0.104800  0.934600  0.060700  1.0  0.0717
  H  H343  1  0.167500  0.908600  0.019100  1.0  0.1917
  H  H344  1  0.223500  0.973000  0.032800  1.0  0.0669
  H  H345  1  0.177600  0.983400  0.026700  1.0  0.0704
  H  H346  1  0.196000  0.032000  0.070300  1.0  0.082
  H  H347  1  0.225400  0.002800  0.094000  1.0  0.1369
  H  H348  1  0.166800  0.001700  0.133500  1.0  0.1023
  H  H349  1  0.139000  0.998600  0.095100  1.0  0.0788
  H  H350  1  0.143000  0.932800  0.111200  1.0  0.0725
  H  H351  1  0.187200  0.937300  0.128200  1.0  0.1158
  H  H352  1  0.551900  0.310100  0.522500  1.0  0.1113
  H  H353  1  0.521900  0.327400  0.462900  1.0  0.107
  H  H354  1  0.534100  0.389400  0.434400  1.0  0.1018
  H  H355  1  0.576700  0.433900  0.465900  1.0  0.0897
  H  H356  1  0.618500  0.453000  0.519400  1.0  0.0749
  H  H357  1  0.604800  0.434600  0.560700  1.0  0.0717
  H  H358  1  0.667500  0.408600  0.519100  1.0  0.1917
  H  H359  1  0.723500  0.473000  0.532800  1.0  0.0669
  H  H360  1  0.677600  0.483400  0.526700  1.0  0.0704
  H  H361  1  0.696000  0.532000  0.570300  1.0  0.082
  H  H362  1  0.725400  0.502800  0.594000  1.0  0.1369
  H  H363  1  0.666800  0.501700  0.633500  1.0  0.1023
  H  H364  1  0.639000  0.498600  0.595100  1.0  0.0788
  H  H365  1  0.643000  0.432800  0.611200  1.0  0.0725
  H  H366  1  0.687200  0.437300  0.628200  1.0  0.1158
  H  H367  1  0.948100  0.310100  0.477500  1.0  0.1111
  H  H368  1  0.978100  0.327400  0.537100  1.0  0.1075
  H  H369  1  0.965900  0.389400  0.565600  1.0  0.1016
  H  H370  1  0.923300  0.433900  0.534100  1.0  0.0898
  H  H371  1  0.881500  0.453000  0.480600  1.0  0.0728
  H  H372  1  0.895200  0.434600  0.439300  1.0  0.072
  H  H373  1  0.832500  0.408600  0.480900  1.0  0.1929
  H  H374  1  0.776500  0.473000  0.467200  1.0  0.0663
  H  H375  1  0.822400  0.483400  0.473300  1.0  0.0687
  H  H376  1  0.804000  0.532000  0.429700  1.0  0.0807
  H  H377  1  0.774600  0.502800  0.406000  1.0  0.1339
  H  H378  1  0.833200  0.501700  0.366500  1.0  0.1036
  H  H379  1  0.861000  0.498600  0.404900  1.0  0.078
  H  H380  1  0.857000  0.432800  0.388800  1.0  0.0727
  H  H381  1  0.812800  0.437300  0.371800  1.0  0.116
  H  H382  1  0.448100  0.810100  0.977500  1.0  0.1111
  H  H383  1  0.478100  0.827400  0.037100  1.0  0.1075
  H  H384  1  0.465900  0.889400  0.065600  1.0  0.1016
  H  H385  1  0.423300  0.933900  0.034100  1.0  0.0898
  H  H386  1  0.381500  0.953000  0.980600  1.0  0.0728
  H  H387  1  0.395200  0.934600  0.939300  1.0  0.072
  H  H388  1  0.332500  0.908600  0.980900  1.0  0.1929
  H  H389  1  0.276500  0.973000  0.967200  1.0  0.0663
  H  H390  1  0.322400  0.983400  0.973300  1.0  0.0687
  H  H391  1  0.304000  0.032000  0.929700  1.0  0.0807
  H  H392  1  0.274600  0.002800  0.906000  1.0  0.1339
  H  H393  1  0.333200  0.001700  0.866500  1.0  0.1036
  H  H394  1  0.361000  0.998600  0.904900  1.0  0.078
  H  H395  1  0.357000  0.932800  0.888800  1.0  0.0727
  H  H396  1  0.312800  0.937300  0.871800  1.0  0.116
  H  H397  1  0.551900  0.689900  0.977500  1.0  0.1121
  H  H398  1  0.521900  0.672600  0.037100  1.0  0.1079
  H  H399  1  0.534100  0.610600  0.065600  1.0  0.1016
  H  H400  1  0.576700  0.566100  0.034100  1.0  0.0891
  H  H401  1  0.618500  0.547000  0.980600  1.0  0.075
  H  H402  1  0.604800  0.565400  0.939300  1.0  0.0719
  H  H403  1  0.667500  0.591400  0.980900  1.0  0.1918
  H  H404  1  0.723500  0.527000  0.967200  1.0  0.0664
  H  H405  1  0.677600  0.516600  0.973300  1.0  0.0709
  H  H406  1  0.696000  0.468000  0.929700  1.0  0.0817
  H  H407  1  0.725400  0.497200  0.906000  1.0  0.1377
  H  H408  1  0.666800  0.498300  0.866500  1.0  0.1017
  H  H409  1  0.639000  0.501400  0.904900  1.0  0.0769
  H  H410  1  0.643000  0.567200  0.888800  1.0  0.0706
  H  H411  1  0.687200  0.562700  0.871800  1.0  0.1148
  H  H412  1  0.051900  0.189900  0.477500  1.0  0.1121
  H  H413  1  0.021900  0.172600  0.537100  1.0  0.1079
  H  H414  1  0.034100  0.110600  0.565600  1.0  0.1016
  H  H415  1  0.076700  0.066100  0.534100  1.0  0.0891
  H  H416  1  0.118500  0.047000  0.480600  1.0  0.075
  H  H417  1  0.104800  0.065400  0.439300  1.0  0.0719
  H  H418  1  0.167500  0.091400  0.480900  1.0  0.1918
  H  H419  1  0.223500  0.027000  0.467200  1.0  0.0664
  H  H420  1  0.177600  0.016600  0.473300  1.0  0.0709
  H  H421  1  0.196000  0.968000  0.429700  1.0  0.0817
  H  H422  1  0.225400  0.997200  0.406000  1.0  0.1377
  H  H423  1  0.166800  0.998300  0.366500  1.0  0.1017
  H  H424  1  0.139000  0.001400  0.404900  1.0  0.0769
  H  H425  1  0.143000  0.067200  0.388800  1.0  0.0706
  H  H426  1  0.187200  0.062700  0.371800  1.0  0.1148
  H  H427  1  0.448100  0.189900  0.522500  1.0  0.1117
  H  H428  1  0.478100  0.172600  0.462900  1.0  0.1073
  H  H429  1  0.465900  0.110600  0.434400  1.0  0.1022
  H  H430  1  0.423300  0.066100  0.465900  1.0  0.0899
  H  H431  1  0.381500  0.047000  0.519400  1.0  0.0748
  H  H432  1  0.395200  0.065400  0.560700  1.0  0.0717
  H  H433  1  0.332500  0.091400  0.519100  1.0  0.1942
  H  H434  1  0.276500  0.027000  0.532800  1.0  0.067
  H  H435  1  0.322400  0.016600  0.526700  1.0  0.069
  H  H436  1  0.304000  0.968000  0.570300  1.0  0.0813
  H  H437  1  0.274600  0.997200  0.594000  1.0  0.1347
  H  H438  1  0.333200  0.998300  0.633500  1.0  0.1009
  H  H439  1  0.361000  0.001400  0.595100  1.0  0.0783
  H  H440  1  0.357000  0.067200  0.611200  1.0  0.0717
  H  H441  1  0.312800  0.062700  0.628200  1.0  0.1167
  H  H442  1  0.948100  0.689900  0.022500  1.0  0.1117
  H  H443  1  0.978100  0.672600  0.962900  1.0  0.1073
  H  H444  1  0.965900  0.610600  0.934400  1.0  0.1022
  H  H445  1  0.923300  0.566100  0.965900  1.0  0.0899
  H  H446  1  0.881500  0.547000  0.019400  1.0  0.0748
  H  H447  1  0.895200  0.565400  0.060700  1.0  0.0717
  H  H448  1  0.832500  0.591400  0.019100  1.0  0.1942
  H  H449  1  0.776500  0.527000  0.032800  1.0  0.067
  H  H450  1  0.822400  0.516600  0.026700  1.0  0.069
  H  H451  1  0.804000  0.468000  0.070300  1.0  0.0813
  H  H452  1  0.774600  0.497200  0.094000  1.0  0.1347
  H  H453  1  0.833200  0.498300  0.133500  1.0  0.1009
  H  H454  1  0.861000  0.501400  0.095100  1.0  0.0783
  H  H455  1  0.857000  0.567200  0.111200  1.0  0.0717
  H  H456  1  0.812800  0.562700  0.128200  1.0  0.1167
  H  H457  1  0.801900  0.272500  0.439900  1.0  0.1121
  H  H458  1  0.771900  0.212900  0.422600  1.0  0.1084
  H  H459  1  0.784100  0.184400  0.360600  1.0  0.1015
  H  H460  1  0.826700  0.215900  0.316100  1.0  0.0917
  H  H461  1  0.868500  0.269400  0.297000  1.0  0.0752
  H  H462  1  0.854800  0.310700  0.315400  1.0  0.0705
  H  H463  1  0.917500  0.269100  0.341400  1.0  0.1934
  H  H464  1  0.973500  0.282800  0.277000  1.0  0.0683
  H  H465  1  0.927600  0.276700  0.266600  1.0  0.0692
  H  H466  1  0.946000  0.320300  0.218000  1.0  0.0814
  H  H467  1  0.975400  0.344000  0.247200  1.0  0.1394
  H  H468  1  0.916800  0.383500  0.248300  1.0  0.1021
  H  H469  1  0.889000  0.345100  0.251400  1.0  0.0747
  H  H470  1  0.893000  0.361200  0.317200  1.0  0.0707
  H  H471  1  0.937200  0.378200  0.312700  1.0  0.1122
  H  H472  1  0.301900  0.772500  0.939900  1.0  0.1121
  H  H473  1  0.271900  0.712900  0.922600  1.0  0.1084
  H  H474  1  0.284100  0.684400  0.860600  1.0  0.1015
  H  H475  1  0.326700  0.715900  0.816100  1.0  0.0917
  H  H476  1  0.368500  0.769400  0.797000  1.0  0.0752
  H  H477  1  0.354800  0.810700  0.815400  1.0  0.0705
  H  H478  1  0.417500  0.769100  0.841400  1.0  0.1934
  H  H479  1  0.473500  0.782800  0.777000  1.0  0.0683
  H  H480  1  0.427600  0.776700  0.766600  1.0  0.0692
  H  H481  1  0.446000  0.820300  0.718000  1.0  0.0814
  H  H482  1  0.475400  0.844000  0.747200  1.0  0.1394
  H  H483  1  0.416800  0.883500  0.748300  1.0  0.1021
  H  H484  1  0.389000  0.845100  0.751400  1.0  0.0747
  H  H485  1  0.393000  0.861200  0.817200  1.0  0.0707
  H  H486  1  0.437200  0.878200  0.812700  1.0  0.1122
  H  H487  1  0.698100  0.727500  0.939900  1.0  0.1119
  H  H488  1  0.728100  0.787100  0.922600  1.0  0.1083
  H  H489  1  0.715900  0.815600  0.860600  1.0  0.1028
  H  H490  1  0.673300  0.784100  0.816100  1.0  0.0921
  H  H491  1  0.631500  0.730600  0.797000  1.0  0.0757
  H  H492  1  0.645200  0.689300  0.815400  1.0  0.0702
  H  H493  1  0.582500  0.730900  0.841400  1.0  0.1951
  H  H494  1  0.526500  0.717200  0.777000  1.0  0.0671
  H  H495  1  0.572400  0.723300  0.766600  1.0  0.0692
  H  H496  1  0.554000  0.679700  0.718000  1.0  0.0811
  H  H497  1  0.524600  0.656000  0.747200  1.0  0.1373
  H  H498  1  0.583200  0.616500  0.748300  1.0  0.0986
  H  H499  1  0.611000  0.654900  0.751400  1.0  0.0774
  H  H500  1  0.607000  0.638800  0.817200  1.0  0.071
  H  H501  1  0.562800  0.621800  0.812700  1.0  0.1144
  H  H502  1  0.198100  0.227500  0.439900  1.0  0.1119
  H  H503  1  0.228100  0.287100  0.422600  1.0  0.1083
  H  H504  1  0.215900  0.315600  0.360600  1.0  0.1028
  H  H505  1  0.173300  0.284100  0.316100  1.0  0.0921
  H  H506  1  0.131500  0.230600  0.297000  1.0  0.0757
  H  H507  1  0.145200  0.189300  0.315400  1.0  0.0702
  H  H508  1  0.082500  0.230900  0.341400  1.0  0.1951
  H  H509  1  0.026500  0.217200  0.277000  1.0  0.0671
  H  H510  1  0.072400  0.223300  0.266600  1.0  0.0692
  H  H511  1  0.054000  0.179700  0.218000  1.0  0.0811
  H  H512  1  0.024600  0.156000  0.247200  1.0  0.1373
  H  H513  1  0.083200  0.116500  0.248300  1.0  0.0986
  H  H514  1  0.111000  0.154900  0.251400  1.0  0.0774
  H  H515  1  0.107000  0.138800  0.317200  1.0  0.071
  H  H516  1  0.062800  0.121800  0.312700  1.0  0.1144
  H  H517  1  0.301900  0.227500  0.560100  1.0  0.1126
  H  H518  1  0.271900  0.287100  0.577400  1.0  0.1086
  H  H519  1  0.284100  0.315600  0.639400  1.0  0.1023
  H  H520  1  0.326700  0.284100  0.683900  1.0  0.0908
  H  H521  1  0.368500  0.230600  0.703000  1.0  0.0741
  H  H522  1  0.354800  0.189300  0.684600  1.0  0.0715
  H  H523  1  0.417500  0.230900  0.658600  1.0  0.1939
  H  H524  1  0.473500  0.217200  0.723000  1.0  0.0688
  H  H525  1  0.427600  0.223300  0.733400  1.0  0.0689
  H  H526  1  0.446000  0.179700  0.782000  1.0  0.0807
  H  H527  1  0.475400  0.156000  0.752800  1.0  0.1398
  H  H528  1  0.416800  0.116500  0.751700  1.0  0.1009
  H  H529  1  0.389000  0.154900  0.748600  1.0  0.0761
  H  H530  1  0.393000  0.138800  0.682800  1.0  0.0719
  H  H531  1  0.437200  0.121800  0.687300  1.0  0.1123
  H  H532  1  0.801900  0.727500  0.060100  1.0  0.1126
  H  H533  1  0.771900  0.787100  0.077400  1.0  0.1086
  H  H534  1  0.784100  0.815600  0.139400  1.0  0.1023
  H  H535  1  0.826700  0.784100  0.183900  1.0  0.0908
  H  H536  1  0.868500  0.730600  0.203000  1.0  0.0741
  H  H537  1  0.854800  0.689300  0.184600  1.0  0.0715
  H  H538  1  0.917500  0.730900  0.158600  1.0  0.1939
  H  H539  1  0.973500  0.717200  0.223000  1.0  0.0688
  H  H540  1  0.927600  0.723300  0.233400  1.0  0.0689
  H  H541  1  0.946000  0.679700  0.282000  1.0  0.0807
  H  H542  1  0.975400  0.656000  0.252800  1.0  0.1398
  H  H543  1  0.916800  0.616500  0.251700  1.0  0.1009
  H  H544  1  0.889000  0.654900  0.248600  1.0  0.0761
  H  H545  1  0.893000  0.638800  0.182800  1.0  0.0719
  H  H546  1  0.937200  0.621800  0.187300  1.0  0.1123
  H  H547  1  0.198100  0.772500  0.060100  1.0  0.112
  H  H548  1  0.228100  0.712900  0.077400  1.0  0.1078
  H  H549  1  0.215900  0.684400  0.139400  1.0  0.102
  H  H550  1  0.173300  0.715900  0.183900  1.0  0.091
  H  H551  1  0.131500  0.769400  0.203000  1.0  0.0749
  H  H552  1  0.145200  0.810700  0.184600  1.0  0.0701
  H  H553  1  0.082500  0.769100  0.158600  1.0  0.1943
  H  H554  1  0.026500  0.782800  0.223000  1.0  0.0693
  H  H555  1  0.072400  0.776700  0.233400  1.0  0.0692
  H  H556  1  0.054000  0.820300  0.282000  1.0  0.0812
  H  H557  1  0.024600  0.844000  0.252800  1.0  0.1359
  H  H558  1  0.083200  0.883500  0.251700  1.0  0.0994
  H  H559  1  0.111000  0.845100  0.248600  1.0  0.076
  H  H560  1  0.107000  0.861200  0.182800  1.0  0.0715
  H  H561  1  0.062800  0.878200  0.187300  1.0  0.115
  H  H562  1  0.698100  0.272500  0.560100  1.0  0.112
  H  H563  1  0.728100  0.212900  0.577400  1.0  0.1078
  H  H564  1  0.715900  0.184400  0.639400  1.0  0.102
  H  H565  1  0.673300  0.215900  0.683900  1.0  0.091
  H  H566  1  0.631500  0.269400  0.703000  1.0  0.0749
  H  H567  1  0.645200  0.310700  0.684600  1.0  0.0701
  H  H568  1  0.582500  0.269100  0.658600  1.0  0.1943
  H  H569  1  0.526500  0.282800  0.723000  1.0  0.0693
  H  H570  1  0.572400  0.276700  0.733400  1.0  0.0692
  H  H571  1  0.554000  0.320300  0.782000  1.0  0.0812
  H  H572  1  0.524600  0.344000  0.752800  1.0  0.1359
  H  H573  1  0.583200  0.383500  0.751700  1.0  0.0994
  H  H574  1  0.611000  0.345100  0.748600  1.0  0.076
  H  H575  1  0.607000  0.361200  0.682800  1.0  0.0715
  H  H576  1  0.562800  0.378200  0.687300  1.0  0.115
  H  H577  1  0.772500  0.060100  0.198100  1.0  0.1115
  H  H578  1  0.712900  0.077400  0.228100  1.0  0.1074
  H  H579  1  0.684400  0.139400  0.215900  1.0  0.1012
  H  H580  1  0.715900  0.183900  0.173300  1.0  0.0911
  H  H581  1  0.769400  0.203000  0.131500  1.0  0.0743
  H  H582  1  0.810700  0.184600  0.145200  1.0  0.0696
  H  H583  1  0.769100  0.158600  0.082500  1.0  0.1927
  H  H584  1  0.782800  0.223000  0.026500  1.0  0.0695
  H  H585  1  0.776700  0.233400  0.072400  1.0  0.0687
  H  H586  1  0.820300  0.282000  0.054000  1.0  0.0817
  H  H587  1  0.844000  0.252800  0.024600  1.0  0.1375
  H  H588  1  0.883500  0.251700  0.083200  1.0  0.103
  H  H589  1  0.845100  0.248600  0.111000  1.0  0.0736
  H  H590  1  0.861200  0.182800  0.107000  1.0  0.0728
  H  H591  1  0.878200  0.187300  0.062800  1.0  0.1151
  H  H592  1  0.272500  0.560100  0.698100  1.0  0.1115
  H  H593  1  0.212900  0.577400  0.728100  1.0  0.1074
  H  H594  1  0.184400  0.639400  0.715900  1.0  0.1012
  H  H595  1  0.215900  0.683900  0.673300  1.0  0.0911
  H  H596  1  0.269400  0.703000  0.631500  1.0  0.0743
  H  H597  1  0.310700  0.684600  0.645200  1.0  0.0696
  H  H598  1  0.269100  0.658600  0.582500  1.0  0.1927
  H  H599  1  0.282800  0.723000  0.526500  1.0  0.0695
  H  H600  1  0.276700  0.733400  0.572400  1.0  0.0687
  H  H601  1  0.320300  0.782000  0.554000  1.0  0.0817
  H  H602  1  0.344000  0.752800  0.524600  1.0  0.1375
  H  H603  1  0.383500  0.751700  0.583200  1.0  0.103
  H  H604  1  0.345100  0.748600  0.611000  1.0  0.0736
  H  H605  1  0.361200  0.682800  0.607000  1.0  0.0728
  H  H606  1  0.378200  0.687300  0.562800  1.0  0.1151
  H  H607  1  0.227500  0.560100  0.301900  1.0  0.1112
  H  H608  1  0.287100  0.577400  0.271900  1.0  0.1073
  H  H609  1  0.315600  0.639400  0.284100  1.0  0.1015
  H  H610  1  0.284100  0.683900  0.326700  1.0  0.0909
  H  H611  1  0.230600  0.703000  0.368500  1.0  0.0761
  H  H612  1  0.189300  0.684600  0.354800  1.0  0.0704
  H  H613  1  0.230900  0.658600  0.417500  1.0  0.1969
  H  H614  1  0.217200  0.723000  0.473500  1.0  0.0692
  H  H615  1  0.223300  0.733400  0.427600  1.0  0.068
  H  H616  1  0.179700  0.782000  0.446000  1.0  0.0813
  H  H617  1  0.156000  0.752800  0.475400  1.0  0.1381
  H  H618  1  0.116500  0.751700  0.416800  1.0  0.1011
  H  H619  1  0.154900  0.748600  0.389000  1.0  0.0752
  H  H620  1  0.138800  0.682800  0.393000  1.0  0.0716
  H  H621  1  0.121800  0.687300  0.437200  1.0  0.1145
  H  H622  1  0.727500  0.060100  0.801900  1.0  0.1112
  H  H623  1  0.787100  0.077400  0.771900  1.0  0.1073
  H  H624  1  0.815600  0.139400  0.784100  1.0  0.1015
  H  H625  1  0.784100  0.183900  0.826700  1.0  0.0909
  H  H626  1  0.730600  0.203000  0.868500  1.0  0.0761
  H  H627  1  0.689300  0.184600  0.854800  1.0  0.0704
  H  H628  1  0.730900  0.158600  0.917500  1.0  0.1969
  H  H629  1  0.717200  0.223000  0.973500  1.0  0.0692
  H  H630  1  0.723300  0.233400  0.927600  1.0  0.068
  H  H631  1  0.679700  0.282000  0.946000  1.0  0.0813
  H  H632  1  0.656000  0.252800  0.975400  1.0  0.1381
  H  H633  1  0.616500  0.251700  0.916800  1.0  0.1011
  H  H634  1  0.654900  0.248600  0.889000  1.0  0.0752
  H  H635  1  0.638800  0.182800  0.893000  1.0  0.0716
  H  H636  1  0.621800  0.187300  0.937200  1.0  0.1145
  H  H637  1  0.727500  0.939900  0.698100  1.0  0.112
  H  H638  1  0.787100  0.922600  0.728100  1.0  0.1071
  H  H639  1  0.815600  0.860600  0.715900  1.0  0.1016
  H  H640  1  0.784100  0.816100  0.673300  1.0  0.0907
  H  H641  1  0.730600  0.797000  0.631500  1.0  0.0763
  H  H642  1  0.689300  0.815400  0.645200  1.0  0.0698
  H  H643  1  0.730900  0.841400  0.582500  1.0  0.1963
  H  H644  1  0.717200  0.777000  0.526500  1.0  0.0697
  H  H645  1  0.723300  0.766600  0.572400  1.0  0.0695
  H  H646  1  0.679700  0.718000  0.554000  1.0  0.082
  H  H647  1  0.656000  0.747200  0.524600  1.0  0.1377
  H  H648  1  0.616500  0.748300  0.583200  1.0  0.1021
  H  H649  1  0.654900  0.751400  0.611000  1.0  0.0741
  H  H650  1  0.638800  0.817200  0.607000  1.0  0.0707
  H  H651  1  0.621800  0.812700  0.562800  1.0  0.1144
  H  H652  1  0.227500  0.439900  0.198100  1.0  0.112
  H  H653  1  0.287100  0.422600  0.228100  1.0  0.1071
  H  H654  1  0.315600  0.360600  0.215900  1.0  0.1016
  H  H655  1  0.284100  0.316100  0.173300  1.0  0.0907
  H  H656  1  0.230600  0.297000  0.131500  1.0  0.0763
  H  H657  1  0.189300  0.315400  0.145200  1.0  0.0698
  H  H658  1  0.230900  0.341400  0.082500  1.0  0.1963
  H  H659  1  0.217200  0.277000  0.026500  1.0  0.0697
  H  H660  1  0.223300  0.266600  0.072400  1.0  0.0695
  H  H661  1  0.179700  0.218000  0.054000  1.0  0.082
  H  H662  1  0.156000  0.247200  0.024600  1.0  0.1377
  H  H663  1  0.116500  0.248300  0.083200  1.0  0.1021
  H  H664  1  0.154900  0.251400  0.111000  1.0  0.0741
  H  H665  1  0.138800  0.317200  0.107000  1.0  0.0707
  H  H666  1  0.121800  0.312700  0.062800  1.0  0.1144
  H  H667  1  0.272500  0.439900  0.801900  1.0  0.1123
  H  H668  1  0.212900  0.422600  0.771900  1.0  0.1075
  H  H669  1  0.184400  0.360600  0.784100  1.0  0.1013
  H  H670  1  0.215900  0.316100  0.826700  1.0  0.0906
  H  H671  1  0.269400  0.297000  0.868500  1.0  0.0761
  H  H672  1  0.310700  0.315400  0.854800  1.0  0.0692
  H  H673  1  0.269100  0.341400  0.917500  1.0  0.1945
  H  H674  1  0.282800  0.277000  0.973500  1.0  0.0698
  H  H675  1  0.276700  0.266600  0.927600  1.0  0.0685
  H  H676  1  0.320300  0.218000  0.946000  1.0  0.0808
  H  H677  1  0.344000  0.247200  0.975400  1.0  0.1408
  H  H678  1  0.383500  0.248300  0.916800  1.0  0.1
  H  H679  1  0.345100  0.251400  0.889000  1.0  0.0742
  H  H680  1  0.361200  0.317200  0.893000  1.0  0.0713
  H  H681  1  0.378200  0.312700  0.937200  1.0  0.1158
  H  H682  1  0.772500  0.939900  0.301900  1.0  0.1123
  H  H683  1  0.712900  0.922600  0.271900  1.0  0.1075
  H  H684  1  0.684400  0.860600  0.284100  1.0  0.1013
  H  H685  1  0.715900  0.816100  0.326700  1.0  0.0906
  H  H686  1  0.769400  0.797000  0.368500  1.0  0.0761
  H  H687  1  0.810700  0.815400  0.354800  1.0  0.0692
  H  H688  1  0.769100  0.841400  0.417500  1.0  0.1945
  H  H689  1  0.782800  0.777000  0.473500  1.0  0.0698
  H  H690  1  0.776700  0.766600  0.427600  1.0  0.0685
  H  H691  1  0.820300  0.718000  0.446000  1.0  0.0808
  H  H692  1  0.844000  0.747200  0.475400  1.0  0.1408
  H  H693  1  0.883500  0.748300  0.416800  1.0  0.1
  H  H694  1  0.845100  0.751400  0.389000  1.0  0.0742
  H  H695  1  0.861200  0.817200  0.393000  1.0  0.0713
  H  H696  1  0.878200  0.812700  0.437200  1.0  0.1158
  H  H697  1  0.560100  0.301900  0.227500  1.0  0.1106
  H  H698  1  0.577400  0.271900  0.287100  1.0  0.108
  H  H699  1  0.639400  0.284100  0.315600  1.0  0.1032
  H  H700  1  0.683900  0.326700  0.284100  1.0  0.0896
  H  H701  1  0.703000  0.368500  0.230600  1.0  0.0737
  H  H702  1  0.684600  0.354800  0.189300  1.0  0.0705
  H  H703  1  0.658600  0.417500  0.230900  1.0  0.1937
  H  H704  1  0.723000  0.473500  0.217200  1.0  0.0687
  H  H705  1  0.733400  0.427600  0.223300  1.0  0.0709
  H  H706  1  0.782000  0.446000  0.179700  1.0  0.0776
  H  H707  1  0.752800  0.475400  0.156000  1.0  0.1333
  H  H708  1  0.751700  0.416800  0.116500  1.0  0.1022
  H  H709  1  0.748600  0.389000  0.154900  1.0  0.0759
  H  H710  1  0.682800  0.393000  0.138800  1.0  0.0735
  H  H711  1  0.687300  0.437200  0.121800  1.0  0.1199
  H  H712  1  0.060100  0.801900  0.727500  1.0  0.1106
  H  H713  1  0.077400  0.771900  0.787100  1.0  0.108
  H  H714  1  0.139400  0.784100  0.815600  1.0  0.1032
  H  H715  1  0.183900  0.826700  0.784100  1.0  0.0896
  H  H716  1  0.203000  0.868500  0.730600  1.0  0.0737
  H  H717  1  0.184600  0.854800  0.689300  1.0  0.0705
  H  H718  1  0.158600  0.917500  0.730900  1.0  0.1937
  H  H719  1  0.223000  0.973500  0.717200  1.0  0.0687
  H  H720  1  0.233400  0.927600  0.723300  1.0  0.0709
  H  H721  1  0.282000  0.946000  0.679700  1.0  0.0776
  H  H722  1  0.252800  0.975400  0.656000  1.0  0.1333
  H  H723  1  0.251700  0.916800  0.616500  1.0  0.1022
  H  H724  1  0.248600  0.889000  0.654900  1.0  0.0759
  H  H725  1  0.182800  0.893000  0.638800  1.0  0.0735
  H  H726  1  0.187300  0.937200  0.621800  1.0  0.1199
  H  H727  1  0.060100  0.198100  0.772500  1.0  0.1107
  H  H728  1  0.077400  0.228100  0.712900  1.0  0.1074
  H  H729  1  0.139400  0.215900  0.684400  1.0  0.1037
  H  H730  1  0.183900  0.173300  0.715900  1.0  0.0893
  H  H731  1  0.203000  0.131500  0.769400  1.0  0.0745
  H  H732  1  0.184600  0.145200  0.810700  1.0  0.0706
  H  H733  1  0.158600  0.082500  0.769100  1.0  0.1938
  H  H734  1  0.223000  0.026500  0.782800  1.0  0.0708
  H  H735  1  0.233400  0.072400  0.776700  1.0  0.0703
  H  H736  1  0.282000  0.054000  0.820300  1.0  0.0783
  H  H737  1  0.252800  0.024600  0.844000  1.0  0.1385
  H  H738  1  0.251700  0.083200  0.883500  1.0  0.102
  H  H739  1  0.248600  0.111000  0.845100  1.0  0.0748
  H  H740  1  0.182800  0.107000  0.861200  1.0  0.0731
  H  H741  1  0.187300  0.062800  0.878200  1.0  0.1196
  H  H742  1  0.560100  0.698100  0.272500  1.0  0.1107
  H  H743  1  0.577400  0.728100  0.212900  1.0  0.1074
  H  H744  1  0.639400  0.715900  0.184400  1.0  0.1037
  H  H745  1  0.683900  0.673300  0.215900  1.0  0.0893
  H  H746  1  0.703000  0.631500  0.269400  1.0  0.0745
  H  H747  1  0.684600  0.645200  0.310700  1.0  0.0706
  H  H748  1  0.658600  0.582500  0.269100  1.0  0.1938
  H  H749  1  0.723000  0.526500  0.282800  1.0  0.0708
  H  H750  1  0.733400  0.572400  0.276700  1.0  0.0703
  H  H751  1  0.782000  0.554000  0.320300  1.0  0.0783
  H  H752  1  0.752800  0.524600  0.344000  1.0  0.1385
  H  H753  1  0.751700  0.583200  0.383500  1.0  0.102
  H  H754  1  0.748600  0.611000  0.345100  1.0  0.0748
  H  H755  1  0.682800  0.607000  0.361200  1.0  0.0731
  H  H756  1  0.687300  0.562800  0.378200  1.0  0.1196
  H  H757  1  0.439900  0.801900  0.272500  1.0  0.1114
  H  H758  1  0.422600  0.771900  0.212900  1.0  0.1068
  H  H759  1  0.360600  0.784100  0.184400  1.0  0.1031
  H  H760  1  0.316100  0.826700  0.215900  1.0  0.0899
  H  H761  1  0.297000  0.868500  0.269400  1.0  0.0754
  H  H762  1  0.315400  0.854800  0.310700  1.0  0.071
  H  H763  1  0.341400  0.917500  0.269100  1.0  0.1924
  H  H764  1  0.277000  0.973500  0.282800  1.0  0.0702
  H  H765  1  0.266600  0.927600  0.276700  1.0  0.0715
  H  H766  1  0.218000  0.946000  0.320300  1.0  0.0801
  H  H767  1  0.247200  0.975400  0.344000  1.0  0.1367
  H  H768  1  0.248300  0.916800  0.383500  1.0  0.1019
  H  H769  1  0.251400  0.889000  0.345100  1.0  0.075
  H  H770  1  0.317200  0.893000  0.361200  1.0  0.0738
  H  H771  1  0.312700  0.937200  0.378200  1.0  0.1168
  H  H772  1  0.939900  0.301900  0.772500  1.0  0.1114
  H  H773  1  0.922600  0.271900  0.712900  1.0  0.1068
  H  H774  1  0.860600  0.284100  0.684400  1.0  0.1031
  H  H775  1  0.816100  0.326700  0.715900  1.0  0.0899
  H  H776  1  0.797000  0.368500  0.769400  1.0  0.0754
  H  H777  1  0.815400  0.354800  0.810700  1.0  0.071
  H  H778  1  0.841400  0.417500  0.769100  1.0  0.1924
  H  H779  1  0.777000  0.473500  0.782800  1.0  0.0702
  H  H780  1  0.766600  0.427600  0.776700  1.0  0.0715
  H  H781  1  0.718000  0.446000  0.820300  1.0  0.0801
  H  H782  1  0.747200  0.475400  0.844000  1.0  0.1367
  H  H783  1  0.748300  0.416800  0.883500  1.0  0.1019
  H  H784  1  0.751400  0.389000  0.845100  1.0  0.075
  H  H785  1  0.817200  0.393000  0.861200  1.0  0.0738
  H  H786  1  0.812700  0.437200  0.878200  1.0  0.1168
  H  H787  1  0.939900  0.698100  0.727500  1.0  0.1115
  H  H788  1  0.922600  0.728100  0.787100  1.0  0.1076
  H  H789  1  0.860600  0.715900  0.815600  1.0  0.1033
  H  H790  1  0.816100  0.673300  0.784100  1.0  0.0891
  H  H791  1  0.797000  0.631500  0.730600  1.0  0.0758
  H  H792  1  0.815400  0.645200  0.689300  1.0  0.0709
  H  H793  1  0.841400  0.582500  0.730900  1.0  0.192
  H  H794  1  0.777000  0.526500  0.717200  1.0  0.0707
  H  H795  1  0.766600  0.572400  0.723300  1.0  0.0713
  H  H796  1  0.718000  0.554000  0.679700  1.0  0.0798
  H  H797  1  0.747200  0.524600  0.656000  1.0  0.1375
  H  H798  1  0.748300  0.583200  0.616500  1.0  0.103
  H  H799  1  0.751400  0.611000  0.654900  1.0  0.0754
  H  H800  1  0.817200  0.607000  0.638800  1.0  0.0731
  H  H801  1  0.812700  0.562800  0.621800  1.0  0.1173
  H  H802  1  0.439900  0.198100  0.227500  1.0  0.1115
  H  H803  1  0.422600  0.228100  0.287100  1.0  0.1076
  H  H804  1  0.360600  0.215900  0.315600  1.0  0.1033
  H  H805  1  0.316100  0.173300  0.284100  1.0  0.0891
  H  H806  1  0.297000  0.131500  0.230600  1.0  0.0758
  H  H807  1  0.315400  0.145200  0.189300  1.0  0.0709
  H  H808  1  0.341400  0.082500  0.230900  1.0  0.192
  H  H809  1  0.277000  0.026500  0.217200  1.0  0.0707
  H  H810  1  0.266600  0.072400  0.223300  1.0  0.0713
  H  H811  1  0.218000  0.054000  0.179700  1.0  0.0798
  H  H812  1  0.247200  0.024600  0.156000  1.0  0.1375
  H  H813  1  0.248300  0.083200  0.116500  1.0  0.103
  H  H814  1  0.251400  0.111000  0.154900  1.0  0.0754
  H  H815  1  0.317200  0.107000  0.138800  1.0  0.0731
  H  H816  1  0.312700  0.062800  0.121800  1.0  0.1173
  H  H817  1  0.977500  0.948100  0.189900  1.0  0.112
  H  H818  1  0.037100  0.978100  0.172600  1.0  0.1077
  H  H819  1  0.065600  0.965900  0.110600  1.0  0.1039
  H  H820  1  0.034100  0.923300  0.066100  1.0  0.0912
  H  H821  1  0.980600  0.881500  0.047000  1.0  0.0747
  H  H822  1  0.939300  0.895200  0.065400  1.0  0.0684
  H  H823  1  0.980900  0.832500  0.091400  1.0  0.1986
  H  H824  1  0.967200  0.776500  0.027000  1.0  0.0715
  H  H825  1  0.973300  0.822400  0.016600  1.0  0.0695
  H  H826  1  0.929700  0.804000  0.968000  1.0  0.0812
  H  H827  1  0.906000  0.774600  0.997200  1.0  0.1411
  H  H828  1  0.866500  0.833200  0.998300  1.0  0.1042
  H  H829  1  0.904900  0.861000  0.001400  1.0  0.076
  H  H830  1  0.888800  0.857000  0.067200  1.0  0.0707
  H  H831  1  0.871800  0.812800  0.062700  1.0  0.1139
  H  H832  1  0.477500  0.448100  0.689900  1.0  0.112
  H  H833  1  0.537100  0.478100  0.672600  1.0  0.1077
  H  H834  1  0.565600  0.465900  0.610600  1.0  0.1039
  H  H835  1  0.534100  0.423300  0.566100  1.0  0.0912
  H  H836  1  0.480600  0.381500  0.547000  1.0  0.0747
  H  H837  1  0.439300  0.395200  0.565400  1.0  0.0684
  H  H838  1  0.480900  0.332500  0.591400  1.0  0.1986
  H  H839  1  0.467200  0.276500  0.527000  1.0  0.0715
  H  H840  1  0.473300  0.322400  0.516600  1.0  0.0695
  H  H841  1  0.429700  0.304000  0.468000  1.0  0.0812
  H  H842  1  0.406000  0.274600  0.497200  1.0  0.1411
  H  H843  1  0.366500  0.333200  0.498300  1.0  0.1042
  H  H844  1  0.404900  0.361000  0.501400  1.0  0.076
  H  H845  1  0.388800  0.357000  0.567200  1.0  0.0707
  H  H846  1  0.371800  0.312800  0.562700  1.0  0.1139
  H  H847  1  0.522500  0.051900  0.689900  1.0  0.1126
  H  H848  1  0.462900  0.021900  0.672600  1.0  0.1079
  H  H849  1  0.434400  0.034100  0.610600  1.0  0.1034
  H  H850  1  0.465900  0.076700  0.566100  1.0  0.0917
  H  H851  1  0.519400  0.118500  0.547000  1.0  0.0734
  H  H852  1  0.560700  0.104800  0.565400  1.0  0.0684
  H  H853  1  0.519100  0.167500  0.591400  1.0  0.1964
  H  H854  1  0.532800  0.223500  0.527000  1.0  0.0713
  H  H855  1  0.526700  0.177600  0.516600  1.0  0.0696
  H  H856  1  0.570300  0.196000  0.468000  1.0  0.0806
  H  H857  1  0.594000  0.225400  0.497200  1.0  0.1392
  H  H858  1  0.633500  0.166800  0.498300  1.0  0.1031
  H  H859  1  0.595100  0.139000  0.501400  1.0  0.0745
  H  H860  1  0.611200  0.143000  0.567200  1.0  0.0711
  H  H861  1  0.628200  0.187200  0.562700  1.0  0.1158
  H  H862  1  0.022500  0.551900  0.189900  1.0  0.1126
  H  H863  1  0.962900  0.521900  0.172600  1.0  0.1079
  H  H864  1  0.934400  0.534100  0.110600  1.0  0.1034
  H  H865  1  0.965900  0.576700  0.066100  1.0  0.0917
  H  H866  1  0.019400  0.618500  0.047000  1.0  0.0734
  H  H867  1  0.060700  0.604800  0.065400  1.0  0.0684
  H  H868  1  0.019100  0.667500  0.091400  1.0  0.1964
  H  H869  1  0.032800  0.723500  0.027000  1.0  0.0713
  H  H870  1  0.026700  0.677600  0.016600  1.0  0.0696
  H  H871  1  0.070300  0.696000  0.968000  1.0  0.0806
  H  H872  1  0.094000  0.725400  0.997200  1.0  0.1392
  H  H873  1  0.133500  0.666800  0.998300  1.0  0.1031
  H  H874  1  0.095100  0.639000  0.001400  1.0  0.0745
  H  H875  1  0.111200  0.643000  0.067200  1.0  0.0711
  H  H876  1  0.128200  0.687200  0.062700  1.0  0.1158
  H  H877  1  0.022500  0.448100  0.310100  1.0  0.1128
  H  H878  1  0.962900  0.478100  0.327400  1.0  0.1077
  H  H879  1  0.934400  0.465900  0.389400  1.0  0.1036
  H  H880  1  0.965900  0.423300  0.433900  1.0  0.0905
  H  H881  1  0.019400  0.381500  0.453000  1.0  0.073
  H  H882  1  0.060700  0.395200  0.434600  1.0  0.0683
  H  H883  1  0.019100  0.332500  0.408600  1.0  0.1951
  H  H884  1  0.032800  0.276500  0.473000  1.0  0.0722
  H  H885  1  0.026700  0.322400  0.483400  1.0  0.0698
  H  H886  1  0.070300  0.304000  0.532000  1.0  0.0805
  H  H887  1  0.094000  0.274600  0.502800  1.0  0.1407
  H  H888  1  0.133500  0.333200  0.501700  1.0  0.1027
  H  H889  1  0.095100  0.361000  0.498600  1.0  0.0751
  H  H890  1  0.111200  0.357000  0.432800  1.0  0.0719
  H  H891  1  0.128200  0.312800  0.437300  1.0  0.116
  H  H892  1  0.522500  0.948100  0.810100  1.0  0.1128
  H  H893  1  0.462900  0.978100  0.827400  1.0  0.1077
  H  H894  1  0.434400  0.965900  0.889400  1.0  0.1036
  H  H895  1  0.465900  0.923300  0.933900  1.0  0.0905
  H  H896  1  0.519400  0.881500  0.953000  1.0  0.073
  H  H897  1  0.560700  0.895200  0.934600  1.0  0.0683
  H  H898  1  0.519100  0.832500  0.908600  1.0  0.1951
  H  H899  1  0.532800  0.776500  0.973000  1.0  0.0722
  H  H900  1  0.526700  0.822400  0.983400  1.0  0.0698
  H  H901  1  0.570300  0.804000  0.032000  1.0  0.0805
  H  H902  1  0.594000  0.774600  0.002800  1.0  0.1407
  H  H903  1  0.633500  0.833200  0.001700  1.0  0.1027
  H  H904  1  0.595100  0.861000  0.998600  1.0  0.0751
  H  H905  1  0.611200  0.857000  0.932800  1.0  0.0719
  H  H906  1  0.628200  0.812800  0.937300  1.0  0.116
  H  H907  1  0.477500  0.551900  0.810100  1.0  0.1123
  H  H908  1  0.537100  0.521900  0.827400  1.0  0.1077
  H  H909  1  0.565600  0.534100  0.889400  1.0  0.1034
  H  H910  1  0.534100  0.576700  0.933900  1.0  0.0908
  H  H911  1  0.480600  0.618500  0.953000  1.0  0.0742
  H  H912  1  0.439300  0.604800  0.934600  1.0  0.0696
  H  H913  1  0.480900  0.667500  0.908600  1.0  0.1986
  H  H914  1  0.467200  0.723500  0.973000  1.0  0.07
  H  H915  1  0.473300  0.677600  0.983400  1.0  0.0704
  H  H916  1  0.429700  0.696000  0.032000  1.0  0.0808
  H  H917  1  0.406000  0.725400  0.002800  1.0  0.138
  H  H918  1  0.366500  0.666800  0.001700  1.0  0.1032
  H  H919  1  0.404900  0.639000  0.998600  1.0  0.0756
  H  H920  1  0.388800  0.643000  0.932800  1.0  0.0709
  H  H921  1  0.371800  0.687200  0.937300  1.0  0.1148
  H  H922  1  0.977500  0.051900  0.310100  1.0  0.1123
  H  H923  1  0.037100  0.021900  0.327400  1.0  0.1077
  H  H924  1  0.065600  0.034100  0.389400  1.0  0.1034
  H  H925  1  0.034100  0.076700  0.433900  1.0  0.0908
  H  H926  1  0.980600  0.118500  0.453000  1.0  0.0742
  H  H927  1  0.939300  0.104800  0.434600  1.0  0.0696
  H  H928  1  0.980900  0.167500  0.408600  1.0  0.1986
  H  H929  1  0.967200  0.223500  0.473000  1.0  0.07
  H  H930  1  0.973300  0.177600  0.483400  1.0  0.0704
  H  H931  1  0.929700  0.196000  0.532000  1.0  0.0808
  H  H932  1  0.906000  0.225400  0.502800  1.0  0.138
  H  H933  1  0.866500  0.166800  0.501700  1.0  0.1032
  H  H934  1  0.904900  0.139000  0.498600  1.0  0.0756
  H  H935  1  0.888800  0.143000  0.432800  1.0  0.0709
  H  H936  1  0.871800  0.187200  0.437300  1.0  0.1148
  H  H937  1  0.189900  0.977500  0.948100  1.0  0.112
  H  H938  1  0.172600  0.037100  0.978100  1.0  0.1078
  H  H939  1  0.110600  0.065600  0.965900  1.0  0.1017
  H  H940  1  0.066100  0.034100  0.923300  1.0  0.0908
  H  H941  1  0.047000  0.980600  0.881500  1.0  0.0772
  H  H942  1  0.065400  0.939300  0.895200  1.0  0.0708
  H  H943  1  0.091400  0.980900  0.832500  1.0  0.1915
  H  H944  1  0.027000  0.967200  0.776500  1.0  0.0709
  H  H945  1  0.016600  0.973300  0.822400  1.0  0.0694
  H  H946  1  0.968000  0.929700  0.804000  1.0  0.0813
  H  H947  1  0.997200  0.906000  0.774600  1.0  0.1396
  H  H948  1  0.998300  0.866500  0.833200  1.0  0.0998
  H  H949  1  0.001400  0.904900  0.861000  1.0  0.0728
  H  H950  1  0.067200  0.888800  0.857000  1.0  0.0727
  H  H951  1  0.062700  0.871800  0.812800  1.0  0.1151
  H  H952  1  0.689900  0.477500  0.448100  1.0  0.112
  H  H953  1  0.672600  0.537100  0.478100  1.0  0.1078
  H  H954  1  0.610600  0.565600  0.465900  1.0  0.1017
  H  H955  1  0.566100  0.534100  0.423300  1.0  0.0908
  H  H956  1  0.547000  0.480600  0.381500  1.0  0.0772
  H  H957  1  0.565400  0.439300  0.395200  1.0  0.0708
  H  H958  1  0.591400  0.480900  0.332500  1.0  0.1915
  H  H959  1  0.527000  0.467200  0.276500  1.0  0.0709
  H  H960  1  0.516600  0.473300  0.322400  1.0  0.0694
  H  H961  1  0.468000  0.429700  0.304000  1.0  0.0813
  H  H962  1  0.497200  0.406000  0.274600  1.0  0.1396
  H  H963  1  0.498300  0.366500  0.333200  1.0  0.0998
  H  H964  1  0.501400  0.404900  0.361000  1.0  0.0728
  H  H965  1  0.567200  0.388800  0.357000  1.0  0.0727
  H  H966  1  0.562700  0.371800  0.312800  1.0  0.1151
  H  H967  1  0.689900  0.522500  0.051900  1.0  0.112
  H  H968  1  0.672600  0.462900  0.021900  1.0  0.1076
  H  H969  1  0.610600  0.434400  0.034100  1.0  0.1016
  H  H970  1  0.566100  0.465900  0.076700  1.0  0.0905
  H  H971  1  0.547000  0.519400  0.118500  1.0  0.0761
  H  H972  1  0.565400  0.560700  0.104800  1.0  0.0704
  H  H973  1  0.591400  0.519100  0.167500  1.0  0.1922
  H  H974  1  0.527000  0.532800  0.223500  1.0  0.0712
  H  H975  1  0.516600  0.526700  0.177600  1.0  0.0699
  H  H976  1  0.468000  0.570300  0.196000  1.0  0.081
  H  H977  1  0.497200  0.594000  0.225400  1.0  0.14
  H  H978  1  0.498300  0.633500  0.166800  1.0  0.0999
  H  H979  1  0.501400  0.595100  0.139000  1.0  0.0734
  H  H980  1  0.567200  0.611200  0.143000  1.0  0.0711
  H  H981  1  0.562700  0.628200  0.187200  1.0  0.1149
  H  H982  1  0.189900  0.022500  0.551900  1.0  0.112
  H  H983  1  0.172600  0.962900  0.521900  1.0  0.1076
  H  H984  1  0.110600  0.934400  0.534100  1.0  0.1016
  H  H985  1  0.066100  0.965900  0.576700  1.0  0.0905
  H  H986  1  0.047000  0.019400  0.618500  1.0  0.0761
  H  H987  1  0.065400  0.060700  0.604800  1.0  0.0704
  H  H988  1  0.091400  0.019100  0.667500  1.0  0.1922
  H  H989  1  0.027000  0.032800  0.723500  1.0  0.0712
  H  H990  1  0.016600  0.026700  0.677600  1.0  0.0699
  H  H991  1  0.968000  0.070300  0.696000  1.0  0.081
  H  H992  1  0.997200  0.094000  0.725400  1.0  0.14
  H  H993  1  0.998300  0.133500  0.666800  1.0  0.0999
  H  H994  1  0.001400  0.095100  0.639000  1.0  0.0734
  H  H995  1  0.067200  0.111200  0.643000  1.0  0.0711
  H  H996  1  0.062700  0.128200  0.687200  1.0  0.1149
  H  H997  1  0.310100  0.022500  0.448100  1.0  0.1116
  H  H998  1  0.327400  0.962900  0.478100  1.0  0.1078
  H  H999  1  0.389400  0.934400  0.465900  1.0  0.102
  H  H1000  1  0.433900  0.965900  0.423300  1.0  0.0909
  H  H1001  1  0.453000  0.019400  0.381500  1.0  0.074
  H  H1002  1  0.434600  0.060700  0.395200  1.0  0.07
  H  H1003  1  0.408600  0.019100  0.332500  1.0  0.1916
  H  H1004  1  0.473000  0.032800  0.276500  1.0  0.0713
  H  H1005  1  0.483400  0.026700  0.322400  1.0  0.0695
  H  H1006  1  0.532000  0.070300  0.304000  1.0  0.0785
  H  H1007  1  0.502800  0.094000  0.274600  1.0  0.1384
  H  H1008  1  0.501700  0.133500  0.333200  1.0  0.0993
  H  H1009  1  0.498600  0.095100  0.361000  1.0  0.0724
  H  H1010  1  0.432800  0.111200  0.357000  1.0  0.0718
  H  H1011  1  0.437300  0.128200  0.312800  1.0  0.1188
  H  H1012  1  0.810100  0.522500  0.948100  1.0  0.1116
  H  H1013  1  0.827400  0.462900  0.978100  1.0  0.1078
  H  H1014  1  0.889400  0.434400  0.965900  1.0  0.102
  H  H1015  1  0.933900  0.465900  0.923300  1.0  0.0909
  H  H1016  1  0.953000  0.519400  0.881500  1.0  0.074
  H  H1017  1  0.934600  0.560700  0.895200  1.0  0.07
  H  H1018  1  0.908600  0.519100  0.832500  1.0  0.1916
  H  H1019  1  0.973000  0.532800  0.776500  1.0  0.0713
  H  H1020  1  0.983400  0.526700  0.822400  1.0  0.0695
  H  H1021  1  0.032000  0.570300  0.804000  1.0  0.0785
  H  H1022  1  0.002800  0.594000  0.774600  1.0  0.1384
  H  H1023  1  0.001700  0.633500  0.833200  1.0  0.0993
  H  H1024  1  0.998600  0.595100  0.861000  1.0  0.0724
  H  H1025  1  0.932800  0.611200  0.857000  1.0  0.0718
  H  H1026  1  0.937300  0.628200  0.812800  1.0  0.1188
  H  H1027  1  0.810100  0.477500  0.551900  1.0  0.1115
  H  H1028  1  0.827400  0.537100  0.521900  1.0  0.1086
  H  H1029  1  0.889400  0.565600  0.534100  1.0  0.1021
  H  H1030  1  0.933900  0.534100  0.576700  1.0  0.0905
  H  H1031  1  0.953000  0.480600  0.618500  1.0  0.0767
  H  H1032  1  0.934600  0.439300  0.604800  1.0  0.07
  H  H1033  1  0.908600  0.480900  0.667500  1.0  0.1932
  H  H1034  1  0.973000  0.467200  0.723500  1.0  0.07
  H  H1035  1  0.983400  0.473300  0.677600  1.0  0.0683
  H  H1036  1  0.032000  0.429700  0.696000  1.0  0.0789
  H  H1037  1  0.002800  0.406000  0.725400  1.0  0.1399
  H  H1038  1  0.001700  0.366500  0.666800  1.0  0.0963
  H  H1039  1  0.998600  0.404900  0.639000  1.0  0.0741
  H  H1040  1  0.932800  0.388800  0.643000  1.0  0.0723
  H  H1041  1  0.937300  0.371800  0.687200  1.0  0.1174
  H  H1042  1  0.310100  0.977500  0.051900  1.0  0.1115
  H  H1043  1  0.327400  0.037100  0.021900  1.0  0.1086
  H  H1044  1  0.389400  0.065600  0.034100  1.0  0.1021
  H  H1045  1  0.433900  0.034100  0.076700  1.0  0.0905
  H  H1046  1  0.453000  0.980600  0.118500  1.0  0.0767
  H  H1047  1  0.434600  0.939300  0.104800  1.0  0.07
  H  H1048  1  0.408600  0.980900  0.167500  1.0  0.1932
  H  H1049  1  0.473000  0.967200  0.223500  1.0  0.07
  H  H1050  1  0.483400  0.973300  0.177600  1.0  0.0683
  H  H1051  1  0.532000  0.929700  0.196000  1.0  0.0789
  H  H1052  1  0.502800  0.906000  0.225400  1.0  0.1399
  H  H1053  1  0.501700  0.866500  0.166800  1.0  0.0963
  H  H1054  1  0.498600  0.904900  0.139000  1.0  0.0741
  H  H1055  1  0.432800  0.888800  0.143000  1.0  0.0723
  H  H1056  1  0.437300  0.871800  0.187200  1.0  0.1174
  H  H1057  1  0.948100  0.189900  0.977500  1.0  0.1118
  H  H1058  1  0.978100  0.172600  0.037100  1.0  0.1076
  H  H1059  1  0.965900  0.110600  0.065600  1.0  0.1016
  H  H1060  1  0.923300  0.066100  0.034100  1.0  0.0895
  H  H1061  1  0.881500  0.047000  0.980600  1.0  0.075
  H  H1062  1  0.895200  0.065400  0.939300  1.0  0.0715
  H  H1063  1  0.832500  0.091400  0.980900  1.0  0.1931
  H  H1064  1  0.776500  0.027000  0.967200  1.0  0.0661
  H  H1065  1  0.822400  0.016600  0.973300  1.0  0.0704
  H  H1066  1  0.804000  0.968000  0.929700  1.0  0.0821
  H  H1067  1  0.774600  0.997200  0.906000  1.0  0.1344
  H  H1068  1  0.833200  0.998300  0.866500  1.0  0.102
  H  H1069  1  0.861000  0.001400  0.904900  1.0  0.0776
  H  H1070  1  0.857000  0.067200  0.888800  1.0  0.0723
  H  H1071  1  0.812800  0.062700  0.871800  1.0  0.1161
  H  H1072  1  0.448100  0.689900  0.477500  1.0  0.1118
  H  H1073  1  0.478100  0.672600  0.537100  1.0  0.1076
  H  H1074  1  0.465900  0.610600  0.565600  1.0  0.1016
  H  H1075  1  0.423300  0.566100  0.534100  1.0  0.0895
  H  H1076  1  0.381500  0.547000  0.480600  1.0  0.075
  H  H1077  1  0.395200  0.565400  0.439300  1.0  0.0715
  H  H1078  1  0.332500  0.591400  0.480900  1.0  0.1931
  H  H1079  1  0.276500  0.527000  0.467200  1.0  0.0661
  H  H1080  1  0.322400  0.516600  0.473300  1.0  0.0704
  H  H1081  1  0.304000  0.468000  0.429700  1.0  0.0821
  H  H1082  1  0.274600  0.497200  0.406000  1.0  0.1344
  H  H1083  1  0.333200  0.498300  0.366500  1.0  0.102
  H  H1084  1  0.361000  0.501400  0.404900  1.0  0.0776
  H  H1085  1  0.357000  0.567200  0.388800  1.0  0.0723
  H  H1086  1  0.312800  0.562700  0.371800  1.0  0.1161
  H  H1087  1  0.051900  0.689900  0.522500  1.0  0.1118
  H  H1088  1  0.021900  0.672600  0.462900  1.0  0.1073
  H  H1089  1  0.034100  0.610600  0.434400  1.0  0.102
  H  H1090  1  0.076700  0.566100  0.465900  1.0  0.0892
  H  H1091  1  0.118500  0.547000  0.519400  1.0  0.0744
  H  H1092  1  0.104800  0.565400  0.560700  1.0  0.0721
  H  H1093  1  0.167500  0.591400  0.519100  1.0  0.192
  H  H1094  1  0.223500  0.527000  0.532800  1.0  0.0667
  H  H1095  1  0.177600  0.516600  0.526700  1.0  0.0699
  H  H1096  1  0.196000  0.468000  0.570300  1.0  0.0807
  H  H1097  1  0.225400  0.497200  0.594000  1.0  0.1388
  H  H1098  1  0.166800  0.498300  0.633500  1.0  0.1017
  H  H1099  1  0.139000  0.501400  0.595100  1.0  0.0783
  H  H1100  1  0.143000  0.567200  0.611200  1.0  0.0717
  H  H1101  1  0.187200  0.562700  0.628200  1.0  0.1145
  H  H1102  1  0.551900  0.189900  0.022500  1.0  0.1118
  H  H1103  1  0.521900  0.172600  0.962900  1.0  0.1073
  H  H1104  1  0.534100  0.110600  0.934400  1.0  0.102
  H  H1105  1  0.576700  0.066100  0.965900  1.0  0.0892
  H  H1106  1  0.618500  0.047000  0.019400  1.0  0.0744
  H  H1107  1  0.604800  0.065400  0.060700  1.0  0.0721
  H  H1108  1  0.667500  0.091400  0.019100  1.0  0.192
  H  H1109  1  0.723500  0.027000  0.032800  1.0  0.0667
  H  H1110  1  0.677600  0.016600  0.026700  1.0  0.0699
  H  H1111  1  0.696000  0.968000  0.070300  1.0  0.0807
  H  H1112  1  0.725400  0.997200  0.094000  1.0  0.1388
  H  H1113  1  0.666800  0.998300  0.133500  1.0  0.1017
  H  H1114  1  0.639000  0.001400  0.095100  1.0  0.0783
  H  H1115  1  0.643000  0.067200  0.111200  1.0  0.0717
  H  H1116  1  0.687200  0.062700  0.128200  1.0  0.1145
  H  H1117  1  0.448100  0.310100  0.022500  1.0  0.1114
  H  H1118  1  0.478100  0.327400  0.962900  1.0  0.1068
  H  H1119  1  0.465900  0.389400  0.934400  1.0  0.1021
  H  H1120  1  0.423300  0.433900  0.965900  1.0  0.0902
  H  H1121  1  0.381500  0.453000  0.019400  1.0  0.0745
  H  H1122  1  0.395200  0.434600  0.060700  1.0  0.0715
  H  H1123  1  0.332500  0.408600  0.019100  1.0  0.1935
  H  H1124  1  0.276500  0.473000  0.032800  1.0  0.0672
  H  H1125  1  0.322400  0.483400  0.026700  1.0  0.0692
  H  H1126  1  0.304000  0.532000  0.070300  1.0  0.0816
  H  H1127  1  0.274600  0.502800  0.094000  1.0  0.1342
  H  H1128  1  0.333200  0.501700  0.133500  1.0  0.1022
  H  H1129  1  0.361000  0.498600  0.095100  1.0  0.0784
  H  H1130  1  0.357000  0.432800  0.111200  1.0  0.0726
  H  H1131  1  0.312800  0.437300  0.128200  1.0  0.1174
  H  H1132  1  0.948100  0.810100  0.522500  1.0  0.1114
  H  H1133  1  0.978100  0.827400  0.462900  1.0  0.1068
  H  H1134  1  0.965900  0.889400  0.434400  1.0  0.1021
  H  H1135  1  0.923300  0.933900  0.465900  1.0  0.0902
  H  H1136  1  0.881500  0.953000  0.519400  1.0  0.0745
  H  H1137  1  0.895200  0.934600  0.560700  1.0  0.0715
  H  H1138  1  0.832500  0.908600  0.519100  1.0  0.1935
  H  H1139  1  0.776500  0.973000  0.532800  1.0  0.0672
  H  H1140  1  0.822400  0.983400  0.526700  1.0  0.0692
  H  H1141  1  0.804000  0.032000  0.570300  1.0  0.0816
  H  H1142  1  0.774600  0.002800  0.594000  1.0  0.1342
  H  H1143  1  0.833200  0.001700  0.633500  1.0  0.1022
  H  H1144  1  0.861000  0.998600  0.595100  1.0  0.0784
  H  H1145  1  0.857000  0.932800  0.611200  1.0  0.0726
  H  H1146  1  0.812800  0.937300  0.628200  1.0  0.1174
  H  H1147  1  0.551900  0.810100  0.477500  1.0  0.1116
  H  H1148  1  0.521900  0.827400  0.537100  1.0  0.1081
  H  H1149  1  0.534100  0.889400  0.565600  1.0  0.1015
  H  H1150  1  0.576700  0.933900  0.534100  1.0  0.0895
  H  H1151  1  0.618500  0.953000  0.480600  1.0  0.0731
  H  H1152  1  0.604800  0.934600  0.439300  1.0  0.0724
  H  H1153  1  0.667500  0.908600  0.480900  1.0  0.1919
  H  H1154  1  0.723500  0.973000  0.467200  1.0  0.0666
  H  H1155  1  0.677600  0.983400  0.473300  1.0  0.0695
  H  H1156  1  0.696000  0.032000  0.429700  1.0  0.0808
  H  H1157  1  0.725400  0.002800  0.406000  1.0  0.1359
  H  H1158  1  0.666800  0.001700  0.366500  1.0  0.1032
  H  H1159  1  0.639000  0.998600  0.404900  1.0  0.0776
  H  H1160  1  0.643000  0.932800  0.388800  1.0  0.0717
  H  H1161  1  0.687200  0.937300  0.371800  1.0  0.1144
  H  H1162  1  0.051900  0.310100  0.977500  1.0  0.1116
  H  H1163  1  0.021900  0.327400  0.037100  1.0  0.1081
  H  H1164  1  0.034100  0.389400  0.065600  1.0  0.1015
  H  H1165  1  0.076700  0.433900  0.034100  1.0  0.0895
  H  H1166  1  0.118500  0.453000  0.980600  1.0  0.0731
  H  H1167  1  0.104800  0.434600  0.939300  1.0  0.0724
  H  H1168  1  0.167500  0.408600  0.980900  1.0  0.1919
  H  H1169  1  0.223500  0.473000  0.967200  1.0  0.0666
  H  H1170  1  0.177600  0.483400  0.973300  1.0  0.0695
  H  H1171  1  0.196000  0.532000  0.929700  1.0  0.0808
  H  H1172  1  0.225400  0.502800  0.906000  1.0  0.1359
  H  H1173  1  0.166800  0.501700  0.866500  1.0  0.1032
  H  H1174  1  0.139000  0.498600  0.904900  1.0  0.0776
  H  H1175  1  0.143000  0.432800  0.888800  1.0  0.0717
  H  H1176  1  0.187200  0.437300  0.871800  1.0  0.1144
  H  H1177  1  0.198100  0.727500  0.560100  1.0  0.1123
  H  H1178  1  0.228100  0.787100  0.577400  1.0  0.1084
  H  H1179  1  0.215900  0.815600  0.639400  1.0  0.1027
  H  H1180  1  0.173300  0.784100  0.683900  1.0  0.0909
  H  H1181  1  0.131500  0.730600  0.703000  1.0  0.0741
  H  H1182  1  0.145200  0.689300  0.684600  1.0  0.0705
  H  H1183  1  0.082500  0.730900  0.658600  1.0  0.1951
  H  H1184  1  0.026500  0.717200  0.723000  1.0  0.0685
  H  H1185  1  0.072400  0.723300  0.733400  1.0  0.0682
  H  H1186  1  0.054000  0.679700  0.782000  1.0  0.0811
  H  H1187  1  0.024600  0.656000  0.752800  1.0  0.1363
  H  H1188  1  0.083200  0.616500  0.751700  1.0  0.0999
  H  H1189  1  0.111000  0.654900  0.748600  1.0  0.0762
  H  H1190  1  0.107000  0.638800  0.682800  1.0  0.0722
  H  H1191  1  0.062800  0.621800  0.687300  1.0  0.1138
  H  H1192  1  0.698100  0.227500  0.060100  1.0  0.1123
  H  H1193  1  0.728100  0.287100  0.077400  1.0  0.1084
  H  H1194  1  0.715900  0.315600  0.139400  1.0  0.1027
  H  H1195  1  0.673300  0.284100  0.183900  1.0  0.0909
  H  H1196  1  0.631500  0.230600  0.203000  1.0  0.0741
  H  H1197  1  0.645200  0.189300  0.184600  1.0  0.0705
  H  H1198  1  0.582500  0.230900  0.158600  1.0  0.1951
  H  H1199  1  0.526500  0.217200  0.223000  1.0  0.0685
  H  H1200  1  0.572400  0.223300  0.233400  1.0  0.0682
  H  H1201  1  0.554000  0.179700  0.282000  1.0  0.0811
  H  H1202  1  0.524600  0.156000  0.252800  1.0  0.1363
  H  H1203  1  0.583200  0.116500  0.251700  1.0  0.0999
  H  H1204  1  0.611000  0.154900  0.248600  1.0  0.0762
  H  H1205  1  0.607000  0.138800  0.182800  1.0  0.0722
  H  H1206  1  0.562800  0.121800  0.187300  1.0  0.1138
  H  H1207  1  0.301900  0.272500  0.060100  1.0  0.1124
  H  H1208  1  0.271900  0.212900  0.077400  1.0  0.108
  H  H1209  1  0.284100  0.184400  0.139400  1.0  0.1014
  H  H1210  1  0.326700  0.215900  0.183900  1.0  0.0911
  H  H1211  1  0.368500  0.269400  0.203000  1.0  0.075
  H  H1212  1  0.354800  0.310700  0.184600  1.0  0.0709
  H  H1213  1  0.417500  0.269100  0.158600  1.0  0.1925
  H  H1214  1  0.473500  0.282800  0.223000  1.0  0.0685
  H  H1215  1  0.427600  0.276700  0.233400  1.0  0.0701
  H  H1216  1  0.446000  0.320300  0.282000  1.0  0.0811
  H  H1217  1  0.475400  0.344000  0.252800  1.0  0.1393
  H  H1218  1  0.416800  0.383500  0.251700  1.0  0.1005
  H  H1219  1  0.389000  0.345100  0.248600  1.0  0.0763
  H  H1220  1  0.393000  0.361200  0.182800  1.0  0.0713
  H  H1221  1  0.437200  0.378200  0.187300  1.0  0.1134
  H  H1222  1  0.801900  0.772500  0.560100  1.0  0.1124
  H  H1223  1  0.771900  0.712900  0.577400  1.0  0.108
  H  H1224  1  0.784100  0.684400  0.639400  1.0  0.1014
  H  H1225  1  0.826700  0.715900  0.683900  1.0  0.0911
  H  H1226  1  0.868500  0.769400  0.703000  1.0  0.075
  H  H1227  1  0.854800  0.810700  0.684600  1.0  0.0709
  H  H1228  1  0.917500  0.769100  0.658600  1.0  0.1925
  H  H1229  1  0.973500  0.782800  0.723000  1.0  0.0685
  H  H1230  1  0.927600  0.776700  0.733400  1.0  0.0701
  H  H1231  1  0.946000  0.820300  0.782000  1.0  0.0811
  H  H1232  1  0.975400  0.844000  0.752800  1.0  0.1393
  H  H1233  1  0.916800  0.883500  0.751700  1.0  0.1005
  H  H1234  1  0.889000  0.845100  0.748600  1.0  0.0763
  H  H1235  1  0.893000  0.861200  0.682800  1.0  0.0713
  H  H1236  1  0.937200  0.878200  0.687300  1.0  0.1134
  H  H1237  1  0.698100  0.772500  0.439900  1.0  0.1123
  H  H1238  1  0.728100  0.712900  0.422600  1.0  0.108
  H  H1239  1  0.715900  0.684400  0.360600  1.0  0.1022
  H  H1240  1  0.673300  0.715900  0.316100  1.0  0.092
  H  H1241  1  0.631500  0.769400  0.297000  1.0  0.075
  H  H1242  1  0.645200  0.810700  0.315400  1.0  0.0703
  H  H1243  1  0.582500  0.769100  0.341400  1.0  0.195
  H  H1244  1  0.526500  0.782800  0.277000  1.0  0.068
  H  H1245  1  0.572400  0.776700  0.266600  1.0  0.068
  H  H1246  1  0.554000  0.820300  0.218000  1.0  0.0815
  H  H1247  1  0.524600  0.844000  0.247200  1.0  0.1371
  H  H1248  1  0.583200  0.883500  0.248300  1.0  0.1003
  H  H1249  1  0.611000  0.845100  0.251400  1.0  0.0777
  H  H1250  1  0.607000  0.861200  0.317200  1.0  0.0703
  H  H1251  1  0.562800  0.878200  0.312700  1.0  0.1148
  H  H1252  1  0.198100  0.272500  0.939900  1.0  0.1123
  H  H1253  1  0.228100  0.212900  0.922600  1.0  0.108
  H  H1254  1  0.215900  0.184400  0.860600  1.0  0.1022
  H  H1255  1  0.173300  0.215900  0.816100  1.0  0.092
  H  H1256  1  0.131500  0.269400  0.797000  1.0  0.075
  H  H1257  1  0.145200  0.310700  0.815400  1.0  0.0703
  H  H1258  1  0.082500  0.269100  0.841400  1.0  0.195
  H  H1259  1  0.026500  0.282800  0.777000  1.0  0.068
  H  H1260  1  0.072400  0.276700  0.766600  1.0  0.068
  H  H1261  1  0.054000  0.320300  0.718000  1.0  0.0815
  H  H1262  1  0.024600  0.344000  0.747200  1.0  0.1371
  H  H1263  1  0.083200  0.383500  0.748300  1.0  0.1003
  H  H1264  1  0.111000  0.345100  0.751400  1.0  0.0777
  H  H1265  1  0.107000  0.361200  0.817200  1.0  0.0703
  H  H1266  1  0.062800  0.378200  0.812700  1.0  0.1148
  H  H1267  1  0.801900  0.227500  0.939900  1.0  0.1122
  H  H1268  1  0.771900  0.287100  0.922600  1.0  0.1086
  H  H1269  1  0.784100  0.315600  0.860600  1.0  0.1025
  H  H1270  1  0.826700  0.284100  0.816100  1.0  0.0915
  H  H1271  1  0.868500  0.230600  0.797000  1.0  0.0761
  H  H1272  1  0.854800  0.189300  0.815400  1.0  0.0704
  H  H1273  1  0.917500  0.230900  0.841400  1.0  0.1938
  H  H1274  1  0.973500  0.217200  0.777000  1.0  0.0689
  H  H1275  1  0.927600  0.223300  0.766600  1.0  0.0701
  H  H1276  1  0.946000  0.179700  0.718000  1.0  0.0808
  H  H1277  1  0.975400  0.156000  0.747200  1.0  0.1398
  H  H1278  1  0.916800  0.116500  0.748300  1.0  0.0993
  H  H1279  1  0.889000  0.154900  0.751400  1.0  0.0751
  H  H1280  1  0.893000  0.138800  0.817200  1.0  0.0714
  H  H1281  1  0.937200  0.121800  0.812700  1.0  0.1128
  H  H1282  1  0.301900  0.727500  0.439900  1.0  0.1122
  H  H1283  1  0.271900  0.787100  0.422600  1.0  0.1086
  H  H1284  1  0.284100  0.815600  0.360600  1.0  0.1025
  H  H1285  1  0.326700  0.784100  0.316100  1.0  0.0915
  H  H1286  1  0.368500  0.730600  0.297000  1.0  0.0761
  H  H1287  1  0.354800  0.689300  0.315400  1.0  0.0704
  H  H1288  1  0.417500  0.730900  0.341400  1.0  0.1938
  H  H1289  1  0.473500  0.717200  0.277000  1.0  0.0689
  H  H1290  1  0.427600  0.723300  0.266600  1.0  0.0701
  H  H1291  1  0.446000  0.679700  0.218000  1.0  0.0808
  H  H1292  1  0.475400  0.656000  0.247200  1.0  0.1398
  H  H1293  1  0.416800  0.616500  0.248300  1.0  0.0993
  H  H1294  1  0.389000  0.654900  0.251400  1.0  0.0751
  H  H1295  1  0.393000  0.638800  0.317200  1.0  0.0714
  H  H1296  1  0.437200  0.621800  0.312700  1.0  0.1128
  H  H1297  1  0.227500  0.939900  0.801900  1.0  0.1119
  H  H1298  1  0.287100  0.922600  0.771900  1.0  0.1077
  H  H1299  1  0.315600  0.860600  0.784100  1.0  0.1014
  H  H1300  1  0.284100  0.816100  0.826700  1.0  0.0904
  H  H1301  1  0.230600  0.797000  0.868500  1.0  0.0765
  H  H1302  1  0.189300  0.815400  0.854800  1.0  0.0697
  H  H1303  1  0.230900  0.841400  0.917500  1.0  0.1966
  H  H1304  1  0.217200  0.777000  0.973500  1.0  0.0695
  H  H1305  1  0.223300  0.766600  0.927600  1.0  0.0683
  H  H1306  1  0.179700  0.718000  0.946000  1.0  0.0816
  H  H1307  1  0.156000  0.747200  0.975400  1.0  0.1398
  H  H1308  1  0.116500  0.748300  0.916800  1.0  0.0995
  H  H1309  1  0.154900  0.751400  0.889000  1.0  0.0737
  H  H1310  1  0.138800  0.817200  0.893000  1.0  0.0707
  H  H1311  1  0.121800  0.812700  0.937200  1.0  0.1147
  H  H1312  1  0.727500  0.439900  0.301900  1.0  0.1119
  H  H1313  1  0.787100  0.422600  0.271900  1.0  0.1077
  H  H1314  1  0.815600  0.360600  0.284100  1.0  0.1014
  H  H1315  1  0.784100  0.316100  0.326700  1.0  0.0904
  H  H1316  1  0.730600  0.297000  0.368500  1.0  0.0765
  H  H1317  1  0.689300  0.315400  0.354800  1.0  0.0697
  H  H1318  1  0.730900  0.341400  0.417500  1.0  0.1966
  H  H1319  1  0.717200  0.277000  0.473500  1.0  0.0695
  H  H1320  1  0.723300  0.266600  0.427600  1.0  0.0683
  H  H1321  1  0.679700  0.218000  0.446000  1.0  0.0816
  H  H1322  1  0.656000  0.247200  0.475400  1.0  0.1398
  H  H1323  1  0.616500  0.248300  0.416800  1.0  0.0995
  H  H1324  1  0.654900  0.251400  0.389000  1.0  0.0737
  H  H1325  1  0.638800  0.317200  0.393000  1.0  0.0707
  H  H1326  1  0.621800  0.312700  0.437200  1.0  0.1147
  H  H1327  1  0.772500  0.439900  0.698100  1.0  0.1124
  H  H1328  1  0.712900  0.422600  0.728100  1.0  0.1072
  H  H1329  1  0.684400  0.360600  0.715900  1.0  0.1014
  H  H1330  1  0.715900  0.316100  0.673300  1.0  0.091
  H  H1331  1  0.769400  0.297000  0.631500  1.0  0.0758
  H  H1332  1  0.810700  0.315400  0.645200  1.0  0.0702
  H  H1333  1  0.769100  0.341400  0.582500  1.0  0.194
  H  H1334  1  0.782800  0.277000  0.526500  1.0  0.0693
  H  H1335  1  0.776700  0.266600  0.572400  1.0  0.0696
  H  H1336  1  0.820300  0.218000  0.554000  1.0  0.0812
  H  H1337  1  0.844000  0.247200  0.524600  1.0  0.138
  H  H1338  1  0.883500  0.248300  0.583200  1.0  0.1022
  H  H1339  1  0.845100  0.251400  0.611000  1.0  0.0737
  H  H1340  1  0.861200  0.317200  0.607000  1.0  0.0721
  H  H1341  1  0.878200  0.312700  0.562800  1.0  0.1157
  H  H1342  1  0.272500  0.939900  0.198100  1.0  0.1124
  H  H1343  1  0.212900  0.922600  0.228100  1.0  0.1072
  H  H1344  1  0.184400  0.860600  0.215900  1.0  0.1014
  H  H1345  1  0.215900  0.816100  0.173300  1.0  0.091
  H  H1346  1  0.269400  0.797000  0.131500  1.0  0.0758
  H  H1347  1  0.310700  0.815400  0.145200  1.0  0.0702
  H  H1348  1  0.269100  0.841400  0.082500  1.0  0.194
  H  H1349  1  0.282800  0.777000  0.026500  1.0  0.0693
  H  H1350  1  0.276700  0.766600  0.072400  1.0  0.0696
  H  H1351  1  0.320300  0.718000  0.054000  1.0  0.0812
  H  H1352  1  0.344000  0.747200  0.024600  1.0  0.138
  H  H1353  1  0.383500  0.748300  0.083200  1.0  0.1022
  H  H1354  1  0.345100  0.751400  0.111000  1.0  0.0737
  H  H1355  1  0.361200  0.817200  0.107000  1.0  0.0721
  H  H1356  1  0.378200  0.812700  0.062800  1.0  0.1157
  H  H1357  1  0.272500  0.060100  0.301900  1.0  0.1118
  H  H1358  1  0.212900  0.077400  0.271900  1.0  0.1072
  H  H1359  1  0.184400  0.139400  0.284100  1.0  0.1013
  H  H1360  1  0.215900  0.183900  0.326700  1.0  0.0911
  H  H1361  1  0.269400  0.203000  0.368500  1.0  0.0763
  H  H1362  1  0.310700  0.184600  0.354800  1.0  0.0696
  H  H1363  1  0.269100  0.158600  0.417500  1.0  0.1944
  H  H1364  1  0.282800  0.223000  0.473500  1.0  0.0696
  H  H1365  1  0.276700  0.233400  0.427600  1.0  0.069
  H  H1366  1  0.320300  0.282000  0.446000  1.0  0.0822
  H  H1367  1  0.344000  0.252800  0.475400  1.0  0.1385
  H  H1368  1  0.383500  0.251700  0.416800  1.0  0.1018
  H  H1369  1  0.345100  0.248600  0.389000  1.0  0.0766
  H  H1370  1  0.361200  0.182800  0.393000  1.0  0.0719
  H  H1371  1  0.378200  0.187300  0.437200  1.0  0.116
  H  H1372  1  0.772500  0.560100  0.801900  1.0  0.1118
  H  H1373  1  0.712900  0.577400  0.771900  1.0  0.1072
  H  H1374  1  0.684400  0.639400  0.784100  1.0  0.1013
  H  H1375  1  0.715900  0.683900  0.826700  1.0  0.0911
  H  H1376  1  0.769400  0.703000  0.868500  1.0  0.0763
  H  H1377  1  0.810700  0.684600  0.854800  1.0  0.0696
  H  H1378  1  0.769100  0.658600  0.917500  1.0  0.1944
  H  H1379  1  0.782800  0.723000  0.973500  1.0  0.0696
  H  H1380  1  0.776700  0.733400  0.927600  1.0  0.069
  H  H1381  1  0.820300  0.782000  0.946000  1.0  0.0822
  H  H1382  1  0.844000  0.752800  0.975400  1.0  0.1385
  H  H1383  1  0.883500  0.751700  0.916800  1.0  0.1018
  H  H1384  1  0.845100  0.748600  0.889000  1.0  0.0766
  H  H1385  1  0.861200  0.682800  0.893000  1.0  0.0719
  H  H1386  1  0.878200  0.687300  0.937200  1.0  0.116
  H  H1387  1  0.727500  0.560100  0.198100  1.0  0.1114
  H  H1388  1  0.787100  0.577400  0.228100  1.0  0.107
  H  H1389  1  0.815600  0.639400  0.215900  1.0  0.1015
  H  H1390  1  0.784100  0.683900  0.173300  1.0  0.0907
  H  H1391  1  0.730600  0.703000  0.131500  1.0  0.0743
  H  H1392  1  0.689300  0.684600  0.145200  1.0  0.0697
  H  H1393  1  0.730900  0.658600  0.082500  1.0  0.1953
  H  H1394  1  0.717200  0.723000  0.026500  1.0  0.0697
  H  H1395  1  0.723300  0.733400  0.072400  1.0  0.0683
  H  H1396  1  0.679700  0.782000  0.054000  1.0  0.0809
  H  H1397  1  0.656000  0.752800  0.024600  1.0  0.1376
  H  H1398  1  0.616500  0.751700  0.083200  1.0  0.1037
  H  H1399  1  0.654900  0.748600  0.111000  1.0  0.0742
  H  H1400  1  0.638800  0.682800  0.107000  1.0  0.0719
  H  H1401  1  0.621800  0.687300  0.062800  1.0  0.1139
  H  H1402  1  0.227500  0.060100  0.698100  1.0  0.1114
  H  H1403  1  0.287100  0.077400  0.728100  1.0  0.107
  H  H1404  1  0.315600  0.139400  0.715900  1.0  0.1015
  H  H1405  1  0.284100  0.183900  0.673300  1.0  0.0907
  H  H1406  1  0.230600  0.203000  0.631500  1.0  0.0743
  H  H1407  1  0.189300  0.184600  0.645200  1.0  0.0697
  H  H1408  1  0.230900  0.158600  0.582500  1.0  0.1953
  H  H1409  1  0.217200  0.223000  0.526500  1.0  0.0697
  H  H1410  1  0.223300  0.233400  0.572400  1.0  0.0683
  H  H1411  1  0.179700  0.282000  0.554000  1.0  0.0809
  H  H1412  1  0.156000  0.252800  0.524600  1.0  0.1376
  H  H1413  1  0.116500  0.251700  0.583200  1.0  0.1037
  H  H1414  1  0.154900  0.248600  0.611000  1.0  0.0742
  H  H1415  1  0.138800  0.182800  0.607000  1.0  0.0719
  H  H1416  1  0.121800  0.187300  0.562800  1.0  0.1139
  H  H1417  1  0.439900  0.698100  0.772500  1.0  0.1114
  H  H1418  1  0.422600  0.728100  0.712900  1.0  0.1071
  H  H1419  1  0.360600  0.715900  0.684400  1.0  0.1039
  H  H1420  1  0.316100  0.673300  0.715900  1.0  0.0894
  H  H1421  1  0.297000  0.631500  0.769400  1.0  0.0761
  H  H1422  1  0.315400  0.645200  0.810700  1.0  0.0699
  H  H1423  1  0.341400  0.582500  0.769100  1.0  0.1925
  H  H1424  1  0.277000  0.526500  0.782800  1.0  0.0703
  H  H1425  1  0.266600  0.572400  0.776700  1.0  0.0715
  H  H1426  1  0.218000  0.554000  0.820300  1.0  0.0802
  H  H1427  1  0.247200  0.524600  0.844000  1.0  0.1377
  H  H1428  1  0.248300  0.583200  0.883500  1.0  0.1026
  H  H1429  1  0.251400  0.611000  0.845100  1.0  0.0758
  H  H1430  1  0.317200  0.607000  0.861200  1.0  0.0717
  H  H1431  1  0.312700  0.562800  0.878200  1.0  0.1178
  H  H1432  1  0.939900  0.198100  0.272500  1.0  0.1114
  H  H1433  1  0.922600  0.228100  0.212900  1.0  0.1071
  H  H1434  1  0.860600  0.215900  0.184400  1.0  0.1039
  H  H1435  1  0.816100  0.173300  0.215900  1.0  0.0894
  H  H1436  1  0.797000  0.131500  0.269400  1.0  0.0761
  H  H1437  1  0.815400  0.145200  0.310700  1.0  0.0699
  H  H1438  1  0.841400  0.082500  0.269100  1.0  0.1925
  H  H1439  1  0.777000  0.026500  0.282800  1.0  0.0703
  H  H1440  1  0.766600  0.072400  0.276700  1.0  0.0715
  H  H1441  1  0.718000  0.054000  0.320300  1.0  0.0802
  H  H1442  1  0.747200  0.024600  0.344000  1.0  0.1377
  H  H1443  1  0.748300  0.083200  0.383500  1.0  0.1026
  H  H1444  1  0.751400  0.111000  0.345100  1.0  0.0758
  H  H1445  1  0.817200  0.107000  0.361200  1.0  0.0717
  H  H1446  1  0.812700  0.062800  0.378200  1.0  0.1178
  H  H1447  1  0.939900  0.801900  0.227500  1.0  0.1114
  H  H1448  1  0.922600  0.771900  0.287100  1.0  0.1077
  H  H1449  1  0.860600  0.784100  0.315600  1.0  0.103
  H  H1450  1  0.816100  0.826700  0.284100  1.0  0.0896
  H  H1451  1  0.797000  0.868500  0.230600  1.0  0.0759
  H  H1452  1  0.815400  0.854800  0.189300  1.0  0.0712
  H  H1453  1  0.841400  0.917500  0.230900  1.0  0.192
  H  H1454  1  0.777000  0.973500  0.217200  1.0  0.0691
  H  H1455  1  0.766600  0.927600  0.223300  1.0  0.0718
  H  H1456  1  0.718000  0.946000  0.179700  1.0  0.08
  H  H1457  1  0.747200  0.975400  0.156000  1.0  0.1365
  H  H1458  1  0.748300  0.916800  0.116500  1.0  0.1008
  H  H1459  1  0.751400  0.889000  0.154900  1.0  0.0742
  H  H1460  1  0.817200  0.893000  0.138800  1.0  0.0727
  H  H1461  1  0.812700  0.937200  0.121800  1.0  0.1174
  H  H1462  1  0.439900  0.301900  0.727500  1.0  0.1114
  H  H1463  1  0.422600  0.271900  0.787100  1.0  0.1077
  H  H1464  1  0.360600  0.284100  0.815600  1.0  0.103
  H  H1465  1  0.316100  0.326700  0.784100  1.0  0.0896
  H  H1466  1  0.297000  0.368500  0.730600  1.0  0.0759
  H  H1467  1  0.315400  0.354800  0.689300  1.0  0.0712
  H  H1468  1  0.341400  0.417500  0.730900  1.0  0.192
  H  H1469  1  0.277000  0.473500  0.717200  1.0  0.0691
  H  H1470  1  0.266600  0.427600  0.723300  1.0  0.0718
  H  H1471  1  0.218000  0.446000  0.679700  1.0  0.08
  H  H1472  1  0.247200  0.475400  0.656000  1.0  0.1365
  H  H1473  1  0.248300  0.416800  0.616500  1.0  0.1008
  H  H1474  1  0.251400  0.389000  0.654900  1.0  0.0742
  H  H1475  1  0.317200  0.393000  0.638800  1.0  0.0727
  H  H1476  1  0.312700  0.437200  0.621800  1.0  0.1174
  H  H1477  1  0.560100  0.198100  0.727500  1.0  0.111
  H  H1478  1  0.577400  0.228100  0.787100  1.0  0.1079
  H  H1479  1  0.639400  0.215900  0.815600  1.0  0.1033
  H  H1480  1  0.683900  0.173300  0.784100  1.0  0.0891
  H  H1481  1  0.703000  0.131500  0.730600  1.0  0.0736
  H  H1482  1  0.684600  0.145200  0.689300  1.0  0.0707
  H  H1483  1  0.658600  0.082500  0.730900  1.0  0.1935
  H  H1484  1  0.723000  0.026500  0.717200  1.0  0.0709
  H  H1485  1  0.733400  0.072400  0.723300  1.0  0.0707
  H  H1486  1  0.782000  0.054000  0.679700  1.0  0.0776
  H  H1487  1  0.752800  0.024600  0.656000  1.0  0.1378
  H  H1488  1  0.751700  0.083200  0.616500  1.0  0.1036
  H  H1489  1  0.748600  0.111000  0.654900  1.0  0.0747
  H  H1490  1  0.682800  0.107000  0.638800  1.0  0.0746
  H  H1491  1  0.687300  0.062800  0.621800  1.0  0.1193
  H  H1492  1  0.060100  0.698100  0.227500  1.0  0.111
  H  H1493  1  0.077400  0.728100  0.287100  1.0  0.1079
  H  H1494  1  0.139400  0.715900  0.315600  1.0  0.1033
  H  H1495  1  0.183900  0.673300  0.284100  1.0  0.0891
  H  H1496  1  0.203000  0.631500  0.230600  1.0  0.0736
  H  H1497  1  0.184600  0.645200  0.189300  1.0  0.0707
  H  H1498  1  0.158600  0.582500  0.230900  1.0  0.1935
  H  H1499  1  0.223000  0.526500  0.217200  1.0  0.0709
  H  H1500  1  0.233400  0.572400  0.223300  1.0  0.0707
  H  H1501  1  0.282000  0.554000  0.179700  1.0  0.0776
  H  H1502  1  0.252800  0.524600  0.156000  1.0  0.1378
  H  H1503  1  0.251700  0.583200  0.116500  1.0  0.1036
  H  H1504  1  0.248600  0.611000  0.154900  1.0  0.0747
  H  H1505  1  0.182800  0.607000  0.138800  1.0  0.0746
  H  H1506  1  0.187300  0.562800  0.121800  1.0  0.1193
  H  H1507  1  0.060100  0.301900  0.272500  1.0  0.1108
  H  H1508  1  0.077400  0.271900  0.212900  1.0  0.1071
  H  H1509  1  0.139400  0.284100  0.184400  1.0  0.1033
  H  H1510  1  0.183900  0.326700  0.215900  1.0  0.0899
  H  H1511  1  0.203000  0.368500  0.269400  1.0  0.0741
  H  H1512  1  0.184600  0.354800  0.310700  1.0  0.0712
  H  H1513  1  0.158600  0.417500  0.269100  1.0  0.1941
  H  H1514  1  0.223000  0.473500  0.282800  1.0  0.0702
  H  H1515  1  0.233400  0.427600  0.276700  1.0  0.0703
  H  H1516  1  0.282000  0.446000  0.320300  1.0  0.078
  H  H1517  1  0.252800  0.475400  0.344000  1.0  0.1338
  H  H1518  1  0.251700  0.416800  0.383500  1.0  0.1014
  H  H1519  1  0.248600  0.389000  0.345100  1.0  0.0757
  H  H1520  1  0.182800  0.393000  0.361200  1.0  0.0746
  H  H1521  1  0.187300  0.437200  0.378200  1.0  0.119
  H  H1522  1  0.560100  0.801900  0.772500  1.0  0.1108
  H  H1523  1  0.577400  0.771900  0.712900  1.0  0.1071
  H  H1524  1  0.639400  0.784100  0.684400  1.0  0.1033
  H  H1525  1  0.683900  0.826700  0.715900  1.0  0.0899
  H  H1526  1  0.703000  0.868500  0.769400  1.0  0.0741
  H  H1527  1  0.684600  0.854800  0.810700  1.0  0.0712
  H  H1528  1  0.658600  0.917500  0.769100  1.0  0.1941
  H  H1529  1  0.723000  0.973500  0.782800  1.0  0.0702
  H  H1530  1  0.733400  0.927600  0.776700  1.0  0.0703
  H  H1531  1  0.782000  0.946000  0.820300  1.0  0.078
  H  H1532  1  0.752800  0.975400  0.844000  1.0  0.1338
  H  H1533  1  0.751700  0.916800  0.883500  1.0  0.1014
  H  H1534  1  0.748600  0.889000  0.845100  1.0  0.0757
  H  H1535  1  0.682800  0.893000  0.861200  1.0  0.0746
  H  H1536  1  0.687300  0.937200  0.878200  1.0  0.119
  C  C1537  1  0.029890  0.082320  0.861820  1.0  0.271
  C  C1538  1  0.011040  0.056890  0.835140  1.0  -0.1731
  C  C1539  1  0.975650  0.039110  0.845470  1.0  -0.1122
  C  C1540  1  0.958660  0.046380  0.882360  1.0  -0.0832
  C  C1541  1  0.977510  0.071800  0.908920  1.0  -0.1364
  C  C1542  1  0.013000  0.090010  0.899260  1.0  0.0601
  C  C1543  1  0.034710  0.116600  0.928190  1.0  -0.0372
  C  C1544  1  0.065060  0.186100  0.934950  1.0  0.1032
  C  C1545  1  0.046280  0.197680  0.975080  1.0  -0.1767
  C  C1546  1  0.079800  0.199900  0.004600  1.0  -0.1668
  C  C1547  1  0.106600  0.164600  0.990600  1.0  -0.1288
  C  C1548  1  0.107030  0.168930  0.945710  1.0  -0.191
  C  C1549  1  0.072330  0.221930  0.907600  1.0  0.6264
  C  C1550  1  0.119700  0.193900  0.982200  1.0  -0.0456
  C  C1551  1  0.529890  0.582320  0.361820  1.0  0.271
  C  C1552  1  0.511040  0.556890  0.335140  1.0  -0.1731
  C  C1553  1  0.475650  0.539110  0.345470  1.0  -0.1122
  C  C1554  1  0.458660  0.546380  0.382360  1.0  -0.0832
  C  C1555  1  0.477510  0.571800  0.408920  1.0  -0.1364
  C  C1556  1  0.513000  0.590010  0.399260  1.0  0.0601
  C  C1557  1  0.534710  0.616600  0.428190  1.0  -0.0372
  C  C1558  1  0.565060  0.686100  0.434950  1.0  0.1032
  C  C1559  1  0.546280  0.697680  0.475080  1.0  -0.1767
  C  C1560  1  0.579800  0.699900  0.504600  1.0  -0.1668
  C  C1561  1  0.606600  0.664600  0.490600  1.0  -0.1288
  C  C1562  1  0.607030  0.668930  0.445710  1.0  -0.191
  C  C1563  1  0.572330  0.721930  0.407600  1.0  0.6264
  C  C1564  1  0.619700  0.693900  0.482200  1.0  -0.0456
  C  C1565  1  0.470110  0.917680  0.361820  1.0  0.2704
  C  C1566  1  0.488960  0.943110  0.335140  1.0  -0.1736
  C  C1567  1  0.524350  0.960890  0.345470  1.0  -0.1125
  C  C1568  1  0.541340  0.953620  0.382360  1.0  -0.082
  C  C1569  1  0.522490  0.928200  0.408920  1.0  -0.1355
  C  C1570  1  0.487000  0.909990  0.399260  1.0  0.0606
  C  C1571  1  0.465290  0.883400  0.428190  1.0  -0.0371
  C  C1572  1  0.434940  0.813900  0.434950  1.0  0.1026
  C  C1573  1  0.453720  0.802320  0.475080  1.0  -0.1765
  C  C1574  1  0.420200  0.800100  0.504600  1.0  -0.1671
  C  C1575  1  0.393400  0.835400  0.490600  1.0  -0.1339
  C  C1576  1  0.392970  0.831070  0.445710  1.0  -0.1909
  C  C1577  1  0.427670  0.778070  0.407600  1.0  0.6244
  C  C1578  1  0.380300  0.806100  0.482200  1.0  -0.0458
  C  C1579  1  0.970110  0.417680  0.861820  1.0  0.2704
  C  C1580  1  0.988960  0.443110  0.835140  1.0  -0.1736
  C  C1581  1  0.024350  0.460890  0.845470  1.0  -0.1125
  C  C1582  1  0.041340  0.453620  0.882360  1.0  -0.082
  C  C1583  1  0.022490  0.428200  0.908920  1.0  -0.1355
  C  C1584  1  0.987000  0.409990  0.899260  1.0  0.0606
  C  C1585  1  0.965290  0.383400  0.928190  1.0  -0.0371
  C  C1586  1  0.934940  0.313900  0.934950  1.0  0.1026
  C  C1587  1  0.953720  0.302320  0.975080  1.0  -0.1765
  C  C1588  1  0.920200  0.300100  0.004600  1.0  -0.1671
  C  C1589  1  0.893400  0.335400  0.990600  1.0  -0.1339
  C  C1590  1  0.892970  0.331070  0.945710  1.0  -0.1909
  C  C1591  1  0.927670  0.278070  0.907600  1.0  0.6244
  C  C1592  1  0.880300  0.306100  0.982200  1.0  -0.0458
  C  C1593  1  0.970110  0.582320  0.638180  1.0  0.2692
  C  C1594  1  0.988960  0.556890  0.664860  1.0  -0.173
  C  C1595  1  0.024350  0.539110  0.654530  1.0  -0.1111
  C  C1596  1  0.041340  0.546380  0.617640  1.0  -0.0834
  C  C1597  1  0.022490  0.571800  0.591080  1.0  -0.1365
  C  C1598  1  0.987000  0.590010  0.600740  1.0  0.0605
  C  C1599  1  0.965290  0.616600  0.571810  1.0  -0.0395
  C  C1600  1  0.934940  0.686100  0.565050  1.0  0.1035
  C  C1601  1  0.953720  0.697680  0.524920  1.0  -0.1738
  C  C1602  1  0.920200  0.699900  0.495400  1.0  -0.1682
  C  C1603  1  0.893400  0.664600  0.509400  1.0  -0.1299
  C  C1604  1  0.892970  0.668930  0.554290  1.0  -0.1905
  C  C1605  1  0.927670  0.721930  0.592400  1.0  0.6263
  C  C1606  1  0.880300  0.693900  0.517800  1.0  -0.0482
  C  C1607  1  0.470110  0.082320  0.138180  1.0  0.2692
  C  C1608  1  0.488960  0.056890  0.164860  1.0  -0.173
  C  C1609  1  0.524350  0.039110  0.154530  1.0  -0.1111
  C  C1610  1  0.541340  0.046380  0.117640  1.0  -0.0834
  C  C1611  1  0.522490  0.071800  0.091080  1.0  -0.1365
  C  C1612  1  0.487000  0.090010  0.100740  1.0  0.0605
  C  C1613  1  0.465290  0.116600  0.071810  1.0  -0.0395
  C  C1614  1  0.434940  0.186100  0.065050  1.0  0.1035
  C  C1615  1  0.453720  0.197680  0.024920  1.0  -0.1738
  C  C1616  1  0.420200  0.199900  0.995400  1.0  -0.1682
  C  C1617  1  0.393400  0.164600  0.009400  1.0  -0.1299
  C  C1618  1  0.392970  0.168930  0.054290  1.0  -0.1905
  C  C1619  1  0.427670  0.221930  0.092400  1.0  0.6263
  C  C1620  1  0.380300  0.193900  0.017800  1.0  -0.0482
  C  C1621  1  0.529890  0.417680  0.138180  1.0  0.2695
  C  C1622  1  0.511040  0.443110  0.164860  1.0  -0.1739
  C  C1623  1  0.475650  0.460890  0.154530  1.0  -0.1125
  C  C1624  1  0.458660  0.453620  0.117640  1.0  -0.0819
  C  C1625  1  0.477510  0.428200  0.091080  1.0  -0.1352
  C  C1626  1  0.513000  0.409990  0.100740  1.0  0.0596
  C  C1627  1  0.534710  0.383400  0.071810  1.0  -0.0373
  C  C1628  1  0.565060  0.313900  0.065050  1.0  0.1042
  C  C1629  1  0.546280  0.302320  0.024920  1.0  -0.1748
  C  C1630  1  0.579800  0.300100  0.995400  1.0  -0.1671
  C  C1631  1  0.606600  0.335400  0.009400  1.0  -0.1282
  C  C1632  1  0.607030  0.331070  0.054290  1.0  -0.1914
  C  C1633  1  0.572330  0.278070  0.092400  1.0  0.6263
  C  C1634  1  0.619700  0.306100  0.017800  1.0  -0.0437
  C  C1635  1  0.029890  0.917680  0.638180  1.0  0.2695
  C  C1636  1  0.011040  0.943110  0.664860  1.0  -0.1739
  C  C1637  1  0.975650  0.960890  0.654530  1.0  -0.1125
  C  C1638  1  0.958660  0.953620  0.617640  1.0  -0.0819
  C  C1639  1  0.977510  0.928200  0.591080  1.0  -0.1352
  C  C1640  1  0.013000  0.909990  0.600740  1.0  0.0596
  C  C1641  1  0.034710  0.883400  0.571810  1.0  -0.0373
  C  C1642  1  0.065060  0.813900  0.565050  1.0  0.1042
  C  C1643  1  0.046280  0.802320  0.524920  1.0  -0.1748
  C  C1644  1  0.079800  0.800100  0.495400  1.0  -0.1671
  C  C1645  1  0.106600  0.835400  0.509400  1.0  -0.1282
  C  C1646  1  0.107030  0.831070  0.554290  1.0  -0.1914
  C  C1647  1  0.072330  0.778070  0.592400  1.0  0.6263
  C  C1648  1  0.119700  0.806100  0.517800  1.0  -0.0437
  C  C1649  1  0.861820  0.029890  0.082320  1.0  0.268
  C  C1650  1  0.835140  0.011040  0.056890  1.0  -0.1714
  C  C1651  1  0.845470  0.975650  0.039110  1.0  -0.1122
  C  C1652  1  0.882360  0.958660  0.046380  1.0  -0.0797
  C  C1653  1  0.908920  0.977510  0.071800  1.0  -0.1392
  C  C1654  1  0.899260  0.013000  0.090010  1.0  0.0614
  C  C1655  1  0.928190  0.034710  0.116600  1.0  -0.0421
  C  C1656  1  0.934950  0.065060  0.186100  1.0  0.1027
  C  C1657  1  0.975080  0.046280  0.197680  1.0  -0.1741
  C  C1658  1  0.004600  0.079800  0.199900  1.0  -0.1716
  C  C1659  1  0.990600  0.106600  0.164600  1.0  -0.1309
  C  C1660  1  0.945710  0.107030  0.168930  1.0  -0.1923
  C  C1661  1  0.907600  0.072330  0.221930  1.0  0.6267
  C  C1662  1  0.982200  0.119700  0.193900  1.0  -0.0506
  C  C1663  1  0.361820  0.529890  0.582320  1.0  0.268
  C  C1664  1  0.335140  0.511040  0.556890  1.0  -0.1714
  C  C1665  1  0.345470  0.475650  0.539110  1.0  -0.1122
  C  C1666  1  0.382360  0.458660  0.546380  1.0  -0.0797
  C  C1667  1  0.408920  0.477510  0.571800  1.0  -0.1392
  C  C1668  1  0.399260  0.513000  0.590010  1.0  0.0614
  C  C1669  1  0.428190  0.534710  0.616600  1.0  -0.0421
  C  C1670  1  0.434950  0.565060  0.686100  1.0  0.1027
  C  C1671  1  0.475080  0.546280  0.697680  1.0  -0.1741
  C  C1672  1  0.504600  0.579800  0.699900  1.0  -0.1716
  C  C1673  1  0.490600  0.606600  0.664600  1.0  -0.1309
  C  C1674  1  0.445710  0.607030  0.668930  1.0  -0.1923
  C  C1675  1  0.407600  0.572330  0.721930  1.0  0.6267
  C  C1676  1  0.482200  0.619700  0.693900  1.0  -0.0506
  C  C1677  1  0.361820  0.470110  0.917680  1.0  0.2679
  C  C1678  1  0.335140  0.488960  0.943110  1.0  -0.1715
  C  C1679  1  0.345470  0.524350  0.960890  1.0  -0.1121
  C  C1680  1  0.382360  0.541340  0.953620  1.0  -0.08
  C  C1681  1  0.408920  0.522490  0.928200  1.0  -0.1388
  C  C1682  1  0.399260  0.487000  0.909990  1.0  0.0618
  C  C1683  1  0.428190  0.465290  0.883400  1.0  -0.0422
  C  C1684  1  0.434950  0.434940  0.813900  1.0  0.1015
  C  C1685  1  0.475080  0.453720  0.802320  1.0  -0.1741
  C  C1686  1  0.504600  0.420200  0.800100  1.0  -0.1711
  C  C1687  1  0.490600  0.393400  0.835400  1.0  -0.1357
  C  C1688  1  0.445710  0.392970  0.831070  1.0  -0.1932
  C  C1689  1  0.407600  0.427670  0.778070  1.0  0.6262
  C  C1690  1  0.482200  0.380300  0.806100  1.0  -0.0469
  C  C1691  1  0.861820  0.970110  0.417680  1.0  0.2679
  C  C1692  1  0.835140  0.988960  0.443110  1.0  -0.1715
  C  C1693  1  0.845470  0.024350  0.460890  1.0  -0.1121
  C  C1694  1  0.882360  0.041340  0.453620  1.0  -0.08
  C  C1695  1  0.908920  0.022490  0.428200  1.0  -0.1388
  C  C1696  1  0.899260  0.987000  0.409990  1.0  0.0618
  C  C1697  1  0.928190  0.965290  0.383400  1.0  -0.0422
  C  C1698  1  0.934950  0.934940  0.313900  1.0  0.1015
  C  C1699  1  0.975080  0.953720  0.302320  1.0  -0.1741
  C  C1700  1  0.004600  0.920200  0.300100  1.0  -0.1711
  C  C1701  1  0.990600  0.893400  0.335400  1.0  -0.1357
  C  C1702  1  0.945710  0.892970  0.331070  1.0  -0.1932
  C  C1703  1  0.907600  0.927670  0.278070  1.0  0.6262
  C  C1704  1  0.982200  0.880300  0.306100  1.0  -0.0469
  C  C1705  1  0.638180  0.970110  0.582320  1.0  0.2675
  C  C1706  1  0.664860  0.988960  0.556890  1.0  -0.1732
  C  C1707  1  0.654530  0.024350  0.539110  1.0  -0.1112
  C  C1708  1  0.617640  0.041340  0.546380  1.0  -0.0793
  C  C1709  1  0.591080  0.022490  0.571800  1.0  -0.1373
  C  C1710  1  0.600740  0.987000  0.590010  1.0  0.0613
  C  C1711  1  0.571810  0.965290  0.616600  1.0  -0.044
  C  C1712  1  0.565050  0.934940  0.686100  1.0  0.1015
  C  C1713  1  0.524920  0.953720  0.697680  1.0  -0.1742
  C  C1714  1  0.495400  0.920200  0.699900  1.0  -0.1751
  C  C1715  1  0.509400  0.893400  0.664600  1.0  -0.1357
  C  C1716  1  0.554290  0.892970  0.668930  1.0  -0.1917
  C  C1717  1  0.592400  0.927670  0.721930  1.0  0.6273
  C  C1718  1  0.517800  0.880300  0.693900  1.0  -0.0475
  C  C1719  1  0.138180  0.470110  0.082320  1.0  0.2675
  C  C1720  1  0.164860  0.488960  0.056890  1.0  -0.1732
  C  C1721  1  0.154530  0.524350  0.039110  1.0  -0.1112
  C  C1722  1  0.117640  0.541340  0.046380  1.0  -0.0793
  C  C1723  1  0.091080  0.522490  0.071800  1.0  -0.1373
  C  C1724  1  0.100740  0.487000  0.090010  1.0  0.0613
  C  C1725  1  0.071810  0.465290  0.116600  1.0  -0.044
  C  C1726  1  0.065050  0.434940  0.186100  1.0  0.1015
  C  C1727  1  0.024920  0.453720  0.197680  1.0  -0.1742
  C  C1728  1  0.995400  0.420200  0.199900  1.0  -0.1751
  C  C1729  1  0.009400  0.393400  0.164600  1.0  -0.1357
  C  C1730  1  0.054290  0.392970  0.168930  1.0  -0.1917
  C  C1731  1  0.092400  0.427670  0.221930  1.0  0.6273
  C  C1732  1  0.017800  0.380300  0.193900  1.0  -0.0475
  C  C1733  1  0.138180  0.529890  0.417680  1.0  0.2671
  C  C1734  1  0.164860  0.511040  0.443110  1.0  -0.1722
  C  C1735  1  0.154530  0.475650  0.460890  1.0  -0.1118
  C  C1736  1  0.117640  0.458660  0.453620  1.0  -0.0803
  C  C1737  1  0.091080  0.477510  0.428200  1.0  -0.1376
  C  C1738  1  0.100740  0.513000  0.409990  1.0  0.0609
  C  C1739  1  0.071810  0.534710  0.383400  1.0  -0.043
  C  C1740  1  0.065050  0.565060  0.313900  1.0  0.1017
  C  C1741  1  0.024920  0.546280  0.302320  1.0  -0.1743
  C  C1742  1  0.995400  0.579800  0.300100  1.0  -0.1743
  C  C1743  1  0.009400  0.606600  0.335400  1.0  -0.1351
  C  C1744  1  0.054290  0.607030  0.331070  1.0  -0.1926
  C  C1745  1  0.092400  0.572330  0.278070  1.0  0.6252
  C  C1746  1  0.017800  0.619700  0.306100  1.0  -0.0472
  C  C1747  1  0.638180  0.029890  0.917680  1.0  0.2671
  C  C1748  1  0.664860  0.011040  0.943110  1.0  -0.1722
  C  C1749  1  0.654530  0.975650  0.960890  1.0  -0.1118
  C  C1750  1  0.617640  0.958660  0.953620  1.0  -0.0803
  C  C1751  1  0.591080  0.977510  0.928200  1.0  -0.1376
  C  C1752  1  0.600740  0.013000  0.909990  1.0  0.0609
  C  C1753  1  0.571810  0.034710  0.883400  1.0  -0.043
  C  C1754  1  0.565050  0.065060  0.813900  1.0  0.1017
  C  C1755  1  0.524920  0.046280  0.802320  1.0  -0.1743
  C  C1756  1  0.495400  0.079800  0.800100  1.0  -0.1743
  C  C1757  1  0.509400  0.106600  0.835400  1.0  -0.1351
  C  C1758  1  0.554290  0.107030  0.831070  1.0  -0.1926
  C  C1759  1  0.592400  0.072330  0.778070  1.0  0.6252
  C  C1760  1  0.517800  0.119700  0.806100  1.0  -0.0472
  C  C1761  1  0.082320  0.861820  0.029890  1.0  0.2699
  C  C1762  1  0.056890  0.835140  0.011040  1.0  -0.1703
  C  C1763  1  0.039110  0.845470  0.975650  1.0  -0.1133
  C  C1764  1  0.046380  0.882360  0.958660  1.0  -0.084
  C  C1765  1  0.071800  0.908920  0.977510  1.0  -0.131
  C  C1766  1  0.090010  0.899260  0.013000  1.0  0.0603
  C  C1767  1  0.116600  0.928190  0.034710  1.0  -0.0445
  C  C1768  1  0.186100  0.934950  0.065060  1.0  0.102
  C  C1769  1  0.197680  0.975080  0.046280  1.0  -0.1761
  C  C1770  1  0.199900  0.004600  0.079800  1.0  -0.1731
  C  C1771  1  0.164600  0.990600  0.106600  1.0  -0.1392
  C  C1772  1  0.168930  0.945710  0.107030  1.0  -0.1956
  C  C1773  1  0.221930  0.907600  0.072330  1.0  0.6222
  C  C1774  1  0.193900  0.982200  0.119700  1.0  -0.0404
  C  C1775  1  0.582320  0.361820  0.529890  1.0  0.2699
  C  C1776  1  0.556890  0.335140  0.511040  1.0  -0.1703
  C  C1777  1  0.539110  0.345470  0.475650  1.0  -0.1133
  C  C1778  1  0.546380  0.382360  0.458660  1.0  -0.084
  C  C1779  1  0.571800  0.408920  0.477510  1.0  -0.131
  C  C1780  1  0.590010  0.399260  0.513000  1.0  0.0603
  C  C1781  1  0.616600  0.428190  0.534710  1.0  -0.0445
  C  C1782  1  0.686100  0.434950  0.565060  1.0  0.102
  C  C1783  1  0.697680  0.475080  0.546280  1.0  -0.1761
  C  C1784  1  0.699900  0.504600  0.579800  1.0  -0.1731
  C  C1785  1  0.664600  0.490600  0.606600  1.0  -0.1392
  C  C1786  1  0.668930  0.445710  0.607030  1.0  -0.1956
  C  C1787  1  0.721930  0.407600  0.572330  1.0  0.6222
  C  C1788  1  0.693900  0.482200  0.619700  1.0  -0.0404
  C  C1789  1  0.917680  0.361820  0.470110  1.0  0.2715
  C  C1790  1  0.943110  0.335140  0.488960  1.0  -0.1702
  C  C1791  1  0.960890  0.345470  0.524350  1.0  -0.1126
  C  C1792  1  0.953620  0.382360  0.541340  1.0  -0.0855
  C  C1793  1  0.928200  0.408920  0.522490  1.0  -0.1322
  C  C1794  1  0.909990  0.399260  0.487000  1.0  0.0595
  C  C1795  1  0.883400  0.428190  0.465290  1.0  -0.0439
  C  C1796  1  0.813900  0.434950  0.434940  1.0  0.1034
  C  C1797  1  0.802320  0.475080  0.453720  1.0  -0.1782
  C  C1798  1  0.800100  0.504600  0.420200  1.0  -0.1731
  C  C1799  1  0.835400  0.490600  0.393400  1.0  -0.1374
  C  C1800  1  0.831070  0.445710  0.392970  1.0  -0.1986
  C  C1801  1  0.778070  0.407600  0.427670  1.0  0.6212
  C  C1802  1  0.806100  0.482200  0.380300  1.0  -0.0437
  C  C1803  1  0.417680  0.861820  0.970110  1.0  0.2715
  C  C1804  1  0.443110  0.835140  0.988960  1.0  -0.1702
  C  C1805  1  0.460890  0.845470  0.024350  1.0  -0.1126
  C  C1806  1  0.453620  0.882360  0.041340  1.0  -0.0855
  C  C1807  1  0.428200  0.908920  0.022490  1.0  -0.1322
  C  C1808  1  0.409990  0.899260  0.987000  1.0  0.0595
  C  C1809  1  0.383400  0.928190  0.965290  1.0  -0.0439
  C  C1810  1  0.313900  0.934950  0.934940  1.0  0.1034
  C  C1811  1  0.302320  0.975080  0.953720  1.0  -0.1782
  C  C1812  1  0.300100  0.004600  0.920200  1.0  -0.1731
  C  C1813  1  0.335400  0.990600  0.893400  1.0  -0.1374
  C  C1814  1  0.331070  0.945710  0.892970  1.0  -0.1986
  C  C1815  1  0.278070  0.907600  0.927670  1.0  0.6212
  C  C1816  1  0.306100  0.982200  0.880300  1.0  -0.0437
  C  C1817  1  0.582320  0.638180  0.970110  1.0  0.2727
  C  C1818  1  0.556890  0.664860  0.988960  1.0  -0.1703
  C  C1819  1  0.539110  0.654530  0.024350  1.0  -0.1127
  C  C1820  1  0.546380  0.617640  0.041340  1.0  -0.0844
  C  C1821  1  0.571800  0.591080  0.022490  1.0  -0.1329
  C  C1822  1  0.590010  0.600740  0.987000  1.0  0.0604
  C  C1823  1  0.616600  0.571810  0.965290  1.0  -0.0439
  C  C1824  1  0.686100  0.565050  0.934940  1.0  0.1031
  C  C1825  1  0.697680  0.524920  0.953720  1.0  -0.177
  C  C1826  1  0.699900  0.495400  0.920200  1.0  -0.1706
  C  C1827  1  0.664600  0.509400  0.893400  1.0  -0.1349
  C  C1828  1  0.668930  0.554290  0.892970  1.0  -0.1973
  C  C1829  1  0.721930  0.592400  0.927670  1.0  0.6224
  C  C1830  1  0.693900  0.517800  0.880300  1.0  -0.0372
  C  C1831  1  0.082320  0.138180  0.470110  1.0  0.2727
  C  C1832  1  0.056890  0.164860  0.488960  1.0  -0.1703
  C  C1833  1  0.039110  0.154530  0.524350  1.0  -0.1127
  C  C1834  1  0.046380  0.117640  0.541340  1.0  -0.0844
  C  C1835  1  0.071800  0.091080  0.522490  1.0  -0.1329
  C  C1836  1  0.090010  0.100740  0.487000  1.0  0.0604
  C  C1837  1  0.116600  0.071810  0.465290  1.0  -0.0439
  C  C1838  1  0.186100  0.065050  0.434940  1.0  0.1031
  C  C1839  1  0.197680  0.024920  0.453720  1.0  -0.177
  C  C1840  1  0.199900  0.995400  0.420200  1.0  -0.1706
  C  C1841  1  0.164600  0.009400  0.393400  1.0  -0.1349
  C  C1842  1  0.168930  0.054290  0.392970  1.0  -0.1973
  C  C1843  1  0.221930  0.092400  0.427670  1.0  0.6224
  C  C1844  1  0.193900  0.017800  0.380300  1.0  -0.0372
  C  C1845  1  0.417680  0.138180  0.529890  1.0  0.2702
  C  C1846  1  0.443110  0.164860  0.511040  1.0  -0.1713
  C  C1847  1  0.460890  0.154530  0.475650  1.0  -0.1147
  C  C1848  1  0.453620  0.117640  0.458660  1.0  -0.0844
  C  C1849  1  0.428200  0.091080  0.477510  1.0  -0.1333
  C  C1850  1  0.409990  0.100740  0.513000  1.0  0.0603
  C  C1851  1  0.383400  0.071810  0.534710  1.0  -0.0444
  C  C1852  1  0.313900  0.065050  0.565060  1.0  0.1034
  C  C1853  1  0.302320  0.024920  0.546280  1.0  -0.1761
  C  C1854  1  0.300100  0.995400  0.579800  1.0  -0.1703
  C  C1855  1  0.335400  0.009400  0.606600  1.0  -0.1352
  C  C1856  1  0.331070  0.054290  0.607030  1.0  -0.1974
  C  C1857  1  0.278070  0.092400  0.572330  1.0  0.6215
  C  C1858  1  0.306100  0.017800  0.619700  1.0  -0.0468
  C  C1859  1  0.917680  0.638180  0.029890  1.0  0.2702
  C  C1860  1  0.943110  0.664860  0.011040  1.0  -0.1713
  C  C1861  1  0.960890  0.654530  0.975650  1.0  -0.1147
  C  C1862  1  0.953620  0.617640  0.958660  1.0  -0.0844
  C  C1863  1  0.928200  0.591080  0.977510  1.0  -0.1333
  C  C1864  1  0.909990  0.600740  0.013000  1.0  0.0603
  C  C1865  1  0.883400  0.571810  0.034710  1.0  -0.0444
  C  C1866  1  0.813900  0.565050  0.065060  1.0  0.1034
  C  C1867  1  0.802320  0.524920  0.046280  1.0  -0.1761
  C  C1868  1  0.800100  0.495400  0.079800  1.0  -0.1703
  C  C1869  1  0.835400  0.509400  0.106600  1.0  -0.1352
  C  C1870  1  0.831070  0.554290  0.107030  1.0  -0.1974
  C  C1871  1  0.778070  0.592400  0.072330  1.0  0.6215
  C  C1872  1  0.806100  0.517800  0.119700  1.0  -0.0468
  C  C1873  1  0.832320  0.279890  0.388180  1.0  0.268
  C  C1874  1  0.806890  0.261040  0.414860  1.0  -0.1737
  C  C1875  1  0.789110  0.225650  0.404530  1.0  -0.1114
  C  C1876  1  0.796380  0.208660  0.367640  1.0  -0.0829
  C  C1877  1  0.821800  0.227510  0.341080  1.0  -0.1303
  C  C1878  1  0.840010  0.263000  0.350740  1.0  0.0601
  C  C1879  1  0.866600  0.284710  0.321810  1.0  -0.0417
  C  C1880  1  0.936100  0.315060  0.315050  1.0  0.1033
  C  C1881  1  0.947680  0.296280  0.274920  1.0  -0.1746
  C  C1882  1  0.949900  0.329800  0.245400  1.0  -0.1694
  C  C1883  1  0.914600  0.356600  0.259400  1.0  -0.1297
  C  C1884  1  0.918930  0.357030  0.304290  1.0  -0.1928
  C  C1885  1  0.971930  0.322330  0.342400  1.0  0.6249
  C  C1886  1  0.943900  0.369700  0.267800  1.0  -0.0425
  C  C1887  1  0.332320  0.779890  0.888180  1.0  0.268
  C  C1888  1  0.306890  0.761040  0.914860  1.0  -0.1737
  C  C1889  1  0.289110  0.725650  0.904530  1.0  -0.1114
  C  C1890  1  0.296380  0.708660  0.867640  1.0  -0.0829
  C  C1891  1  0.321800  0.727510  0.841080  1.0  -0.1303
  C  C1892  1  0.340010  0.763000  0.850740  1.0  0.0601
  C  C1893  1  0.366600  0.784710  0.821810  1.0  -0.0417
  C  C1894  1  0.436100  0.815060  0.815050  1.0  0.1033
  C  C1895  1  0.447680  0.796280  0.774920  1.0  -0.1746
  C  C1896  1  0.449900  0.829800  0.745400  1.0  -0.1694
  C  C1897  1  0.414600  0.856600  0.759400  1.0  -0.1297
  C  C1898  1  0.418930  0.857030  0.804290  1.0  -0.1928
  C  C1899  1  0.471930  0.822330  0.842400  1.0  0.6249
  C  C1900  1  0.443900  0.869700  0.767800  1.0  -0.0425
  C  C1901  1  0.667680  0.720110  0.888180  1.0  0.2675
  C  C1902  1  0.693110  0.738960  0.914860  1.0  -0.1742
  C  C1903  1  0.710890  0.774350  0.904530  1.0  -0.1108
  C  C1904  1  0.703620  0.791340  0.867640  1.0  -0.0835
  C  C1905  1  0.678200  0.772490  0.841080  1.0  -0.1313
  C  C1906  1  0.659990  0.737000  0.850740  1.0  0.06
  C  C1907  1  0.633400  0.715290  0.821810  1.0  -0.0422
  C  C1908  1  0.563900  0.684940  0.815050  1.0  0.1033
  C  C1909  1  0.552320  0.703720  0.774920  1.0  -0.1747
  C  C1910  1  0.550100  0.670200  0.745400  1.0  -0.1685
  C  C1911  1  0.585400  0.643400  0.759400  1.0  -0.1338
  C  C1912  1  0.581070  0.642970  0.804290  1.0  -0.1922
  C  C1913  1  0.528070  0.677670  0.842400  1.0  0.624
  C  C1914  1  0.556100  0.630300  0.767800  1.0  -0.0478
  C  C1915  1  0.167680  0.220110  0.388180  1.0  0.2675
  C  C1916  1  0.193110  0.238960  0.414860  1.0  -0.1742
  C  C1917  1  0.210890  0.274350  0.404530  1.0  -0.1108
  C  C1918  1  0.203620  0.291340  0.367640  1.0  -0.0835
  C  C1919  1  0.178200  0.272490  0.341080  1.0  -0.1313
  C  C1920  1  0.159990  0.237000  0.350740  1.0  0.06
  C  C1921  1  0.133400  0.215290  0.321810  1.0  -0.0422
  C  C1922  1  0.063900  0.184940  0.315050  1.0  0.1033
  C  C1923  1  0.052320  0.203720  0.274920  1.0  -0.1747
  C  C1924  1  0.050100  0.170200  0.245400  1.0  -0.1685
  C  C1925  1  0.085400  0.143400  0.259400  1.0  -0.1338
  C  C1926  1  0.081070  0.142970  0.304290  1.0  -0.1922
  C  C1927  1  0.028070  0.177670  0.342400  1.0  0.624
  C  C1928  1  0.056100  0.130300  0.267800  1.0  -0.0478
  C  C1929  1  0.332320  0.220110  0.611820  1.0  0.2692
  C  C1930  1  0.306890  0.238960  0.585140  1.0  -0.1736
  C  C1931  1  0.289110  0.274350  0.595470  1.0  -0.1107
  C  C1932  1  0.296380  0.291340  0.632360  1.0  -0.0827
  C  C1933  1  0.321800  0.272490  0.658920  1.0  -0.1317
  C  C1934  1  0.340010  0.237000  0.649260  1.0  0.0608
  C  C1935  1  0.366600  0.215290  0.678190  1.0  -0.0412
  C  C1936  1  0.436100  0.184940  0.684950  1.0  0.1019
  C  C1937  1  0.447680  0.203720  0.725080  1.0  -0.1758
  C  C1938  1  0.449900  0.170200  0.754600  1.0  -0.1687
  C  C1939  1  0.414600  0.143400  0.740600  1.0  -0.1344
  C  C1940  1  0.418930  0.142970  0.695710  1.0  -0.1914
  C  C1941  1  0.471930  0.177670  0.657600  1.0  0.6241
  C  C1942  1  0.443900  0.130300  0.732200  1.0  -0.0401
  C  C1943  1  0.832320  0.720110  0.111820  1.0  0.2692
  C  C1944  1  0.806890  0.738960  0.085140  1.0  -0.1736
  C  C1945  1  0.789110  0.774350  0.095470  1.0  -0.1107
  C  C1946  1  0.796380  0.791340  0.132360  1.0  -0.0827
  C  C1947  1  0.821800  0.772490  0.158920  1.0  -0.1317
  C  C1948  1  0.840010  0.737000  0.149260  1.0  0.0608
  C  C1949  1  0.866600  0.715290  0.178190  1.0  -0.0412
  C  C1950  1  0.936100  0.684940  0.184950  1.0  0.1019
  C  C1951  1  0.947680  0.703720  0.225080  1.0  -0.1758
  C  C1952  1  0.949900  0.670200  0.254600  1.0  -0.1687
  C  C1953  1  0.914600  0.643400  0.240600  1.0  -0.1344
  C  C1954  1  0.918930  0.642970  0.195710  1.0  -0.1914
  C  C1955  1  0.971930  0.677670  0.157600  1.0  0.6241
  C  C1956  1  0.943900  0.630300  0.232200  1.0  -0.0401
  C  C1957  1  0.167680  0.779890  0.111820  1.0  0.2688
  C  C1958  1  0.193110  0.761040  0.085140  1.0  -0.1739
  C  C1959  1  0.210890  0.725650  0.095470  1.0  -0.1122
  C  C1960  1  0.203620  0.708660  0.132360  1.0  -0.0832
  C  C1961  1  0.178200  0.727510  0.158920  1.0  -0.1321
  C  C1962  1  0.159990  0.763000  0.149260  1.0  0.0602
  C  C1963  1  0.133400  0.784710  0.178190  1.0  -0.0409
  C  C1964  1  0.063900  0.815060  0.184950  1.0  0.1025
  C  C1965  1  0.052320  0.796280  0.225080  1.0  -0.1762
  C  C1966  1  0.050100  0.829800  0.254600  1.0  -0.166
  C  C1967  1  0.085400  0.856600  0.240600  1.0  -0.1342
  C  C1968  1  0.081070  0.857030  0.195710  1.0  -0.1929
  C  C1969  1  0.028070  0.822330  0.157600  1.0  0.623
  C  C1970  1  0.056100  0.869700  0.232200  1.0  -0.0485
  C  C1971  1  0.667680  0.279890  0.611820  1.0  0.2688
  C  C1972  1  0.693110  0.261040  0.585140  1.0  -0.1739
  C  C1973  1  0.710890  0.225650  0.595470  1.0  -0.1122
  C  C1974  1  0.703620  0.208660  0.632360  1.0  -0.0832
  C  C1975  1  0.678200  0.227510  0.658920  1.0  -0.1321
  C  C1976  1  0.659990  0.263000  0.649260  1.0  0.0602
  C  C1977  1  0.633400  0.284710  0.678190  1.0  -0.0409
  C  C1978  1  0.563900  0.315060  0.684950  1.0  0.1025
  C  C1979  1  0.552320  0.296280  0.725080  1.0  -0.1762
  C  C1980  1  0.550100  0.329800  0.754600  1.0  -0.166
  C  C1981  1  0.585400  0.356600  0.740600  1.0  -0.1342
  C  C1982  1  0.581070  0.357030  0.695710  1.0  -0.1929
  C  C1983  1  0.528070  0.322330  0.657600  1.0  0.623
  C  C1984  1  0.556100  0.369700  0.732200  1.0  -0.0485
  C  C1985  1  0.779890  0.111820  0.167680  1.0  0.268
  C  C1986  1  0.761040  0.085140  0.193110  1.0  -0.1714
  C  C1987  1  0.725650  0.095470  0.210890  1.0  -0.1114
  C  C1988  1  0.708660  0.132360  0.203620  1.0  -0.0853
  C  C1989  1  0.727510  0.158920  0.178200  1.0  -0.1381
  C  C1990  1  0.763000  0.149260  0.159990  1.0  0.0614
  C  C1991  1  0.784710  0.178190  0.133400  1.0  -0.0414
  C  C1992  1  0.815060  0.184950  0.063900  1.0  0.1023
  C  C1993  1  0.796280  0.225080  0.052320  1.0  -0.1766
  C  C1994  1  0.829800  0.254600  0.050100  1.0  -0.1699
  C  C1995  1  0.856600  0.240600  0.085400  1.0  -0.1334
  C  C1996  1  0.857030  0.195710  0.081070  1.0  -0.1909
  C  C1997  1  0.822330  0.157600  0.028070  1.0  0.6256
  C  C1998  1  0.869700  0.232200  0.056100  1.0  -0.0425
  C  C1999  1  0.279890  0.611820  0.667680  1.0  0.268
  C  C2000  1  0.261040  0.585140  0.693110  1.0  -0.1714
  C  C2001  1  0.225650  0.595470  0.710890  1.0  -0.1114
  C  C2002  1  0.208660  0.632360  0.703620  1.0  -0.0853
  C  C2003  1  0.227510  0.658920  0.678200  1.0  -0.1381
  C  C2004  1  0.263000  0.649260  0.659990  1.0  0.0614
  C  C2005  1  0.284710  0.678190  0.633400  1.0  -0.0414
  C  C2006  1  0.315060  0.684950  0.563900  1.0  0.1023
  C  C2007  1  0.296280  0.725080  0.552320  1.0  -0.1766
  C  C2008  1  0.329800  0.754600  0.550100  1.0  -0.1699
  C  C2009  1  0.356600  0.740600  0.585400  1.0  -0.1334
  C  C2010  1  0.357030  0.695710  0.581070  1.0  -0.1909
  C  C2011  1  0.322330  0.657600  0.528070  1.0  0.6256
  C  C2012  1  0.369700  0.732200  0.556100  1.0  -0.0425
  C  C2013  1  0.220110  0.611820  0.332320  1.0  0.2684
  C  C2014  1  0.238960  0.585140  0.306890  1.0  -0.1717
  C  C2015  1  0.274350  0.595470  0.289110  1.0  -0.1114
  C  C2016  1  0.291340  0.632360  0.296380  1.0  -0.0849
  C  C2017  1  0.272490  0.658920  0.321800  1.0  -0.1374
  C  C2018  1  0.237000  0.649260  0.340010  1.0  0.0616
  C  C2019  1  0.215290  0.678190  0.366600  1.0  -0.0416
  C  C2020  1  0.184940  0.684950  0.436100  1.0  0.1026
  C  C2021  1  0.203720  0.725080  0.447680  1.0  -0.1764
  C  C2022  1  0.170200  0.754600  0.449900  1.0  -0.1719
  C  C2023  1  0.143400  0.740600  0.414600  1.0  -0.1332
  C  C2024  1  0.142970  0.695710  0.418930  1.0  -0.1905
  C  C2025  1  0.177670  0.657600  0.471930  1.0  0.6275
  C  C2026  1  0.130300  0.732200  0.443900  1.0  -0.0487
  C  C2027  1  0.720110  0.111820  0.832320  1.0  0.2684
  C  C2028  1  0.738960  0.085140  0.806890  1.0  -0.1717
  C  C2029  1  0.774350  0.095470  0.789110  1.0  -0.1114
  C  C2030  1  0.791340  0.132360  0.796380  1.0  -0.0849
  C  C2031  1  0.772490  0.158920  0.821800  1.0  -0.1374
  C  C2032  1  0.737000  0.149260  0.840010  1.0  0.0616
  C  C2033  1  0.715290  0.178190  0.866600  1.0  -0.0416
  C  C2034  1  0.684940  0.184950  0.936100  1.0  0.1026
  C  C2035  1  0.703720  0.225080  0.947680  1.0  -0.1764
  C  C2036  1  0.670200  0.254600  0.949900  1.0  -0.1719
  C  C2037  1  0.643400  0.240600  0.914600  1.0  -0.1332
  C  C2038  1  0.642970  0.195710  0.918930  1.0  -0.1905
  C  C2039  1  0.677670  0.157600  0.971930  1.0  0.6275
  C  C2040  1  0.630300  0.232200  0.943900  1.0  -0.0487
  C  C2041  1  0.720110  0.888180  0.667680  1.0  0.2686
  C  C2042  1  0.738960  0.914860  0.693110  1.0  -0.1721
  C  C2043  1  0.774350  0.904530  0.710890  1.0  -0.1122
  C  C2044  1  0.791340  0.867640  0.703620  1.0  -0.0841
  C  C2045  1  0.772490  0.841080  0.678200  1.0  -0.1383
  C  C2046  1  0.737000  0.850740  0.659990  1.0  0.062
  C  C2047  1  0.715290  0.821810  0.633400  1.0  -0.0417
  C  C2048  1  0.684940  0.815050  0.563900  1.0  0.1026
  C  C2049  1  0.703720  0.774920  0.552320  1.0  -0.1776
  C  C2050  1  0.670200  0.745400  0.550100  1.0  -0.1683
  C  C2051  1  0.643400  0.759400  0.585400  1.0  -0.1304
  C  C2052  1  0.642970  0.804290  0.581070  1.0  -0.1908
  C  C2053  1  0.677670  0.842400  0.528070  1.0  0.6263
  C  C2054  1  0.630300  0.767800  0.556100  1.0  -0.0465
  C  C2055  1  0.220110  0.388180  0.167680  1.0  0.2686
  C  C2056  1  0.238960  0.414860  0.193110  1.0  -0.1721
  C  C2057  1  0.274350  0.404530  0.210890  1.0  -0.1122
  C  C2058  1  0.291340  0.367640  0.203620  1.0  -0.0841
  C  C2059  1  0.272490  0.341080  0.178200  1.0  -0.1383
  C  C2060  1  0.237000  0.350740  0.159990  1.0  0.062
  C  C2061  1  0.215290  0.321810  0.133400  1.0  -0.0417
  C  C2062  1  0.184940  0.315050  0.063900  1.0  0.1026
  C  C2063  1  0.203720  0.274920  0.052320  1.0  -0.1776
  C  C2064  1  0.170200  0.245400  0.050100  1.0  -0.1683
  C  C2065  1  0.143400  0.259400  0.085400  1.0  -0.1304
  C  C2066  1  0.142970  0.304290  0.081070  1.0  -0.1908
  C  C2067  1  0.177670  0.342400  0.028070  1.0  0.6263
  C  C2068  1  0.130300  0.267800  0.056100  1.0  -0.0465
  C  C2069  1  0.279890  0.388180  0.832320  1.0  0.2693
  C  C2070  1  0.261040  0.414860  0.806890  1.0  -0.1722
  C  C2071  1  0.225650  0.404530  0.789110  1.0  -0.1127
  C  C2072  1  0.208660  0.367640  0.796380  1.0  -0.0836
  C  C2073  1  0.227510  0.341080  0.821800  1.0  -0.1391
  C  C2074  1  0.263000  0.350740  0.840010  1.0  0.0618
  C  C2075  1  0.284710  0.321810  0.866600  1.0  -0.0419
  C  C2076  1  0.315060  0.315050  0.936100  1.0  0.1032
  C  C2077  1  0.296280  0.274920  0.947680  1.0  -0.1772
  C  C2078  1  0.329800  0.245400  0.949900  1.0  -0.1675
  C  C2079  1  0.356600  0.259400  0.914600  1.0  -0.129
  C  C2080  1  0.357030  0.304290  0.918930  1.0  -0.191
  C  C2081  1  0.322330  0.342400  0.971930  1.0  0.627
  C  C2082  1  0.369700  0.267800  0.943900  1.0  -0.0433
  C  C2083  1  0.779890  0.888180  0.332320  1.0  0.2693
  C  C2084  1  0.761040  0.914860  0.306890  1.0  -0.1722
  C  C2085  1  0.725650  0.904530  0.289110  1.0  -0.1127
  C  C2086  1  0.708660  0.867640  0.296380  1.0  -0.0836
  C  C2087  1  0.727510  0.841080  0.321800  1.0  -0.1391
  C  C2088  1  0.763000  0.850740  0.340010  1.0  0.0618
  C  C2089  1  0.784710  0.821810  0.366600  1.0  -0.0419
  C  C2090  1  0.815060  0.815050  0.436100  1.0  0.1032
  C  C2091  1  0.796280  0.774920  0.447680  1.0  -0.1772
  C  C2092  1  0.829800  0.745400  0.449900  1.0  -0.1675
  C  C2093  1  0.856600  0.759400  0.414600  1.0  -0.129
  C  C2094  1  0.857030  0.804290  0.418930  1.0  -0.191
  C  C2095  1  0.822330  0.842400  0.471930  1.0  0.627
  C  C2096  1  0.869700  0.767800  0.443900  1.0  -0.0433
  C  C2097  1  0.611820  0.332320  0.220110  1.0  0.273
  C  C2098  1  0.585140  0.306890  0.238960  1.0  -0.1688
  C  C2099  1  0.595470  0.289110  0.274350  1.0  -0.1124
  C  C2100  1  0.632360  0.296380  0.291340  1.0  -0.0807
  C  C2101  1  0.658920  0.321800  0.272490  1.0  -0.1393
  C  C2102  1  0.649260  0.340010  0.237000  1.0  0.0599
  C  C2103  1  0.678190  0.366600  0.215290  1.0  -0.0417
  C  C2104  1  0.684950  0.436100  0.184940  1.0  0.104
  C  C2105  1  0.725080  0.447680  0.203720  1.0  -0.1743
  C  C2106  1  0.754600  0.449900  0.170200  1.0  -0.1722
  C  C2107  1  0.740600  0.414600  0.143400  1.0  -0.1353
  C  C2108  1  0.695710  0.418930  0.142970  1.0  -0.1998
  C  C2109  1  0.657600  0.471930  0.177670  1.0  0.6243
  C  C2110  1  0.732200  0.443900  0.130300  1.0  -0.0468
  C  C2111  1  0.111820  0.832320  0.720110  1.0  0.273
  C  C2112  1  0.085140  0.806890  0.738960  1.0  -0.1688
  C  C2113  1  0.095470  0.789110  0.774350  1.0  -0.1124
  C  C2114  1  0.132360  0.796380  0.791340  1.0  -0.0807
  C  C2115  1  0.158920  0.821800  0.772490  1.0  -0.1393
  C  C2116  1  0.149260  0.840010  0.737000  1.0  0.0599
  C  C2117  1  0.178190  0.866600  0.715290  1.0  -0.0417
  C  C2118  1  0.184950  0.936100  0.684940  1.0  0.104
  C  C2119  1  0.225080  0.947680  0.703720  1.0  -0.1743
  C  C2120  1  0.254600  0.949900  0.670200  1.0  -0.1722
  C  C2121  1  0.240600  0.914600  0.643400  1.0  -0.1353
  C  C2122  1  0.195710  0.918930  0.642970  1.0  -0.1998
  C  C2123  1  0.157600  0.971930  0.677670  1.0  0.6243
  C  C2124  1  0.232200  0.943900  0.630300  1.0  -0.0468
  C  C2125  1  0.111820  0.167680  0.779890  1.0  0.2707
  C  C2126  1  0.085140  0.193110  0.761040  1.0  -0.1699
  C  C2127  1  0.095470  0.210890  0.725650  1.0  -0.1146
  C  C2128  1  0.132360  0.203620  0.708660  1.0  -0.0792
  C  C2129  1  0.158920  0.178200  0.727510  1.0  -0.1374
  C  C2130  1  0.149260  0.159990  0.763000  1.0  0.06
  C  C2131  1  0.178190  0.133400  0.784710  1.0  -0.0398
  C  C2132  1  0.184950  0.063900  0.815060  1.0  0.1023
  C  C2133  1  0.225080  0.052320  0.796280  1.0  -0.1741
  C  C2134  1  0.254600  0.050100  0.829800  1.0  -0.1725
  C  C2135  1  0.240600  0.085400  0.856600  1.0  -0.1392
  C  C2136  1  0.195710  0.081070  0.857030  1.0  -0.1974
  C  C2137  1  0.157600  0.028070  0.822330  1.0  0.6232
  C  C2138  1  0.232200  0.056100  0.869700  1.0  -0.0494
  C  C2139  1  0.611820  0.667680  0.279890  1.0  0.2707
  C  C2140  1  0.585140  0.693110  0.261040  1.0  -0.1699
  C  C2141  1  0.595470  0.710890  0.225650  1.0  -0.1146
  C  C2142  1  0.632360  0.703620  0.208660  1.0  -0.0792
  C  C2143  1  0.658920  0.678200  0.227510  1.0  -0.1374
  C  C2144  1  0.649260  0.659990  0.263000  1.0  0.06
  C  C2145  1  0.678190  0.633400  0.284710  1.0  -0.0398
  C  C2146  1  0.684950  0.563900  0.315060  1.0  0.1023
  C  C2147  1  0.725080  0.552320  0.296280  1.0  -0.1741
  C  C2148  1  0.754600  0.550100  0.329800  1.0  -0.1725
  C  C2149  1  0.740600  0.585400  0.356600  1.0  -0.1392
  C  C2150  1  0.695710  0.581070  0.357030  1.0  -0.1974
  C  C2151  1  0.657600  0.528070  0.322330  1.0  0.6232
  C  C2152  1  0.732200  0.556100  0.369700  1.0  -0.0494
  C  C2153  1  0.388180  0.832320  0.279890  1.0  0.2704
  C  C2154  1  0.414860  0.806890  0.261040  1.0  -0.1702
  C  C2155  1  0.404530  0.789110  0.225650  1.0  -0.1145
  C  C2156  1  0.367640  0.796380  0.208660  1.0  -0.0811
  C  C2157  1  0.341080  0.821800  0.227510  1.0  -0.137
  C  C2158  1  0.350740  0.840010  0.263000  1.0  0.0597
  C  C2159  1  0.321810  0.866600  0.284710  1.0  -0.0439
  C  C2160  1  0.315050  0.936100  0.315060  1.0  0.1021
  C  C2161  1  0.274920  0.947680  0.296280  1.0  -0.1724
  C  C2162  1  0.245400  0.949900  0.329800  1.0  -0.1771
  C  C2163  1  0.259400  0.914600  0.356600  1.0  -0.1348
  C  C2164  1  0.304290  0.918930  0.357030  1.0  -0.1975
  C  C2165  1  0.342400  0.971930  0.322330  1.0  0.6237
  C  C2166  1  0.267800  0.943900  0.369700  1.0  -0.048
  C  C2167  1  0.888180  0.332320  0.779890  1.0  0.2704
  C  C2168  1  0.914860  0.306890  0.761040  1.0  -0.1702
  C  C2169  1  0.904530  0.289110  0.725650  1.0  -0.1145
  C  C2170  1  0.867640  0.296380  0.708660  1.0  -0.0811
  C  C2171  1  0.841080  0.321800  0.727510  1.0  -0.137
  C  C2172  1  0.850740  0.340010  0.763000  1.0  0.0597
  C  C2173  1  0.821810  0.366600  0.784710  1.0  -0.0439
  C  C2174  1  0.815050  0.436100  0.815060  1.0  0.1021
  C  C2175  1  0.774920  0.447680  0.796280  1.0  -0.1724
  C  C2176  1  0.745400  0.449900  0.829800  1.0  -0.1771
  C  C2177  1  0.759400  0.414600  0.856600  1.0  -0.1348
  C  C2178  1  0.804290  0.418930  0.857030  1.0  -0.1975
  C  C2179  1  0.842400  0.471930  0.822330  1.0  0.6237
  C  C2180  1  0.767800  0.443900  0.869700  1.0  -0.048
  C  C2181  1  0.888180  0.667680  0.720110  1.0  0.2724
  C  C2182  1  0.914860  0.693110  0.738960  1.0  -0.1707
  C  C2183  1  0.904530  0.710890  0.774350  1.0  -0.1137
  C  C2184  1  0.867640  0.703620  0.791340  1.0  -0.0809
  C  C2185  1  0.841080  0.678200  0.772490  1.0  -0.1363
  C  C2186  1  0.850740  0.659990  0.737000  1.0  0.0593
  C  C2187  1  0.821810  0.633400  0.715290  1.0  -0.0411
  C  C2188  1  0.815050  0.563900  0.684940  1.0  0.103
  C  C2189  1  0.774920  0.552320  0.703720  1.0  -0.1745
  C  C2190  1  0.745400  0.550100  0.670200  1.0  -0.176
  C  C2191  1  0.759400  0.585400  0.643400  1.0  -0.1372
  C  C2192  1  0.804290  0.581070  0.642970  1.0  -0.198
  C  C2193  1  0.842400  0.528070  0.677670  1.0  0.6233
  C  C2194  1  0.767800  0.556100  0.630300  1.0  -0.0422
  C  C2195  1  0.388180  0.167680  0.220110  1.0  0.2724
  C  C2196  1  0.414860  0.193110  0.238960  1.0  -0.1707
  C  C2197  1  0.404530  0.210890  0.274350  1.0  -0.1137
  C  C2198  1  0.367640  0.203620  0.291340  1.0  -0.0809
  C  C2199  1  0.341080  0.178200  0.272490  1.0  -0.1363
  C  C2200  1  0.350740  0.159990  0.237000  1.0  0.0593
  C  C2201  1  0.321810  0.133400  0.215290  1.0  -0.0411
  C  C2202  1  0.315050  0.063900  0.184940  1.0  0.103
  C  C2203  1  0.274920  0.052320  0.203720  1.0  -0.1745
  C  C2204  1  0.245400  0.050100  0.170200  1.0  -0.176
  C  C2205  1  0.259400  0.085400  0.143400  1.0  -0.1372
  C  C2206  1  0.304290  0.081070  0.142970  1.0  -0.198
  C  C2207  1  0.342400  0.028070  0.177670  1.0  0.6233
  C  C2208  1  0.267800  0.056100  0.130300  1.0  -0.0422
  C  C2209  1  0.970110  0.917680  0.138180  1.0  0.2691
  C  C2210  1  0.988960  0.943110  0.164860  1.0  -0.1738
  C  C2211  1  0.024350  0.960890  0.154530  1.0  -0.1125
  C  C2212  1  0.041340  0.953620  0.117640  1.0  -0.0816
  C  C2213  1  0.022490  0.928200  0.091080  1.0  -0.1347
  C  C2214  1  0.987000  0.909990  0.100740  1.0  0.0602
  C  C2215  1  0.965290  0.883400  0.071810  1.0  -0.0378
  C  C2216  1  0.934940  0.813900  0.065050  1.0  0.1038
  C  C2217  1  0.953720  0.802320  0.024920  1.0  -0.1756
  C  C2218  1  0.920200  0.800100  0.995400  1.0  -0.1676
  C  C2219  1  0.893400  0.835400  0.009400  1.0  -0.1312
  C  C2220  1  0.892970  0.831070  0.054290  1.0  -0.1921
  C  C2221  1  0.927670  0.778070  0.092400  1.0  0.6259
  C  C2222  1  0.880300  0.806100  0.017800  1.0  -0.0449
  C  C2223  1  0.470110  0.417680  0.638180  1.0  0.2691
  C  C2224  1  0.488960  0.443110  0.664860  1.0  -0.1738
  C  C2225  1  0.524350  0.460890  0.654530  1.0  -0.1125
  C  C2226  1  0.541340  0.453620  0.617640  1.0  -0.0816
  C  C2227  1  0.522490  0.428200  0.591080  1.0  -0.1347
  C  C2228  1  0.487000  0.409990  0.600740  1.0  0.0602
  C  C2229  1  0.465290  0.383400  0.571810  1.0  -0.0378
  C  C2230  1  0.434940  0.313900  0.565050  1.0  0.1038
  C  C2231  1  0.453720  0.302320  0.524920  1.0  -0.1756
  C  C2232  1  0.420200  0.300100  0.495400  1.0  -0.1676
  C  C2233  1  0.393400  0.335400  0.509400  1.0  -0.1312
  C  C2234  1  0.392970  0.331070  0.554290  1.0  -0.1921
  C  C2235  1  0.427670  0.278070  0.592400  1.0  0.6259
  C  C2236  1  0.380300  0.306100  0.517800  1.0  -0.0449
  C  C2237  1  0.529890  0.082320  0.638180  1.0  0.2696
  C  C2238  1  0.511040  0.056890  0.664860  1.0  -0.1732
  C  C2239  1  0.475650  0.039110  0.654530  1.0  -0.1119
  C  C2240  1  0.458660  0.046380  0.617640  1.0  -0.0833
  C  C2241  1  0.477510  0.071800  0.591080  1.0  -0.1364
  C  C2242  1  0.513000  0.090010  0.600740  1.0  0.0599
  C  C2243  1  0.534710  0.116600  0.571810  1.0  -0.0388
  C  C2244  1  0.565060  0.186100  0.565050  1.0  0.1039
  C  C2245  1  0.546280  0.197680  0.524920  1.0  -0.1743
  C  C2246  1  0.579800  0.199900  0.495400  1.0  -0.1679
  C  C2247  1  0.606600  0.164600  0.509400  1.0  -0.1288
  C  C2248  1  0.607030  0.168930  0.554290  1.0  -0.1908
  C  C2249  1  0.572330  0.221930  0.592400  1.0  0.6265
  C  C2250  1  0.619700  0.193900  0.517800  1.0  -0.0453
  C  C2251  1  0.029890  0.582320  0.138180  1.0  0.2696
  C  C2252  1  0.011040  0.556890  0.164860  1.0  -0.1732
  C  C2253  1  0.975650  0.539110  0.154530  1.0  -0.1119
  C  C2254  1  0.958660  0.546380  0.117640  1.0  -0.0833
  C  C2255  1  0.977510  0.571800  0.091080  1.0  -0.1364
  C  C2256  1  0.013000  0.590010  0.100740  1.0  0.0599
  C  C2257  1  0.034710  0.616600  0.071810  1.0  -0.0388
  C  C2258  1  0.065060  0.686100  0.065050  1.0  0.1039
  C  C2259  1  0.046280  0.697680  0.024920  1.0  -0.1743
  C  C2260  1  0.079800  0.699900  0.995400  1.0  -0.1679
  C  C2261  1  0.106600  0.664600  0.009400  1.0  -0.1288
  C  C2262  1  0.107030  0.668930  0.054290  1.0  -0.1908
  C  C2263  1  0.072330  0.721930  0.092400  1.0  0.6265
  C  C2264  1  0.119700  0.693900  0.017800  1.0  -0.0453
  C  C2265  1  0.029890  0.417680  0.361820  1.0  0.271
  C  C2266  1  0.011040  0.443110  0.335140  1.0  -0.1735
  C  C2267  1  0.975650  0.460890  0.345470  1.0  -0.1124
  C  C2268  1  0.958660  0.453620  0.382360  1.0  -0.0825
  C  C2269  1  0.977510  0.428200  0.408920  1.0  -0.1363
  C  C2270  1  0.013000  0.409990  0.399260  1.0  0.0601
  C  C2271  1  0.034710  0.383400  0.428190  1.0  -0.0359
  C  C2272  1  0.065060  0.313900  0.434950  1.0  0.1029
  C  C2273  1  0.046280  0.302320  0.475080  1.0  -0.176
  C  C2274  1  0.079800  0.300100  0.504600  1.0  -0.1666
  C  C2275  1  0.106600  0.335400  0.490600  1.0  -0.1311
  C  C2276  1  0.107030  0.331070  0.445710  1.0  -0.1905
  C  C2277  1  0.072330  0.278070  0.407600  1.0  0.6248
  C  C2278  1  0.119700  0.306100  0.482200  1.0  -0.044
  C  C2279  1  0.529890  0.917680  0.861820  1.0  0.271
  C  C2280  1  0.511040  0.943110  0.835140  1.0  -0.1735
  C  C2281  1  0.475650  0.960890  0.845470  1.0  -0.1124
  C  C2282  1  0.458660  0.953620  0.882360  1.0  -0.0825
  C  C2283  1  0.477510  0.928200  0.908920  1.0  -0.1363
  C  C2284  1  0.513000  0.909990  0.899260  1.0  0.0601
  C  C2285  1  0.534710  0.883400  0.928190  1.0  -0.0359
  C  C2286  1  0.565060  0.813900  0.934950  1.0  0.1029
  C  C2287  1  0.546280  0.802320  0.975080  1.0  -0.176
  C  C2288  1  0.579800  0.800100  0.004600  1.0  -0.1666
  C  C2289  1  0.606600  0.835400  0.990600  1.0  -0.1311
  C  C2290  1  0.607030  0.831070  0.945710  1.0  -0.1905
  C  C2291  1  0.572330  0.778070  0.907600  1.0  0.6248
  C  C2292  1  0.619700  0.806100  0.982200  1.0  -0.044
  C  C2293  1  0.470110  0.582320  0.861820  1.0  0.2703
  C  C2294  1  0.488960  0.556890  0.835140  1.0  -0.1732
  C  C2295  1  0.524350  0.539110  0.845470  1.0  -0.1115
  C  C2296  1  0.541340  0.546380  0.882360  1.0  -0.0834
  C  C2297  1  0.522490  0.571800  0.908920  1.0  -0.1367
  C  C2298  1  0.487000  0.590010  0.899260  1.0  0.0607
  C  C2299  1  0.465290  0.616600  0.928190  1.0  -0.0387
  C  C2300  1  0.434940  0.686100  0.934950  1.0  0.1028
  C  C2301  1  0.453720  0.697680  0.975080  1.0  -0.1759
  C  C2302  1  0.420200  0.699900  0.004600  1.0  -0.1665
  C  C2303  1  0.393400  0.664600  0.990600  1.0  -0.1291
  C  C2304  1  0.392970  0.668930  0.945710  1.0  -0.1904
  C  C2305  1  0.427670  0.721930  0.907600  1.0  0.626
  C  C2306  1  0.380300  0.693900  0.982200  1.0  -0.0482
  C  C2307  1  0.970110  0.082320  0.361820  1.0  0.2703
  C  C2308  1  0.988960  0.056890  0.335140  1.0  -0.1732
  C  C2309  1  0.024350  0.039110  0.345470  1.0  -0.1115
  C  C2310  1  0.041340  0.046380  0.382360  1.0  -0.0834
  C  C2311  1  0.022490  0.071800  0.408920  1.0  -0.1367
  C  C2312  1  0.987000  0.090010  0.399260  1.0  0.0607
  C  C2313  1  0.965290  0.116600  0.428190  1.0  -0.0387
  C  C2314  1  0.934940  0.186100  0.434950  1.0  0.1028
  C  C2315  1  0.953720  0.197680  0.475080  1.0  -0.1759
  C  C2316  1  0.920200  0.199900  0.504600  1.0  -0.1665
  C  C2317  1  0.893400  0.164600  0.490600  1.0  -0.1291
  C  C2318  1  0.892970  0.168930  0.445710  1.0  -0.1904
  C  C2319  1  0.927670  0.221930  0.407600  1.0  0.626
  C  C2320  1  0.880300  0.193900  0.482200  1.0  -0.0482
  C  C2321  1  0.138180  0.970110  0.917680  1.0  0.267
  C  C2322  1  0.164860  0.988960  0.943110  1.0  -0.1726
  C  C2323  1  0.154530  0.024350  0.960890  1.0  -0.1111
  C  C2324  1  0.117640  0.041340  0.953620  1.0  -0.0805
  C  C2325  1  0.091080  0.022490  0.928200  1.0  -0.1383
  C  C2326  1  0.100740  0.987000  0.909990  1.0  0.0612
  C  C2327  1  0.071810  0.965290  0.883400  1.0  -0.0442
  C  C2328  1  0.065050  0.934940  0.813900  1.0  0.1014
  C  C2329  1  0.024920  0.953720  0.802320  1.0  -0.1739
  C  C2330  1  0.995400  0.920200  0.800100  1.0  -0.1746
  C  C2331  1  0.009400  0.893400  0.835400  1.0  -0.1358
  C  C2332  1  0.054290  0.892970  0.831070  1.0  -0.1917
  C  C2333  1  0.092400  0.927670  0.778070  1.0  0.6257
  C  C2334  1  0.017800  0.880300  0.806100  1.0  -0.0454
  C  C2335  1  0.638180  0.470110  0.417680  1.0  0.267
  C  C2336  1  0.664860  0.488960  0.443110  1.0  -0.1726
  C  C2337  1  0.654530  0.524350  0.460890  1.0  -0.1111
  C  C2338  1  0.617640  0.541340  0.453620  1.0  -0.0805
  C  C2339  1  0.591080  0.522490  0.428200  1.0  -0.1383
  C  C2340  1  0.600740  0.487000  0.409990  1.0  0.0612
  C  C2341  1  0.571810  0.465290  0.383400  1.0  -0.0442
  C  C2342  1  0.565050  0.434940  0.313900  1.0  0.1014
  C  C2343  1  0.524920  0.453720  0.302320  1.0  -0.1739
  C  C2344  1  0.495400  0.420200  0.300100  1.0  -0.1746
  C  C2345  1  0.509400  0.393400  0.335400  1.0  -0.1358
  C  C2346  1  0.554290  0.392970  0.331070  1.0  -0.1917
  C  C2347  1  0.592400  0.427670  0.278070  1.0  0.6257
  C  C2348  1  0.517800  0.380300  0.306100  1.0  -0.0454
  C  C2349  1  0.638180  0.529890  0.082320  1.0  0.2676
  C  C2350  1  0.664860  0.511040  0.056890  1.0  -0.1726
  C  C2351  1  0.654530  0.475650  0.039110  1.0  -0.113
  C  C2352  1  0.617640  0.458660  0.046380  1.0  -0.08
  C  C2353  1  0.591080  0.477510  0.071800  1.0  -0.1371
  C  C2354  1  0.600740  0.513000  0.090010  1.0  0.061
  C  C2355  1  0.571810  0.534710  0.116600  1.0  -0.0438
  C  C2356  1  0.565050  0.565060  0.186100  1.0  0.1021
  C  C2357  1  0.524920  0.546280  0.197680  1.0  -0.1736
  C  C2358  1  0.495400  0.579800  0.199900  1.0  -0.1742
  C  C2359  1  0.509400  0.606600  0.164600  1.0  -0.1322
  C  C2360  1  0.554290  0.607030  0.168930  1.0  -0.1921
  C  C2361  1  0.592400  0.572330  0.221930  1.0  0.627
  C  C2362  1  0.517800  0.619700  0.193900  1.0  -0.0492
  C  C2363  1  0.138180  0.029890  0.582320  1.0  0.2676
  C  C2364  1  0.164860  0.011040  0.556890  1.0  -0.1726
  C  C2365  1  0.154530  0.975650  0.539110  1.0  -0.113
  C  C2366  1  0.117640  0.958660  0.546380  1.0  -0.08
  C  C2367  1  0.091080  0.977510  0.571800  1.0  -0.1371
  C  C2368  1  0.100740  0.013000  0.590010  1.0  0.061
  C  C2369  1  0.071810  0.034710  0.616600  1.0  -0.0438
  C  C2370  1  0.065050  0.065060  0.686100  1.0  0.1021
  C  C2371  1  0.024920  0.046280  0.697680  1.0  -0.1736
  C  C2372  1  0.995400  0.079800  0.699900  1.0  -0.1742
  C  C2373  1  0.009400  0.106600  0.664600  1.0  -0.1322
  C  C2374  1  0.054290  0.107030  0.668930  1.0  -0.1921
  C  C2375  1  0.092400  0.072330  0.721930  1.0  0.627
  C  C2376  1  0.017800  0.119700  0.693900  1.0  -0.0492
  C  C2377  1  0.361820  0.029890  0.417680  1.0  0.2677
  C  C2378  1  0.335140  0.011040  0.443110  1.0  -0.171
  C  C2379  1  0.345470  0.975650  0.460890  1.0  -0.1113
  C  C2380  1  0.382360  0.958660  0.453620  1.0  -0.0798
  C  C2381  1  0.408920  0.977510  0.428200  1.0  -0.1385
  C  C2382  1  0.399260  0.013000  0.409990  1.0  0.0614
  C  C2383  1  0.428190  0.034710  0.383400  1.0  -0.0412
  C  C2384  1  0.434950  0.065060  0.313900  1.0  0.1018
  C  C2385  1  0.475080  0.046280  0.302320  1.0  -0.1746
  C  C2386  1  0.504600  0.079800  0.300100  1.0  -0.1718
  C  C2387  1  0.490600  0.106600  0.335400  1.0  -0.1349
  C  C2388  1  0.445710  0.107030  0.331070  1.0  -0.193
  C  C2389  1  0.407600  0.072330  0.278070  1.0  0.6257
  C  C2390  1  0.482200  0.119700  0.306100  1.0  -0.0477
  C  C2391  1  0.861820  0.529890  0.917680  1.0  0.2677
  C  C2392  1  0.835140  0.511040  0.943110  1.0  -0.171
  C  C2393  1  0.845470  0.475650  0.960890  1.0  -0.1113
  C  C2394  1  0.882360  0.458660  0.953620  1.0  -0.0798
  C  C2395  1  0.908920  0.477510  0.928200  1.0  -0.1385
  C  C2396  1  0.899260  0.513000  0.909990  1.0  0.0614
  C  C2397  1  0.928190  0.534710  0.883400  1.0  -0.0412
  C  C2398  1  0.934950  0.565060  0.813900  1.0  0.1018
  C  C2399  1  0.975080  0.546280  0.802320  1.0  -0.1746
  C  C2400  1  0.004600  0.579800  0.800100  1.0  -0.1718
  C  C2401  1  0.990600  0.606600  0.835400  1.0  -0.1349
  C  C2402  1  0.945710  0.607030  0.831070  1.0  -0.193
  C  C2403  1  0.907600  0.572330  0.778070  1.0  0.6257
  C  C2404  1  0.982200  0.619700  0.806100  1.0  -0.0477
  C  C2405  1  0.861820  0.470110  0.582320  1.0  0.2682
  C  C2406  1  0.835140  0.488960  0.556890  1.0  -0.172
  C  C2407  1  0.845470  0.524350  0.539110  1.0  -0.1118
  C  C2408  1  0.882360  0.541340  0.546380  1.0  -0.0791
  C  C2409  1  0.908920  0.522490  0.571800  1.0  -0.1392
  C  C2410  1  0.899260  0.487000  0.590010  1.0  0.0617
  C  C2411  1  0.928190  0.465290  0.616600  1.0  -0.0426
  C  C2412  1  0.934950  0.434940  0.686100  1.0  0.1022
  C  C2413  1  0.975080  0.453720  0.697680  1.0  -0.1743
  C  C2414  1  0.004600  0.420200  0.699900  1.0  -0.172
  C  C2415  1  0.990600  0.393400  0.664600  1.0  -0.1345
  C  C2416  1  0.945710  0.392970  0.668930  1.0  -0.1928
  C  C2417  1  0.907600  0.427670  0.721930  1.0  0.6268
  C  C2418  1  0.982200  0.380300  0.693900  1.0  -0.0506
  C  C2419  1  0.361820  0.970110  0.082320  1.0  0.2682
  C  C2420  1  0.335140  0.988960  0.056890  1.0  -0.172
  C  C2421  1  0.345470  0.024350  0.039110  1.0  -0.1118
  C  C2422  1  0.382360  0.041340  0.046380  1.0  -0.0791
  C  C2423  1  0.408920  0.022490  0.071800  1.0  -0.1392
  C  C2424  1  0.399260  0.987000  0.090010  1.0  0.0617
  C  C2425  1  0.428190  0.965290  0.116600  1.0  -0.0426
  C  C2426  1  0.434950  0.934940  0.186100  1.0  0.1022
  C  C2427  1  0.475080  0.953720  0.197680  1.0  -0.1743
  C  C2428  1  0.504600  0.920200  0.199900  1.0  -0.172
  C  C2429  1  0.490600  0.893400  0.164600  1.0  -0.1345
  C  C2430  1  0.445710  0.892970  0.168930  1.0  -0.1928
  C  C2431  1  0.407600  0.927670  0.221930  1.0  0.6268
  C  C2432  1  0.482200  0.880300  0.193900  1.0  -0.0506
  C  C2433  1  0.917680  0.138180  0.970110  1.0  0.2723
  C  C2434  1  0.943110  0.164860  0.988960  1.0  -0.1705
  C  C2435  1  0.960890  0.154530  0.024350  1.0  -0.1128
  C  C2436  1  0.953620  0.117640  0.041340  1.0  -0.085
  C  C2437  1  0.928200  0.091080  0.022490  1.0  -0.1342
  C  C2438  1  0.909990  0.100740  0.987000  1.0  0.0599
  C  C2439  1  0.883400  0.071810  0.965290  1.0  -0.0437
  C  C2440  1  0.813900  0.065050  0.934940  1.0  0.1039
  C  C2441  1  0.802320  0.024920  0.953720  1.0  -0.1787
  C  C2442  1  0.800100  0.995400  0.920200  1.0  -0.1702
  C  C2443  1  0.835400  0.009400  0.893400  1.0  -0.1342
  C  C2444  1  0.831070  0.054290  0.892970  1.0  -0.1987
  C  C2445  1  0.778070  0.092400  0.927670  1.0  0.6216
  C  C2446  1  0.806100  0.017800  0.880300  1.0  -0.0447
  C  C2447  1  0.417680  0.638180  0.470110  1.0  0.2723
  C  C2448  1  0.443110  0.664860  0.488960  1.0  -0.1705
  C  C2449  1  0.460890  0.654530  0.524350  1.0  -0.1128
  C  C2450  1  0.453620  0.617640  0.541340  1.0  -0.085
  C  C2451  1  0.428200  0.591080  0.522490  1.0  -0.1342
  C  C2452  1  0.409990  0.600740  0.487000  1.0  0.0599
  C  C2453  1  0.383400  0.571810  0.465290  1.0  -0.0437
  C  C2454  1  0.313900  0.565050  0.434940  1.0  0.1039
  C  C2455  1  0.302320  0.524920  0.453720  1.0  -0.1787
  C  C2456  1  0.300100  0.495400  0.420200  1.0  -0.1702
  C  C2457  1  0.335400  0.509400  0.393400  1.0  -0.1342
  C  C2458  1  0.331070  0.554290  0.392970  1.0  -0.1987
  C  C2459  1  0.278070  0.592400  0.427670  1.0  0.6216
  C  C2460  1  0.306100  0.517800  0.380300  1.0  -0.0447
  C  C2461  1  0.082320  0.638180  0.529890  1.0  0.2705
  C  C2462  1  0.056890  0.664860  0.511040  1.0  -0.1709
  C  C2463  1  0.039110  0.654530  0.475650  1.0  -0.1136
  C  C2464  1  0.046380  0.617640  0.458660  1.0  -0.0838
  C  C2465  1  0.071800  0.591080  0.477510  1.0  -0.1324
  C  C2466  1  0.090010  0.600740  0.513000  1.0  0.0607
  C  C2467  1  0.116600  0.571810  0.534710  1.0  -0.0449
  C  C2468  1  0.186100  0.565050  0.565060  1.0  0.1025
  C  C2469  1  0.197680  0.524920  0.546280  1.0  -0.1759
  C  C2470  1  0.199900  0.495400  0.579800  1.0  -0.1707
  C  C2471  1  0.164600  0.509400  0.606600  1.0  -0.135
  C  C2472  1  0.168930  0.554290  0.607030  1.0  -0.1965
  C  C2473  1  0.221930  0.592400  0.572330  1.0  0.6224
  C  C2474  1  0.193900  0.517800  0.619700  1.0  -0.0403
  C  C2475  1  0.582320  0.138180  0.029890  1.0  0.2705
  C  C2476  1  0.556890  0.164860  0.011040  1.0  -0.1709
  C  C2477  1  0.539110  0.154530  0.975650  1.0  -0.1136
  C  C2478  1  0.546380  0.117640  0.958660  1.0  -0.0838
  C  C2479  1  0.571800  0.091080  0.977510  1.0  -0.1324
  C  C2480  1  0.590010  0.100740  0.013000  1.0  0.0607
  C  C2481  1  0.616600  0.071810  0.034710  1.0  -0.0449
  C  C2482  1  0.686100  0.065050  0.065060  1.0  0.1025
  C  C2483  1  0.697680  0.024920  0.046280  1.0  -0.1759
  C  C2484  1  0.699900  0.995400  0.079800  1.0  -0.1707
  C  C2485  1  0.664600  0.009400  0.106600  1.0  -0.135
  C  C2486  1  0.668930  0.054290  0.107030  1.0  -0.1965
  C  C2487  1  0.721930  0.092400  0.072330  1.0  0.6224
  C  C2488  1  0.693900  0.017800  0.119700  1.0  -0.0403
  C  C2489  1  0.417680  0.361820  0.029890  1.0  0.2696
  C  C2490  1  0.443110  0.335140  0.011040  1.0  -0.1707
  C  C2491  1  0.460890  0.345470  0.975650  1.0  -0.1143
  C  C2492  1  0.453620  0.382360  0.958660  1.0  -0.0848
  C  C2493  1  0.428200  0.408920  0.977510  1.0  -0.1319
  C  C2494  1  0.409990  0.399260  0.013000  1.0  0.0599
  C  C2495  1  0.383400  0.428190  0.034710  1.0  -0.0444
  C  C2496  1  0.313900  0.434950  0.065060  1.0  0.1024
  C  C2497  1  0.302320  0.475080  0.046280  1.0  -0.1761
  C  C2498  1  0.300100  0.504600  0.079800  1.0  -0.1741
  C  C2499  1  0.335400  0.490600  0.106600  1.0  -0.1401
  C  C2500  1  0.331070  0.445710  0.107030  1.0  -0.197
  C  C2501  1  0.278070  0.407600  0.072330  1.0  0.6211
  C  C2502  1  0.306100  0.482200  0.119700  1.0  -0.0465
  C  C2503  1  0.917680  0.861820  0.529890  1.0  0.2696
  C  C2504  1  0.943110  0.835140  0.511040  1.0  -0.1707
  C  C2505  1  0.960890  0.845470  0.475650  1.0  -0.1143
  C  C2506  1  0.953620  0.882360  0.458660  1.0  -0.0848
  C  C2507  1  0.928200  0.908920  0.477510  1.0  -0.1319
  C  C2508  1  0.909990  0.899260  0.513000  1.0  0.0599
  C  C2509  1  0.883400  0.928190  0.534710  1.0  -0.0444
  C  C2510  1  0.813900  0.934950  0.565060  1.0  0.1024
  C  C2511  1  0.802320  0.975080  0.546280  1.0  -0.1761
  C  C2512  1  0.800100  0.004600  0.579800  1.0  -0.1741
  C  C2513  1  0.835400  0.990600  0.606600  1.0  -0.1401
  C  C2514  1  0.831070  0.945710  0.607030  1.0  -0.197
  C  C2515  1  0.778070  0.907600  0.572330  1.0  0.6211
  C  C2516  1  0.806100  0.982200  0.619700  1.0  -0.0465
  C  C2517  1  0.582320  0.861820  0.470110  1.0  0.2719
  C  C2518  1  0.556890  0.835140  0.488960  1.0  -0.17
  C  C2519  1  0.539110  0.845470  0.524350  1.0  -0.1128
  C  C2520  1  0.546380  0.882360  0.541340  1.0  -0.0847
  C  C2521  1  0.571800  0.908920  0.522490  1.0  -0.1311
  C  C2522  1  0.590010  0.899260  0.487000  1.0  0.0599
  C  C2523  1  0.616600  0.928190  0.465290  1.0  -0.0438
  C  C2524  1  0.686100  0.934950  0.434940  1.0  0.103
  C  C2525  1  0.697680  0.975080  0.453720  1.0  -0.177
  C  C2526  1  0.699900  0.004600  0.420200  1.0  -0.1714
  C  C2527  1  0.664600  0.990600  0.393400  1.0  -0.1363
  C  C2528  1  0.668930  0.945710  0.392970  1.0  -0.197
  C  C2529  1  0.721930  0.907600  0.427670  1.0  0.622
  C  C2530  1  0.693900  0.982200  0.380300  1.0  -0.036
  C  C2531  1  0.082320  0.361820  0.970110  1.0  0.2719
  C  C2532  1  0.056890  0.335140  0.988960  1.0  -0.17
  C  C2533  1  0.039110  0.345470  0.024350  1.0  -0.1128
  C  C2534  1  0.046380  0.382360  0.041340  1.0  -0.0847
  C  C2535  1  0.071800  0.408920  0.022490  1.0  -0.1311
  C  C2536  1  0.090010  0.399260  0.987000  1.0  0.0599
  C  C2537  1  0.116600  0.428190  0.965290  1.0  -0.0438
  C  C2538  1  0.186100  0.434950  0.934940  1.0  0.103
  C  C2539  1  0.197680  0.475080  0.953720  1.0  -0.177
  C  C2540  1  0.199900  0.504600  0.920200  1.0  -0.1714
  C  C2541  1  0.164600  0.490600  0.893400  1.0  -0.1363
  C  C2542  1  0.168930  0.445710  0.892970  1.0  -0.197
  C  C2543  1  0.221930  0.407600  0.927670  1.0  0.622
  C  C2544  1  0.193900  0.482200  0.880300  1.0  -0.036
  C  C2545  1  0.167680  0.720110  0.611820  1.0  0.2687
  C  C2546  1  0.193110  0.738960  0.585140  1.0  -0.1742
  C  C2547  1  0.210890  0.774350  0.595470  1.0  -0.1107
  C  C2548  1  0.203620  0.791340  0.632360  1.0  -0.0837
  C  C2549  1  0.178200  0.772490  0.658920  1.0  -0.1325
  C  C2550  1  0.159990  0.737000  0.649260  1.0  0.0604
  C  C2551  1  0.133400  0.715290  0.678190  1.0  -0.0414
  C  C2552  1  0.063900  0.684940  0.684950  1.0  0.1025
  C  C2553  1  0.052320  0.703720  0.725080  1.0  -0.177
  C  C2554  1  0.050100  0.670200  0.754600  1.0  -0.1692
  C  C2555  1  0.085400  0.643400  0.740600  1.0  -0.1342
  C  C2556  1  0.081070  0.642970  0.695710  1.0  -0.1916
  C  C2557  1  0.028070  0.677670  0.657600  1.0  0.6236
  C  C2558  1  0.056100  0.630300  0.732200  1.0  -0.047
  C  C2559  1  0.667680  0.220110  0.111820  1.0  0.2687
  C  C2560  1  0.693110  0.238960  0.085140  1.0  -0.1742
  C  C2561  1  0.710890  0.274350  0.095470  1.0  -0.1107
  C  C2562  1  0.703620  0.291340  0.132360  1.0  -0.0837
  C  C2563  1  0.678200  0.272490  0.158920  1.0  -0.1325
  C  C2564  1  0.659990  0.237000  0.149260  1.0  0.0604
  C  C2565  1  0.633400  0.215290  0.178190  1.0  -0.0414
  C  C2566  1  0.563900  0.184940  0.184950  1.0  0.1025
  C  C2567  1  0.552320  0.203720  0.225080  1.0  -0.177
  C  C2568  1  0.550100  0.170200  0.254600  1.0  -0.1692
  C  C2569  1  0.585400  0.143400  0.240600  1.0  -0.1342
  C  C2570  1  0.581070  0.142970  0.195710  1.0  -0.1916
  C  C2571  1  0.528070  0.177670  0.157600  1.0  0.6236
  C  C2572  1  0.556100  0.130300  0.232200  1.0  -0.047
  C  C2573  1  0.332320  0.279890  0.111820  1.0  0.2694
  C  C2574  1  0.306890  0.261040  0.085140  1.0  -0.1732
  C  C2575  1  0.289110  0.225650  0.095470  1.0  -0.1118
  C  C2576  1  0.296380  0.208660  0.132360  1.0  -0.0832
  C  C2577  1  0.321800  0.227510  0.158920  1.0  -0.1309
  C  C2578  1  0.340010  0.263000  0.149260  1.0  0.0604
  C  C2579  1  0.366600  0.284710  0.178190  1.0  -0.0409
  C  C2580  1  0.436100  0.315060  0.184950  1.0  0.1022
  C  C2581  1  0.447680  0.296280  0.225080  1.0  -0.1752
  C  C2582  1  0.449900  0.329800  0.254600  1.0  -0.1656
  C  C2583  1  0.414600  0.356600  0.240600  1.0  -0.1341
  C  C2584  1  0.418930  0.357030  0.195710  1.0  -0.1922
  C  C2585  1  0.471930  0.322330  0.157600  1.0  0.6235
  C  C2586  1  0.443900  0.369700  0.232200  1.0  -0.0427
  C  C2587  1  0.832320  0.779890  0.611820  1.0  0.2694
  C  C2588  1  0.806890  0.761040  0.585140  1.0  -0.1732
  C  C2589  1  0.789110  0.725650  0.595470  1.0  -0.1118
  C  C2590  1  0.796380  0.708660  0.632360  1.0  -0.0832
  C  C2591  1  0.821800  0.727510  0.658920  1.0  -0.1309
  C  C2592  1  0.840010  0.763000  0.649260  1.0  0.0604
  C  C2593  1  0.866600  0.784710  0.678190  1.0  -0.0409
  C  C2594  1  0.936100  0.815060  0.684950  1.0  0.1022
  C  C2595  1  0.947680  0.796280  0.725080  1.0  -0.1752
  C  C2596  1  0.949900  0.829800  0.754600  1.0  -0.1656
  C  C2597  1  0.914600  0.856600  0.740600  1.0  -0.1341
  C  C2598  1  0.918930  0.857030  0.695710  1.0  -0.1922
  C  C2599  1  0.971930  0.822330  0.657600  1.0  0.6235
  C  C2600  1  0.943900  0.869700  0.732200  1.0  -0.0427
  C  C2601  1  0.667680  0.779890  0.388180  1.0  0.2675
  C  C2602  1  0.693110  0.761040  0.414860  1.0  -0.1738
  C  C2603  1  0.710890  0.725650  0.404530  1.0  -0.1118
  C  C2604  1  0.703620  0.708660  0.367640  1.0  -0.0832
  C  C2605  1  0.678200  0.727510  0.341080  1.0  -0.131
  C  C2606  1  0.659990  0.763000  0.350740  1.0  0.0598
  C  C2607  1  0.633400  0.784710  0.321810  1.0  -0.0413
  C  C2608  1  0.563900  0.815060  0.315050  1.0  0.1035
  C  C2609  1  0.552320  0.796280  0.274920  1.0  -0.1749
  C  C2610  1  0.550100  0.829800  0.245400  1.0  -0.1688
  C  C2611  1  0.585400  0.856600  0.259400  1.0  -0.1296
  C  C2612  1  0.581070  0.857030  0.304290  1.0  -0.1937
  C  C2613  1  0.528070  0.822330  0.342400  1.0  0.6238
  C  C2614  1  0.556100  0.869700  0.267800  1.0  -0.049
  C  C2615  1  0.167680  0.279890  0.888180  1.0  0.2675
  C  C2616  1  0.193110  0.261040  0.914860  1.0  -0.1738
  C  C2617  1  0.210890  0.225650  0.904530  1.0  -0.1118
  C  C2618  1  0.203620  0.208660  0.867640  1.0  -0.0832
  C  C2619  1  0.178200  0.227510  0.841080  1.0  -0.131
  C  C2620  1  0.159990  0.263000  0.850740  1.0  0.0598
  C  C2621  1  0.133400  0.284710  0.821810  1.0  -0.0413
  C  C2622  1  0.063900  0.315060  0.815050  1.0  0.1035
  C  C2623  1  0.052320  0.296280  0.774920  1.0  -0.1749
  C  C2624  1  0.050100  0.329800  0.745400  1.0  -0.1688
  C  C2625  1  0.085400  0.356600  0.759400  1.0  -0.1296
  C  C2626  1  0.081070  0.357030  0.804290  1.0  -0.1937
  C  C2627  1  0.028070  0.322330  0.842400  1.0  0.6238
  C  C2628  1  0.056100  0.369700  0.767800  1.0  -0.049
  C  C2629  1  0.832320  0.220110  0.888180  1.0  0.2679
  C  C2630  1  0.806890  0.238960  0.914860  1.0  -0.1743
  C  C2631  1  0.789110  0.274350  0.904530  1.0  -0.1112
  C  C2632  1  0.796380  0.291340  0.867640  1.0  -0.0821
  C  C2633  1  0.821800  0.272490  0.841080  1.0  -0.1307
  C  C2634  1  0.840010  0.237000  0.850740  1.0  0.0604
  C  C2635  1  0.866600  0.215290  0.821810  1.0  -0.0424
  C  C2636  1  0.936100  0.184940  0.815050  1.0  0.1028
  C  C2637  1  0.947680  0.203720  0.774920  1.0  -0.174
  C  C2638  1  0.949900  0.170200  0.745400  1.0  -0.1681
  C  C2639  1  0.914600  0.143400  0.759400  1.0  -0.1344
  C  C2640  1  0.918930  0.142970  0.804290  1.0  -0.192
  C  C2641  1  0.971930  0.177670  0.842400  1.0  0.6253
  C  C2642  1  0.943900  0.130300  0.767800  1.0  -0.04
  C  C2643  1  0.332320  0.720110  0.388180  1.0  0.2679
  C  C2644  1  0.306890  0.738960  0.414860  1.0  -0.1743
  C  C2645  1  0.289110  0.774350  0.404530  1.0  -0.1112
  C  C2646  1  0.296380  0.791340  0.367640  1.0  -0.0821
  C  C2647  1  0.321800  0.772490  0.341080  1.0  -0.1307
  C  C2648  1  0.340010  0.737000  0.350740  1.0  0.0604
  C  C2649  1  0.366600  0.715290  0.321810  1.0  -0.0424
  C  C2650  1  0.436100  0.684940  0.315050  1.0  0.1028
  C  C2651  1  0.447680  0.703720  0.274920  1.0  -0.174
  C  C2652  1  0.449900  0.670200  0.245400  1.0  -0.1681
  C  C2653  1  0.414600  0.643400  0.259400  1.0  -0.1344
  C  C2654  1  0.418930  0.642970  0.304290  1.0  -0.192
  C  C2655  1  0.471930  0.677670  0.342400  1.0  0.6253
  C  C2656  1  0.443900  0.630300  0.267800  1.0  -0.04
  C  C2657  1  0.220110  0.888180  0.832320  1.0  0.2691
  C  C2658  1  0.238960  0.914860  0.806890  1.0  -0.1725
  C  C2659  1  0.274350  0.904530  0.789110  1.0  -0.112
  C  C2660  1  0.291340  0.867640  0.796380  1.0  -0.0844
  C  C2661  1  0.272490  0.841080  0.821800  1.0  -0.1392
  C  C2662  1  0.237000  0.850740  0.840010  1.0  0.0621
  C  C2663  1  0.215290  0.821810  0.866600  1.0  -0.0422
  C  C2664  1  0.184940  0.815050  0.936100  1.0  0.1028
  C  C2665  1  0.203720  0.774920  0.947680  1.0  -0.1772
  C  C2666  1  0.170200  0.745400  0.949900  1.0  -0.1687
  C  C2667  1  0.143400  0.759400  0.914600  1.0  -0.1296
  C  C2668  1  0.142970  0.804290  0.918930  1.0  -0.1917
  C  C2669  1  0.177670  0.842400  0.971930  1.0  0.6269
  C  C2670  1  0.130300  0.767800  0.943900  1.0  -0.0488
  C  C2671  1  0.720110  0.388180  0.332320  1.0  0.2691
  C  C2672  1  0.738960  0.414860  0.306890  1.0  -0.1725
  C  C2673  1  0.774350  0.404530  0.289110  1.0  -0.112
  C  C2674  1  0.791340  0.367640  0.296380  1.0  -0.0844
  C  C2675  1  0.772490  0.341080  0.321800  1.0  -0.1392
  C  C2676  1  0.737000  0.350740  0.340010  1.0  0.0621
  C  C2677  1  0.715290  0.321810  0.366600  1.0  -0.0422
  C  C2678  1  0.684940  0.315050  0.436100  1.0  0.1028
  C  C2679  1  0.703720  0.274920  0.447680  1.0  -0.1772
  C  C2680  1  0.670200  0.245400  0.449900  1.0  -0.1687
  C  C2681  1  0.643400  0.259400  0.414600  1.0  -0.1296
  C  C2682  1  0.642970  0.304290  0.418930  1.0  -0.1917
  C  C2683  1  0.677670  0.342400  0.471930  1.0  0.6269
  C  C2684  1  0.630300  0.267800  0.443900  1.0  -0.0488
  C  C2685  1  0.779890  0.388180  0.667680  1.0  0.2687
  C  C2686  1  0.761040  0.414860  0.693110  1.0  -0.1721
  C  C2687  1  0.725650  0.404530  0.710890  1.0  -0.1116
  C  C2688  1  0.708660  0.367640  0.703620  1.0  -0.085
  C  C2689  1  0.727510  0.341080  0.678200  1.0  -0.1391
  C  C2690  1  0.763000  0.350740  0.659990  1.0  0.0615
  C  C2691  1  0.784710  0.321810  0.633400  1.0  -0.0413
  C  C2692  1  0.815060  0.315050  0.563900  1.0  0.1028
  C  C2693  1  0.796280  0.274920  0.552320  1.0  -0.177
  C  C2694  1  0.829800  0.245400  0.550100  1.0  -0.1668
  C  C2695  1  0.856600  0.259400  0.585400  1.0  -0.1306
  C  C2696  1  0.857030  0.304290  0.581070  1.0  -0.1902
  C  C2697  1  0.822330  0.342400  0.528070  1.0  0.6265
  C  C2698  1  0.869700  0.267800  0.556100  1.0  -0.0428
  C  C2699  1  0.279890  0.888180  0.167680  1.0  0.2687
  C  C2700  1  0.261040  0.914860  0.193110  1.0  -0.1721
  C  C2701  1  0.225650  0.904530  0.210890  1.0  -0.1116
  C  C2702  1  0.208660  0.867640  0.203620  1.0  -0.085
  C  C2703  1  0.227510  0.841080  0.178200  1.0  -0.1391
  C  C2704  1  0.263000  0.850740  0.159990  1.0  0.0615
  C  C2705  1  0.284710  0.821810  0.133400  1.0  -0.0413
  C  C2706  1  0.315060  0.815050  0.063900  1.0  0.1028
  C  C2707  1  0.296280  0.774920  0.052320  1.0  -0.177
  C  C2708  1  0.329800  0.745400  0.050100  1.0  -0.1668
  C  C2709  1  0.356600  0.759400  0.085400  1.0  -0.1306
  C  C2710  1  0.357030  0.804290  0.081070  1.0  -0.1902
  C  C2711  1  0.322330  0.842400  0.028070  1.0  0.6265
  C  C2712  1  0.369700  0.767800  0.056100  1.0  -0.0428
  C  C2713  1  0.279890  0.111820  0.332320  1.0  0.2686
  C  C2714  1  0.261040  0.085140  0.306890  1.0  -0.172
  C  C2715  1  0.225650  0.095470  0.289110  1.0  -0.1121
  C  C2716  1  0.208660  0.132360  0.296380  1.0  -0.0842
  C  C2717  1  0.227510  0.158920  0.321800  1.0  -0.1371
  C  C2718  1  0.263000  0.149260  0.340010  1.0  0.0613
  C  C2719  1  0.284710  0.178190  0.366600  1.0  -0.041
  C  C2720  1  0.315060  0.184950  0.436100  1.0  0.1031
  C  C2721  1  0.296280  0.225080  0.447680  1.0  -0.177
  C  C2722  1  0.329800  0.254600  0.449900  1.0  -0.17
  C  C2723  1  0.356600  0.240600  0.414600  1.0  -0.1305
  C  C2724  1  0.357030  0.195710  0.418930  1.0  -0.1912
  C  C2725  1  0.322330  0.157600  0.471930  1.0  0.6279
  C  C2726  1  0.369700  0.232200  0.443900  1.0  -0.0437
  C  C2727  1  0.779890  0.611820  0.832320  1.0  0.2686
  C  C2728  1  0.761040  0.585140  0.806890  1.0  -0.172
  C  C2729  1  0.725650  0.595470  0.789110  1.0  -0.1121
  C  C2730  1  0.708660  0.632360  0.796380  1.0  -0.0842
  C  C2731  1  0.727510  0.658920  0.821800  1.0  -0.1371
  C  C2732  1  0.763000  0.649260  0.840010  1.0  0.0613
  C  C2733  1  0.784710  0.678190  0.866600  1.0  -0.041
  C  C2734  1  0.815060  0.684950  0.936100  1.0  0.1031
  C  C2735  1  0.796280  0.725080  0.947680  1.0  -0.177
  C  C2736  1  0.829800  0.754600  0.949900  1.0  -0.17
  C  C2737  1  0.856600  0.740600  0.914600  1.0  -0.1305
  C  C2738  1  0.857030  0.695710  0.918930  1.0  -0.1912
  C  C2739  1  0.822330  0.657600  0.971930  1.0  0.6279
  C  C2740  1  0.869700  0.732200  0.943900  1.0  -0.0437
  C  C2741  1  0.720110  0.611820  0.167680  1.0  0.2679
  C  C2742  1  0.738960  0.585140  0.193110  1.0  -0.1712
  C  C2743  1  0.774350  0.595470  0.210890  1.0  -0.1115
  C  C2744  1  0.791340  0.632360  0.203620  1.0  -0.0845
  C  C2745  1  0.772490  0.658920  0.178200  1.0  -0.1373
  C  C2746  1  0.737000  0.649260  0.159990  1.0  0.0617
  C  C2747  1  0.715290  0.678190  0.133400  1.0  -0.0418
  C  C2748  1  0.684940  0.684950  0.063900  1.0  0.1019
  C  C2749  1  0.703720  0.725080  0.052320  1.0  -0.1767
  C  C2750  1  0.670200  0.754600  0.050100  1.0  -0.1717
  C  C2751  1  0.643400  0.740600  0.085400  1.0  -0.1361
  C  C2752  1  0.642970  0.695710  0.081070  1.0  -0.1898
  C  C2753  1  0.677670  0.657600  0.028070  1.0  0.6254
  C  C2754  1  0.630300  0.732200  0.056100  1.0  -0.0461
  C  C2755  1  0.220110  0.111820  0.667680  1.0  0.2679
  C  C2756  1  0.238960  0.085140  0.693110  1.0  -0.1712
  C  C2757  1  0.274350  0.095470  0.710890  1.0  -0.1115
  C  C2758  1  0.291340  0.132360  0.703620  1.0  -0.0845
  C  C2759  1  0.272490  0.158920  0.678200  1.0  -0.1373
  C  C2760  1  0.237000  0.149260  0.659990  1.0  0.0617
  C  C2761  1  0.215290  0.178190  0.633400  1.0  -0.0418
  C  C2762  1  0.184940  0.184950  0.563900  1.0  0.1019
  C  C2763  1  0.203720  0.225080  0.552320  1.0  -0.1767
  C  C2764  1  0.170200  0.254600  0.550100  1.0  -0.1717
  C  C2765  1  0.143400  0.240600  0.585400  1.0  -0.1361
  C  C2766  1  0.142970  0.195710  0.581070  1.0  -0.1898
  C  C2767  1  0.177670  0.157600  0.528070  1.0  0.6254
  C  C2768  1  0.130300  0.232200  0.556100  1.0  -0.0461
  C  C2769  1  0.388180  0.667680  0.779890  1.0  0.2704
  C  C2770  1  0.414860  0.693110  0.761040  1.0  -0.1712
  C  C2771  1  0.404530  0.710890  0.725650  1.0  -0.1152
  C  C2772  1  0.367640  0.703620  0.708660  1.0  -0.0796
  C  C2773  1  0.341080  0.678200  0.727510  1.0  -0.1361
  C  C2774  1  0.350740  0.659990  0.763000  1.0  0.0596
  C  C2775  1  0.321810  0.633400  0.784710  1.0  -0.042
  C  C2776  1  0.315050  0.563900  0.815060  1.0  0.1022
  C  C2777  1  0.274920  0.552320  0.796280  1.0  -0.1726
  C  C2778  1  0.245400  0.550100  0.829800  1.0  -0.1758
  C  C2779  1  0.259400  0.585400  0.856600  1.0  -0.139
  C  C2780  1  0.304290  0.581070  0.857030  1.0  -0.1987
  C  C2781  1  0.342400  0.528070  0.822330  1.0  0.6234
  C  C2782  1  0.267800  0.556100  0.869700  1.0  -0.0467
  C  C2783  1  0.888180  0.167680  0.279890  1.0  0.2704
  C  C2784  1  0.914860  0.193110  0.261040  1.0  -0.1712
  C  C2785  1  0.904530  0.210890  0.225650  1.0  -0.1152
  C  C2786  1  0.867640  0.203620  0.208660  1.0  -0.0796
  C  C2787  1  0.841080  0.178200  0.227510  1.0  -0.1361
  C  C2788  1  0.850740  0.159990  0.263000  1.0  0.0596
  C  C2789  1  0.821810  0.133400  0.284710  1.0  -0.042
  C  C2790  1  0.815050  0.063900  0.315060  1.0  0.1022
  C  C2791  1  0.774920  0.052320  0.296280  1.0  -0.1726
  C  C2792  1  0.745400  0.050100  0.329800  1.0  -0.1758
  C  C2793  1  0.759400  0.085400  0.356600  1.0  -0.139
  C  C2794  1  0.804290  0.081070  0.357030  1.0  -0.1987
  C  C2795  1  0.842400  0.028070  0.322330  1.0  0.6234
  C  C2796  1  0.767800  0.056100  0.369700  1.0  -0.0467
  C  C2797  1  0.888180  0.832320  0.220110  1.0  0.2725
  C  C2798  1  0.914860  0.806890  0.238960  1.0  -0.1699
  C  C2799  1  0.904530  0.789110  0.274350  1.0  -0.1122
  C  C2800  1  0.867640  0.796380  0.291340  1.0  -0.0814
  C  C2801  1  0.841080  0.821800  0.272490  1.0  -0.1371
  C  C2802  1  0.850740  0.840010  0.237000  1.0  0.0595
  C  C2803  1  0.821810  0.866600  0.215290  1.0  -0.043
  C  C2804  1  0.815050  0.936100  0.184940  1.0  0.1028
  C  C2805  1  0.774920  0.947680  0.203720  1.0  -0.1746
  C  C2806  1  0.745400  0.949900  0.170200  1.0  -0.1763
  C  C2807  1  0.759400  0.914600  0.143400  1.0  -0.1362
  C  C2808  1  0.804290  0.918930  0.142970  1.0  -0.1993
  C  C2809  1  0.842400  0.971930  0.177670  1.0  0.6238
  C  C2810  1  0.767800  0.943900  0.130300  1.0  -0.0449
  C  C2811  1  0.388180  0.332320  0.720110  1.0  0.2725
  C  C2812  1  0.414860  0.306890  0.738960  1.0  -0.1699
  C  C2813  1  0.404530  0.289110  0.774350  1.0  -0.1122
  C  C2814  1  0.367640  0.296380  0.791340  1.0  -0.0814
  C  C2815  1  0.341080  0.321800  0.772490  1.0  -0.1371
  C  C2816  1  0.350740  0.340010  0.737000  1.0  0.0595
  C  C2817  1  0.321810  0.366600  0.715290  1.0  -0.043
  C  C2818  1  0.315050  0.436100  0.684940  1.0  0.1028
  C  C2819  1  0.274920  0.447680  0.703720  1.0  -0.1746
  C  C2820  1  0.245400  0.449900  0.670200  1.0  -0.1763
  C  C2821  1  0.259400  0.414600  0.643400  1.0  -0.1362
  C  C2822  1  0.304290  0.418930  0.642970  1.0  -0.1993
  C  C2823  1  0.342400  0.471930  0.677670  1.0  0.6238
  C  C2824  1  0.267800  0.443900  0.630300  1.0  -0.0449
  C  C2825  1  0.611820  0.167680  0.720110  1.0  0.2729
  C  C2826  1  0.585140  0.193110  0.738960  1.0  -0.1693
  C  C2827  1  0.595470  0.210890  0.774350  1.0  -0.1137
  C  C2828  1  0.632360  0.203620  0.791340  1.0  -0.0803
  C  C2829  1  0.658920  0.178200  0.772490  1.0  -0.1376
  C  C2830  1  0.649260  0.159990  0.737000  1.0  0.0597
  C  C2831  1  0.678190  0.133400  0.715290  1.0  -0.0394
  C  C2832  1  0.684950  0.063900  0.684940  1.0  0.1033
  C  C2833  1  0.725080  0.052320  0.703720  1.0  -0.1745
  C  C2834  1  0.754600  0.050100  0.670200  1.0  -0.1727
  C  C2835  1  0.740600  0.085400  0.643400  1.0  -0.1368
  C  C2836  1  0.695710  0.081070  0.642970  1.0  -0.198
  C  C2837  1  0.657600  0.028070  0.677670  1.0  0.6231
  C  C2838  1  0.732200  0.056100  0.630300  1.0  -0.045
  C  C2839  1  0.111820  0.667680  0.220110  1.0  0.2729
  C  C2840  1  0.085140  0.693110  0.238960  1.0  -0.1693
  C  C2841  1  0.095470  0.710890  0.274350  1.0  -0.1137
  C  C2842  1  0.132360  0.703620  0.291340  1.0  -0.0803
  C  C2843  1  0.158920  0.678200  0.272490  1.0  -0.1376
  C  C2844  1  0.149260  0.659990  0.237000  1.0  0.0597
  C  C2845  1  0.178190  0.633400  0.215290  1.0  -0.0394
  C  C2846  1  0.184950  0.563900  0.184940  1.0  0.1033
  C  C2847  1  0.225080  0.552320  0.203720  1.0  -0.1745
  C  C2848  1  0.254600  0.550100  0.170200  1.0  -0.1727
  C  C2849  1  0.240600  0.585400  0.143400  1.0  -0.1368
  C  C2850  1  0.195710  0.581070  0.142970  1.0  -0.198
  C  C2851  1  0.157600  0.528070  0.177670  1.0  0.6231
  C  C2852  1  0.232200  0.556100  0.130300  1.0  -0.045
  C  C2853  1  0.111820  0.332320  0.279890  1.0  0.2705
  C  C2854  1  0.085140  0.306890  0.261040  1.0  -0.1692
  C  C2855  1  0.095470  0.289110  0.225650  1.0  -0.114
  C  C2856  1  0.132360  0.296380  0.208660  1.0  -0.0807
  C  C2857  1  0.158920  0.321800  0.227510  1.0  -0.1393
  C  C2858  1  0.149260  0.340010  0.263000  1.0  0.0601
  C  C2859  1  0.178190  0.366600  0.284710  1.0  -0.0418
  C  C2860  1  0.184950  0.436100  0.315060  1.0  0.1034
  C  C2861  1  0.225080  0.447680  0.296280  1.0  -0.1732
  C  C2862  1  0.254600  0.449900  0.329800  1.0  -0.1736
  C  C2863  1  0.240600  0.414600  0.356600  1.0  -0.1359
  C  C2864  1  0.195710  0.418930  0.357030  1.0  -0.1967
  C  C2865  1  0.157600  0.471930  0.322330  1.0  0.6242
  C  C2866  1  0.232200  0.443900  0.369700  1.0  -0.0489
  C  C2867  1  0.611820  0.832320  0.779890  1.0  0.2705
  C  C2868  1  0.585140  0.806890  0.761040  1.0  -0.1692
  C  C2869  1  0.595470  0.789110  0.725650  1.0  -0.114
  C  C2870  1  0.632360  0.796380  0.708660  1.0  -0.0807
  C  C2871  1  0.658920  0.821800  0.727510  1.0  -0.1393
  C  C2872  1  0.649260  0.840010  0.763000  1.0  0.0601
  C  C2873  1  0.678190  0.866600  0.784710  1.0  -0.0418
  C  C2874  1  0.684950  0.936100  0.815060  1.0  0.1034
  C  C2875  1  0.725080  0.947680  0.796280  1.0  -0.1732
  C  C2876  1  0.754600  0.949900  0.829800  1.0  -0.1736
  C  C2877  1  0.740600  0.914600  0.856600  1.0  -0.1359
  C  C2878  1  0.695710  0.918930  0.857030  1.0  -0.1967
  C  C2879  1  0.657600  0.971930  0.822330  1.0  0.6242
  C  C2880  1  0.732200  0.943900  0.869700  1.0  -0.0489
  N  N2881  1  0.040760  0.157280  0.911460  1.0  -0.3585
  N  N2882  1  0.540760  0.657280  0.411460  1.0  -0.3585
  N  N2883  1  0.459240  0.842720  0.411460  1.0  -0.3573
  N  N2884  1  0.959240  0.342720  0.911460  1.0  -0.3573
  N  N2885  1  0.959240  0.657280  0.588540  1.0  -0.3581
  N  N2886  1  0.459240  0.157280  0.088540  1.0  -0.3581
  N  N2887  1  0.540760  0.342720  0.088540  1.0  -0.3588
  N  N2888  1  0.040760  0.842720  0.588540  1.0  -0.3588
  N  N2889  1  0.911460  0.040760  0.157280  1.0  -0.3611
  N  N2890  1  0.411460  0.540760  0.657280  1.0  -0.3611
  N  N2891  1  0.411460  0.459240  0.842720  1.0  -0.3613
  N  N2892  1  0.911460  0.959240  0.342720  1.0  -0.3613
  N  N2893  1  0.588540  0.959240  0.657280  1.0  -0.3616
  N  N2894  1  0.088540  0.459240  0.157280  1.0  -0.3616
  N  N2895  1  0.088540  0.540760  0.342720  1.0  -0.3602
  N  N2896  1  0.588540  0.040760  0.842720  1.0  -0.3602
  N  N2897  1  0.157280  0.911460  0.040760  1.0  -0.3663
  N  N2898  1  0.657280  0.411460  0.540760  1.0  -0.3663
  N  N2899  1  0.842720  0.411460  0.459240  1.0  -0.3656
  N  N2900  1  0.342720  0.911460  0.959240  1.0  -0.3656
  N  N2901  1  0.657280  0.588540  0.959240  1.0  -0.3659
  N  N2902  1  0.157280  0.088540  0.459240  1.0  -0.3659
  N  N2903  1  0.342720  0.088540  0.540760  1.0  -0.3662
  N  N2904  1  0.842720  0.588540  0.040760  1.0  -0.3662
  N  N2905  1  0.907280  0.290760  0.338540  1.0  -0.359
  N  N2906  1  0.407280  0.790760  0.838540  1.0  -0.359
  N  N2907  1  0.592720  0.709240  0.838540  1.0  -0.3583
  N  N2908  1  0.092720  0.209240  0.338540  1.0  -0.3583
  N  N2909  1  0.407280  0.209240  0.661460  1.0  -0.3599
  N  N2910  1  0.907280  0.709240  0.161460  1.0  -0.3599
  N  N2911  1  0.092720  0.790760  0.161460  1.0  -0.3575
  N  N2912  1  0.592720  0.290760  0.661460  1.0  -0.3575
  N  N2913  1  0.790760  0.161460  0.092720  1.0  -0.36
  N  N2914  1  0.290760  0.661460  0.592720  1.0  -0.36
  N  N2915  1  0.209240  0.661460  0.407280  1.0  -0.3592
  N  N2916  1  0.709240  0.161460  0.907280  1.0  -0.3592
  N  N2917  1  0.709240  0.838540  0.592720  1.0  -0.3592
  N  N2918  1  0.209240  0.338540  0.092720  1.0  -0.3592
  N  N2919  1  0.290760  0.338540  0.907280  1.0  -0.3603
  N  N2920  1  0.790760  0.838540  0.407280  1.0  -0.3603
  N  N2921  1  0.661460  0.407280  0.209240  1.0  -0.3665
  N  N2922  1  0.161460  0.907280  0.709240  1.0  -0.3665
  N  N2923  1  0.161460  0.092720  0.790760  1.0  -0.3666
  N  N2924  1  0.661460  0.592720  0.290760  1.0  -0.3666
  N  N2925  1  0.338540  0.907280  0.290760  1.0  -0.3662
  N  N2926  1  0.838540  0.407280  0.790760  1.0  -0.3662
  N  N2927  1  0.838540  0.592720  0.709240  1.0  -0.3672
  N  N2928  1  0.338540  0.092720  0.209240  1.0  -0.3672
  N  N2929  1  0.959240  0.842720  0.088540  1.0  -0.3576
  N  N2930  1  0.459240  0.342720  0.588540  1.0  -0.3576
  N  N2931  1  0.540760  0.157280  0.588540  1.0  -0.3588
  N  N2932  1  0.040760  0.657280  0.088540  1.0  -0.3588
  N  N2933  1  0.040760  0.342720  0.411460  1.0  -0.3582
  N  N2934  1  0.540760  0.842720  0.911460  1.0  -0.3582
  N  N2935  1  0.459240  0.657280  0.911460  1.0  -0.3577
  N  N2936  1  0.959240  0.157280  0.411460  1.0  -0.3577
  N  N2937  1  0.088540  0.959240  0.842720  1.0  -0.361
  N  N2938  1  0.588540  0.459240  0.342720  1.0  -0.361
  N  N2939  1  0.588540  0.540760  0.157280  1.0  -0.3607
  N  N2940  1  0.088540  0.040760  0.657280  1.0  -0.3607
  N  N2941  1  0.411460  0.040760  0.342720  1.0  -0.3608
  N  N2942  1  0.911460  0.540760  0.842720  1.0  -0.3608
  N  N2943  1  0.911460  0.459240  0.657280  1.0  -0.3619
  N  N2944  1  0.411460  0.959240  0.157280  1.0  -0.3619
  N  N2945  1  0.842720  0.088540  0.959240  1.0  -0.3654
  N  N2946  1  0.342720  0.588540  0.459240  1.0  -0.3654
  N  N2947  1  0.157280  0.588540  0.540760  1.0  -0.3668
  N  N2948  1  0.657280  0.088540  0.040760  1.0  -0.3668
  N  N2949  1  0.342720  0.411460  0.040760  1.0  -0.3653
  N  N2950  1  0.842720  0.911460  0.540760  1.0  -0.3653
  N  N2951  1  0.657280  0.911460  0.459240  1.0  -0.3665
  N  N2952  1  0.157280  0.411460  0.959240  1.0  -0.3665
  N  N2953  1  0.092720  0.709240  0.661460  1.0  -0.3586
  N  N2954  1  0.592720  0.209240  0.161460  1.0  -0.3586
  N  N2955  1  0.407280  0.290760  0.161460  1.0  -0.3582
  N  N2956  1  0.907280  0.790760  0.661460  1.0  -0.3582
  N  N2957  1  0.592720  0.790760  0.338540  1.0  -0.358
  N  N2958  1  0.092720  0.290760  0.838540  1.0  -0.358
  N  N2959  1  0.907280  0.209240  0.838540  1.0  -0.3596
  N  N2960  1  0.407280  0.709240  0.338540  1.0  -0.3596
  N  N2961  1  0.209240  0.838540  0.907280  1.0  -0.3595
  N  N2962  1  0.709240  0.338540  0.407280  1.0  -0.3595
  N  N2963  1  0.790760  0.338540  0.592720  1.0  -0.3599
  N  N2964  1  0.290760  0.838540  0.092720  1.0  -0.3599
  N  N2965  1  0.290760  0.161460  0.407280  1.0  -0.3602
  N  N2966  1  0.790760  0.661460  0.907280  1.0  -0.3602
  N  N2967  1  0.709240  0.661460  0.092720  1.0  -0.359
  N  N2968  1  0.209240  0.161460  0.592720  1.0  -0.359
  N  N2969  1  0.338540  0.592720  0.790760  1.0  -0.3664
  N  N2970  1  0.838540  0.092720  0.290760  1.0  -0.3664
  N  N2971  1  0.838540  0.907280  0.209240  1.0  -0.3677
  N  N2972  1  0.338540  0.407280  0.709240  1.0  -0.3677
  N  N2973  1  0.661460  0.092720  0.709240  1.0  -0.3662
  N  N2974  1  0.161460  0.592720  0.209240  1.0  -0.3662
  N  N2975  1  0.161460  0.407280  0.290760  1.0  -0.3665
  N  N2976  1  0.661460  0.907280  0.790760  1.0  -0.3665
  O  O2977  1  0.064340  0.100490  0.852360  1.0  -0.6459
  O  O2978  1  0.073440  0.214420  0.870020  1.0  -0.5765
  O  O2979  1  0.077940  0.254970  0.922600  1.0  -0.5772
  O  O2980  1  0.564340  0.600490  0.352360  1.0  -0.6459
  O  O2981  1  0.573440  0.714420  0.370020  1.0  -0.5765
  O  O2982  1  0.577940  0.754970  0.422600  1.0  -0.5772
  O  O2983  1  0.435660  0.899510  0.352360  1.0  -0.6463
  O  O2984  1  0.426560  0.785580  0.370020  1.0  -0.5757
  O  O2985  1  0.422060  0.745030  0.422600  1.0  -0.5772
  O  O2986  1  0.935660  0.399510  0.852360  1.0  -0.6463
  O  O2987  1  0.926560  0.285580  0.870020  1.0  -0.5757
  O  O2988  1  0.922060  0.245030  0.922600  1.0  -0.5772
  O  O2989  1  0.935660  0.600490  0.647640  1.0  -0.6465
  O  O2990  1  0.926560  0.714420  0.629980  1.0  -0.5748
  O  O2991  1  0.922060  0.754970  0.577400  1.0  -0.5765
  O  O2992  1  0.435660  0.100490  0.147640  1.0  -0.6465
  O  O2993  1  0.426560  0.214420  0.129980  1.0  -0.5748
  O  O2994  1  0.422060  0.254970  0.077400  1.0  -0.5765
  O  O2995  1  0.564340  0.399510  0.147640  1.0  -0.6455
  O  O2996  1  0.573440  0.285580  0.129980  1.0  -0.5755
  O  O2997  1  0.577940  0.245030  0.077400  1.0  -0.5779
  O  O2998  1  0.064340  0.899510  0.647640  1.0  -0.6455
  O  O2999  1  0.073440  0.785580  0.629980  1.0  -0.5755
  O  O3000  1  0.077940  0.745030  0.577400  1.0  -0.5779
  O  O3001  1  0.852360  0.064340  0.100490  1.0  -0.6456
  O  O3002  1  0.870020  0.073440  0.214420  1.0  -0.5788
  O  O3003  1  0.922600  0.077940  0.254970  1.0  -0.5771
  O  O3004  1  0.352360  0.564340  0.600490  1.0  -0.6456
  O  O3005  1  0.370020  0.573440  0.714420  1.0  -0.5788
  O  O3006  1  0.422600  0.577940  0.754970  1.0  -0.5771
  O  O3007  1  0.352360  0.435660  0.899510  1.0  -0.6453
  O  O3008  1  0.370020  0.426560  0.785580  1.0  -0.5787
  O  O3009  1  0.422600  0.422060  0.745030  1.0  -0.5777
  O  O3010  1  0.852360  0.935660  0.399510  1.0  -0.6453
  O  O3011  1  0.870020  0.926560  0.285580  1.0  -0.5787
  O  O3012  1  0.922600  0.922060  0.245030  1.0  -0.5777
  O  O3013  1  0.647640  0.935660  0.600490  1.0  -0.6468
  O  O3014  1  0.629980  0.926560  0.714420  1.0  -0.5787
  O  O3015  1  0.577400  0.922060  0.754970  1.0  -0.5763
  O  O3016  1  0.147640  0.435660  0.100490  1.0  -0.6468
  O  O3017  1  0.129980  0.426560  0.214420  1.0  -0.5787
  O  O3018  1  0.077400  0.422060  0.254970  1.0  -0.5763
  O  O3019  1  0.147640  0.564340  0.399510  1.0  -0.6465
  O  O3020  1  0.129980  0.573440  0.285580  1.0  -0.5786
  O  O3021  1  0.077400  0.577940  0.245030  1.0  -0.5769
  O  O3022  1  0.647640  0.064340  0.899510  1.0  -0.6465
  O  O3023  1  0.629980  0.073440  0.785580  1.0  -0.5786
  O  O3024  1  0.577400  0.077940  0.745030  1.0  -0.5769
  O  O3025  1  0.100490  0.852360  0.064340  1.0  -0.6458
  O  O3026  1  0.214420  0.870020  0.073440  1.0  -0.5756
  O  O3027  1  0.254970  0.922600  0.077940  1.0  -0.5782
  O  O3028  1  0.600490  0.352360  0.564340  1.0  -0.6458
  O  O3029  1  0.714420  0.370020  0.573440  1.0  -0.5756
  O  O3030  1  0.754970  0.422600  0.577940  1.0  -0.5782
  O  O3031  1  0.899510  0.352360  0.435660  1.0  -0.6463
  O  O3032  1  0.785580  0.370020  0.426560  1.0  -0.5756
  O  O3033  1  0.745030  0.422600  0.422060  1.0  -0.5781
  O  O3034  1  0.399510  0.852360  0.935660  1.0  -0.6463
  O  O3035  1  0.285580  0.870020  0.926560  1.0  -0.5756
  O  O3036  1  0.245030  0.922600  0.922060  1.0  -0.5781
  O  O3037  1  0.600490  0.647640  0.935660  1.0  -0.6455
  O  O3038  1  0.714420  0.629980  0.926560  1.0  -0.5762
  O  O3039  1  0.754970  0.577400  0.922060  1.0  -0.5786
  O  O3040  1  0.100490  0.147640  0.435660  1.0  -0.6455
  O  O3041  1  0.214420  0.129980  0.426560  1.0  -0.5762
  O  O3042  1  0.254970  0.077400  0.422060  1.0  -0.5786
  O  O3043  1  0.399510  0.147640  0.564340  1.0  -0.6452
  O  O3044  1  0.285580  0.129980  0.573440  1.0  -0.5763
  O  O3045  1  0.245030  0.077400  0.577940  1.0  -0.5784
  O  O3046  1  0.899510  0.647640  0.064340  1.0  -0.6452
  O  O3047  1  0.785580  0.629980  0.073440  1.0  -0.5763
  O  O3048  1  0.745030  0.577400  0.077940  1.0  -0.5784
  O  O3049  1  0.850490  0.314340  0.397640  1.0  -0.6458
  O  O3050  1  0.964420  0.323440  0.379980  1.0  -0.574
  O  O3051  1  0.004970  0.327940  0.327400  1.0  -0.5783
  O  O3052  1  0.350490  0.814340  0.897640  1.0  -0.6458
  O  O3053  1  0.464420  0.823440  0.879980  1.0  -0.574
  O  O3054  1  0.504970  0.827940  0.827400  1.0  -0.5783
  O  O3055  1  0.649510  0.685660  0.897640  1.0  -0.6456
  O  O3056  1  0.535580  0.676560  0.879980  1.0  -0.5748
  O  O3057  1  0.495030  0.672060  0.827400  1.0  -0.578
  O  O3058  1  0.149510  0.185660  0.397640  1.0  -0.6456
  O  O3059  1  0.035580  0.176560  0.379980  1.0  -0.5748
  O  O3060  1  0.995030  0.172060  0.327400  1.0  -0.578
  O  O3061  1  0.350490  0.185660  0.602360  1.0  -0.6462
  O  O3062  1  0.464420  0.176560  0.620020  1.0  -0.5754
  O  O3063  1  0.504970  0.172060  0.672600  1.0  -0.5783
  O  O3064  1  0.850490  0.685660  0.102360  1.0  -0.6462
  O  O3065  1  0.964420  0.676560  0.120020  1.0  -0.5754
  O  O3066  1  0.004970  0.672060  0.172600  1.0  -0.5783
  O  O3067  1  0.149510  0.814340  0.102360  1.0  -0.6455
  O  O3068  1  0.035580  0.823440  0.120020  1.0  -0.5755
  O  O3069  1  0.995030  0.827940  0.172600  1.0  -0.5778
  O  O3070  1  0.649510  0.314340  0.602360  1.0  -0.6455
  O  O3071  1  0.535580  0.323440  0.620020  1.0  -0.5755
  O  O3072  1  0.495030  0.327940  0.672600  1.0  -0.5778
  O  O3073  1  0.814340  0.102360  0.149510  1.0  -0.6459
  O  O3074  1  0.823440  0.120020  0.035580  1.0  -0.5768
  O  O3075  1  0.827940  0.172600  0.995030  1.0  -0.5766
  O  O3076  1  0.314340  0.602360  0.649510  1.0  -0.6459
  O  O3077  1  0.323440  0.620020  0.535580  1.0  -0.5768
  O  O3078  1  0.327940  0.672600  0.495030  1.0  -0.5766
  O  O3079  1  0.185660  0.602360  0.350490  1.0  -0.6472
  O  O3080  1  0.176560  0.620020  0.464420  1.0  -0.5759
  O  O3081  1  0.172060  0.672600  0.504970  1.0  -0.5762
  O  O3082  1  0.685660  0.102360  0.850490  1.0  -0.6472
  O  O3083  1  0.676560  0.120020  0.964420  1.0  -0.5759
  O  O3084  1  0.672060  0.172600  0.004970  1.0  -0.5762
  O  O3085  1  0.685660  0.897640  0.649510  1.0  -0.6463
  O  O3086  1  0.676560  0.879980  0.535580  1.0  -0.5766
  O  O3087  1  0.672060  0.827400  0.495030  1.0  -0.5768
  O  O3088  1  0.185660  0.397640  0.149510  1.0  -0.6463
  O  O3089  1  0.176560  0.379980  0.035580  1.0  -0.5766
  O  O3090  1  0.172060  0.327400  0.995030  1.0  -0.5768
  O  O3091  1  0.314340  0.397640  0.850490  1.0  -0.6458
  O  O3092  1  0.323440  0.379980  0.964420  1.0  -0.5776
  O  O3093  1  0.327940  0.327400  0.004970  1.0  -0.5765
  O  O3094  1  0.814340  0.897640  0.350490  1.0  -0.6458
  O  O3095  1  0.823440  0.879980  0.464420  1.0  -0.5776
  O  O3096  1  0.827940  0.827400  0.504970  1.0  -0.5765
  O  O3097  1  0.602360  0.350490  0.185660  1.0  -0.6453
  O  O3098  1  0.620020  0.464420  0.176560  1.0  -0.5787
  O  O3099  1  0.672600  0.504970  0.172060  1.0  -0.5781
  O  O3100  1  0.102360  0.850490  0.685660  1.0  -0.6453
  O  O3101  1  0.120020  0.964420  0.676560  1.0  -0.5787
  O  O3102  1  0.172600  0.004970  0.672060  1.0  -0.5781
  O  O3103  1  0.102360  0.149510  0.814340  1.0  -0.6448
  O  O3104  1  0.120020  0.035580  0.823440  1.0  -0.5789
  O  O3105  1  0.172600  0.995030  0.827940  1.0  -0.5786
  O  O3106  1  0.602360  0.649510  0.314340  1.0  -0.6448
  O  O3107  1  0.620020  0.535580  0.323440  1.0  -0.5789
  O  O3108  1  0.672600  0.495030  0.327940  1.0  -0.5786
  O  O3109  1  0.397640  0.850490  0.314340  1.0  -0.6462
  O  O3110  1  0.379980  0.964420  0.323440  1.0  -0.5786
  O  O3111  1  0.327400  0.004970  0.327940  1.0  -0.577
  O  O3112  1  0.897640  0.350490  0.814340  1.0  -0.6462
  O  O3113  1  0.879980  0.464420  0.823440  1.0  -0.5786
  O  O3114  1  0.827400  0.504970  0.827940  1.0  -0.577
  O  O3115  1  0.897640  0.649510  0.685660  1.0  -0.6463
  O  O3116  1  0.879980  0.535580  0.676560  1.0  -0.5788
  O  O3117  1  0.827400  0.495030  0.672060  1.0  -0.578
  O  O3118  1  0.397640  0.149510  0.185660  1.0  -0.6463
  O  O3119  1  0.379980  0.035580  0.176560  1.0  -0.5788
  O  O3120  1  0.327400  0.995030  0.172060  1.0  -0.578
  O  O3121  1  0.935660  0.899510  0.147640  1.0  -0.6462
  O  O3122  1  0.926560  0.785580  0.129980  1.0  -0.5749
  O  O3123  1  0.922060  0.745030  0.077400  1.0  -0.5776
  O  O3124  1  0.435660  0.399510  0.647640  1.0  -0.6462
  O  O3125  1  0.426560  0.285580  0.629980  1.0  -0.5749
  O  O3126  1  0.422060  0.245030  0.577400  1.0  -0.5776
  O  O3127  1  0.564340  0.100490  0.647640  1.0  -0.6457
  O  O3128  1  0.573440  0.214420  0.629980  1.0  -0.5755
  O  O3129  1  0.577940  0.254970  0.577400  1.0  -0.5771
  O  O3130  1  0.064340  0.600490  0.147640  1.0  -0.6457
  O  O3131  1  0.073440  0.714420  0.129980  1.0  -0.5755
  O  O3132  1  0.077940  0.754970  0.077400  1.0  -0.5771
  O  O3133  1  0.064340  0.399510  0.352360  1.0  -0.6457
  O  O3134  1  0.073440  0.285580  0.370020  1.0  -0.5766
  O  O3135  1  0.077940  0.245030  0.422600  1.0  -0.5774
  O  O3136  1  0.564340  0.899510  0.852360  1.0  -0.6457
  O  O3137  1  0.573440  0.785580  0.870020  1.0  -0.5766
  O  O3138  1  0.577940  0.745030  0.922600  1.0  -0.5774
  O  O3139  1  0.435660  0.600490  0.852360  1.0  -0.6465
  O  O3140  1  0.426560  0.714420  0.870020  1.0  -0.5756
  O  O3141  1  0.422060  0.754970  0.922600  1.0  -0.5767
  O  O3142  1  0.935660  0.100490  0.352360  1.0  -0.6465
  O  O3143  1  0.926560  0.214420  0.370020  1.0  -0.5756
  O  O3144  1  0.922060  0.254970  0.422600  1.0  -0.5767
  O  O3145  1  0.147640  0.935660  0.899510  1.0  -0.6465
  O  O3146  1  0.129980  0.926560  0.785580  1.0  -0.5786
  O  O3147  1  0.077400  0.922060  0.745030  1.0  -0.577
  O  O3148  1  0.647640  0.435660  0.399510  1.0  -0.6465
  O  O3149  1  0.629980  0.426560  0.285580  1.0  -0.5786
  O  O3150  1  0.577400  0.422060  0.245030  1.0  -0.577
  O  O3151  1  0.647640  0.564340  0.100490  1.0  -0.6467
  O  O3152  1  0.629980  0.573440  0.214420  1.0  -0.5786
  O  O3153  1  0.577400  0.577940  0.254970  1.0  -0.5764
  O  O3154  1  0.147640  0.064340  0.600490  1.0  -0.6467
  O  O3155  1  0.129980  0.073440  0.714420  1.0  -0.5786
  O  O3156  1  0.077400  0.077940  0.754970  1.0  -0.5764
  O  O3157  1  0.352360  0.064340  0.399510  1.0  -0.6454
  O  O3158  1  0.370020  0.073440  0.285580  1.0  -0.5788
  O  O3159  1  0.422600  0.077940  0.245030  1.0  -0.5777
  O  O3160  1  0.852360  0.564340  0.899510  1.0  -0.6454
  O  O3161  1  0.870020  0.573440  0.785580  1.0  -0.5788
  O  O3162  1  0.922600  0.577940  0.745030  1.0  -0.5777
  O  O3163  1  0.852360  0.435660  0.600490  1.0  -0.6456
  O  O3164  1  0.870020  0.426560  0.714420  1.0  -0.5787
  O  O3165  1  0.922600  0.422060  0.754970  1.0  -0.577
  O  O3166  1  0.352360  0.935660  0.100490  1.0  -0.6456
  O  O3167  1  0.370020  0.926560  0.214420  1.0  -0.5787
  O  O3168  1  0.422600  0.922060  0.254970  1.0  -0.577
  O  O3169  1  0.899510  0.147640  0.935660  1.0  -0.6453
  O  O3170  1  0.785580  0.129980  0.926560  1.0  -0.5764
  O  O3171  1  0.745030  0.077400  0.922060  1.0  -0.5784
  O  O3172  1  0.399510  0.647640  0.435660  1.0  -0.6453
  O  O3173  1  0.285580  0.629980  0.426560  1.0  -0.5764
  O  O3174  1  0.245030  0.577400  0.422060  1.0  -0.5784
  O  O3175  1  0.100490  0.647640  0.564340  1.0  -0.6456
  O  O3176  1  0.214420  0.629980  0.573440  1.0  -0.5762
  O  O3177  1  0.254970  0.577400  0.577940  1.0  -0.5784
  O  O3178  1  0.600490  0.147640  0.064340  1.0  -0.6456
  O  O3179  1  0.714420  0.129980  0.073440  1.0  -0.5762
  O  O3180  1  0.754970  0.077400  0.077940  1.0  -0.5784
  O  O3181  1  0.399510  0.352360  0.064340  1.0  -0.6456
  O  O3182  1  0.285580  0.370020  0.073440  1.0  -0.5757
  O  O3183  1  0.245030  0.422600  0.077940  1.0  -0.578
  O  O3184  1  0.899510  0.852360  0.564340  1.0  -0.6456
  O  O3185  1  0.785580  0.870020  0.573440  1.0  -0.5757
  O  O3186  1  0.745030  0.922600  0.577940  1.0  -0.578
  O  O3187  1  0.600490  0.852360  0.435660  1.0  -0.6462
  O  O3188  1  0.714420  0.870020  0.426560  1.0  -0.5756
  O  O3189  1  0.754970  0.922600  0.422060  1.0  -0.5783
  O  O3190  1  0.100490  0.352360  0.935660  1.0  -0.6462
  O  O3191  1  0.214420  0.370020  0.926560  1.0  -0.5756
  O  O3192  1  0.254970  0.422600  0.922060  1.0  -0.5783
  O  O3193  1  0.149510  0.685660  0.602360  1.0  -0.646
  O  O3194  1  0.035580  0.676560  0.620020  1.0  -0.5754
  O  O3195  1  0.995030  0.672060  0.672600  1.0  -0.5778
  O  O3196  1  0.649510  0.185660  0.102360  1.0  -0.646
  O  O3197  1  0.535580  0.176560  0.120020  1.0  -0.5754
  O  O3198  1  0.495030  0.172060  0.172600  1.0  -0.5778
  O  O3199  1  0.350490  0.314340  0.102360  1.0  -0.6458
  O  O3200  1  0.464420  0.323440  0.120020  1.0  -0.5755
  O  O3201  1  0.504970  0.327940  0.172600  1.0  -0.5782
  O  O3202  1  0.850490  0.814340  0.602360  1.0  -0.6458
  O  O3203  1  0.964420  0.823440  0.620020  1.0  -0.5755
  O  O3204  1  0.004970  0.827940  0.672600  1.0  -0.5782
  O  O3205  1  0.649510  0.814340  0.397640  1.0  -0.6456
  O  O3206  1  0.535580  0.823440  0.379980  1.0  -0.5744
  O  O3207  1  0.495030  0.827940  0.327400  1.0  -0.578
  O  O3208  1  0.149510  0.314340  0.897640  1.0  -0.6456
  O  O3209  1  0.035580  0.323440  0.879980  1.0  -0.5744
  O  O3210  1  0.995030  0.327940  0.827400  1.0  -0.578
  O  O3211  1  0.850490  0.185660  0.897640  1.0  -0.6456
  O  O3212  1  0.964420  0.176560  0.879980  1.0  -0.5744
  O  O3213  1  0.004970  0.172060  0.827400  1.0  -0.5784
  O  O3214  1  0.350490  0.685660  0.397640  1.0  -0.6456
  O  O3215  1  0.464420  0.676560  0.379980  1.0  -0.5744
  O  O3216  1  0.504970  0.672060  0.327400  1.0  -0.5784
  O  O3217  1  0.185660  0.897640  0.850490  1.0  -0.6466
  O  O3218  1  0.176560  0.879980  0.964420  1.0  -0.5767
  O  O3219  1  0.172060  0.827400  0.004970  1.0  -0.5762
  O  O3220  1  0.685660  0.397640  0.350490  1.0  -0.6466
  O  O3221  1  0.676560  0.379980  0.464420  1.0  -0.5767
  O  O3222  1  0.672060  0.327400  0.504970  1.0  -0.5762
  O  O3223  1  0.814340  0.397640  0.649510  1.0  -0.6457
  O  O3224  1  0.823440  0.379980  0.535580  1.0  -0.5775
  O  O3225  1  0.827940  0.327400  0.495030  1.0  -0.577
  O  O3226  1  0.314340  0.897640  0.149510  1.0  -0.6457
  O  O3227  1  0.323440  0.879980  0.035580  1.0  -0.5775
  O  O3228  1  0.327940  0.827400  0.995030  1.0  -0.577
  O  O3229  1  0.314340  0.102360  0.350490  1.0  -0.6462
  O  O3230  1  0.323440  0.120020  0.464420  1.0  -0.5768
  O  O3231  1  0.327940  0.172600  0.504970  1.0  -0.5765
  O  O3232  1  0.814340  0.602360  0.850490  1.0  -0.6462
  O  O3233  1  0.823440  0.620020  0.964420  1.0  -0.5768
  O  O3234  1  0.827940  0.672600  0.004970  1.0  -0.5765
  O  O3235  1  0.685660  0.602360  0.149510  1.0  -0.6468
  O  O3236  1  0.676560  0.620020  0.035580  1.0  -0.5759
  O  O3237  1  0.672060  0.672600  0.995030  1.0  -0.5766
  O  O3238  1  0.185660  0.102360  0.649510  1.0  -0.6468
  O  O3239  1  0.176560  0.120020  0.535580  1.0  -0.5759
  O  O3240  1  0.172060  0.172600  0.495030  1.0  -0.5766
  O  O3241  1  0.397640  0.649510  0.814340  1.0  -0.6461
  O  O3242  1  0.379980  0.535580  0.823440  1.0  -0.5787
  O  O3243  1  0.327400  0.495030  0.827940  1.0  -0.5778
  O  O3244  1  0.897640  0.149510  0.314340  1.0  -0.6461
  O  O3245  1  0.879980  0.035580  0.323440  1.0  -0.5787
  O  O3246  1  0.827400  0.995030  0.327940  1.0  -0.5778
  O  O3247  1  0.897640  0.850490  0.185660  1.0  -0.6464
  O  O3248  1  0.879980  0.964420  0.176560  1.0  -0.5787
  O  O3249  1  0.827400  0.004970  0.172060  1.0  -0.5772
  O  O3250  1  0.397640  0.350490  0.685660  1.0  -0.6464
  O  O3251  1  0.379980  0.464420  0.676560  1.0  -0.5787
  O  O3252  1  0.327400  0.504970  0.672060  1.0  -0.5772
  O  O3253  1  0.602360  0.149510  0.685660  1.0  -0.6453
  O  O3254  1  0.620020  0.035580  0.676560  1.0  -0.5787
  O  O3255  1  0.672600  0.995030  0.672060  1.0  -0.5787
  O  O3256  1  0.102360  0.649510  0.185660  1.0  -0.6453
  O  O3257  1  0.120020  0.535580  0.176560  1.0  -0.5787
  O  O3258  1  0.172600  0.495030  0.172060  1.0  -0.5787
  O  O3259  1  0.102360  0.350490  0.314340  1.0  -0.645
  O  O3260  1  0.120020  0.464420  0.323440  1.0  -0.5788
  O  O3261  1  0.172600  0.504970  0.327940  1.0  -0.5779
  O  O3262  1  0.602360  0.850490  0.814340  1.0  -0.645
  O  O3263  1  0.620020  0.964420  0.823440  1.0  -0.5788
  O  O3264  1  0.672600  0.004970  0.827940  1.0  -0.5779
