# generated using pymatgen
data_Gd7H53(C17O7)5
_symmetry_space_group_name_H-M   'P 1'
_cell_length_a   24.71390000
_cell_length_b   20.77040000
_cell_length_c   24.95020000
_cell_angle_alpha   90.00000000
_cell_angle_beta   99.08100000
_cell_angle_gamma   90.00000000
_symmetry_Int_Tables_number   1
_chemical_formula_structural   Gd7H53(C17O7)5
_chemical_formula_sum   'Gd28 H212 C340 O140'
_cell_volume   12646.85139818
_cell_formula_units_Z   4
loop_
 _symmetry_equiv_pos_site_id
 _symmetry_equiv_pos_as_xyz
  1  'x, y, z'
loop_
 _atom_site_type_symbol
 _atom_site_label
 _atom_site_symmetry_multiplicity
 _atom_site_fract_x
 _atom_site_fract_y
 _atom_site_fract_z
 _atom_site_occupancy
 _atom_site_charge
  Gd  Gd1  1  0.788150  0.534970  0.875520  1.0  2.1256
  Gd  Gd2  1  0.913540  0.533120  0.804630  1.0  2.2006
  Gd  Gd3  1  0.771770  0.494120  0.721730  1.0  2.0723
  Gd  Gd4  1  0.841920  0.375770  0.834730  1.0  2.0516
  Gd  Gd5  1  0.682200  0.450270  0.583350  1.0  2.2011
  Gd  Gd6  1  0.615740  0.451810  0.707960  1.0  2.1799
  Gd  Gd7  1  0.657360  0.609910  0.655860  1.0  2.2069
  Gd  Gd8  1  0.211850  0.034970  0.624480  1.0  2.1265
  Gd  Gd9  1  0.086460  0.033120  0.695370  1.0  2.2014
  Gd  Gd10  1  0.228230  0.994120  0.778270  1.0  2.0722
  Gd  Gd11  1  0.158080  0.875770  0.665270  1.0  2.0525
  Gd  Gd12  1  0.317800  0.950270  0.916650  1.0  2.2012
  Gd  Gd13  1  0.384260  0.951810  0.792040  1.0  2.1784
  Gd  Gd14  1  0.342640  0.109910  0.844140  1.0  2.2061
  Gd  Gd15  1  0.211850  0.465030  0.124480  1.0  2.1258
  Gd  Gd16  1  0.086460  0.466880  0.195370  1.0  2.201
  Gd  Gd17  1  0.228230  0.505880  0.278270  1.0  2.0723
  Gd  Gd18  1  0.158080  0.624230  0.165270  1.0  2.0521
  Gd  Gd19  1  0.317800  0.549730  0.416650  1.0  2.2009
  Gd  Gd20  1  0.384260  0.548190  0.292040  1.0  2.1784
  Gd  Gd21  1  0.342640  0.390090  0.344140  1.0  2.2074
  Gd  Gd22  1  0.788150  0.965030  0.375520  1.0  2.1249
  Gd  Gd23  1  0.913540  0.966880  0.304630  1.0  2.2002
  Gd  Gd24  1  0.771770  0.005880  0.221730  1.0  2.0724
  Gd  Gd25  1  0.841920  0.124230  0.334730  1.0  2.0515
  Gd  Gd26  1  0.682200  0.049730  0.083350  1.0  2.2016
  Gd  Gd27  1  0.615740  0.048190  0.207960  1.0  2.18
  Gd  Gd28  1  0.657360  0.890090  0.155860  1.0  2.2068
  H  H29  1  0.808300  0.603900  0.783500  1.0  0.4176
  H  H30  1  0.734600  0.432900  0.812600  1.0  0.435
  H  H31  1  0.890500  0.476500  0.900200  1.0  0.4623
  H  H32  1  0.872200  0.432000  0.739600  1.0  0.4265
  H  H33  1  0.709400  0.385600  0.688900  1.0  0.4352
  H  H34  1  0.748700  0.554000  0.618400  1.0  0.3974
  H  H35  1  0.681200  0.555800  0.760800  1.0  0.4422
  H  H36  1  0.934200  0.278800  0.941600  1.0  0.0629
  H  H37  1  0.586600  0.512900  0.608100  1.0  0.448
  H  H38  1  0.891300  0.340900  0.680100  1.0  0.089
  H  H39  1  0.834200  0.365900  0.520700  1.0  0.106
  H  H40  1  0.968100  0.286800  0.658300  1.0  0.1044
  H  H41  1  0.911500  0.313400  0.499300  1.0  0.0995
  H  H42  1  0.730700  0.539800  0.452400  1.0  0.1004
  H  H43  1  0.699900  0.718200  0.503000  1.0  0.0961
  H  H44  1  0.634000  0.269600  0.528400  1.0  0.1077
  H  H45  1  0.527600  0.269800  0.635600  1.0  0.0991
  H  H46  1  0.475600  0.529900  0.772100  1.0  0.0932
  H  H47  1  0.502600  0.702800  0.708500  1.0  0.0959
  H  H48  1  0.769100  0.582000  0.381500  1.0  0.1159
  H  H49  1  0.739500  0.762000  0.432200  1.0  0.096
  H  H50  1  0.394700  0.567500  0.798100  1.0  0.1159
  H  H51  1  0.424000  0.743600  0.737800  1.0  0.0928
  H  H52  1  0.491800  0.170100  0.495000  1.0  0.1073
  H  H53  1  0.018300  0.207800  0.625600  1.0  0.1056
  H  H54  1  0.000400  0.325500  0.494800  1.0  0.1037
  H  H55  1  0.660900  0.185900  0.472200  1.0  0.0973
  H  H56  1  0.500200  0.210900  0.408700  1.0  0.113
  H  H57  1  0.472100  0.186600  0.664100  1.0  0.0875
  H  H58  1  0.405100  0.200400  0.504300  1.0  0.1159
  H  H59  1  0.708800  0.758500  0.325000  1.0  0.1001
  H  H60  1  0.850800  0.656800  0.358800  1.0  0.1019
  H  H61  1  0.677200  0.147700  0.388100  1.0  0.0857
  H  H62  1  0.517200  0.173400  0.325300  1.0  0.0996
  H  H63  1  0.388000  0.148100  0.683700  1.0  0.0951
  H  H64  1  0.324000  0.157800  0.525300  1.0  0.1025
  H  H65  1  0.355400  0.635000  0.859400  1.0  0.1081
  H  H66  1  0.326700  0.741900  0.721600  1.0  0.1085
  H  H67  1  0.134000  0.209300  0.526500  1.0  0.1123
  H  H68  1  0.168300  0.311900  0.484800  1.0  0.0947
  H  H69  1  0.013700  0.291500  0.404700  1.0  0.1026
  H  H70  1  0.823800  0.771600  0.226800  1.0  0.0969
  H  H71  1  0.219900  0.746500  0.829900  1.0  0.0969
  H  H72  1  0.191500  0.368800  0.411300  1.0  0.0839
  H  H73  1  0.038300  0.345300  0.330600  1.0  0.0927
  H  H74  1  0.887800  0.594300  0.290600  1.0  0.1196
  H  H75  1  0.923600  0.776200  0.250500  1.0  0.094
  H  H76  1  0.295700  0.570200  0.899300  1.0  0.1153
  H  H77  1  0.230500  0.745300  0.923900  1.0  0.1033
  H  H78  1  0.961200  0.556200  0.252200  1.0  0.104
  H  H79  1  0.999100  0.738200  0.214200  1.0  0.1011
  H  H80  1  0.260800  0.530200  0.974600  1.0  0.1036
  H  H81  1  0.201000  0.704900  0.002100  1.0  0.092
  H  H82  1  0.191700  0.103900  0.716500  1.0  0.4178
  H  H83  1  0.265400  0.932900  0.687400  1.0  0.4324
  H  H84  1  0.109500  0.976500  0.599800  1.0  0.4663
  H  H85  1  0.127800  0.932000  0.760400  1.0  0.4278
  H  H86  1  0.290600  0.885600  0.811100  1.0  0.4351
  H  H87  1  0.251300  0.054000  0.881600  1.0  0.3971
  H  H88  1  0.318800  0.055800  0.739200  1.0  0.4412
  H  H89  1  0.065800  0.778800  0.558400  1.0  0.0633
  H  H90  1  0.413400  0.012900  0.891900  1.0  0.4449
  H  H91  1  0.108700  0.840900  0.819900  1.0  0.0884
  H  H92  1  0.165800  0.865900  0.979300  1.0  0.1061
  H  H93  1  0.031900  0.786800  0.841700  1.0  0.104
  H  H94  1  0.088500  0.813400  0.000700  1.0  0.0992
  H  H95  1  0.269300  0.039800  0.047600  1.0  0.1002
  H  H96  1  0.300100  0.218200  0.997000  1.0  0.0962
  H  H97  1  0.366000  0.769600  0.971600  1.0  0.1077
  H  H98  1  0.472400  0.769800  0.864400  1.0  0.0994
  H  H99  1  0.524400  0.029900  0.727900  1.0  0.0941
  H  H100  1  0.497400  0.202800  0.791500  1.0  0.0961
  H  H101  1  0.230900  0.082000  0.118500  1.0  0.1165
  H  H102  1  0.260500  0.262000  0.067800  1.0  0.0956
  H  H103  1  0.605300  0.067500  0.701900  1.0  0.1162
  H  H104  1  0.576000  0.243600  0.762200  1.0  0.0928
  H  H105  1  0.508200  0.670100  0.005000  1.0  0.1076
  H  H106  1  0.981700  0.707800  0.874400  1.0  0.1054
  H  H107  1  0.999600  0.825500  0.005200  1.0  0.1032
  H  H108  1  0.339100  0.685900  0.027800  1.0  0.0974
  H  H109  1  0.499800  0.710900  0.091300  1.0  0.1134
  H  H110  1  0.527900  0.686600  0.835900  1.0  0.0873
  H  H111  1  0.594900  0.700400  0.995700  1.0  0.1155
  H  H112  1  0.291200  0.258500  0.175000  1.0  0.1002
  H  H113  1  0.149200  0.156800  0.141200  1.0  0.1018
  H  H114  1  0.322800  0.647700  0.111900  1.0  0.0856
  H  H115  1  0.482800  0.673400  0.174700  1.0  0.0997
  H  H116  1  0.612000  0.648100  0.816300  1.0  0.095
  H  H117  1  0.676000  0.657800  0.974700  1.0  0.1026
  H  H118  1  0.644600  0.135000  0.640600  1.0  0.1079
  H  H119  1  0.673300  0.241900  0.778400  1.0  0.1083
  H  H120  1  0.866000  0.709300  0.973500  1.0  0.1121
  H  H121  1  0.831700  0.811900  0.015200  1.0  0.094
  H  H122  1  0.986300  0.791500  0.095300  1.0  0.1025
  H  H123  1  0.176200  0.271600  0.273200  1.0  0.0963
  H  H124  1  0.780100  0.246500  0.670100  1.0  0.097
  H  H125  1  0.808500  0.868800  0.088700  1.0  0.084
  H  H126  1  0.961700  0.845300  0.169400  1.0  0.0928
  H  H127  1  0.112200  0.094300  0.209400  1.0  0.1193
  H  H128  1  0.076400  0.276200  0.249500  1.0  0.0938
  H  H129  1  0.704300  0.070200  0.600700  1.0  0.1155
  H  H130  1  0.769500  0.245300  0.576100  1.0  0.1039
  H  H131  1  0.038800  0.056200  0.247800  1.0  0.1045
  H  H132  1  0.000900  0.238200  0.285800  1.0  0.1018
  H  H133  1  0.739200  0.030200  0.525400  1.0  0.1034
  H  H134  1  0.799000  0.204900  0.497900  1.0  0.0917
  H  H135  1  0.191700  0.396100  0.216500  1.0  0.4185
  H  H136  1  0.265400  0.567100  0.187400  1.0  0.4318
  H  H137  1  0.109500  0.523500  0.099800  1.0  0.4661
  H  H138  1  0.127800  0.568000  0.260400  1.0  0.4278
  H  H139  1  0.290600  0.614400  0.311100  1.0  0.4351
  H  H140  1  0.251300  0.446000  0.381600  1.0  0.397
  H  H141  1  0.318800  0.444200  0.239200  1.0  0.4411
  H  H142  1  0.065800  0.721200  0.058400  1.0  0.0632
  H  H143  1  0.413400  0.487100  0.391900  1.0  0.4455
  H  H144  1  0.108700  0.659100  0.319900  1.0  0.0884
  H  H145  1  0.165800  0.634100  0.479300  1.0  0.1063
  H  H146  1  0.031900  0.713200  0.341700  1.0  0.1046
  H  H147  1  0.088500  0.686600  0.500700  1.0  0.0991
  H  H148  1  0.269300  0.460200  0.547600  1.0  0.1001
  H  H149  1  0.300100  0.281800  0.497000  1.0  0.0958
  H  H150  1  0.366000  0.730400  0.471600  1.0  0.1079
  H  H151  1  0.472400  0.730200  0.364400  1.0  0.099
  H  H152  1  0.524400  0.470100  0.227900  1.0  0.0946
  H  H153  1  0.497400  0.297200  0.291500  1.0  0.096
  H  H154  1  0.230900  0.418000  0.618500  1.0  0.1159
  H  H155  1  0.260500  0.238000  0.567800  1.0  0.0962
  H  H156  1  0.605300  0.432500  0.201900  1.0  0.1171
  H  H157  1  0.576000  0.256400  0.262200  1.0  0.0927
  H  H158  1  0.508200  0.829900  0.505000  1.0  0.1076
  H  H159  1  0.981700  0.792200  0.374400  1.0  0.1057
  H  H160  1  0.999600  0.674500  0.505200  1.0  0.1034
  H  H161  1  0.339100  0.814100  0.527800  1.0  0.0975
  H  H162  1  0.499800  0.789100  0.591300  1.0  0.1134
  H  H163  1  0.527900  0.813400  0.335900  1.0  0.087
  H  H164  1  0.594900  0.799600  0.495700  1.0  0.1155
  H  H165  1  0.291200  0.241500  0.675000  1.0  0.1004
  H  H166  1  0.149200  0.343200  0.641200  1.0  0.1021
  H  H167  1  0.322800  0.852300  0.611900  1.0  0.0856
  H  H168  1  0.482800  0.826600  0.674700  1.0  0.0994
  H  H169  1  0.612000  0.851900  0.316300  1.0  0.0946
  H  H170  1  0.676000  0.842200  0.474700  1.0  0.1023
  H  H171  1  0.644600  0.365000  0.140600  1.0  0.1084
  H  H172  1  0.673300  0.258100  0.278400  1.0  0.108
  H  H173  1  0.866000  0.790700  0.473500  1.0  0.1119
  H  H174  1  0.831700  0.688100  0.515200  1.0  0.0942
  H  H175  1  0.986300  0.708500  0.595300  1.0  0.1024
  H  H176  1  0.176200  0.228400  0.773200  1.0  0.0964
  H  H177  1  0.780100  0.253500  0.170100  1.0  0.097
  H  H178  1  0.808500  0.631200  0.588700  1.0  0.084
  H  H179  1  0.961700  0.654700  0.669400  1.0  0.0928
  H  H180  1  0.112200  0.405700  0.709400  1.0  0.1201
  H  H181  1  0.076400  0.223800  0.749500  1.0  0.0937
  H  H182  1  0.704300  0.429800  0.100700  1.0  0.1156
  H  H183  1  0.769500  0.254700  0.076100  1.0  0.1033
  H  H184  1  0.038800  0.443800  0.747800  1.0  0.1047
  H  H185  1  0.000900  0.261800  0.785800  1.0  0.1018
  H  H186  1  0.739200  0.469800  0.025400  1.0  0.1029
  H  H187  1  0.799000  0.295100  0.997900  1.0  0.0917
  H  H188  1  0.808300  0.896100  0.283500  1.0  0.4175
  H  H189  1  0.734600  0.067100  0.312600  1.0  0.4345
  H  H190  1  0.890500  0.023500  0.400200  1.0  0.4625
  H  H191  1  0.872200  0.068000  0.239600  1.0  0.4268
  H  H192  1  0.709400  0.114400  0.188900  1.0  0.4347
  H  H193  1  0.748700  0.946000  0.118400  1.0  0.3971
  H  H194  1  0.681200  0.944200  0.260800  1.0  0.4426
  H  H195  1  0.934200  0.221200  0.441600  1.0  0.0624
  H  H196  1  0.586600  0.987100  0.108100  1.0  0.4482
  H  H197  1  0.891300  0.159100  0.180100  1.0  0.0886
  H  H198  1  0.834200  0.134100  0.020700  1.0  0.1057
  H  H199  1  0.968100  0.213200  0.158300  1.0  0.1042
  H  H200  1  0.911500  0.186600  0.999300  1.0  0.0994
  H  H201  1  0.730700  0.960200  0.952400  1.0  0.1002
  H  H202  1  0.699900  0.781800  0.003000  1.0  0.0961
  H  H203  1  0.634000  0.230400  0.028400  1.0  0.108
  H  H204  1  0.527600  0.230200  0.135600  1.0  0.0992
  H  H205  1  0.475600  0.970100  0.272100  1.0  0.0933
  H  H206  1  0.502600  0.797200  0.208500  1.0  0.0956
  H  H207  1  0.769100  0.918000  0.881500  1.0  0.1158
  H  H208  1  0.739500  0.738000  0.932200  1.0  0.0963
  H  H209  1  0.394700  0.932500  0.298100  1.0  0.1173
  H  H210  1  0.424000  0.756400  0.237800  1.0  0.0927
  H  H211  1  0.491800  0.329900  0.995000  1.0  0.1076
  H  H212  1  0.018300  0.292200  0.125600  1.0  0.1051
  H  H213  1  0.000400  0.174500  0.994800  1.0  0.1032
  H  H214  1  0.660900  0.314100  0.972200  1.0  0.0976
  H  H215  1  0.500200  0.289100  0.908700  1.0  0.1129
  H  H216  1  0.472100  0.313400  0.164100  1.0  0.0879
  H  H217  1  0.405100  0.299600  0.004300  1.0  0.1157
  H  H218  1  0.708800  0.741500  0.825000  1.0  0.1001
  H  H219  1  0.850800  0.843200  0.858800  1.0  0.1014
  H  H220  1  0.677200  0.352300  0.888100  1.0  0.0855
  H  H221  1  0.517200  0.326600  0.825300  1.0  0.0997
  H  H222  1  0.388000  0.351900  0.183700  1.0  0.0953
  H  H223  1  0.324000  0.342200  0.025300  1.0  0.1025
  H  H224  1  0.355400  0.865000  0.359400  1.0  0.1078
  H  H225  1  0.326700  0.758100  0.221600  1.0  0.1081
  H  H226  1  0.134000  0.290700  0.026500  1.0  0.1122
  H  H227  1  0.168300  0.188100  0.984800  1.0  0.0945
  H  H228  1  0.013700  0.208500  0.904700  1.0  0.1024
  H  H229  1  0.823800  0.728400  0.726800  1.0  0.0974
  H  H230  1  0.219900  0.753500  0.329900  1.0  0.0969
  H  H231  1  0.191500  0.131200  0.911300  1.0  0.0838
  H  H232  1  0.038300  0.154700  0.830600  1.0  0.0922
  H  H233  1  0.887800  0.905700  0.790600  1.0  0.1199
  H  H234  1  0.923600  0.723800  0.750500  1.0  0.0937
  H  H235  1  0.295700  0.929800  0.399300  1.0  0.1159
  H  H236  1  0.230500  0.754700  0.423900  1.0  0.1032
  H  H237  1  0.961200  0.943800  0.752200  1.0  0.1037
  H  H238  1  0.999100  0.761800  0.714200  1.0  0.1012
  H  H239  1  0.260800  0.969800  0.474600  1.0  0.1027
  H  H240  1  0.201000  0.795100  0.502100  1.0  0.092
  C  C241  1  0.809100  0.401400  0.616600  1.0  0.7094
  C  C242  1  0.911500  0.303400  0.914800  1.0  0.6556
  C  C243  1  0.855600  0.360800  0.602800  1.0  -0.1614
  C  C244  1  0.681200  0.595700  0.527300  1.0  0.7194
  C  C245  1  0.619700  0.327400  0.619000  1.0  0.6592
  C  C246  1  0.548600  0.586000  0.721600  1.0  0.692
  C  C247  1  0.895500  0.336000  0.643100  1.0  -0.0668
  C  C248  1  0.861700  0.351100  0.549000  1.0  -0.0505
  C  C249  1  0.709700  0.624400  0.483700  1.0  -0.1629
  C  C250  1  0.585200  0.277000  0.586600  1.0  -0.1613
  C  C251  1  0.496700  0.611600  0.737400  1.0  -0.0719
  C  C252  1  0.941500  0.304100  0.630200  1.0  -0.1163
  C  C253  1  0.907900  0.319700  0.536300  1.0  -0.1643
  C  C254  1  0.731600  0.585200  0.447800  1.0  -0.0413
  C  C255  1  0.713500  0.690400  0.477900  1.0  -0.0443
  C  C256  1  0.599900  0.256600  0.538000  1.0  -0.1096
  C  C257  1  0.536600  0.256500  0.601700  1.0  -0.0803
  C  C258  1  0.464700  0.573200  0.764300  1.0  -0.0564
  C  C259  1  0.481000  0.675500  0.727200  1.0  -0.0805
  C  C260  1  0.948400  0.297600  0.576400  1.0  -0.0168
  C  C261  1  0.754800  0.610100  0.405800  1.0  -0.1588
  C  C262  1  0.737100  0.716600  0.435800  1.0  -0.1342
  C  C263  1  0.565000  0.217400  0.503300  1.0  0.0169
  C  C264  1  0.500700  0.216600  0.568200  1.0  -0.0023
  C  C265  1  0.416600  0.595600  0.780500  1.0  -0.1759
  C  C266  1  0.433700  0.699800  0.744200  1.0  -0.1411
  C  C267  1  0.000700  0.270100  0.562300  1.0  0.0086
  C  C268  1  0.757300  0.676500  0.398800  1.0  0.0453
  C  C269  1  0.578300  0.198500  0.449700  1.0  0.0091
  C  C270  1  0.515700  0.197300  0.518500  1.0  -0.1235
  C  C271  1  0.448100  0.195000  0.582100  1.0  0.0056
  C  C272  1  0.400700  0.659800  0.770700  1.0  0.0406
  C  C273  1  0.031000  0.223900  0.594200  1.0  -0.0975
  C  C274  1  0.020600  0.293600  0.516700  1.0  -0.1619
  C  C275  1  0.776700  0.703900  0.350300  1.0  0.0462
  C  C276  1  0.631500  0.181800  0.442900  1.0  -0.1387
  C  C277  1  0.535900  0.196700  0.404900  1.0  -0.1698
  C  C278  1  0.442100  0.180600  0.635600  1.0  -0.0984
  C  C279  1  0.402500  0.188300  0.540600  1.0  -0.2195
  C  C280  1  0.348900  0.685000  0.787900  1.0  0.0412
  C  C281  1  0.080200  0.200700  0.580400  1.0  -0.1466
  C  C282  1  0.069400  0.271300  0.502700  1.0  0.0272
  C  C283  1  0.743500  0.746300  0.316400  1.0  -0.0642
  C  C284  1  0.828100  0.686200  0.336400  1.0  -0.1158
  C  C285  1  0.641100  0.159200  0.392700  1.0  -0.0294
  C  C286  1  0.546100  0.174400  0.355400  1.0  -0.0684
  C  C287  1  0.392200  0.157500  0.647300  1.0  -0.0553
  C  C288  1  0.354300  0.163900  0.553400  1.0  -0.0236
  C  C289  1  0.332900  0.664300  0.836600  1.0  -0.103
  C  C290  1  0.316000  0.727700  0.754500  1.0  -0.0639
  C  C291  1  0.100200  0.224400  0.535300  1.0  -0.0963
  C  C292  1  0.109500  0.147900  0.614900  1.0  0.6864
  C  C293  1  0.088100  0.299500  0.453800  1.0  0.0292
  C  C294  1  0.760800  0.770800  0.269900  1.0  -0.1554
  C  C295  1  0.845500  0.711200  0.290600  1.0  0.0217
  C  C296  1  0.598600  0.153300  0.349000  1.0  -0.1699
  C  C297  1  0.349100  0.148500  0.605400  1.0  -0.1361
  C  C298  1  0.284200  0.686500  0.851800  1.0  -0.0139
  C  C299  1  0.266700  0.750000  0.769600  1.0  -0.1439
  C  C300  1  0.141200  0.320300  0.454200  1.0  -0.1362
  C  C301  1  0.049800  0.308000  0.406500  1.0  -0.1702
  C  C302  1  0.811700  0.753800  0.257900  1.0  -0.0716
  C  C303  1  0.723100  0.811000  0.231200  1.0  0.6715
  C  C304  1  0.896800  0.689700  0.272700  1.0  0.0373
  C  C305  1  0.606500  0.121100  0.298400  1.0  0.6824
  C  C306  1  0.296500  0.117200  0.615600  1.0  0.6255
  C  C307  1  0.252200  0.730000  0.818900  1.0  -0.0535
  C  C308  1  0.266100  0.662500  0.903000  1.0  0.0192
  C  C309  1  0.229700  0.793700  0.732200  1.0  0.666
  C  C310  1  0.155100  0.353600  0.410000  1.0  -0.054
  C  C311  1  0.064500  0.340200  0.362500  1.0  -0.0462
  C  C312  1  0.909600  0.623600  0.274100  1.0  -0.1337
  C  C313  1  0.930900  0.731300  0.250800  1.0  -0.158
  C  C314  1  0.275700  0.597800  0.919400  1.0  -0.1305
  C  C315  1  0.237800  0.701800  0.934200  1.0  -0.1543
  C  C316  1  0.116800  0.365200  0.364000  1.0  -0.1342
  C  C317  1  0.953700  0.601100  0.251800  1.0  -0.0435
  C  C318  1  0.976100  0.708700  0.229000  1.0  -0.0608
  C  C319  1  0.255800  0.574400  0.965200  1.0  -0.0944
  C  C320  1  0.219900  0.677400  0.980800  1.0  -0.0273
  C  C321  1  0.129800  0.406600  0.318300  1.0  0.6785
  C  C322  1  0.987300  0.643400  0.228800  1.0  -0.1591
  C  C323  1  0.229600  0.613400  0.996400  1.0  -0.0389
  C  C324  1  0.034300  0.617200  0.204500  1.0  0.691
  C  C325  1  0.207800  0.586700  0.046400  1.0  0.1557
  C  C326  1  0.190900  0.901400  0.883400  1.0  0.7086
  C  C327  1  0.088500  0.803400  0.585200  1.0  0.6535
  C  C328  1  0.144400  0.860800  0.897200  1.0  -0.1609
  C  C329  1  0.318800  0.095700  0.972700  1.0  0.7199
  C  C330  1  0.380300  0.827400  0.881000  1.0  0.6584
  C  C331  1  0.451400  0.086000  0.778400  1.0  0.6915
  C  C332  1  0.104500  0.836000  0.856900  1.0  -0.0652
  C  C333  1  0.138300  0.851100  0.951000  1.0  -0.0498
  C  C334  1  0.290300  0.124400  0.016300  1.0  -0.1619
  C  C335  1  0.414800  0.777000  0.913400  1.0  -0.1604
  C  C336  1  0.503300  0.111600  0.762600  1.0  -0.0717
  C  C337  1  0.058500  0.804100  0.869800  1.0  -0.1153
  C  C338  1  0.092100  0.819700  0.963700  1.0  -0.1637
  C  C339  1  0.268400  0.085200  0.052200  1.0  -0.0416
  C  C340  1  0.286500  0.190400  0.022100  1.0  -0.0447
  C  C341  1  0.400100  0.756600  0.962000  1.0  -0.1088
  C  C342  1  0.463400  0.756500  0.898300  1.0  -0.0804
  C  C343  1  0.535300  0.073200  0.735700  1.0  -0.0565
  C  C344  1  0.519000  0.175500  0.772800  1.0  -0.0799
  C  C345  1  0.051600  0.797600  0.923600  1.0  -0.017
  C  C346  1  0.245200  0.110100  0.094200  1.0  -0.1617
  C  C347  1  0.262900  0.216600  0.064200  1.0  -0.1351
  C  C348  1  0.435000  0.717400  0.996700  1.0  0.0172
  C  C349  1  0.499300  0.716600  0.931800  1.0  -0.0017
  C  C350  1  0.583400  0.095600  0.719500  1.0  -0.177
  C  C351  1  0.566300  0.199800  0.755800  1.0  -0.1401
  C  C352  1  0.999300  0.770100  0.937700  1.0  0.0095
  C  C353  1  0.242700  0.176500  0.101200  1.0  0.0457
  C  C354  1  0.421700  0.698500  0.050300  1.0  0.0105
  C  C355  1  0.484300  0.697300  0.981500  1.0  -0.1228
  C  C356  1  0.551900  0.695000  0.917900  1.0  0.006
  C  C357  1  0.599300  0.159800  0.729300  1.0  0.0403
  C  C358  1  0.969000  0.723900  0.905800  1.0  -0.097
  C  C359  1  0.979400  0.793600  0.983300  1.0  -0.1608
  C  C360  1  0.223300  0.203900  0.149700  1.0  0.0467
  C  C361  1  0.368500  0.681800  0.057100  1.0  -0.1388
  C  C362  1  0.464100  0.696700  0.095100  1.0  -0.1672
  C  C363  1  0.557900  0.680600  0.864400  1.0  -0.0982
  C  C364  1  0.597500  0.688300  0.959400  1.0  -0.22
  C  C365  1  0.651100  0.185000  0.712100  1.0  0.0417
  C  C366  1  0.919800  0.700700  0.919600  1.0  -0.1465
  C  C367  1  0.930600  0.771300  0.997300  1.0  0.0274
  C  C368  1  0.256500  0.246300  0.183600  1.0  -0.0654
  C  C369  1  0.171900  0.186200  0.163600  1.0  -0.1167
  C  C370  1  0.358900  0.659200  0.107300  1.0  -0.0304
  C  C371  1  0.453900  0.674400  0.144600  1.0  -0.0673
  C  C372  1  0.607800  0.657500  0.852700  1.0  -0.0551
  C  C373  1  0.645700  0.663900  0.946600  1.0  -0.0235
  C  C374  1  0.667100  0.164300  0.663400  1.0  -0.1039
  C  C375  1  0.684000  0.227700  0.745500  1.0  -0.0646
  C  C376  1  0.899800  0.724400  0.964700  1.0  -0.0958
  C  C377  1  0.890500  0.647900  0.885100  1.0  0.6875
  C  C378  1  0.911900  0.799500  0.046200  1.0  0.0288
  C  C379  1  0.239200  0.270800  0.230100  1.0  -0.1571
  C  C380  1  0.154500  0.211200  0.209400  1.0  0.0227
  C  C381  1  0.401400  0.653300  0.151000  1.0  -0.1696
  C  C382  1  0.650900  0.648500  0.894600  1.0  -0.1353
  C  C383  1  0.715800  0.186500  0.648200  1.0  -0.0124
  C  C384  1  0.733300  0.250000  0.730400  1.0  -0.1436
  C  C385  1  0.858800  0.820300  0.045800  1.0  -0.1374
  C  C386  1  0.950200  0.808000  0.093500  1.0  -0.1697
  C  C387  1  0.188300  0.253800  0.242100  1.0  -0.0725
  C  C388  1  0.276900  0.311000  0.268800  1.0  0.6719
  C  C389  1  0.103200  0.189700  0.227300  1.0  0.0384
  C  C390  1  0.393500  0.621100  0.201600  1.0  0.683
  C  C391  1  0.703500  0.617200  0.884400  1.0  0.6237
  C  C392  1  0.747800  0.230000  0.681100  1.0  -0.0519
  C  C393  1  0.733900  0.162500  0.597000  1.0  0.018
  C  C394  1  0.770300  0.293700  0.767800  1.0  0.6665
  C  C395  1  0.844900  0.853600  0.090000  1.0  -0.0562
  C  C396  1  0.935500  0.840200  0.137500  1.0  -0.0469
  C  C397  1  0.090400  0.123600  0.225900  1.0  -0.1335
  C  C398  1  0.069100  0.231300  0.249200  1.0  -0.1561
  C  C399  1  0.724300  0.097800  0.580600  1.0  -0.1314
  C  C400  1  0.762200  0.201800  0.565800  1.0  -0.1538
  C  C401  1  0.883200  0.865200  0.136000  1.0  -0.133
  C  C402  1  0.046300  0.101100  0.248200  1.0  -0.0423
  C  C403  1  0.023900  0.208700  0.271000  1.0  -0.0603
  C  C404  1  0.744200  0.074400  0.534800  1.0  -0.0938
  C  C405  1  0.780100  0.177400  0.519200  1.0  -0.0279
  C  C406  1  0.870200  0.906600  0.181700  1.0  0.6793
  C  C407  1  0.012700  0.143400  0.271200  1.0  -0.1598
  C  C408  1  0.770400  0.113400  0.503600  1.0  -0.039
  C  C409  1  0.965700  0.117200  0.295500  1.0  0.6924
  C  C410  1  0.792200  0.086700  0.453600  1.0  0.1584
  C  C411  1  0.190900  0.598600  0.383400  1.0  0.7087
  C  C412  1  0.088500  0.696600  0.085200  1.0  0.6534
  C  C413  1  0.144400  0.639200  0.397200  1.0  -0.1618
  C  C414  1  0.318800  0.404300  0.472700  1.0  0.7188
  C  C415  1  0.380300  0.672600  0.381000  1.0  0.6591
  C  C416  1  0.451400  0.414000  0.278400  1.0  0.6905
  C  C417  1  0.104500  0.664000  0.356900  1.0  -0.0654
  C  C418  1  0.138300  0.648900  0.451000  1.0  -0.0505
  C  C419  1  0.290300  0.375600  0.516300  1.0  -0.1614
  C  C420  1  0.414800  0.723000  0.413400  1.0  -0.1597
  C  C421  1  0.503300  0.388400  0.262600  1.0  -0.0713
  C  C422  1  0.058500  0.695900  0.369800  1.0  -0.1149
  C  C423  1  0.092100  0.680300  0.463700  1.0  -0.1632
  C  C424  1  0.268400  0.414800  0.552200  1.0  -0.0401
  C  C425  1  0.286500  0.309600  0.522100  1.0  -0.0446
  C  C426  1  0.400100  0.743400  0.462000  1.0  -0.108
  C  C427  1  0.463400  0.743500  0.398300  1.0  -0.0794
  C  C428  1  0.535300  0.426800  0.235700  1.0  -0.0558
  C  C429  1  0.519000  0.324500  0.272800  1.0  -0.08
  C  C430  1  0.051600  0.702400  0.423600  1.0  -0.0168
  C  C431  1  0.245200  0.389900  0.594200  1.0  -0.1608
  C  C432  1  0.262900  0.283400  0.564200  1.0  -0.1349
  C  C433  1  0.435000  0.782600  0.496700  1.0  0.017
  C  C434  1  0.499300  0.783400  0.431800  1.0  -0.0016
  C  C435  1  0.583400  0.404400  0.219500  1.0  -0.1772
  C  C436  1  0.566300  0.300200  0.255800  1.0  -0.1389
  C  C437  1  0.999300  0.729900  0.437700  1.0  0.0095
  C  C438  1  0.242700  0.323500  0.601200  1.0  0.0458
  C  C439  1  0.421700  0.801500  0.550300  1.0  0.0104
  C  C440  1  0.484300  0.802700  0.481500  1.0  -0.1221
  C  C441  1  0.551900  0.805000  0.417900  1.0  0.0058
  C  C442  1  0.599300  0.340200  0.229300  1.0  0.0415
  C  C443  1  0.969000  0.776100  0.405800  1.0  -0.0972
  C  C444  1  0.979400  0.706400  0.483300  1.0  -0.1601
  C  C445  1  0.223300  0.296100  0.649700  1.0  0.0476
  C  C446  1  0.368500  0.818200  0.557100  1.0  -0.1388
  C  C447  1  0.464100  0.803300  0.595100  1.0  -0.1672
  C  C448  1  0.557900  0.819400  0.364400  1.0  -0.0983
  C  C449  1  0.597500  0.811700  0.459400  1.0  -0.22
  C  C450  1  0.651100  0.315000  0.212100  1.0  0.0414
  C  C451  1  0.919800  0.799300  0.419600  1.0  -0.1451
  C  C452  1  0.930600  0.728700  0.497300  1.0  0.0275
  C  C453  1  0.256500  0.253700  0.683600  1.0  -0.0644
  C  C454  1  0.171900  0.313800  0.663600  1.0  -0.1157
  C  C455  1  0.358900  0.840800  0.607300  1.0  -0.03
  C  C456  1  0.453900  0.825600  0.644600  1.0  -0.0673
  C  C457  1  0.607800  0.842500  0.352700  1.0  -0.055
  C  C458  1  0.645700  0.836100  0.446600  1.0  -0.0226
  C  C459  1  0.667100  0.335700  0.163400  1.0  -0.1033
  C  C460  1  0.684000  0.272300  0.245500  1.0  -0.0646
  C  C461  1  0.899800  0.775600  0.464700  1.0  -0.0979
  C  C462  1  0.890500  0.852100  0.385100  1.0  0.6886
  C  C463  1  0.911900  0.700500  0.546200  1.0  0.029
  C  C464  1  0.239200  0.229200  0.730100  1.0  -0.156
  C  C465  1  0.154500  0.288800  0.709400  1.0  0.0229
  C  C466  1  0.401400  0.846700  0.651000  1.0  -0.1692
  C  C467  1  0.650900  0.851500  0.394600  1.0  -0.1363
  C  C468  1  0.715800  0.313500  0.148200  1.0  -0.0127
  C  C469  1  0.733300  0.250000  0.230400  1.0  -0.1434
  C  C470  1  0.858800  0.679700  0.545800  1.0  -0.1375
  C  C471  1  0.950200  0.692000  0.593500  1.0  -0.1697
  C  C472  1  0.188300  0.246200  0.742100  1.0  -0.0728
  C  C473  1  0.276900  0.189000  0.768800  1.0  0.6714
  C  C474  1  0.103200  0.310300  0.727300  1.0  0.0392
  C  C475  1  0.393500  0.878900  0.701600  1.0  0.6826
  C  C476  1  0.703500  0.882800  0.384400  1.0  0.624
  C  C477  1  0.747800  0.270000  0.181100  1.0  -0.0522
  C  C478  1  0.733900  0.337500  0.097000  1.0  0.0184
  C  C479  1  0.770300  0.206300  0.267800  1.0  0.6671
  C  C480  1  0.844900  0.646400  0.590000  1.0  -0.0566
  C  C481  1  0.935500  0.659800  0.637500  1.0  -0.0473
  C  C482  1  0.090400  0.376400  0.725900  1.0  -0.1337
  C  C483  1  0.069100  0.268700  0.749200  1.0  -0.157
  C  C484  1  0.724300  0.402200  0.080600  1.0  -0.132
  C  C485  1  0.762200  0.298200  0.065800  1.0  -0.1534
  C  C486  1  0.883200  0.634800  0.636000  1.0  -0.1339
  C  C487  1  0.046300  0.398900  0.748200  1.0  -0.0407
  C  C488  1  0.023900  0.291300  0.771000  1.0  -0.06
  C  C489  1  0.744200  0.425600  0.034800  1.0  -0.0933
  C  C490  1  0.780100  0.322600  0.019200  1.0  -0.0285
  C  C491  1  0.870200  0.593400  0.681700  1.0  0.6799
  C  C492  1  0.012700  0.356600  0.771200  1.0  -0.1596
  C  C493  1  0.770400  0.386600  0.003600  1.0  -0.0389
  C  C494  1  0.965700  0.382800  0.795500  1.0  0.687
  C  C495  1  0.792200  0.413300  0.953600  1.0  0.1589
  C  C496  1  0.809100  0.098600  0.116600  1.0  0.7098
  C  C497  1  0.911500  0.196600  0.414800  1.0  0.655
  C  C498  1  0.855600  0.139200  0.102800  1.0  -0.1634
  C  C499  1  0.681200  0.904300  0.027300  1.0  0.7188
  C  C500  1  0.619700  0.172600  0.119000  1.0  0.659
  C  C501  1  0.548600  0.914000  0.221600  1.0  0.6925
  C  C502  1  0.895500  0.164000  0.143100  1.0  -0.0669
  C  C503  1  0.861700  0.148900  0.049000  1.0  -0.0504
  C  C504  1  0.709700  0.875600  0.983700  1.0  -0.1617
  C  C505  1  0.585200  0.223000  0.086600  1.0  -0.1604
  C  C506  1  0.496700  0.888400  0.237400  1.0  -0.0704
  C  C507  1  0.941500  0.195900  0.130200  1.0  -0.1161
  C  C508  1  0.907900  0.180300  0.036300  1.0  -0.1637
  C  C509  1  0.731600  0.914800  0.947800  1.0  -0.0401
  C  C510  1  0.713500  0.809600  0.977900  1.0  -0.0445
  C  C511  1  0.599900  0.243400  0.038000  1.0  -0.1099
  C  C512  1  0.536600  0.243500  0.101700  1.0  -0.0796
  C  C513  1  0.464700  0.926800  0.264300  1.0  -0.055
  C  C514  1  0.481000  0.824500  0.227200  1.0  -0.0799
  C  C515  1  0.948400  0.202400  0.076400  1.0  -0.0166
  C  C516  1  0.754800  0.889900  0.905800  1.0  -0.1607
  C  C517  1  0.737100  0.783400  0.935800  1.0  -0.1343
  C  C518  1  0.565000  0.282600  0.003300  1.0  0.0172
  C  C519  1  0.500700  0.283400  0.068200  1.0  -0.0024
  C  C520  1  0.416600  0.904400  0.280500  1.0  -0.1774
  C  C521  1  0.433700  0.800200  0.244200  1.0  -0.1407
  C  C522  1  0.000700  0.229900  0.062300  1.0  0.0087
  C  C523  1  0.757300  0.823500  0.898800  1.0  0.0453
  C  C524  1  0.578300  0.301500  0.949700  1.0  0.0089
  C  C525  1  0.515700  0.302700  0.018500  1.0  -0.1224
  C  C526  1  0.448100  0.305000  0.082100  1.0  0.0055
  C  C527  1  0.400700  0.840200  0.270700  1.0  0.0414
  C  C528  1  0.031000  0.276100  0.094200  1.0  -0.0974
  C  C529  1  0.020600  0.206400  0.016700  1.0  -0.161
  C  C530  1  0.776700  0.796100  0.850300  1.0  0.0469
  C  C531  1  0.631500  0.318200  0.942900  1.0  -0.1387
  C  C532  1  0.535900  0.303300  0.904900  1.0  -0.1694
  C  C533  1  0.442100  0.319400  0.135600  1.0  -0.0984
  C  C534  1  0.402500  0.311700  0.040600  1.0  -0.219
  C  C535  1  0.348900  0.815000  0.287900  1.0  0.0411
  C  C536  1  0.080200  0.299300  0.080400  1.0  -0.1455
  C  C537  1  0.069400  0.228700  0.002700  1.0  0.0273
  C  C538  1  0.743500  0.753700  0.816400  1.0  -0.0638
  C  C539  1  0.828100  0.813800  0.836400  1.0  -0.1151
  C  C540  1  0.641100  0.340800  0.892700  1.0  -0.029
  C  C541  1  0.546100  0.325600  0.855400  1.0  -0.0691
  C  C542  1  0.392200  0.342500  0.147300  1.0  -0.0556
  C  C543  1  0.354300  0.336100  0.053400  1.0  -0.0228
  C  C544  1  0.332900  0.835700  0.336600  1.0  -0.104
  C  C545  1  0.316000  0.772300  0.254500  1.0  -0.0642
  C  C546  1  0.100200  0.275600  0.035300  1.0  -0.0967
  C  C547  1  0.109500  0.352100  0.114900  1.0  0.6879
  C  C548  1  0.088100  0.200500  0.953800  1.0  0.0294
  C  C549  1  0.760800  0.729200  0.769900  1.0  -0.1558
  C  C550  1  0.845500  0.788800  0.790600  1.0  0.0219
  C  C551  1  0.598600  0.346700  0.849000  1.0  -0.1687
  C  C552  1  0.349100  0.351500  0.105400  1.0  -0.1375
  C  C553  1  0.284200  0.813500  0.351800  1.0  -0.0139
  C  C554  1  0.266700  0.750000  0.269600  1.0  -0.1429
  C  C555  1  0.141200  0.179700  0.954200  1.0  -0.1363
  C  C556  1  0.049800  0.192000  0.906500  1.0  -0.1706
  C  C557  1  0.811700  0.746200  0.757900  1.0  -0.072
  C  C558  1  0.723100  0.689000  0.731200  1.0  0.6724
  C  C559  1  0.896800  0.810300  0.772700  1.0  0.0384
  C  C560  1  0.606500  0.378900  0.798400  1.0  0.6832
  C  C561  1  0.296500  0.382800  0.115600  1.0  0.6248
  C  C562  1  0.252200  0.770000  0.318900  1.0  -0.0542
  C  C563  1  0.266100  0.837500  0.403000  1.0  0.0197
  C  C564  1  0.229700  0.706300  0.232200  1.0  0.6674
  C  C565  1  0.155100  0.146400  0.910000  1.0  -0.0546
  C  C566  1  0.064500  0.159800  0.862500  1.0  -0.0466
  C  C567  1  0.909600  0.876400  0.774100  1.0  -0.1337
  C  C568  1  0.930900  0.768700  0.750800  1.0  -0.1583
  C  C569  1  0.275700  0.902200  0.419400  1.0  -0.1315
  C  C570  1  0.237800  0.798200  0.434200  1.0  -0.1546
  C  C571  1  0.116800  0.134800  0.864000  1.0  -0.1346
  C  C572  1  0.953700  0.898900  0.751800  1.0  -0.0406
  C  C573  1  0.976100  0.791300  0.729000  1.0  -0.0604
  C  C574  1  0.255800  0.925600  0.465200  1.0  -0.0926
  C  C575  1  0.219900  0.822600  0.480800  1.0  -0.0275
  C  C576  1  0.129800  0.093400  0.818300  1.0  0.6784
  C  C577  1  0.987300  0.856600  0.728800  1.0  -0.1589
  C  C578  1  0.229600  0.886600  0.496400  1.0  -0.0388
  C  C579  1  0.034300  0.882800  0.704500  1.0  0.6862
  C  C580  1  0.207800  0.913300  0.546400  1.0  0.1571
  O  O581  1  0.813750  0.564300  0.791200  1.0  -1.0342
  O  O582  1  0.765460  0.450000  0.810900  1.0  -0.9394
  O  O583  1  0.869880  0.479000  0.869590  1.0  -0.9973
  O  O584  1  0.850900  0.620000  0.903400  1.0  -0.7098
  O  O585  1  0.708500  0.596300  0.837200  1.0  -0.6589
  O  O586  1  0.741600  0.611800  0.924400  1.0  -0.6836
  O  O587  1  0.804500  0.475500  0.956700  1.0  -0.5335
  O  O588  1  0.856690  0.451200  0.763180  1.0  -1.0052
  O  O589  1  0.968700  0.442400  0.808200  1.0  -0.7425
  O  O590  1  0.905500  0.636400  0.841400  1.0  -0.6375
  O  O591  1  0.905900  0.590400  0.723400  1.0  -0.7164
  O  O592  1  0.701270  0.425000  0.682920  1.0  -1.0305
  O  O593  1  0.726000  0.535200  0.635380  1.0  -0.993
  O  O594  1  0.682380  0.538600  0.730110  1.0  -0.9699
  O  O595  1  0.813900  0.422900  0.663120  1.0  -0.6027
  O  O596  1  0.827600  0.561300  0.673200  1.0  -0.6196
  O  O597  1  0.875500  0.273800  0.881000  1.0  -0.6596
  O  O598  1  0.917900  0.362200  0.914300  1.0  -0.6724
  O  O599  1  0.927600  0.346700  0.801800  1.0  -0.6182
  O  O600  1  0.759800  0.306500  0.814170  1.0  -0.6096
  O  O601  1  0.812100  0.316900  0.750880  1.0  -0.6135
  O  O602  1  0.801800  0.375800  0.919310  1.0  -0.6317
  O  O603  1  0.617960  0.509400  0.627510  1.0  -1.0169
  O  O604  1  0.670900  0.536000  0.523180  1.0  -0.7094
  O  O605  1  0.770100  0.412300  0.579000  1.0  -0.6798
  O  O606  1  0.664400  0.341700  0.601800  1.0  -0.6364
  O  O607  1  0.601700  0.352500  0.657800  1.0  -0.6663
  O  O608  1  0.567400  0.533900  0.744900  1.0  -0.6805
  O  O609  1  0.651900  0.404700  0.793900  1.0  -0.625
  O  O610  1  0.566000  0.383100  0.761400  1.0  -0.5955
  O  O611  1  0.668300  0.631800  0.563700  1.0  -0.7209
  O  O612  1  0.571530  0.616500  0.687600  1.0  -0.7471
  O  O613  1  0.673700  0.682300  0.737070  1.0  -0.6641
  O  O614  1  0.741400  0.663300  0.691400  1.0  -0.6177
  O  O615  1  0.240000  0.539700  0.067800  1.0  -0.572
  O  O616  1  0.186250  0.064300  0.708800  1.0  -1.0345
  O  O617  1  0.234540  0.950000  0.689100  1.0  -0.9393
  O  O618  1  0.130120  0.979000  0.630410  1.0  -0.9998
  O  O619  1  0.149100  0.120000  0.596600  1.0  -0.7122
  O  O620  1  0.291500  0.096300  0.662800  1.0  -0.661
  O  O621  1  0.258400  0.111800  0.575600  1.0  -0.6862
  O  O622  1  0.195500  0.975500  0.543300  1.0  -0.5336
  O  O623  1  0.143310  0.951200  0.736820  1.0  -1.0059
  O  O624  1  0.031300  0.942400  0.691800  1.0  -0.7419
  O  O625  1  0.094500  0.136400  0.658600  1.0  -0.6368
  O  O626  1  0.094100  0.090400  0.776600  1.0  -0.7174
  O  O627  1  0.298730  0.925000  0.817080  1.0  -1.0301
  O  O628  1  0.274000  0.035200  0.864620  1.0  -0.9945
  O  O629  1  0.317620  0.038600  0.769890  1.0  -0.9701
  O  O630  1  0.186100  0.922900  0.836880  1.0  -0.6029
  O  O631  1  0.172400  0.061300  0.826800  1.0  -0.6185
  O  O632  1  0.124500  0.773800  0.619000  1.0  -0.6587
  O  O633  1  0.082100  0.862200  0.585700  1.0  -0.6752
  O  O634  1  0.072400  0.846700  0.698200  1.0  -0.6197
  O  O635  1  0.240200  0.806500  0.685830  1.0  -0.6103
  O  O636  1  0.187900  0.816900  0.749120  1.0  -0.6089
  O  O637  1  0.198200  0.875800  0.580690  1.0  -0.6313
  O  O638  1  0.382040  0.009400  0.872490  1.0  -1.0136
  O  O639  1  0.329100  0.036000  0.976820  1.0  -0.7113
  O  O640  1  0.229900  0.912300  0.921000  1.0  -0.6806
  O  O641  1  0.335600  0.841700  0.898200  1.0  -0.6337
  O  O642  1  0.398300  0.852500  0.842200  1.0  -0.6673
  O  O643  1  0.432600  0.033900  0.755100  1.0  -0.6803
  O  O644  1  0.348100  0.904700  0.706100  1.0  -0.6248
  O  O645  1  0.434000  0.883100  0.738600  1.0  -0.5937
  O  O646  1  0.331700  0.131800  0.936300  1.0  -0.722
  O  O647  1  0.428470  0.116500  0.812400  1.0  -0.7478
  O  O648  1  0.326300  0.182300  0.762930  1.0  -0.6657
  O  O649  1  0.258600  0.163300  0.808600  1.0  -0.6182
  O  O650  1  0.760000  0.039700  0.432200  1.0  -0.5742
  O  O651  1  0.186250  0.435700  0.208800  1.0  -1.0348
  O  O652  1  0.234540  0.550000  0.189100  1.0  -0.9389
  O  O653  1  0.130120  0.521000  0.130410  1.0  -0.9995
  O  O654  1  0.149100  0.380000  0.096600  1.0  -0.7117
  O  O655  1  0.291500  0.403700  0.162800  1.0  -0.6627
  O  O656  1  0.258400  0.388200  0.075600  1.0  -0.6844
  O  O657  1  0.195500  0.524500  0.043300  1.0  -0.5312
  O  O658  1  0.143310  0.548800  0.236820  1.0  -1.0048
  O  O659  1  0.031300  0.557600  0.191800  1.0  -0.7399
  O  O660  1  0.094500  0.363600  0.158600  1.0  -0.6369
  O  O661  1  0.094100  0.409600  0.276600  1.0  -0.7182
  O  O662  1  0.298730  0.575000  0.317080  1.0  -1.0307
  O  O663  1  0.274000  0.464800  0.364620  1.0  -0.9954
  O  O664  1  0.317620  0.461400  0.269890  1.0  -0.9714
  O  O665  1  0.186100  0.577100  0.336880  1.0  -0.6024
  O  O666  1  0.172400  0.438700  0.326800  1.0  -0.6191
  O  O667  1  0.124500  0.726200  0.119000  1.0  -0.6599
  O  O668  1  0.082100  0.637800  0.085700  1.0  -0.6745
  O  O669  1  0.072400  0.653300  0.198200  1.0  -0.618
  O  O670  1  0.240200  0.693500  0.185830  1.0  -0.6093
  O  O671  1  0.187900  0.683100  0.249120  1.0  -0.6137
  O  O672  1  0.198200  0.624200  0.080690  1.0  -0.6317
  O  O673  1  0.382040  0.490600  0.372490  1.0  -1.0134
  O  O674  1  0.329100  0.464000  0.476820  1.0  -0.7083
  O  O675  1  0.229900  0.587700  0.421000  1.0  -0.6806
  O  O676  1  0.335600  0.658300  0.398200  1.0  -0.6334
  O  O677  1  0.398300  0.647500  0.342200  1.0  -0.6677
  O  O678  1  0.432600  0.466100  0.255100  1.0  -0.6784
  O  O679  1  0.348100  0.595300  0.206100  1.0  -0.6263
  O  O680  1  0.434000  0.616900  0.238600  1.0  -0.594
  O  O681  1  0.331700  0.368200  0.436300  1.0  -0.7229
  O  O682  1  0.428470  0.383500  0.312400  1.0  -0.7482
  O  O683  1  0.326300  0.317700  0.262930  1.0  -0.6643
  O  O684  1  0.258600  0.336700  0.308600  1.0  -0.6185
  O  O685  1  0.760000  0.460300  0.932200  1.0  -0.5724
  O  O686  1  0.813750  0.935700  0.291200  1.0  -1.0346
  O  O687  1  0.765460  0.050000  0.310900  1.0  -0.9383
  O  O688  1  0.869880  0.021000  0.369590  1.0  -0.997
  O  O689  1  0.850900  0.880000  0.403400  1.0  -0.71
  O  O690  1  0.708500  0.903700  0.337200  1.0  -0.6605
  O  O691  1  0.741600  0.888200  0.424400  1.0  -0.6824
  O  O692  1  0.804500  0.024500  0.456700  1.0  -0.5326
  O  O693  1  0.856690  0.048800  0.263180  1.0  -1.0043
  O  O694  1  0.968700  0.057600  0.308200  1.0  -0.7438
  O  O695  1  0.905500  0.863600  0.341400  1.0  -0.6362
  O  O696  1  0.905900  0.909600  0.223400  1.0  -0.7172
  O  O697  1  0.701270  0.075000  0.182920  1.0  -1.0307
  O  O698  1  0.726000  0.964800  0.135380  1.0  -0.9937
  O  O699  1  0.682380  0.961400  0.230110  1.0  -0.9712
  O  O700  1  0.813900  0.077100  0.163120  1.0  -0.6023
  O  O701  1  0.827600  0.938700  0.173200  1.0  -0.6198
  O  O702  1  0.875500  0.226200  0.381000  1.0  -0.6614
  O  O703  1  0.917900  0.137800  0.414300  1.0  -0.6738
  O  O704  1  0.927600  0.153300  0.301800  1.0  -0.6174
  O  O705  1  0.759800  0.193500  0.314170  1.0  -0.6082
  O  O706  1  0.812100  0.183100  0.250880  1.0  -0.6088
  O  O707  1  0.801800  0.124200  0.419310  1.0  -0.6318
  O  O708  1  0.617960  0.990600  0.127510  1.0  -1.0174
  O  O709  1  0.670900  0.964000  0.023180  1.0  -0.7112
  O  O710  1  0.770100  0.087700  0.079000  1.0  -0.6795
  O  O711  1  0.664400  0.158300  0.101800  1.0  -0.6364
  O  O712  1  0.601700  0.147500  0.157800  1.0  -0.6655
  O  O713  1  0.567400  0.966100  0.244900  1.0  -0.6808
  O  O714  1  0.651900  0.095300  0.293900  1.0  -0.6261
  O  O715  1  0.566000  0.116900  0.261400  1.0  -0.5953
  O  O716  1  0.668300  0.868200  0.063700  1.0  -0.72
  O  O717  1  0.571530  0.883500  0.187600  1.0  -0.7467
  O  O718  1  0.673700  0.817700  0.237070  1.0  -0.6641
  O  O719  1  0.741400  0.836700  0.191400  1.0  -0.6162
  O  O720  1  0.240000  0.960300  0.567800  1.0  -0.5736
