# generated using pymatgen
data_CuH13C21O5
_symmetry_space_group_name_H-M   'P 1'
_cell_length_a   35.79680000
_cell_length_b   35.79680000
_cell_length_c   15.04500000
_cell_angle_alpha   90.00000000
_cell_angle_beta   90.00000000
_cell_angle_gamma   120.00000000
_symmetry_Int_Tables_number   1
_chemical_formula_structural   CuH13C21O5
_chemical_formula_sum   'Cu18 H234 C378 O90'
_cell_volume   16695.95380177
_cell_formula_units_Z   18
loop_
 _symmetry_equiv_pos_site_id
 _symmetry_equiv_pos_as_xyz
  1  'x, y, z'
loop_
 _atom_site_type_symbol
 _atom_site_label
 _atom_site_symmetry_multiplicity
 _atom_site_fract_x
 _atom_site_fract_y
 _atom_site_fract_z
 _atom_site_occupancy
 _atom_site_charge
  Cu  Cu1  1  0.503280  0.496720  0.413560  1.0  0.8983
  Cu  Cu2  1  0.169950  0.830050  0.746890  1.0  0.8983
  Cu  Cu3  1  0.836610  0.163390  0.080230  1.0  0.8985
  Cu  Cu4  1  0.503280  0.006560  0.413560  1.0  0.8992
  Cu  Cu5  1  0.169950  0.339890  0.746890  1.0  0.8992
  Cu  Cu6  1  0.836610  0.673230  0.080230  1.0  0.8992
  Cu  Cu7  1  0.993440  0.496720  0.413560  1.0  0.8985
  Cu  Cu8  1  0.660110  0.830050  0.746890  1.0  0.8985
  Cu  Cu9  1  0.326770  0.163390  0.080230  1.0  0.8985
  Cu  Cu10  1  0.496720  0.503280  0.586440  1.0  0.8973
  Cu  Cu11  1  0.163390  0.836610  0.919770  1.0  0.8974
  Cu  Cu12  1  0.830050  0.169950  0.253110  1.0  0.8973
  Cu  Cu13  1  0.006560  0.503280  0.586440  1.0  0.8976
  Cu  Cu14  1  0.673230  0.836610  0.919770  1.0  0.8976
  Cu  Cu15  1  0.339890  0.169950  0.253110  1.0  0.8976
  Cu  Cu16  1  0.496720  0.993440  0.586440  1.0  0.8983
  Cu  Cu17  1  0.163390  0.326770  0.919770  1.0  0.8983
  Cu  Cu18  1  0.830050  0.660110  0.253110  1.0  0.8983
  H  H19  1  0.641800  0.538400  0.397400  1.0  0.0863
  H  H20  1  0.713100  0.562000  0.419600  1.0  0.0965
  H  H21  1  0.696700  0.562900  0.680200  1.0  0.1199
  H  H22  1  0.622700  0.536300  0.656600  1.0  0.1147
  H  H23  1  0.763900  0.639000  0.631800  1.0  0.1214
  H  H24  1  0.725900  0.495600  0.606300  1.0  0.1289
  H  H25  1  0.308470  0.871730  0.730730  1.0  0.0863
  H  H26  1  0.379770  0.895330  0.752930  1.0  0.0965
  H  H27  1  0.363370  0.896230  0.013530  1.0  0.1199
  H  H28  1  0.289370  0.869630  0.989930  1.0  0.1146
  H  H29  1  0.430570  0.972330  0.965130  1.0  0.1216
  H  H30  1  0.392570  0.828930  0.939630  1.0  0.1289
  H  H31  1  0.975130  0.205070  0.064070  1.0  0.0863
  H  H32  1  0.046430  0.228670  0.086270  1.0  0.0964
  H  H33  1  0.030030  0.229570  0.346870  1.0  0.1189
  H  H34  1  0.956030  0.202970  0.323270  1.0  0.1147
  H  H35  1  0.097230  0.305670  0.298470  1.0  0.1216
  H  H36  1  0.059230  0.162270  0.272970  1.0  0.1271
  H  H37  1  0.461600  0.103400  0.397400  1.0  0.0865
  H  H38  1  0.438000  0.151100  0.419600  1.0  0.0967
  H  H39  1  0.437100  0.133800  0.680200  1.0  0.1179
  H  H40  1  0.463700  0.086400  0.656600  1.0  0.1149
  H  H41  1  0.361000  0.124900  0.631800  1.0  0.1234
  H  H42  1  0.504400  0.230300  0.606300  1.0  0.1275
  H  H43  1  0.128270  0.436730  0.730730  1.0  0.0865
  H  H44  1  0.104670  0.484430  0.752930  1.0  0.0967
  H  H45  1  0.103770  0.467130  0.013530  1.0  0.1179
  H  H46  1  0.130370  0.419730  0.989930  1.0  0.1149
  H  H47  1  0.027670  0.458230  0.965130  1.0  0.1236
  H  H48  1  0.171070  0.563630  0.939630  1.0  0.1275
  H  H49  1  0.794930  0.770070  0.064070  1.0  0.0865
  H  H50  1  0.771330  0.817770  0.086270  1.0  0.0967
  H  H51  1  0.770430  0.800470  0.346870  1.0  0.1192
  H  H52  1  0.797030  0.753070  0.323270  1.0  0.1149
  H  H53  1  0.694330  0.791570  0.298470  1.0  0.1234
  H  H54  1  0.837730  0.896970  0.272970  1.0  0.1287
  H  H55  1  0.896600  0.358200  0.397400  1.0  0.0865
  H  H56  1  0.848900  0.286900  0.419600  1.0  0.0964
  H  H57  1  0.866200  0.303300  0.680200  1.0  0.1181
  H  H58  1  0.913600  0.377300  0.656600  1.0  0.1144
  H  H59  1  0.875100  0.236100  0.631800  1.0  0.1211
  H  H60  1  0.769700  0.274100  0.606300  1.0  0.126
  H  H61  1  0.563270  0.691530  0.730730  1.0  0.0865
  H  H62  1  0.515570  0.620230  0.752930  1.0  0.0964
  H  H63  1  0.532870  0.636630  0.013530  1.0  0.118
  H  H64  1  0.580270  0.710630  0.989930  1.0  0.1145
  H  H65  1  0.541770  0.569430  0.965130  1.0  0.1211
  H  H66  1  0.436370  0.607430  0.939630  1.0  0.126
  H  H67  1  0.229930  0.024870  0.064070  1.0  0.0864
  H  H68  1  0.182230  0.953570  0.086270  1.0  0.0963
  H  H69  1  0.199530  0.969970  0.346870  1.0  0.118
  H  H70  1  0.246930  0.043970  0.323270  1.0  0.1143
  H  H71  1  0.208430  0.902770  0.298470  1.0  0.1209
  H  H72  1  0.103030  0.940770  0.272970  1.0  0.1266
  H  H73  1  0.538400  0.641800  0.602600  1.0  0.0866
  H  H74  1  0.562000  0.713100  0.580400  1.0  0.0962
  H  H75  1  0.562900  0.696700  0.319800  1.0  0.1189
  H  H76  1  0.536300  0.622700  0.343400  1.0  0.1142
  H  H77  1  0.639000  0.763900  0.368200  1.0  0.1217
  H  H78  1  0.495600  0.725900  0.393700  1.0  0.1273
  H  H79  1  0.205070  0.975130  0.935930  1.0  0.0866
  H  H80  1  0.228670  0.046430  0.913730  1.0  0.0962
  H  H81  1  0.229570  0.030030  0.653130  1.0  0.118
  H  H82  1  0.202970  0.956030  0.676730  1.0  0.1142
  H  H83  1  0.305670  0.097230  0.701530  1.0  0.1219
  H  H84  1  0.162270  0.059230  0.727030  1.0  0.1247
  H  H85  1  0.871730  0.308470  0.269270  1.0  0.0866
  H  H86  1  0.895330  0.379770  0.247070  1.0  0.0962
  H  H87  1  0.896230  0.363370  0.986470  1.0  0.1189
  H  H88  1  0.869630  0.289370  0.010070  1.0  0.1141
  H  H89  1  0.972330  0.430570  0.034870  1.0  0.1219
  H  H90  1  0.828930  0.392570  0.060370  1.0  0.1273
  H  H91  1  0.103400  0.461600  0.602600  1.0  0.0859
  H  H92  1  0.151100  0.438000  0.580400  1.0  0.0965
  H  H93  1  0.133800  0.437100  0.319800  1.0  0.1181
  H  H94  1  0.086400  0.463700  0.343400  1.0  0.1143
  H  H95  1  0.124900  0.361000  0.368200  1.0  0.122
  H  H96  1  0.230300  0.504400  0.393700  1.0  0.1262
  H  H97  1  0.770070  0.794930  0.935930  1.0  0.086
  H  H98  1  0.817770  0.771330  0.913730  1.0  0.0965
  H  H99  1  0.800470  0.770430  0.653130  1.0  0.1193
  H  H100  1  0.753070  0.797030  0.676730  1.0  0.1145
  H  H101  1  0.791570  0.694330  0.701530  1.0  0.122
  H  H102  1  0.896970  0.837730  0.727030  1.0  0.1273
  H  H103  1  0.436730  0.128270  0.269270  1.0  0.0859
  H  H104  1  0.484430  0.104670  0.247070  1.0  0.0965
  H  H105  1  0.467130  0.103770  0.986470  1.0  0.1182
  H  H106  1  0.419730  0.130370  0.010070  1.0  0.1143
  H  H107  1  0.458230  0.027670  0.034870  1.0  0.1222
  H  H108  1  0.563630  0.171070  0.060370  1.0  0.1262
  H  H109  1  0.358200  0.896600  0.602600  1.0  0.0863
  H  H110  1  0.286900  0.848900  0.580400  1.0  0.0969
  H  H111  1  0.303300  0.866200  0.319800  1.0  0.1176
  H  H112  1  0.377300  0.913600  0.343400  1.0  0.1147
  H  H113  1  0.236100  0.875100  0.368200  1.0  0.1233
  H  H114  1  0.274100  0.769700  0.393700  1.0  0.1264
  H  H115  1  0.024870  0.229930  0.935930  1.0  0.0863
  H  H116  1  0.953570  0.182230  0.913730  1.0  0.0968
  H  H117  1  0.969970  0.199530  0.653130  1.0  0.1175
  H  H118  1  0.043970  0.246930  0.676730  1.0  0.1144
  H  H119  1  0.902770  0.208430  0.701530  1.0  0.1232
  H  H120  1  0.940770  0.103030  0.727030  1.0  0.1268
  H  H121  1  0.691530  0.563270  0.269270  1.0  0.0863
  H  H122  1  0.620230  0.515570  0.247070  1.0  0.0969
  H  H123  1  0.636630  0.532870  0.986470  1.0  0.1175
  H  H124  1  0.710630  0.580270  0.010070  1.0  0.1148
  H  H125  1  0.569430  0.541770  0.034870  1.0  0.1233
  H  H126  1  0.607430  0.436370  0.060370  1.0  0.1264
  H  H127  1  0.358200  0.461600  0.602600  1.0  0.0861
  H  H128  1  0.286900  0.438000  0.580400  1.0  0.0967
  H  H129  1  0.303300  0.437100  0.319800  1.0  0.1187
  H  H130  1  0.377300  0.463700  0.343400  1.0  0.1147
  H  H131  1  0.236100  0.361000  0.368200  1.0  0.1219
  H  H132  1  0.274100  0.504400  0.393700  1.0  0.1269
  H  H133  1  0.024870  0.794930  0.935930  1.0  0.0861
  H  H134  1  0.953570  0.771330  0.913730  1.0  0.0967
  H  H135  1  0.969970  0.770430  0.653130  1.0  0.1177
  H  H136  1  0.043970  0.797030  0.676730  1.0  0.1147
  H  H137  1  0.902770  0.694330  0.701530  1.0  0.1222
  H  H138  1  0.940770  0.837730  0.727030  1.0  0.1245
  H  H139  1  0.691530  0.128270  0.269270  1.0  0.0861
  H  H140  1  0.620230  0.104670  0.247070  1.0  0.0967
  H  H141  1  0.636630  0.103770  0.986470  1.0  0.1187
  H  H142  1  0.710630  0.130370  0.010070  1.0  0.1145
  H  H143  1  0.569430  0.027670  0.034870  1.0  0.1221
  H  H144  1  0.607430  0.171070  0.060370  1.0  0.1269
  H  H145  1  0.538400  0.896600  0.602600  1.0  0.0862
  H  H146  1  0.562000  0.848900  0.580400  1.0  0.0966
  H  H147  1  0.562900  0.866200  0.319800  1.0  0.1179
  H  H148  1  0.536300  0.913600  0.343400  1.0  0.1142
  H  H149  1  0.639000  0.875100  0.368200  1.0  0.1232
  H  H150  1  0.495600  0.769700  0.393700  1.0  0.1274
  H  H151  1  0.205070  0.229930  0.935930  1.0  0.0862
  H  H152  1  0.228670  0.182230  0.913730  1.0  0.0966
  H  H153  1  0.229570  0.199530  0.653130  1.0  0.1191
  H  H154  1  0.202970  0.246930  0.676730  1.0  0.1145
  H  H155  1  0.305670  0.208430  0.701530  1.0  0.1232
  H  H156  1  0.162270  0.103030  0.727030  1.0  0.1284
  H  H157  1  0.871730  0.563270  0.269270  1.0  0.0862
  H  H158  1  0.895330  0.515570  0.247070  1.0  0.0966
  H  H159  1  0.896230  0.532870  0.986470  1.0  0.1179
  H  H160  1  0.869630  0.580270  0.010070  1.0  0.1142
  H  H161  1  0.972330  0.541770  0.034870  1.0  0.1235
  H  H162  1  0.828930  0.436370  0.060370  1.0  0.1274
  H  H163  1  0.103400  0.641800  0.602600  1.0  0.0865
  H  H164  1  0.151100  0.713100  0.580400  1.0  0.0963
  H  H165  1  0.133800  0.696700  0.319800  1.0  0.1178
  H  H166  1  0.086400  0.622700  0.343400  1.0  0.1142
  H  H167  1  0.124900  0.763900  0.368200  1.0  0.1218
  H  H168  1  0.230300  0.725900  0.393700  1.0  0.1256
  H  H169  1  0.770070  0.975130  0.935930  1.0  0.0864
  H  H170  1  0.817770  0.046430  0.913730  1.0  0.0963
  H  H171  1  0.800470  0.030030  0.653130  1.0  0.1177
  H  H172  1  0.753070  0.956030  0.676730  1.0  0.1141
  H  H173  1  0.791570  0.097230  0.701530  1.0  0.1217
  H  H174  1  0.896970  0.059230  0.727030  1.0  0.1258
  H  H175  1  0.436730  0.308470  0.269270  1.0  0.0865
  H  H176  1  0.484430  0.379770  0.247070  1.0  0.0963
  H  H177  1  0.467130  0.363370  0.986470  1.0  0.1177
  H  H178  1  0.419730  0.289370  0.010070  1.0  0.1143
  H  H179  1  0.458230  0.430570  0.034870  1.0  0.1218
  H  H180  1  0.563630  0.392570  0.060370  1.0  0.1256
  H  H181  1  0.461600  0.358200  0.397400  1.0  0.0865
  H  H182  1  0.438000  0.286900  0.419600  1.0  0.0965
  H  H183  1  0.437100  0.303300  0.680200  1.0  0.119
  H  H184  1  0.463700  0.377300  0.656600  1.0  0.1144
  H  H185  1  0.361000  0.236100  0.631800  1.0  0.122
  H  H186  1  0.504400  0.274100  0.606300  1.0  0.1279
  H  H187  1  0.128270  0.691530  0.730730  1.0  0.0865
  H  H188  1  0.104670  0.620230  0.752930  1.0  0.0965
  H  H189  1  0.103770  0.636630  0.013530  1.0  0.119
  H  H190  1  0.130370  0.710630  0.989930  1.0  0.1142
  H  H191  1  0.027670  0.569430  0.965130  1.0  0.1222
  H  H192  1  0.171070  0.607430  0.939630  1.0  0.1279
  H  H193  1  0.794930  0.024870  0.064070  1.0  0.0865
  H  H194  1  0.771330  0.953570  0.086270  1.0  0.0965
  H  H195  1  0.770430  0.969970  0.346870  1.0  0.1181
  H  H196  1  0.797030  0.043970  0.323270  1.0  0.1144
  H  H197  1  0.694330  0.902770  0.298470  1.0  0.1221
  H  H198  1  0.837730  0.940770  0.272970  1.0  0.126
  H  H199  1  0.896600  0.538400  0.397400  1.0  0.0864
  H  H200  1  0.848900  0.562000  0.419600  1.0  0.0963
  H  H201  1  0.866200  0.562900  0.680200  1.0  0.1182
  H  H202  1  0.913600  0.536300  0.656600  1.0  0.1146
  H  H203  1  0.875100  0.639000  0.631800  1.0  0.1222
  H  H204  1  0.769700  0.495600  0.606300  1.0  0.1276
  H  H205  1  0.563270  0.871730  0.730730  1.0  0.0864
  H  H206  1  0.515570  0.895330  0.752930  1.0  0.0963
  H  H207  1  0.532870  0.896230  0.013530  1.0  0.1183
  H  H208  1  0.580270  0.869630  0.989930  1.0  0.1146
  H  H209  1  0.541770  0.972330  0.965130  1.0  0.1224
  H  H210  1  0.436370  0.828930  0.939630  1.0  0.1276
  H  H211  1  0.229930  0.205070  0.064070  1.0  0.0864
  H  H212  1  0.182230  0.228670  0.086270  1.0  0.0963
  H  H213  1  0.199530  0.229570  0.346870  1.0  0.1194
  H  H214  1  0.246930  0.202970  0.323270  1.0  0.1146
  H  H215  1  0.208430  0.305670  0.298470  1.0  0.1222
  H  H216  1  0.103030  0.162270  0.272970  1.0  0.1284
  H  H217  1  0.641800  0.103400  0.397400  1.0  0.0865
  H  H218  1  0.713100  0.151100  0.419600  1.0  0.0965
  H  H219  1  0.696700  0.133800  0.680200  1.0  0.1189
  H  H220  1  0.622700  0.086400  0.656600  1.0  0.1148
  H  H221  1  0.763900  0.124900  0.631800  1.0  0.1243
  H  H222  1  0.725900  0.230300  0.606300  1.0  0.1266
  H  H223  1  0.308470  0.436730  0.730730  1.0  0.0865
  H  H224  1  0.379770  0.484430  0.752930  1.0  0.0965
  H  H225  1  0.363370  0.467130  0.013530  1.0  0.1188
  H  H226  1  0.289370  0.419730  0.989930  1.0  0.1149
  H  H227  1  0.430570  0.458230  0.965130  1.0  0.1243
  H  H228  1  0.392570  0.563630  0.939630  1.0  0.1266
  H  H229  1  0.975130  0.770070  0.064070  1.0  0.0864
  H  H230  1  0.046430  0.817770  0.086270  1.0  0.0964
  H  H231  1  0.030030  0.800470  0.346870  1.0  0.1188
  H  H232  1  0.956030  0.753070  0.323270  1.0  0.1148
  H  H233  1  0.097230  0.791570  0.298470  1.0  0.1242
  H  H234  1  0.059230  0.896970  0.272970  1.0  0.1274
  H  H235  1  0.732950  0.465900  0.540000  1.0  0.1636
  H  H236  1  0.399620  0.799230  0.873330  1.0  0.1636
  H  H237  1  0.066280  0.132570  0.206670  1.0  0.1588
  H  H238  1  0.534100  0.267050  0.540000  1.0  0.1657
  H  H239  1  0.200770  0.600380  0.873330  1.0  0.1657
  H  H240  1  0.867430  0.933720  0.206670  1.0  0.1615
  H  H241  1  0.732950  0.267050  0.540000  1.0  0.1529
  H  H242  1  0.399620  0.600380  0.873330  1.0  0.1529
  H  H243  1  0.066280  0.933720  0.206670  1.0  0.1592
  H  H244  1  0.465900  0.732950  0.460000  1.0  0.1631
  H  H245  1  0.132570  0.066280  0.793330  1.0  0.1585
  H  H246  1  0.799230  0.399620  0.126670  1.0  0.1631
  H  H247  1  0.267050  0.534100  0.460000  1.0  0.1639
  H  H248  1  0.933720  0.867430  0.793330  1.0  0.16
  H  H249  1  0.600380  0.200770  0.126670  1.0  0.1639
  H  H250  1  0.267050  0.732950  0.460000  1.0  0.1547
  H  H251  1  0.933720  0.066280  0.793330  1.0  0.1612
  H  H252  1  0.600380  0.399620  0.126670  1.0  0.1547
  C  C253  1  0.578400  0.521550  0.508500  1.0  0.6742
  C  C254  1  0.625270  0.535870  0.521500  1.0  -0.1224
  C  C255  1  0.652370  0.543400  0.455300  1.0  -0.0362
  C  C256  1  0.695600  0.558200  0.468300  1.0  -0.168
  C  C257  1  0.713070  0.567440  0.550100  1.0  0.105
  C  C258  1  0.685720  0.558400  0.622700  1.0  -0.2111
  C  C259  1  0.641220  0.542420  0.608600  1.0  -0.0514
  C  C260  1  0.759920  0.587420  0.569000  1.0  0.0397
  C  C261  1  0.779940  0.626090  0.616700  1.0  -0.116
  C  C262  1  0.245070  0.854880  0.841830  1.0  0.6742
  C  C263  1  0.291940  0.869200  0.854830  1.0  -0.1224
  C  C264  1  0.319040  0.876730  0.788630  1.0  -0.0362
  C  C265  1  0.362270  0.891530  0.801630  1.0  -0.168
  C  C266  1  0.379740  0.900770  0.883430  1.0  0.105
  C  C267  1  0.352390  0.891730  0.956030  1.0  -0.2111
  C  C268  1  0.307890  0.875750  0.941930  1.0  -0.0515
  C  C269  1  0.426590  0.920750  0.902330  1.0  0.0397
  C  C270  1  0.446610  0.959420  0.950030  1.0  -0.116
  C  C271  1  0.911730  0.188220  0.175170  1.0  0.6742
  C  C272  1  0.958600  0.202540  0.188170  1.0  -0.1224
  C  C273  1  0.985700  0.210070  0.121970  1.0  -0.0362
  C  C274  1  0.028930  0.224870  0.134970  1.0  -0.1679
  C  C275  1  0.046400  0.234110  0.216770  1.0  0.105
  C  C276  1  0.019050  0.225070  0.289370  1.0  -0.2111
  C  C277  1  0.974550  0.209090  0.275270  1.0  -0.0514
  C  C278  1  0.093250  0.254090  0.235670  1.0  0.0382
  C  C279  1  0.113270  0.292760  0.283370  1.0  -0.116
  C  C280  1  0.478450  0.056850  0.508500  1.0  0.6745
  C  C281  1  0.464130  0.089400  0.521500  1.0  -0.1206
  C  C282  1  0.456600  0.108970  0.455300  1.0  -0.0358
  C  C283  1  0.441800  0.137400  0.468300  1.0  -0.1681
  C  C284  1  0.432560  0.145630  0.550100  1.0  0.1074
  C  C285  1  0.441600  0.127320  0.622700  1.0  -0.2128
  C  C286  1  0.457580  0.098800  0.608600  1.0  -0.0518
  C  C287  1  0.412580  0.172500  0.569000  1.0  0.0389
  C  C288  1  0.373910  0.153850  0.616700  1.0  -0.1122
  C  C289  1  0.145120  0.390180  0.841830  1.0  0.6745
  C  C290  1  0.130800  0.422730  0.854830  1.0  -0.1206
  C  C291  1  0.123270  0.442300  0.788630  1.0  -0.0358
  C  C292  1  0.108470  0.470730  0.801630  1.0  -0.1681
  C  C293  1  0.099230  0.478960  0.883430  1.0  0.1074
  C  C294  1  0.108270  0.460650  0.956030  1.0  -0.2128
  C  C295  1  0.124250  0.432130  0.941930  1.0  -0.0518
  C  C296  1  0.079250  0.505830  0.902330  1.0  0.039
  C  C297  1  0.040580  0.487180  0.950030  1.0  -0.1122
  C  C298  1  0.811780  0.723520  0.175170  1.0  0.6745
  C  C299  1  0.797460  0.756070  0.188170  1.0  -0.1206
  C  C300  1  0.789930  0.775640  0.121970  1.0  -0.0358
  C  C301  1  0.775130  0.804070  0.134970  1.0  -0.1681
  C  C302  1  0.765890  0.812300  0.216770  1.0  0.1074
  C  C303  1  0.774930  0.793990  0.289370  1.0  -0.2128
  C  C304  1  0.790910  0.765470  0.275270  1.0  -0.0518
  C  C305  1  0.745910  0.839170  0.235670  1.0  0.0403
  C  C306  1  0.707240  0.820520  0.283370  1.0  -0.1122
  C  C307  1  0.943150  0.421600  0.508500  1.0  0.6756
  C  C308  1  0.910600  0.374730  0.521500  1.0  -0.1206
  C  C309  1  0.891030  0.347630  0.455300  1.0  -0.0349
  C  C310  1  0.862600  0.304400  0.468300  1.0  -0.1686
  C  C311  1  0.854370  0.286930  0.550100  1.0  0.1062
  C  C312  1  0.872680  0.314280  0.622700  1.0  -0.2088
  C  C313  1  0.901200  0.358780  0.608600  1.0  -0.052
  C  C314  1  0.827500  0.240080  0.569000  1.0  0.0384
  C  C315  1  0.846150  0.220060  0.616700  1.0  -0.1155
  C  C316  1  0.609820  0.754930  0.841830  1.0  0.6756
  C  C317  1  0.577270  0.708060  0.854830  1.0  -0.1206
  C  C318  1  0.557700  0.680960  0.788630  1.0  -0.0349
  C  C319  1  0.529270  0.637730  0.801630  1.0  -0.1686
  C  C320  1  0.521040  0.620260  0.883430  1.0  0.1062
  C  C321  1  0.539350  0.647610  0.956030  1.0  -0.2088
  C  C322  1  0.567870  0.692110  0.941930  1.0  -0.052
  C  C323  1  0.494170  0.573410  0.902330  1.0  0.0384
  C  C324  1  0.512820  0.553390  0.950030  1.0  -0.1155
  C  C325  1  0.276480  0.088270  0.175170  1.0  0.6756
  C  C326  1  0.243930  0.041400  0.188170  1.0  -0.1206
  C  C327  1  0.224360  0.014300  0.121970  1.0  -0.0349
  C  C328  1  0.195930  0.971070  0.134970  1.0  -0.1685
  C  C329  1  0.187700  0.953600  0.216770  1.0  0.1062
  C  C330  1  0.206010  0.980950  0.289370  1.0  -0.2088
  C  C331  1  0.234530  0.025450  0.275270  1.0  -0.052
  C  C332  1  0.160830  0.906750  0.235670  1.0  0.0397
  C  C333  1  0.179480  0.886730  0.283370  1.0  -0.1155
  C  C334  1  0.521550  0.578400  0.491500  1.0  0.6751
  C  C335  1  0.535870  0.625270  0.478500  1.0  -0.1196
  C  C336  1  0.543400  0.652370  0.544700  1.0  -0.0365
  C  C337  1  0.558200  0.695600  0.531700  1.0  -0.1689
  C  C338  1  0.567440  0.713070  0.449900  1.0  0.1066
  C  C339  1  0.558400  0.685720  0.377300  1.0  -0.2081
  C  C340  1  0.542420  0.641220  0.391400  1.0  -0.0528
  C  C341  1  0.587420  0.759920  0.431000  1.0  0.0395
  C  C342  1  0.626090  0.779940  0.383300  1.0  -0.1161
  C  C343  1  0.188220  0.911730  0.824830  1.0  0.6751
  C  C344  1  0.202540  0.958600  0.811830  1.0  -0.1196
  C  C345  1  0.210070  0.985700  0.878030  1.0  -0.0365
  C  C346  1  0.224870  0.028930  0.865030  1.0  -0.1687
  C  C347  1  0.234110  0.046400  0.783230  1.0  0.1066
  C  C348  1  0.225070  0.019050  0.710630  1.0  -0.2081
  C  C349  1  0.209090  0.974550  0.724730  1.0  -0.0528
  C  C350  1  0.254090  0.093250  0.764330  1.0  0.0382
  C  C351  1  0.292760  0.113270  0.716630  1.0  -0.1161
  C  C352  1  0.854880  0.245070  0.158170  1.0  0.6751
  C  C353  1  0.869200  0.291940  0.145170  1.0  -0.1196
  C  C354  1  0.876730  0.319040  0.211370  1.0  -0.0365
  C  C355  1  0.891530  0.362270  0.198370  1.0  -0.1689
  C  C356  1  0.900770  0.379740  0.116570  1.0  0.1066
  C  C357  1  0.891730  0.352390  0.043970  1.0  -0.2081
  C  C358  1  0.875750  0.307890  0.058070  1.0  -0.0529
  C  C359  1  0.920750  0.426590  0.097670  1.0  0.0395
  C  C360  1  0.959420  0.446610  0.049970  1.0  -0.116
  C  C361  1  0.056850  0.478450  0.491500  1.0  0.6742
  C  C362  1  0.089400  0.464130  0.478500  1.0  -0.1222
  C  C363  1  0.108970  0.456600  0.544700  1.0  -0.0372
  C  C364  1  0.137400  0.441800  0.531700  1.0  -0.1669
  C  C365  1  0.145630  0.432560  0.449900  1.0  0.1051
  C  C366  1  0.127320  0.441600  0.377300  1.0  -0.2087
  C  C367  1  0.098800  0.457580  0.391400  1.0  -0.0517
  C  C368  1  0.172500  0.412580  0.431000  1.0  0.0385
  C  C369  1  0.153850  0.373910  0.383300  1.0  -0.1164
  C  C370  1  0.723520  0.811780  0.824830  1.0  0.6742
  C  C371  1  0.756070  0.797460  0.811830  1.0  -0.1222
  C  C372  1  0.775640  0.789930  0.878030  1.0  -0.0372
  C  C373  1  0.804070  0.775130  0.865030  1.0  -0.1669
  C  C374  1  0.812300  0.765890  0.783230  1.0  0.1051
  C  C375  1  0.793990  0.774930  0.710630  1.0  -0.2087
  C  C376  1  0.765470  0.790910  0.724730  1.0  -0.0517
  C  C377  1  0.839170  0.745910  0.764330  1.0  0.0399
  C  C378  1  0.820520  0.707240  0.716630  1.0  -0.1164
  C  C379  1  0.390180  0.145120  0.158170  1.0  0.6742
  C  C380  1  0.422730  0.130800  0.145170  1.0  -0.1222
  C  C381  1  0.442300  0.123270  0.211370  1.0  -0.0372
  C  C382  1  0.470730  0.108470  0.198370  1.0  -0.1669
  C  C383  1  0.478960  0.099230  0.116570  1.0  0.1051
  C  C384  1  0.460650  0.108270  0.043970  1.0  -0.2087
  C  C385  1  0.432130  0.124250  0.058070  1.0  -0.0517
  C  C386  1  0.505830  0.079250  0.097670  1.0  0.0385
  C  C387  1  0.487180  0.040580  0.049970  1.0  -0.1164
  C  C388  1  0.421600  0.943150  0.491500  1.0  0.6747
  C  C389  1  0.374730  0.910600  0.478500  1.0  -0.1206
  C  C390  1  0.347630  0.891030  0.544700  1.0  -0.0369
  C  C391  1  0.304400  0.862600  0.531700  1.0  -0.1677
  C  C392  1  0.286930  0.854370  0.449900  1.0  0.1077
  C  C393  1  0.314280  0.872680  0.377300  1.0  -0.2098
  C  C394  1  0.358780  0.901200  0.391400  1.0  -0.0537
  C  C395  1  0.240080  0.827500  0.431000  1.0  0.0389
  C  C396  1  0.220060  0.846150  0.383300  1.0  -0.1131
  C  C397  1  0.088270  0.276480  0.824830  1.0  0.6747
  C  C398  1  0.041400  0.243930  0.811830  1.0  -0.1206
  C  C399  1  0.014300  0.224360  0.878030  1.0  -0.0369
  C  C400  1  0.971070  0.195930  0.865030  1.0  -0.1677
  C  C401  1  0.953600  0.187700  0.783230  1.0  0.1077
  C  C402  1  0.980950  0.206010  0.710630  1.0  -0.2098
  C  C403  1  0.025450  0.234530  0.724730  1.0  -0.0537
  C  C404  1  0.906750  0.160830  0.764330  1.0  0.0402
  C  C405  1  0.886730  0.179480  0.716630  1.0  -0.1131
  C  C406  1  0.754930  0.609820  0.158170  1.0  0.6747
  C  C407  1  0.708060  0.577270  0.145170  1.0  -0.1206
  C  C408  1  0.680960  0.557700  0.211370  1.0  -0.0369
  C  C409  1  0.637730  0.529270  0.198370  1.0  -0.1677
  C  C410  1  0.620260  0.521040  0.116570  1.0  0.1077
  C  C411  1  0.647610  0.539350  0.043970  1.0  -0.2098
  C  C412  1  0.692110  0.567870  0.058070  1.0  -0.0536
  C  C413  1  0.573410  0.494170  0.097670  1.0  0.0389
  C  C414  1  0.553390  0.512820  0.049970  1.0  -0.1131
  C  C415  1  0.421600  0.478450  0.491500  1.0  0.6739
  C  C416  1  0.374730  0.464130  0.478500  1.0  -0.1194
  C  C417  1  0.347630  0.456600  0.544700  1.0  -0.0373
  C  C418  1  0.304400  0.441800  0.531700  1.0  -0.1676
  C  C419  1  0.286930  0.432560  0.449900  1.0  0.1054
  C  C420  1  0.314280  0.441600  0.377300  1.0  -0.2095
  C  C421  1  0.358780  0.457580  0.391400  1.0  -0.0529
  C  C422  1  0.240080  0.412580  0.431000  1.0  0.0418
  C  C423  1  0.220060  0.373910  0.383300  1.0  -0.115
  C  C424  1  0.088270  0.811780  0.824830  1.0  0.6739
  C  C425  1  0.041400  0.797460  0.811830  1.0  -0.1194
  C  C426  1  0.014300  0.789930  0.878030  1.0  -0.0373
  C  C427  1  0.971070  0.775130  0.865030  1.0  -0.1675
  C  C428  1  0.953600  0.765890  0.783230  1.0  0.1054
  C  C429  1  0.980950  0.774930  0.710630  1.0  -0.2095
  C  C430  1  0.025450  0.790910  0.724730  1.0  -0.0529
  C  C431  1  0.906750  0.745910  0.764330  1.0  0.0406
  C  C432  1  0.886730  0.707240  0.716630  1.0  -0.115
  C  C433  1  0.754930  0.145120  0.158170  1.0  0.6739
  C  C434  1  0.708060  0.130800  0.145170  1.0  -0.1194
  C  C435  1  0.680960  0.123270  0.211370  1.0  -0.0373
  C  C436  1  0.637730  0.108470  0.198370  1.0  -0.1676
  C  C437  1  0.620260  0.099230  0.116570  1.0  0.1054
  C  C438  1  0.647610  0.108270  0.043970  1.0  -0.2095
  C  C439  1  0.692110  0.124250  0.058070  1.0  -0.0529
  C  C440  1  0.573410  0.079250  0.097670  1.0  0.0418
  C  C441  1  0.553390  0.040580  0.049970  1.0  -0.115
  C  C442  1  0.521550  0.943150  0.491500  1.0  0.6755
  C  C443  1  0.535870  0.910600  0.478500  1.0  -0.1212
  C  C444  1  0.543400  0.891030  0.544700  1.0  -0.0366
  C  C445  1  0.558200  0.862600  0.531700  1.0  -0.1677
  C  C446  1  0.567440  0.854370  0.449900  1.0  0.1071
  C  C447  1  0.558400  0.872680  0.377300  1.0  -0.2091
  C  C448  1  0.542420  0.901200  0.391400  1.0  -0.0521
  C  C449  1  0.587420  0.827500  0.431000  1.0  0.0377
  C  C450  1  0.626090  0.846150  0.383300  1.0  -0.1132
  C  C451  1  0.188220  0.276480  0.824830  1.0  0.6755
  C  C452  1  0.202540  0.243930  0.811830  1.0  -0.1212
  C  C453  1  0.210070  0.224360  0.878030  1.0  -0.0366
  C  C454  1  0.224870  0.195930  0.865030  1.0  -0.1677
  C  C455  1  0.234110  0.187700  0.783230  1.0  0.1071
  C  C456  1  0.225070  0.206010  0.710630  1.0  -0.2091
  C  C457  1  0.209090  0.234530  0.724730  1.0  -0.0521
  C  C458  1  0.254090  0.160830  0.764330  1.0  0.0392
  C  C459  1  0.292760  0.179480  0.716630  1.0  -0.1132
  C  C460  1  0.854880  0.609820  0.158170  1.0  0.6755
  C  C461  1  0.869200  0.577270  0.145170  1.0  -0.1212
  C  C462  1  0.876730  0.557700  0.211370  1.0  -0.0366
  C  C463  1  0.891530  0.529270  0.198370  1.0  -0.1677
  C  C464  1  0.900770  0.521040  0.116570  1.0  0.1071
  C  C465  1  0.891730  0.539350  0.043970  1.0  -0.2091
  C  C466  1  0.875750  0.567870  0.058070  1.0  -0.0522
  C  C467  1  0.920750  0.494170  0.097670  1.0  0.0378
  C  C468  1  0.959420  0.512820  0.049970  1.0  -0.1132
  C  C469  1  0.056850  0.578400  0.491500  1.0  0.6751
  C  C470  1  0.089400  0.625270  0.478500  1.0  -0.1198
  C  C471  1  0.108970  0.652370  0.544700  1.0  -0.0367
  C  C472  1  0.137400  0.695600  0.531700  1.0  -0.1674
  C  C473  1  0.145630  0.713070  0.449900  1.0  0.1078
  C  C474  1  0.127320  0.685720  0.377300  1.0  -0.2086
  C  C475  1  0.098800  0.641220  0.391400  1.0  -0.0524
  C  C476  1  0.172500  0.759920  0.431000  1.0  0.0374
  C  C477  1  0.153850  0.779940  0.383300  1.0  -0.1155
  C  C478  1  0.723520  0.911730  0.824830  1.0  0.6751
  C  C479  1  0.756070  0.958600  0.811830  1.0  -0.1198
  C  C480  1  0.775640  0.985700  0.878030  1.0  -0.0367
  C  C481  1  0.804070  0.028930  0.865030  1.0  -0.1673
  C  C482  1  0.812300  0.046400  0.783230  1.0  0.1078
  C  C483  1  0.793990  0.019050  0.710630  1.0  -0.2086
  C  C484  1  0.765470  0.974550  0.724730  1.0  -0.0524
  C  C485  1  0.839170  0.093250  0.764330  1.0  0.0388
  C  C486  1  0.820520  0.113270  0.716630  1.0  -0.1155
  C  C487  1  0.390180  0.245070  0.158170  1.0  0.6751
  C  C488  1  0.422730  0.291940  0.145170  1.0  -0.1198
  C  C489  1  0.442300  0.319040  0.211370  1.0  -0.0367
  C  C490  1  0.470730  0.362270  0.198370  1.0  -0.1674
  C  C491  1  0.478960  0.379740  0.116570  1.0  0.1078
  C  C492  1  0.460650  0.352390  0.043970  1.0  -0.2086
  C  C493  1  0.432130  0.307890  0.058070  1.0  -0.0524
  C  C494  1  0.505830  0.426590  0.097670  1.0  0.0374
  C  C495  1  0.487180  0.446610  0.049970  1.0  -0.1156
  C  C496  1  0.478450  0.421600  0.508500  1.0  0.6755
  C  C497  1  0.464130  0.374730  0.521500  1.0  -0.1206
  C  C498  1  0.456600  0.347630  0.455300  1.0  -0.0352
  C  C499  1  0.441800  0.304400  0.468300  1.0  -0.1676
  C  C500  1  0.432560  0.286930  0.550100  1.0  0.1073
  C  C501  1  0.441600  0.314280  0.622700  1.0  -0.2096
  C  C502  1  0.457580  0.358780  0.608600  1.0  -0.0528
  C  C503  1  0.412580  0.240080  0.569000  1.0  0.0387
  C  C504  1  0.373910  0.220060  0.616700  1.0  -0.1153
  C  C505  1  0.145120  0.754930  0.841830  1.0  0.6755
  C  C506  1  0.130800  0.708060  0.854830  1.0  -0.1206
  C  C507  1  0.123270  0.680960  0.788630  1.0  -0.0352
  C  C508  1  0.108470  0.637730  0.801630  1.0  -0.1676
  C  C509  1  0.099230  0.620260  0.883430  1.0  0.1073
  C  C510  1  0.108270  0.647610  0.956030  1.0  -0.2096
  C  C511  1  0.124250  0.692110  0.941930  1.0  -0.0528
  C  C512  1  0.079250  0.573410  0.902330  1.0  0.0387
  C  C513  1  0.040580  0.553390  0.950030  1.0  -0.1152
  C  C514  1  0.811780  0.088270  0.175170  1.0  0.6755
  C  C515  1  0.797460  0.041400  0.188170  1.0  -0.1206
  C  C516  1  0.789930  0.014300  0.121970  1.0  -0.0352
  C  C517  1  0.775130  0.971070  0.134970  1.0  -0.1674
  C  C518  1  0.765890  0.953600  0.216770  1.0  0.1073
  C  C519  1  0.774930  0.980950  0.289370  1.0  -0.2096
  C  C520  1  0.790910  0.025450  0.275270  1.0  -0.0528
  C  C521  1  0.745910  0.906750  0.235670  1.0  0.0372
  C  C522  1  0.707240  0.886730  0.283370  1.0  -0.1152
  C  C523  1  0.943150  0.521550  0.508500  1.0  0.674
  C  C524  1  0.910600  0.535870  0.521500  1.0  -0.1194
  C  C525  1  0.891030  0.543400  0.455300  1.0  -0.0359
  C  C526  1  0.862600  0.558200  0.468300  1.0  -0.1681
  C  C527  1  0.854370  0.567440  0.550100  1.0  0.1052
  C  C528  1  0.872680  0.558400  0.622700  1.0  -0.2116
  C  C529  1  0.901200  0.542420  0.608600  1.0  -0.0512
  C  C530  1  0.827500  0.587420  0.569000  1.0  0.0402
  C  C531  1  0.846150  0.626090  0.616700  1.0  -0.1154
  C  C532  1  0.609820  0.854880  0.841830  1.0  0.674
  C  C533  1  0.577270  0.869200  0.854830  1.0  -0.1194
  C  C534  1  0.557700  0.876730  0.788630  1.0  -0.0359
  C  C535  1  0.529270  0.891530  0.801630  1.0  -0.1681
  C  C536  1  0.521040  0.900770  0.883430  1.0  0.1052
  C  C537  1  0.539350  0.891730  0.956030  1.0  -0.2116
  C  C538  1  0.567870  0.875750  0.941930  1.0  -0.0512
  C  C539  1  0.494170  0.920750  0.902330  1.0  0.0403
  C  C540  1  0.512820  0.959420  0.950030  1.0  -0.1153
  C  C541  1  0.276480  0.188220  0.175170  1.0  0.674
  C  C542  1  0.243930  0.202540  0.188170  1.0  -0.1194
  C  C543  1  0.224360  0.210070  0.121970  1.0  -0.0359
  C  C544  1  0.195930  0.224870  0.134970  1.0  -0.1681
  C  C545  1  0.187700  0.234110  0.216770  1.0  0.1052
  C  C546  1  0.206010  0.225070  0.289370  1.0  -0.2116
  C  C547  1  0.234530  0.209090  0.275270  1.0  -0.0512
  C  C548  1  0.160830  0.254090  0.235670  1.0  0.0415
  C  C549  1  0.179480  0.292760  0.283370  1.0  -0.1154
  C  C550  1  0.578400  0.056850  0.508500  1.0  0.6753
  C  C551  1  0.625270  0.089400  0.521500  1.0  -0.1215
  C  C552  1  0.652370  0.108970  0.455300  1.0  -0.0357
  C  C553  1  0.695600  0.137400  0.468300  1.0  -0.1688
  C  C554  1  0.713070  0.145630  0.550100  1.0  0.107
  C  C555  1  0.685720  0.127320  0.622700  1.0  -0.2121
  C  C556  1  0.641220  0.098800  0.608600  1.0  -0.0523
  C  C557  1  0.759920  0.172500  0.569000  1.0  0.038
  C  C558  1  0.779940  0.153850  0.616700  1.0  -0.1117
  C  C559  1  0.245070  0.390180  0.841830  1.0  0.6753
  C  C560  1  0.291940  0.422730  0.854830  1.0  -0.1215
  C  C561  1  0.319040  0.442300  0.788630  1.0  -0.0357
  C  C562  1  0.362270  0.470730  0.801630  1.0  -0.1688
  C  C563  1  0.379740  0.478960  0.883430  1.0  0.107
  C  C564  1  0.352390  0.460650  0.956030  1.0  -0.2121
  C  C565  1  0.307890  0.432130  0.941930  1.0  -0.0522
  C  C566  1  0.426590  0.505830  0.902330  1.0  0.038
  C  C567  1  0.446610  0.487180  0.950030  1.0  -0.1119
  C  C568  1  0.911730  0.723520  0.175170  1.0  0.6753
  C  C569  1  0.958600  0.756070  0.188170  1.0  -0.1215
  C  C570  1  0.985700  0.775640  0.121970  1.0  -0.0357
  C  C571  1  0.028930  0.804070  0.134970  1.0  -0.1687
  C  C572  1  0.046400  0.812300  0.216770  1.0  0.107
  C  C573  1  0.019050  0.793990  0.289370  1.0  -0.2121
  C  C574  1  0.974550  0.765470  0.275270  1.0  -0.0523
  C  C575  1  0.093250  0.839170  0.235670  1.0  0.0392
  C  C576  1  0.113270  0.820520  0.283370  1.0  -0.1117
  C  C577  1  0.822950  0.645900  0.642400  1.0  -0.0451
  C  C578  1  0.784580  0.569170  0.545100  1.0  0.2298
  C  C579  1  0.746650  0.493300  0.569800  1.0  -0.1402
  C  C580  1  0.489620  0.979230  0.975730  1.0  -0.0452
  C  C581  1  0.451250  0.902500  0.878430  1.0  0.2298
  C  C582  1  0.413320  0.826630  0.903130  1.0  -0.1402
  C  C583  1  0.156280  0.312570  0.309070  1.0  -0.0451
  C  C584  1  0.117920  0.235840  0.211770  1.0  0.2299
  C  C585  1  0.079980  0.159970  0.236470  1.0  -0.1402
  C  C586  1  0.354100  0.177050  0.642400  1.0  -0.0477
  C  C587  1  0.430830  0.215420  0.545100  1.0  0.2306
  C  C588  1  0.506700  0.253350  0.569800  1.0  -0.1464
  C  C589  1  0.020770  0.510380  0.975730  1.0  -0.0478
  C  C590  1  0.097500  0.548750  0.878430  1.0  0.2306
  C  C591  1  0.173370  0.586680  0.903130  1.0  -0.1464
  C  C592  1  0.687430  0.843720  0.309070  1.0  -0.0477
  C  C593  1  0.764160  0.882080  0.211770  1.0  0.2306
  C  C594  1  0.840030  0.920020  0.236470  1.0  -0.1464
  C  C595  1  0.822950  0.177050  0.642400  1.0  -0.0469
  C  C596  1  0.784580  0.215420  0.545100  1.0  0.2303
  C  C597  1  0.746650  0.253350  0.569800  1.0  -0.1454
  C  C598  1  0.489620  0.510380  0.975730  1.0  -0.0469
  C  C599  1  0.451250  0.548750  0.878430  1.0  0.2303
  C  C600  1  0.413320  0.586680  0.903130  1.0  -0.1454
  C  C601  1  0.156280  0.843720  0.309070  1.0  -0.047
  C  C602  1  0.117920  0.882080  0.211770  1.0  0.2303
  C  C603  1  0.079980  0.920020  0.236470  1.0  -0.1452
  C  C604  1  0.645900  0.822950  0.357600  1.0  -0.0467
  C  C605  1  0.569170  0.784580  0.454900  1.0  0.2306
  C  C606  1  0.493300  0.746650  0.430200  1.0  -0.1447
  C  C607  1  0.312570  0.156280  0.690930  1.0  -0.0467
  C  C608  1  0.235840  0.117920  0.788230  1.0  0.2306
  C  C609  1  0.159970  0.079980  0.763530  1.0  -0.1447
  C  C610  1  0.979230  0.489620  0.024270  1.0  -0.0467
  C  C611  1  0.902500  0.451250  0.121570  1.0  0.2306
  C  C612  1  0.826630  0.413320  0.096870  1.0  -0.1447
  C  C613  1  0.177050  0.354100  0.357600  1.0  -0.045
  C  C614  1  0.215420  0.430830  0.454900  1.0  0.2306
  C  C615  1  0.253350  0.506700  0.430200  1.0  -0.1414
  C  C616  1  0.843720  0.687430  0.690930  1.0  -0.045
  C  C617  1  0.882080  0.764160  0.788230  1.0  0.2306
  C  C618  1  0.920020  0.840030  0.763530  1.0  -0.1414
  C  C619  1  0.510380  0.020770  0.024270  1.0  -0.045
  C  C620  1  0.548750  0.097500  0.121570  1.0  0.2306
  C  C621  1  0.586680  0.173370  0.096870  1.0  -0.1414
  C  C622  1  0.177050  0.822950  0.357600  1.0  -0.0467
  C  C623  1  0.215420  0.784580  0.454900  1.0  0.231
  C  C624  1  0.253350  0.746650  0.430200  1.0  -0.1439
  C  C625  1  0.843720  0.156280  0.690930  1.0  -0.0467
  C  C626  1  0.882080  0.117920  0.788230  1.0  0.2308
  C  C627  1  0.920020  0.079980  0.763530  1.0  -0.1438
  C  C628  1  0.510380  0.489620  0.024270  1.0  -0.0467
  C  C629  1  0.548750  0.451250  0.121570  1.0  0.231
  C  C630  1  0.586680  0.413320  0.096870  1.0  -0.1439
  O  O631  1  0.557710  0.519160  0.580000  1.0  -0.5668
  O  O632  1  0.563980  0.513570  0.432000  1.0  -0.5539
  O  O633  1  0.224380  0.852490  0.913330  1.0  -0.5668
  O  O634  1  0.230650  0.846900  0.765330  1.0  -0.5535
  O  O635  1  0.891040  0.185830  0.246670  1.0  -0.5668
  O  O636  1  0.897310  0.180240  0.098670  1.0  -0.554
  O  O637  1  0.480840  0.038550  0.580000  1.0  -0.5673
  O  O638  1  0.486430  0.050410  0.432000  1.0  -0.5539
  O  O639  1  0.147510  0.371880  0.913330  1.0  -0.5673
  O  O640  1  0.153100  0.383740  0.765330  1.0  -0.5539
  O  O641  1  0.814170  0.705220  0.246670  1.0  -0.5673
  O  O642  1  0.819760  0.717080  0.098670  1.0  -0.554
  O  O643  1  0.961450  0.442290  0.580000  1.0  -0.5666
  O  O644  1  0.949590  0.436020  0.432000  1.0  -0.5526
  O  O645  1  0.628120  0.775620  0.913330  1.0  -0.5666
  O  O646  1  0.616260  0.769350  0.765330  1.0  -0.5526
  O  O647  1  0.294780  0.108960  0.246670  1.0  -0.5666
  O  O648  1  0.282920  0.102690  0.098670  1.0  -0.5526
  O  O649  1  0.519160  0.557710  0.420000  1.0  -0.5656
  O  O650  1  0.513570  0.563980  0.568000  1.0  -0.5524
  O  O651  1  0.185830  0.891040  0.753330  1.0  -0.5656
  O  O652  1  0.180240  0.897310  0.901330  1.0  -0.5525
  O  O653  1  0.852490  0.224380  0.086670  1.0  -0.5656
  O  O654  1  0.846900  0.230650  0.234670  1.0  -0.5524
  O  O655  1  0.038550  0.480840  0.420000  1.0  -0.5659
  O  O656  1  0.050410  0.486430  0.568000  1.0  -0.5535
  O  O657  1  0.705220  0.814170  0.753330  1.0  -0.5659
  O  O658  1  0.717080  0.819760  0.901330  1.0  -0.5535
  O  O659  1  0.371880  0.147510  0.086670  1.0  -0.5659
  O  O660  1  0.383740  0.153100  0.234670  1.0  -0.5535
  O  O661  1  0.442290  0.961450  0.420000  1.0  -0.5652
  O  O662  1  0.436020  0.949590  0.568000  1.0  -0.554
  O  O663  1  0.108960  0.294780  0.753330  1.0  -0.5652
  O  O664  1  0.102690  0.282920  0.901330  1.0  -0.554
  O  O665  1  0.775620  0.628120  0.086670  1.0  -0.5652
  O  O666  1  0.769350  0.616260  0.234670  1.0  -0.554
  O  O667  1  0.442290  0.480840  0.420000  1.0  -0.5673
  O  O668  1  0.436020  0.486430  0.568000  1.0  -0.5536
  O  O669  1  0.108960  0.814170  0.753330  1.0  -0.5673
  O  O670  1  0.102690  0.819760  0.901330  1.0  -0.5537
  O  O671  1  0.775620  0.147510  0.086670  1.0  -0.5673
  O  O672  1  0.769350  0.153100  0.234670  1.0  -0.5536
  O  O673  1  0.519160  0.961450  0.420000  1.0  -0.5657
  O  O674  1  0.513570  0.949590  0.568000  1.0  -0.5534
  O  O675  1  0.185830  0.294780  0.753330  1.0  -0.5657
  O  O676  1  0.180240  0.282920  0.901330  1.0  -0.5534
  O  O677  1  0.852490  0.628120  0.086670  1.0  -0.5657
  O  O678  1  0.846900  0.616260  0.234670  1.0  -0.5534
  O  O679  1  0.038550  0.557710  0.420000  1.0  -0.5666
  O  O680  1  0.050410  0.563980  0.568000  1.0  -0.5528
  O  O681  1  0.705220  0.891040  0.753330  1.0  -0.5666
  O  O682  1  0.717080  0.897310  0.901330  1.0  -0.5528
  O  O683  1  0.371880  0.224380  0.086670  1.0  -0.5666
  O  O684  1  0.383740  0.230650  0.234670  1.0  -0.5528
  O  O685  1  0.480840  0.442290  0.580000  1.0  -0.5678
  O  O686  1  0.486430  0.436020  0.432000  1.0  -0.5531
  O  O687  1  0.147510  0.775620  0.913330  1.0  -0.5678
  O  O688  1  0.153100  0.769350  0.765330  1.0  -0.5531
  O  O689  1  0.814170  0.108960  0.246670  1.0  -0.5678
  O  O690  1  0.819760  0.102690  0.098670  1.0  -0.5532
  O  O691  1  0.961450  0.519160  0.580000  1.0  -0.569
  O  O692  1  0.949590  0.513570  0.432000  1.0  -0.5535
  O  O693  1  0.628120  0.852490  0.913330  1.0  -0.569
  O  O694  1  0.616260  0.846900  0.765330  1.0  -0.5535
  O  O695  1  0.294780  0.185830  0.246670  1.0  -0.569
  O  O696  1  0.282920  0.180240  0.098670  1.0  -0.5535
  O  O697  1  0.557710  0.038550  0.580000  1.0  -0.5679
  O  O698  1  0.563980  0.050410  0.432000  1.0  -0.5531
  O  O699  1  0.224380  0.371880  0.913330  1.0  -0.5679
  O  O700  1  0.230650  0.383740  0.765330  1.0  -0.5531
  O  O701  1  0.891040  0.705220  0.246670  1.0  -0.5679
  O  O702  1  0.897310  0.717080  0.098670  1.0  -0.5531
  O  O703  1  0.765170  0.530340  0.499400  1.0  -0.4258
  O  O704  1  0.431840  0.863670  0.832730  1.0  -0.4258
  O  O705  1  0.098500  0.197010  0.166070  1.0  -0.4258
  O  O706  1  0.469660  0.234830  0.499400  1.0  -0.4244
  O  O707  1  0.136330  0.568160  0.832730  1.0  -0.4244
  O  O708  1  0.802990  0.901500  0.166070  1.0  -0.4244
  O  O709  1  0.765170  0.234830  0.499400  1.0  -0.424
  O  O710  1  0.431840  0.568160  0.832730  1.0  -0.4239
  O  O711  1  0.098500  0.901500  0.166070  1.0  -0.424
  O  O712  1  0.530340  0.765170  0.500600  1.0  -0.4268
  O  O713  1  0.197010  0.098500  0.833930  1.0  -0.4268
  O  O714  1  0.863670  0.431840  0.167270  1.0  -0.4268
  O  O715  1  0.234830  0.469660  0.500600  1.0  -0.4293
  O  O716  1  0.901500  0.802990  0.833930  1.0  -0.4293
  O  O717  1  0.568160  0.136330  0.167270  1.0  -0.4293
  O  O718  1  0.234830  0.765170  0.500600  1.0  -0.4291
  O  O719  1  0.901500  0.098500  0.833930  1.0  -0.4291
  O  O720  1  0.568160  0.431840  0.167270  1.0  -0.429
