# generated using pymatgen
data_CuH13C21O5
_symmetry_space_group_name_H-M   'P 1'
_cell_length_a   35.31160000
_cell_length_b   35.31160000
_cell_length_c   20.85700000
_cell_angle_alpha   90.00000000
_cell_angle_beta   90.00000000
_cell_angle_gamma   120.00000000
_symmetry_Int_Tables_number   1
_chemical_formula_structural   CuH13C21O5
_chemical_formula_sum   'Cu18 H234 C378 O90'
_cell_volume   22522.53473592
_cell_formula_units_Z   18
loop_
 _symmetry_equiv_pos_site_id
 _symmetry_equiv_pos_as_xyz
  1  'x, y, z'
loop_
 _atom_site_type_symbol
 _atom_site_label
 _atom_site_symmetry_multiplicity
 _atom_site_fract_x
 _atom_site_fract_y
 _atom_site_fract_z
 _atom_site_occupancy
 _atom_site_charge
  Cu  Cu1  1  0.652650  0.826320  0.273300  1.0  0.9193
  Cu  Cu2  1  0.319320  0.159660  0.606630  1.0  0.9194
  Cu  Cu3  1  0.985980  0.492990  0.939970  1.0  0.9221
  Cu  Cu4  1  0.173680  0.826320  0.273300  1.0  0.9199
  Cu  Cu5  1  0.840340  0.159660  0.606630  1.0  0.9202
  Cu  Cu6  1  0.507010  0.492990  0.939970  1.0  0.9199
  Cu  Cu7  1  0.173670  0.347350  0.273300  1.0  0.9192
  Cu  Cu8  1  0.840340  0.680680  0.606630  1.0  0.9192
  Cu  Cu9  1  0.507010  0.014020  0.939970  1.0  0.9214
  Cu  Cu10  1  0.826320  0.652650  0.726700  1.0  0.9198
  Cu  Cu11  1  0.492990  0.985980  0.060030  1.0  0.9218
  Cu  Cu12  1  0.159660  0.319320  0.393370  1.0  0.9199
  Cu  Cu13  1  0.826320  0.173680  0.726700  1.0  0.92
  Cu  Cu14  1  0.492990  0.507010  0.060030  1.0  0.92
  Cu  Cu15  1  0.159660  0.840340  0.393370  1.0  0.9203
  Cu  Cu16  1  0.347350  0.173680  0.726700  1.0  0.9204
  Cu  Cu17  1  0.014020  0.507010  0.060030  1.0  0.9231
  Cu  Cu18  1  0.680680  0.840340  0.393370  1.0  0.9205
  H  H19  1  0.554600  0.688300  0.286800  1.0  0.1092
  H  H20  1  0.506400  0.617700  0.313200  1.0  0.1012
  H  H21  1  0.548100  0.640600  0.496900  1.0  0.1187
  H  H22  1  0.595900  0.713600  0.469700  1.0  0.1063
  H  H23  1  0.541800  0.571300  0.475500  1.0  0.1062
  H  H24  1  0.436800  0.607600  0.436400  1.0  0.1116
  H  H25  1  0.221270  0.021630  0.620130  1.0  0.1104
  H  H26  1  0.173070  0.951030  0.646530  1.0  0.1012
  H  H27  1  0.214770  0.973930  0.830230  1.0  0.1187
  H  H28  1  0.262570  0.046930  0.803030  1.0  0.107
  H  H29  1  0.208470  0.904630  0.808830  1.0  0.1062
  H  H30  1  0.103470  0.940930  0.769730  1.0  0.1095
  H  H31  1  0.887930  0.354970  0.953470  1.0  0.1091
  H  H32  1  0.839730  0.284370  0.979870  1.0  0.1012
  H  H33  1  0.881430  0.307270  0.163570  1.0  0.1187
  H  H34  1  0.929230  0.380270  0.136370  1.0  0.1063
  H  H35  1  0.875130  0.237970  0.142170  1.0  0.1062
  H  H36  1  0.770130  0.274270  0.103070  1.0  0.1116
  H  H37  1  0.311700  0.866300  0.286800  1.0  0.1102
  H  H38  1  0.382300  0.888700  0.313200  1.0  0.1029
  H  H39  1  0.359400  0.907500  0.496900  1.0  0.1185
  H  H40  1  0.286400  0.882300  0.469700  1.0  0.1071
  H  H41  1  0.428700  0.970500  0.475500  1.0  0.1063
  H  H42  1  0.392400  0.829200  0.436400  1.0  0.1108
  H  H43  1  0.978370  0.199630  0.620130  1.0  0.1102
  H  H44  1  0.048970  0.222030  0.646530  1.0  0.1033
  H  H45  1  0.026070  0.240830  0.830230  1.0  0.1188
  H  H46  1  0.953070  0.215630  0.803030  1.0  0.107
  H  H47  1  0.095370  0.303830  0.808830  1.0  0.1063
  H  H48  1  0.059070  0.162530  0.769730  1.0  0.1121
  H  H49  1  0.645030  0.532970  0.953470  1.0  0.1102
  H  H50  1  0.715630  0.555370  0.979870  1.0  0.1011
  H  H51  1  0.692730  0.574170  0.163570  1.0  0.1185
  H  H52  1  0.619730  0.548970  0.136370  1.0  0.1071
  H  H53  1  0.762030  0.637170  0.142170  1.0  0.1063
  H  H54  1  0.725730  0.495870  0.103070  1.0  0.1108
  H  H55  1  0.133700  0.445400  0.286800  1.0  0.1101
  H  H56  1  0.111300  0.493600  0.313200  1.0  0.103
  H  H57  1  0.092500  0.451900  0.496900  1.0  0.1195
  H  H58  1  0.117700  0.404100  0.469700  1.0  0.107
  H  H59  1  0.029500  0.458200  0.475500  1.0  0.1069
  H  H60  1  0.170800  0.563200  0.436400  1.0  0.1111
  H  H61  1  0.800370  0.778730  0.620130  1.0  0.1089
  H  H62  1  0.777970  0.826930  0.646530  1.0  0.1014
  H  H63  1  0.759170  0.785230  0.830230  1.0  0.1191
  H  H64  1  0.784370  0.737430  0.803030  1.0  0.1065
  H  H65  1  0.696170  0.791530  0.808830  1.0  0.1069
  H  H66  1  0.837470  0.896530  0.769730  1.0  0.1121
  H  H67  1  0.467030  0.112070  0.953470  1.0  0.1101
  H  H68  1  0.444630  0.160270  0.979870  1.0  0.1034
  H  H69  1  0.425830  0.118570  0.163570  1.0  0.1195
  H  H70  1  0.451030  0.070770  0.136370  1.0  0.107
  H  H71  1  0.362830  0.124870  0.142170  1.0  0.1069
  H  H72  1  0.504130  0.229870  0.103070  1.0  0.1111
  H  H73  1  0.688300  0.554600  0.713200  1.0  0.1091
  H  H74  1  0.617700  0.506400  0.686800  1.0  0.1015
  H  H75  1  0.640600  0.548100  0.503100  1.0  0.1191
  H  H76  1  0.713600  0.595900  0.530300  1.0  0.1067
  H  H77  1  0.571300  0.541800  0.524500  1.0  0.1068
  H  H78  1  0.607600  0.436800  0.563600  1.0  0.1111
  H  H79  1  0.354970  0.887930  0.046530  1.0  0.1091
  H  H80  1  0.284370  0.839730  0.020130  1.0  0.1015
  H  H81  1  0.307270  0.881430  0.836430  1.0  0.1191
  H  H82  1  0.380270  0.929230  0.863630  1.0  0.1067
  H  H83  1  0.237970  0.875130  0.857830  1.0  0.1068
  H  H84  1  0.274270  0.770130  0.896930  1.0  0.1111
  H  H85  1  0.021630  0.221270  0.379870  1.0  0.1098
  H  H86  1  0.951030  0.173070  0.353470  1.0  0.1015
  H  H87  1  0.973930  0.214770  0.169770  1.0  0.1191
  H  H88  1  0.046930  0.262570  0.196970  1.0  0.1076
  H  H89  1  0.904630  0.208470  0.191170  1.0  0.1068
  H  H90  1  0.940930  0.103470  0.230270  1.0  0.11
  H  H91  1  0.866300  0.311700  0.713200  1.0  0.1098
  H  H92  1  0.888700  0.382300  0.686800  1.0  0.1029
  H  H93  1  0.907500  0.359400  0.503100  1.0  0.1185
  H  H94  1  0.882300  0.286400  0.530300  1.0  0.1074
  H  H95  1  0.970500  0.428700  0.524500  1.0  0.1063
  H  H96  1  0.829200  0.392400  0.563600  1.0  0.1084
  H  H97  1  0.532970  0.645030  0.046530  1.0  0.1098
  H  H98  1  0.555370  0.715630  0.020130  1.0  0.1016
  H  H99  1  0.574170  0.692730  0.836430  1.0  0.1185
  H  H100  1  0.548970  0.619730  0.863630  1.0  0.1074
  H  H101  1  0.637170  0.762030  0.857830  1.0  0.1063
  H  H102  1  0.495870  0.725730  0.896930  1.0  0.1084
  H  H103  1  0.199630  0.978370  0.379870  1.0  0.1098
  H  H104  1  0.222030  0.048970  0.353470  1.0  0.1035
  H  H105  1  0.240830  0.026070  0.169770  1.0  0.1187
  H  H106  1  0.215630  0.953070  0.196970  1.0  0.1074
  H  H107  1  0.303830  0.095370  0.191170  1.0  0.1063
  H  H108  1  0.162530  0.059070  0.230270  1.0  0.1097
  H  H109  1  0.445400  0.133700  0.713200  1.0  0.1096
  H  H110  1  0.493600  0.111300  0.686800  1.0  0.1035
  H  H111  1  0.451900  0.092500  0.503100  1.0  0.1185
  H  H112  1  0.404100  0.117700  0.530300  1.0  0.1074
  H  H113  1  0.458200  0.029500  0.524500  1.0  0.1066
  H  H114  1  0.563200  0.170800  0.563600  1.0  0.1109
  H  H115  1  0.112070  0.467030  0.046530  1.0  0.1095
  H  H116  1  0.160270  0.444630  0.020130  1.0  0.1038
  H  H117  1  0.118570  0.425830  0.836430  1.0  0.1185
  H  H118  1  0.070770  0.451030  0.863630  1.0  0.1074
  H  H119  1  0.124870  0.362830  0.857830  1.0  0.1066
  H  H120  1  0.229870  0.504130  0.896930  1.0  0.1109
  H  H121  1  0.778730  0.800370  0.379870  1.0  0.1087
  H  H122  1  0.826930  0.777970  0.353470  1.0  0.101
  H  H123  1  0.785230  0.759170  0.169770  1.0  0.1183
  H  H124  1  0.737430  0.784370  0.196970  1.0  0.1068
  H  H125  1  0.791530  0.696170  0.191170  1.0  0.1066
  H  H126  1  0.896530  0.837470  0.230270  1.0  0.1114
  H  H127  1  0.445400  0.311700  0.713200  1.0  0.1089
  H  H128  1  0.493600  0.382300  0.686800  1.0  0.1015
  H  H129  1  0.451900  0.359400  0.503100  1.0  0.1189
  H  H130  1  0.404100  0.286400  0.530300  1.0  0.1062
  H  H131  1  0.458200  0.428700  0.524500  1.0  0.1063
  H  H132  1  0.563200  0.392400  0.563600  1.0  0.1108
  H  H133  1  0.112070  0.645030  0.046530  1.0  0.1088
  H  H134  1  0.160270  0.715630  0.020130  1.0  0.1015
  H  H135  1  0.118570  0.692730  0.836430  1.0  0.1189
  H  H136  1  0.070770  0.619730  0.863630  1.0  0.1062
  H  H137  1  0.124870  0.762030  0.857830  1.0  0.1063
  H  H138  1  0.229870  0.725730  0.896930  1.0  0.1108
  H  H139  1  0.778730  0.978370  0.379870  1.0  0.1097
  H  H140  1  0.826930  0.048970  0.353470  1.0  0.1015
  H  H141  1  0.785230  0.026070  0.169770  1.0  0.1189
  H  H142  1  0.737430  0.953070  0.196970  1.0  0.1072
  H  H143  1  0.791530  0.095370  0.191170  1.0  0.1063
  H  H144  1  0.896530  0.059070  0.230270  1.0  0.1094
  H  H145  1  0.688300  0.133700  0.713200  1.0  0.1097
  H  H146  1  0.617700  0.111300  0.686800  1.0  0.1029
  H  H147  1  0.640600  0.092500  0.503100  1.0  0.1194
  H  H148  1  0.713600  0.117700  0.530300  1.0  0.1079
  H  H149  1  0.571300  0.029500  0.524500  1.0  0.1072
  H  H150  1  0.607600  0.170800  0.563600  1.0  0.1088
  H  H151  1  0.354970  0.467030  0.046530  1.0  0.1097
  H  H152  1  0.284370  0.444630  0.020130  1.0  0.1013
  H  H153  1  0.307270  0.425830  0.836430  1.0  0.1194
  H  H154  1  0.380270  0.451030  0.863630  1.0  0.1079
  H  H155  1  0.237970  0.362830  0.857830  1.0  0.1072
  H  H156  1  0.274270  0.504130  0.896930  1.0  0.1088
  H  H157  1  0.021630  0.800370  0.379870  1.0  0.1097
  H  H158  1  0.951030  0.777970  0.353470  1.0  0.1037
  H  H159  1  0.973930  0.759170  0.169770  1.0  0.1196
  H  H160  1  0.046930  0.784370  0.196970  1.0  0.1079
  H  H161  1  0.904630  0.696170  0.191170  1.0  0.1072
  H  H162  1  0.940930  0.837470  0.230270  1.0  0.1094
  H  H163  1  0.866300  0.554600  0.713200  1.0  0.1098
  H  H164  1  0.888700  0.506400  0.686800  1.0  0.1036
  H  H165  1  0.907500  0.548100  0.503100  1.0  0.1192
  H  H166  1  0.882300  0.595900  0.530300  1.0  0.1072
  H  H167  1  0.970500  0.541800  0.524500  1.0  0.1069
  H  H168  1  0.829200  0.436800  0.563600  1.0  0.1105
  H  H169  1  0.532970  0.887930  0.046530  1.0  0.1098
  H  H170  1  0.555370  0.839730  0.020130  1.0  0.1039
  H  H171  1  0.574170  0.881430  0.836430  1.0  0.1192
  H  H172  1  0.548970  0.929230  0.863630  1.0  0.1072
  H  H173  1  0.637170  0.875130  0.857830  1.0  0.1069
  H  H174  1  0.495870  0.770130  0.896930  1.0  0.1105
  H  H175  1  0.199630  0.221270  0.379870  1.0  0.109
  H  H176  1  0.222030  0.173070  0.353470  1.0  0.1014
  H  H177  1  0.240830  0.214770  0.169770  1.0  0.1189
  H  H178  1  0.215630  0.262570  0.196970  1.0  0.1066
  H  H179  1  0.303830  0.208470  0.191170  1.0  0.1069
  H  H180  1  0.162530  0.103470  0.230270  1.0  0.1116
  H  H181  1  0.311700  0.445400  0.286800  1.0  0.1089
  H  H182  1  0.382300  0.493600  0.313200  1.0  0.1012
  H  H183  1  0.359400  0.451900  0.496900  1.0  0.1193
  H  H184  1  0.286400  0.404100  0.469700  1.0  0.1064
  H  H185  1  0.428700  0.458200  0.475500  1.0  0.1069
  H  H186  1  0.392400  0.563200  0.436400  1.0  0.1117
  H  H187  1  0.978370  0.778730  0.620130  1.0  0.1101
  H  H188  1  0.048970  0.826930  0.646530  1.0  0.1012
  H  H189  1  0.026070  0.785230  0.830230  1.0  0.1193
  H  H190  1  0.953070  0.737430  0.803030  1.0  0.1071
  H  H191  1  0.095370  0.791530  0.808830  1.0  0.1069
  H  H192  1  0.059070  0.896530  0.769730  1.0  0.1104
  H  H193  1  0.645030  0.112070  0.953470  1.0  0.1088
  H  H194  1  0.715630  0.160270  0.979870  1.0  0.1013
  H  H195  1  0.692730  0.118570  0.163570  1.0  0.1193
  H  H196  1  0.619730  0.070770  0.136370  1.0  0.1064
  H  H197  1  0.762030  0.124870  0.142170  1.0  0.1069
  H  H198  1  0.725730  0.229870  0.103070  1.0  0.1117
  H  H199  1  0.133700  0.688300  0.286800  1.0  0.1103
  H  H200  1  0.111300  0.617700  0.313200  1.0  0.1025
  H  H201  1  0.092500  0.640600  0.496900  1.0  0.1189
  H  H202  1  0.117700  0.713600  0.469700  1.0  0.1072
  H  H203  1  0.029500  0.571300  0.475500  1.0  0.1064
  H  H204  1  0.170800  0.607600  0.436400  1.0  0.1099
  H  H205  1  0.800370  0.021630  0.620130  1.0  0.1103
  H  H206  1  0.777970  0.951030  0.646530  1.0  0.1031
  H  H207  1  0.759170  0.973930  0.830230  1.0  0.1192
  H  H208  1  0.784370  0.046930  0.803030  1.0  0.1071
  H  H209  1  0.696170  0.904630  0.808830  1.0  0.1064
  H  H210  1  0.837470  0.940930  0.769730  1.0  0.111
  H  H211  1  0.467030  0.354970  0.953470  1.0  0.1104
  H  H212  1  0.444630  0.284370  0.979870  1.0  0.1013
  H  H213  1  0.425830  0.307270  0.163570  1.0  0.1189
  H  H214  1  0.451030  0.380270  0.136370  1.0  0.1072
  H  H215  1  0.362830  0.237970  0.142170  1.0  0.1064
  H  H216  1  0.504130  0.274270  0.103070  1.0  0.1099
  H  H217  1  0.554600  0.866300  0.286800  1.0  0.1101
  H  H218  1  0.506400  0.888700  0.313200  1.0  0.1031
  H  H219  1  0.548100  0.907500  0.496900  1.0  0.1192
  H  H220  1  0.595900  0.882300  0.469700  1.0  0.1071
  H  H221  1  0.541800  0.970500  0.475500  1.0  0.1072
  H  H222  1  0.436800  0.829200  0.436400  1.0  0.1103
  H  H223  1  0.221270  0.199630  0.620130  1.0  0.1088
  H  H224  1  0.173070  0.222030  0.646530  1.0  0.1017
  H  H225  1  0.214770  0.240830  0.830230  1.0  0.1187
  H  H226  1  0.262570  0.215630  0.803030  1.0  0.1066
  H  H227  1  0.208470  0.303830  0.808830  1.0  0.1072
  H  H228  1  0.103470  0.162530  0.769730  1.0  0.1113
  H  H229  1  0.887930  0.532970  0.953470  1.0  0.1101
  H  H230  1  0.839730  0.555370  0.979870  1.0  0.1036
  H  H231  1  0.881430  0.574170  0.163570  1.0  0.1192
  H  H232  1  0.929230  0.548970  0.136370  1.0  0.1071
  H  H233  1  0.875130  0.637170  0.142170  1.0  0.1072
  H  H234  1  0.770130  0.495870  0.103070  1.0  0.1103
  H  H235  1  0.400800  0.599200  0.385500  1.0  0.1365
  H  H236  1  0.067470  0.932530  0.718830  1.0  0.1365
  H  H237  1  0.734130  0.265870  0.052170  1.0  0.1365
  H  H238  1  0.400800  0.801600  0.385500  1.0  0.1374
  H  H239  1  0.067470  0.134930  0.718830  1.0  0.1374
  H  H240  1  0.734130  0.468270  0.052170  1.0  0.1374
  H  H241  1  0.198400  0.599200  0.385500  1.0  0.1381
  H  H242  1  0.865070  0.932530  0.718830  1.0  0.1381
  H  H243  1  0.531730  0.265870  0.052170  1.0  0.1381
  H  H244  1  0.599200  0.400800  0.614500  1.0  0.1386
  H  H245  1  0.265870  0.734130  0.947830  1.0  0.1386
  H  H246  1  0.932530  0.067470  0.281170  1.0  0.1382
  H  H247  1  0.801600  0.400800  0.614500  1.0  0.1368
  H  H248  1  0.468270  0.734130  0.947830  1.0  0.1368
  H  H249  1  0.134930  0.067470  0.281170  1.0  0.1368
  H  H250  1  0.599200  0.198400  0.614500  1.0  0.1378
  H  H251  1  0.265870  0.531730  0.947830  1.0  0.1378
  H  H252  1  0.932530  0.865070  0.281170  1.0  0.1378
  C  C253  1  0.611230  0.754800  0.359400  1.0  0.6865
  C  C254  1  0.579680  0.708850  0.376100  1.0  -0.1575
  C  C255  1  0.553020  0.679060  0.329000  1.0  -0.0722
  C  C256  1  0.524750  0.636570  0.344800  1.0  -0.1081
  C  C257  1  0.522330  0.620550  0.405700  1.0  0.05
  C  C258  1  0.549420  0.650230  0.455000  1.0  -0.1756
  C  C259  1  0.577920  0.694120  0.438400  1.0  -0.0431
  C  C260  1  0.495120  0.573880  0.426500  1.0  0.0018
  C  C261  1  0.512980  0.554250  0.462100  1.0  -0.1365
  C  C262  1  0.277900  0.088130  0.692730  1.0  0.6865
  C  C263  1  0.246350  0.042180  0.709430  1.0  -0.1575
  C  C264  1  0.219690  0.012390  0.662330  1.0  -0.0722
  C  C265  1  0.191420  0.969900  0.678130  1.0  -0.1081
  C  C266  1  0.189000  0.953880  0.739030  1.0  0.05
  C  C267  1  0.216090  0.983560  0.788330  1.0  -0.1756
  C  C268  1  0.244590  0.027450  0.771730  1.0  -0.0431
  C  C269  1  0.161790  0.907210  0.759830  1.0  0.0018
  C  C270  1  0.179650  0.887580  0.795430  1.0  -0.1365
  C  C271  1  0.944560  0.421470  0.026070  1.0  0.6865
  C  C272  1  0.913010  0.375520  0.042770  1.0  -0.1572
  C  C273  1  0.886350  0.345730  0.995670  1.0  -0.0722
  C  C274  1  0.858080  0.303240  0.011470  1.0  -0.1081
  C  C275  1  0.855660  0.287220  0.072370  1.0  0.05
  C  C276  1  0.882750  0.316900  0.121670  1.0  -0.1756
  C  C277  1  0.911250  0.360790  0.105070  1.0  -0.0431
  C  C278  1  0.828450  0.240550  0.093170  1.0  0.0018
  C  C279  1  0.846310  0.220920  0.128770  1.0  -0.1365
  C  C280  1  0.245200  0.856430  0.359400  1.0  0.686
  C  C281  1  0.291150  0.870830  0.376100  1.0  -0.159
  C  C282  1  0.320940  0.873960  0.329000  1.0  -0.072
  C  C283  1  0.363430  0.888180  0.344800  1.0  -0.1083
  C  C284  1  0.379450  0.901780  0.405700  1.0  0.0486
  C  C285  1  0.349770  0.899190  0.455000  1.0  -0.1742
  C  C286  1  0.305880  0.883800  0.438400  1.0  -0.0429
  C  C287  1  0.426120  0.921240  0.426500  1.0  0.0015
  C  C288  1  0.445750  0.958730  0.462100  1.0  -0.1369
  C  C289  1  0.911870  0.189760  0.692730  1.0  0.686
  C  C290  1  0.957820  0.204160  0.709430  1.0  -0.159
  C  C291  1  0.987610  0.207290  0.662330  1.0  -0.072
  C  C292  1  0.030100  0.221510  0.678130  1.0  -0.1083
  C  C293  1  0.046120  0.235110  0.739030  1.0  0.0486
  C  C294  1  0.016440  0.232520  0.788330  1.0  -0.1742
  C  C295  1  0.972550  0.217130  0.771730  1.0  -0.0429
  C  C296  1  0.092790  0.254570  0.759830  1.0  0.0015
  C  C297  1  0.112420  0.292060  0.795430  1.0  -0.1369
  C  C298  1  0.578530  0.523100  0.026070  1.0  0.686
  C  C299  1  0.624480  0.537500  0.042770  1.0  -0.1592
  C  C300  1  0.654270  0.540630  0.995670  1.0  -0.072
  C  C301  1  0.696760  0.554850  0.011470  1.0  -0.1083
  C  C302  1  0.712780  0.568450  0.072370  1.0  0.0486
  C  C303  1  0.683100  0.565860  0.121670  1.0  -0.1742
  C  C304  1  0.639210  0.550470  0.105070  1.0  -0.0429
  C  C305  1  0.759450  0.587910  0.093170  1.0  0.0015
  C  C306  1  0.779080  0.625400  0.128770  1.0  -0.1369
  C  C307  1  0.143570  0.388770  0.359400  1.0  0.6862
  C  C308  1  0.129170  0.420320  0.376100  1.0  -0.1583
  C  C309  1  0.126040  0.446980  0.329000  1.0  -0.0725
  C  C310  1  0.111820  0.475250  0.344800  1.0  -0.1074
  C  C311  1  0.098220  0.477670  0.405700  1.0  0.0499
  C  C312  1  0.100810  0.450580  0.455000  1.0  -0.1767
  C  C313  1  0.116200  0.422080  0.438400  1.0  -0.0436
  C  C314  1  0.078760  0.504880  0.426500  1.0  0.0014
  C  C315  1  0.041270  0.487020  0.462100  1.0  -0.1347
  C  C316  1  0.810240  0.722100  0.692730  1.0  0.6862
  C  C317  1  0.795840  0.753650  0.709430  1.0  -0.1583
  C  C318  1  0.792710  0.780310  0.662330  1.0  -0.0725
  C  C319  1  0.778490  0.808580  0.678130  1.0  -0.1074
  C  C320  1  0.764890  0.811000  0.739030  1.0  0.0499
  C  C321  1  0.767480  0.783910  0.788330  1.0  -0.1767
  C  C322  1  0.782870  0.755410  0.771730  1.0  -0.0436
  C  C323  1  0.745430  0.838210  0.759830  1.0  0.0014
  C  C324  1  0.707940  0.820350  0.795430  1.0  -0.1347
  C  C325  1  0.476900  0.055440  0.026070  1.0  0.6865
  C  C326  1  0.462500  0.086990  0.042770  1.0  -0.1581
  C  C327  1  0.459370  0.113650  0.995670  1.0  -0.0726
  C  C328  1  0.445150  0.141920  0.011470  1.0  -0.1074
  C  C329  1  0.431550  0.144340  0.072370  1.0  0.0499
  C  C330  1  0.434140  0.117250  0.121670  1.0  -0.1767
  C  C331  1  0.449530  0.088750  0.105070  1.0  -0.0436
  C  C332  1  0.412090  0.171550  0.093170  1.0  0.0014
  C  C333  1  0.374600  0.153690  0.128770  1.0  -0.1347
  C  C334  1  0.754800  0.611230  0.640600  1.0  0.6863
  C  C335  1  0.708850  0.579680  0.623900  1.0  -0.1587
  C  C336  1  0.679060  0.553020  0.671000  1.0  -0.0699
  C  C337  1  0.636570  0.524750  0.655200  1.0  -0.1082
  C  C338  1  0.620550  0.522330  0.594300  1.0  0.0501
  C  C339  1  0.650230  0.549420  0.545000  1.0  -0.1742
  C  C340  1  0.694120  0.577920  0.561600  1.0  -0.0453
  C  C341  1  0.573880  0.495120  0.573500  1.0  0.0007
  C  C342  1  0.554250  0.512980  0.537900  1.0  -0.1337
  C  C343  1  0.421470  0.944560  0.973930  1.0  0.6862
  C  C344  1  0.375520  0.913010  0.957230  1.0  -0.1584
  C  C345  1  0.345730  0.886350  0.004330  1.0  -0.0699
  C  C346  1  0.303240  0.858080  0.988530  1.0  -0.1082
  C  C347  1  0.287220  0.855660  0.927630  1.0  0.0501
  C  C348  1  0.316900  0.882750  0.878330  1.0  -0.1742
  C  C349  1  0.360790  0.911250  0.894930  1.0  -0.0453
  C  C350  1  0.240550  0.828450  0.906830  1.0  0.0007
  C  C351  1  0.220920  0.846310  0.871230  1.0  -0.1337
  C  C352  1  0.088130  0.277900  0.307270  1.0  0.6863
  C  C353  1  0.042180  0.246350  0.290570  1.0  -0.1587
  C  C354  1  0.012390  0.219690  0.337670  1.0  -0.0699
  C  C355  1  0.969900  0.191420  0.321870  1.0  -0.1082
  C  C356  1  0.953880  0.189000  0.260970  1.0  0.0501
  C  C357  1  0.983560  0.216090  0.211670  1.0  -0.1742
  C  C358  1  0.027450  0.244590  0.228270  1.0  -0.0453
  C  C359  1  0.907210  0.161790  0.240170  1.0  0.0007
  C  C360  1  0.887580  0.179650  0.204570  1.0  -0.1337
  C  C361  1  0.856430  0.245200  0.640600  1.0  0.6866
  C  C362  1  0.870830  0.291150  0.623900  1.0  -0.1581
  C  C363  1  0.873960  0.320940  0.671000  1.0  -0.0701
  C  C364  1  0.888180  0.363430  0.655200  1.0  -0.1089
  C  C365  1  0.901780  0.379450  0.594300  1.0  0.0499
  C  C366  1  0.899190  0.349770  0.545000  1.0  -0.173
  C  C367  1  0.883800  0.305880  0.561600  1.0  -0.0457
  C  C368  1  0.921240  0.426120  0.573500  1.0  0.0008
  C  C369  1  0.958730  0.445750  0.537900  1.0  -0.136
  C  C370  1  0.523100  0.578530  0.973930  1.0  0.6866
  C  C371  1  0.537500  0.624480  0.957230  1.0  -0.1583
  C  C372  1  0.540630  0.654270  0.004330  1.0  -0.0701
  C  C373  1  0.554850  0.696760  0.988530  1.0  -0.1089
  C  C374  1  0.568450  0.712780  0.927630  1.0  0.0499
  C  C375  1  0.565860  0.683100  0.878330  1.0  -0.173
  C  C376  1  0.550470  0.639210  0.894930  1.0  -0.0457
  C  C377  1  0.587910  0.759450  0.906830  1.0  0.0008
  C  C378  1  0.625400  0.779080  0.871230  1.0  -0.136
  C  C379  1  0.189760  0.911870  0.307270  1.0  0.6866
  C  C380  1  0.204160  0.957820  0.290570  1.0  -0.1581
  C  C381  1  0.207290  0.987610  0.337670  1.0  -0.0701
  C  C382  1  0.221510  0.030100  0.321870  1.0  -0.1089
  C  C383  1  0.235110  0.046120  0.260970  1.0  0.0499
  C  C384  1  0.232520  0.016440  0.211670  1.0  -0.173
  C  C385  1  0.217130  0.972550  0.228270  1.0  -0.0457
  C  C386  1  0.254570  0.092790  0.240170  1.0  0.0008
  C  C387  1  0.292060  0.112420  0.204570  1.0  -0.136
  C  C388  1  0.388770  0.143570  0.640600  1.0  0.686
  C  C389  1  0.420320  0.129170  0.623900  1.0  -0.1591
  C  C390  1  0.446980  0.126040  0.671000  1.0  -0.0706
  C  C391  1  0.475250  0.111820  0.655200  1.0  -0.1088
  C  C392  1  0.477670  0.098220  0.594300  1.0  0.048
  C  C393  1  0.450580  0.100810  0.545000  1.0  -0.1718
  C  C394  1  0.422080  0.116200  0.561600  1.0  -0.0424
  C  C395  1  0.504880  0.078760  0.573500  1.0  0.0015
  C  C396  1  0.487020  0.041270  0.537900  1.0  -0.1367
  C  C397  1  0.055440  0.476900  0.973930  1.0  0.6863
  C  C398  1  0.086990  0.462500  0.957230  1.0  -0.159
  C  C399  1  0.113650  0.459370  0.004330  1.0  -0.0706
  C  C400  1  0.141920  0.445150  0.988530  1.0  -0.1088
  C  C401  1  0.144340  0.431550  0.927630  1.0  0.048
  C  C402  1  0.117250  0.434140  0.878330  1.0  -0.1718
  C  C403  1  0.088750  0.449530  0.894930  1.0  -0.0424
  C  C404  1  0.171550  0.412090  0.906830  1.0  0.0015
  C  C405  1  0.153690  0.374600  0.871230  1.0  -0.1367
  C  C406  1  0.722100  0.810240  0.307270  1.0  0.686
  C  C407  1  0.753650  0.795840  0.290570  1.0  -0.1591
  C  C408  1  0.780310  0.792710  0.337670  1.0  -0.0706
  C  C409  1  0.808580  0.778490  0.321870  1.0  -0.1088
  C  C410  1  0.811000  0.764890  0.260970  1.0  0.048
  C  C411  1  0.783910  0.767480  0.211670  1.0  -0.1718
  C  C412  1  0.755410  0.782870  0.228270  1.0  -0.0425
  C  C413  1  0.838210  0.745430  0.240170  1.0  0.0015
  C  C414  1  0.820350  0.707940  0.204570  1.0  -0.1367
  C  C415  1  0.388770  0.245200  0.640600  1.0  0.6867
  C  C416  1  0.420320  0.291150  0.623900  1.0  -0.1583
  C  C417  1  0.446980  0.320940  0.671000  1.0  -0.07
  C  C418  1  0.475250  0.363430  0.655200  1.0  -0.1078
  C  C419  1  0.477670  0.379450  0.594300  1.0  0.0496
  C  C420  1  0.450580  0.349770  0.545000  1.0  -0.1735
  C  C421  1  0.422080  0.305880  0.561600  1.0  -0.0444
  C  C422  1  0.504880  0.426120  0.573500  1.0  0.0078
  C  C423  1  0.487020  0.445750  0.537900  1.0  -0.1348
  C  C424  1  0.055440  0.578530  0.973930  1.0  0.6867
  C  C425  1  0.086990  0.624480  0.957230  1.0  -0.158
  C  C426  1  0.113650  0.654270  0.004330  1.0  -0.07
  C  C427  1  0.141920  0.696760  0.988530  1.0  -0.1078
  C  C428  1  0.144340  0.712780  0.927630  1.0  0.0496
  C  C429  1  0.117250  0.683100  0.878330  1.0  -0.1735
  C  C430  1  0.088750  0.639210  0.894930  1.0  -0.0444
  C  C431  1  0.171550  0.759450  0.906830  1.0  0.0078
  C  C432  1  0.153690  0.779080  0.871230  1.0  -0.1348
  C  C433  1  0.722100  0.911870  0.307270  1.0  0.6867
  C  C434  1  0.753650  0.957820  0.290570  1.0  -0.1583
  C  C435  1  0.780310  0.987610  0.337670  1.0  -0.07
  C  C436  1  0.808580  0.030100  0.321870  1.0  -0.1078
  C  C437  1  0.811000  0.046120  0.260970  1.0  0.0496
  C  C438  1  0.783910  0.016440  0.211670  1.0  -0.1735
  C  C439  1  0.755410  0.972550  0.228270  1.0  -0.0444
  C  C440  1  0.838210  0.092790  0.240170  1.0  0.0078
  C  C441  1  0.820350  0.112420  0.204570  1.0  -0.1348
  C  C442  1  0.754800  0.143570  0.640600  1.0  0.6859
  C  C443  1  0.708850  0.129170  0.623900  1.0  -0.1584
  C  C444  1  0.679060  0.126040  0.671000  1.0  -0.0702
  C  C445  1  0.636570  0.111820  0.655200  1.0  -0.1079
  C  C446  1  0.620550  0.098220  0.594300  1.0  0.0492
  C  C447  1  0.650230  0.100810  0.545000  1.0  -0.1728
  C  C448  1  0.694120  0.116200  0.561600  1.0  -0.0429
  C  C449  1  0.573880  0.078760  0.573500  1.0  0.01
  C  C450  1  0.554250  0.041270  0.537900  1.0  -0.1363
  C  C451  1  0.421470  0.476900  0.973930  1.0  0.6859
  C  C452  1  0.375520  0.462500  0.957230  1.0  -0.1586
  C  C453  1  0.345730  0.459370  0.004330  1.0  -0.0702
  C  C454  1  0.303240  0.445150  0.988530  1.0  -0.1079
  C  C455  1  0.287220  0.431550  0.927630  1.0  0.0492
  C  C456  1  0.316900  0.434140  0.878330  1.0  -0.1728
  C  C457  1  0.360790  0.449530  0.894930  1.0  -0.043
  C  C458  1  0.240550  0.412090  0.906830  1.0  0.01
  C  C459  1  0.220920  0.374600  0.871230  1.0  -0.1363
  C  C460  1  0.088130  0.810240  0.307270  1.0  0.6859
  C  C461  1  0.042180  0.795840  0.290570  1.0  -0.1584
  C  C462  1  0.012390  0.792710  0.337670  1.0  -0.0702
  C  C463  1  0.969900  0.778490  0.321870  1.0  -0.1079
  C  C464  1  0.953880  0.764890  0.260970  1.0  0.0492
  C  C465  1  0.983560  0.767480  0.211670  1.0  -0.1728
  C  C466  1  0.027450  0.782870  0.228270  1.0  -0.0429
  C  C467  1  0.907210  0.745430  0.240170  1.0  0.01
  C  C468  1  0.887580  0.707940  0.204570  1.0  -0.1363
  C  C469  1  0.856430  0.611230  0.640600  1.0  0.6867
  C  C470  1  0.870830  0.579680  0.623900  1.0  -0.1591
  C  C471  1  0.873960  0.553020  0.671000  1.0  -0.0704
  C  C472  1  0.888180  0.524750  0.655200  1.0  -0.1076
  C  C473  1  0.901780  0.522330  0.594300  1.0  0.0501
  C  C474  1  0.899190  0.549420  0.545000  1.0  -0.1741
  C  C475  1  0.883800  0.577920  0.561600  1.0  -0.0444
  C  C476  1  0.921240  0.495120  0.573500  1.0  0.0084
  C  C477  1  0.958730  0.512980  0.537900  1.0  -0.1339
  C  C478  1  0.523100  0.944560  0.973930  1.0  0.687
  C  C479  1  0.537500  0.913010  0.957230  1.0  -0.1589
  C  C480  1  0.540630  0.886350  0.004330  1.0  -0.0705
  C  C481  1  0.554850  0.858080  0.988530  1.0  -0.1076
  C  C482  1  0.568450  0.855660  0.927630  1.0  0.0501
  C  C483  1  0.565860  0.882750  0.878330  1.0  -0.1741
  C  C484  1  0.550470  0.911250  0.894930  1.0  -0.0444
  C  C485  1  0.587910  0.828450  0.906830  1.0  0.0084
  C  C486  1  0.625400  0.846310  0.871230  1.0  -0.1339
  C  C487  1  0.189760  0.277900  0.307270  1.0  0.6867
  C  C488  1  0.204160  0.246350  0.290570  1.0  -0.1591
  C  C489  1  0.207290  0.219690  0.337670  1.0  -0.0704
  C  C490  1  0.221510  0.191420  0.321870  1.0  -0.1076
  C  C491  1  0.235110  0.189000  0.260970  1.0  0.0501
  C  C492  1  0.232520  0.216090  0.211670  1.0  -0.1741
  C  C493  1  0.217130  0.244590  0.228270  1.0  -0.0444
  C  C494  1  0.254570  0.161790  0.240170  1.0  0.0084
  C  C495  1  0.292060  0.179650  0.204570  1.0  -0.1339
  C  C496  1  0.245200  0.388770  0.359400  1.0  0.6866
  C  C497  1  0.291150  0.420320  0.376100  1.0  -0.1592
  C  C498  1  0.320940  0.446980  0.329000  1.0  -0.0717
  C  C499  1  0.363430  0.475250  0.344800  1.0  -0.1078
  C  C500  1  0.379450  0.477670  0.405700  1.0  0.0501
  C  C501  1  0.349770  0.450580  0.455000  1.0  -0.176
  C  C502  1  0.305880  0.422080  0.438400  1.0  -0.0445
  C  C503  1  0.426120  0.504880  0.426500  1.0  0.009
  C  C504  1  0.445750  0.487020  0.462100  1.0  -0.1343
  C  C505  1  0.911870  0.722100  0.692730  1.0  0.6866
  C  C506  1  0.957820  0.753650  0.709430  1.0  -0.1592
  C  C507  1  0.987610  0.780310  0.662330  1.0  -0.0717
  C  C508  1  0.030100  0.808580  0.678130  1.0  -0.1078
  C  C509  1  0.046120  0.811000  0.739030  1.0  0.0501
  C  C510  1  0.016440  0.783910  0.788330  1.0  -0.176
  C  C511  1  0.972550  0.755410  0.771730  1.0  -0.0445
  C  C512  1  0.092790  0.838210  0.759830  1.0  0.009
  C  C513  1  0.112420  0.820350  0.795430  1.0  -0.1343
  C  C514  1  0.578530  0.055440  0.026070  1.0  0.6866
  C  C515  1  0.624480  0.086990  0.042770  1.0  -0.1589
  C  C516  1  0.654270  0.113650  0.995670  1.0  -0.0717
  C  C517  1  0.696760  0.141920  0.011470  1.0  -0.1078
  C  C518  1  0.712780  0.144340  0.072370  1.0  0.0501
  C  C519  1  0.683100  0.117250  0.121670  1.0  -0.176
  C  C520  1  0.639210  0.088750  0.105070  1.0  -0.0445
  C  C521  1  0.759450  0.171550  0.093170  1.0  0.009
  C  C522  1  0.779080  0.153690  0.128770  1.0  -0.1343
  C  C523  1  0.143570  0.754800  0.359400  1.0  0.6867
  C  C524  1  0.129170  0.708850  0.376100  1.0  -0.1573
  C  C525  1  0.126040  0.679060  0.329000  1.0  -0.0729
  C  C526  1  0.111820  0.636570  0.344800  1.0  -0.1077
  C  C527  1  0.098220  0.620550  0.405700  1.0  0.05
  C  C528  1  0.100810  0.650230  0.455000  1.0  -0.1759
  C  C529  1  0.116200  0.694120  0.438400  1.0  -0.0445
  C  C530  1  0.078760  0.573880  0.426500  1.0  0.0083
  C  C531  1  0.041270  0.554250  0.462100  1.0  -0.136
  C  C532  1  0.810240  0.088130  0.692730  1.0  0.6867
  C  C533  1  0.795840  0.042180  0.709430  1.0  -0.1573
  C  C534  1  0.792710  0.012390  0.662330  1.0  -0.0729
  C  C535  1  0.778490  0.969900  0.678130  1.0  -0.1077
  C  C536  1  0.764890  0.953880  0.739030  1.0  0.05
  C  C537  1  0.767480  0.983560  0.788330  1.0  -0.1759
  C  C538  1  0.782870  0.027450  0.771730  1.0  -0.0445
  C  C539  1  0.745430  0.907210  0.759830  1.0  0.0083
  C  C540  1  0.707940  0.887580  0.795430  1.0  -0.136
  C  C541  1  0.476900  0.421470  0.026070  1.0  0.6867
  C  C542  1  0.462500  0.375520  0.042770  1.0  -0.1575
  C  C543  1  0.459370  0.345730  0.995670  1.0  -0.0729
  C  C544  1  0.445150  0.303240  0.011470  1.0  -0.1077
  C  C545  1  0.431550  0.287220  0.072370  1.0  0.05
  C  C546  1  0.434140  0.316900  0.121670  1.0  -0.1759
  C  C547  1  0.449530  0.360790  0.105070  1.0  -0.0445
  C  C548  1  0.412090  0.240550  0.093170  1.0  0.0083
  C  C549  1  0.374600  0.220920  0.128770  1.0  -0.136
  C  C550  1  0.611230  0.856430  0.359400  1.0  0.6858
  C  C551  1  0.579680  0.870830  0.376100  1.0  -0.1584
  C  C552  1  0.553020  0.873960  0.329000  1.0  -0.0722
  C  C553  1  0.524750  0.888180  0.344800  1.0  -0.1071
  C  C554  1  0.522330  0.901780  0.405700  1.0  0.0496
  C  C555  1  0.549420  0.899190  0.455000  1.0  -0.1761
  C  C556  1  0.577920  0.883800  0.438400  1.0  -0.0415
  C  C557  1  0.495120  0.921240  0.426500  1.0  0.0098
  C  C558  1  0.512980  0.958730  0.462100  1.0  -0.1371
  C  C559  1  0.277900  0.189760  0.692730  1.0  0.6857
  C  C560  1  0.246350  0.204160  0.709430  1.0  -0.1584
  C  C561  1  0.219690  0.207290  0.662330  1.0  -0.0722
  C  C562  1  0.191420  0.221510  0.678130  1.0  -0.1071
  C  C563  1  0.189000  0.235110  0.739030  1.0  0.0496
  C  C564  1  0.216090  0.232520  0.788330  1.0  -0.1761
  C  C565  1  0.244590  0.217130  0.771730  1.0  -0.0415
  C  C566  1  0.161790  0.254570  0.759830  1.0  0.0098
  C  C567  1  0.179650  0.292060  0.795430  1.0  -0.1371
  C  C568  1  0.944560  0.523100  0.026070  1.0  0.686
  C  C569  1  0.913010  0.537500  0.042770  1.0  -0.1582
  C  C570  1  0.886350  0.540630  0.995670  1.0  -0.0722
  C  C571  1  0.858080  0.554850  0.011470  1.0  -0.1071
  C  C572  1  0.855660  0.568450  0.072370  1.0  0.0496
  C  C573  1  0.882750  0.565860  0.121670  1.0  -0.1761
  C  C574  1  0.911250  0.550470  0.105070  1.0  -0.0415
  C  C575  1  0.828450  0.587910  0.093170  1.0  0.0098
  C  C576  1  0.846310  0.625400  0.128770  1.0  -0.1371
  C  C577  1  0.490310  0.509690  0.479600  1.0  -0.0032
  C  C578  1  0.451430  0.548570  0.408900  1.0  0.1457
  C  C579  1  0.414100  0.585900  0.409900  1.0  -0.0235
  C  C580  1  0.156980  0.843020  0.812930  1.0  -0.0032
  C  C581  1  0.118100  0.881900  0.742230  1.0  0.1457
  C  C582  1  0.080770  0.919230  0.743230  1.0  -0.0235
  C  C583  1  0.823640  0.176360  0.146270  1.0  -0.0032
  C  C584  1  0.784760  0.215240  0.075570  1.0  0.1458
  C  C585  1  0.747430  0.252570  0.076570  1.0  -0.0235
  C  C586  1  0.490310  0.980620  0.479600  1.0  -0.0026
  C  C587  1  0.451430  0.902860  0.408900  1.0  0.1427
  C  C588  1  0.414100  0.828200  0.409900  1.0  -0.0182
  C  C589  1  0.156980  0.313950  0.812930  1.0  -0.0026
  C  C590  1  0.118100  0.236190  0.742230  1.0  0.1427
  C  C591  1  0.080770  0.161530  0.743230  1.0  -0.0182
  C  C592  1  0.823640  0.647290  0.146270  1.0  -0.0028
  C  C593  1  0.784760  0.569530  0.075570  1.0  0.1428
  C  C594  1  0.747430  0.494870  0.076570  1.0  -0.0182
  C  C595  1  0.019380  0.509690  0.479600  1.0  -0.0049
  C  C596  1  0.097140  0.548570  0.408900  1.0  0.1427
  C  C597  1  0.171800  0.585900  0.409900  1.0  -0.0233
  C  C598  1  0.686050  0.843020  0.812930  1.0  -0.0049
  C  C599  1  0.763810  0.881900  0.742230  1.0  0.1427
  C  C600  1  0.838470  0.919230  0.743230  1.0  -0.0233
  C  C601  1  0.352710  0.176360  0.146270  1.0  -0.0051
  C  C602  1  0.430470  0.215240  0.075570  1.0  0.1427
  C  C603  1  0.505130  0.252570  0.076570  1.0  -0.0233
  C  C604  1  0.509690  0.490310  0.520400  1.0  -0.0027
  C  C605  1  0.548570  0.451430  0.591100  1.0  0.1449
  C  C606  1  0.585900  0.414100  0.590100  1.0  -0.0222
  C  C607  1  0.176360  0.823640  0.853730  1.0  -0.0027
  C  C608  1  0.215240  0.784760  0.924430  1.0  0.145
  C  C609  1  0.252570  0.747430  0.923430  1.0  -0.0222
  C  C610  1  0.843020  0.156980  0.187070  1.0  -0.0027
  C  C611  1  0.881900  0.118100  0.257770  1.0  0.1449
  C  C612  1  0.919230  0.080770  0.256770  1.0  -0.0222
  C  C613  1  0.980620  0.490310  0.520400  1.0  -0.0054
  C  C614  1  0.902860  0.451430  0.591100  1.0  0.1432
  C  C615  1  0.828200  0.414100  0.590100  1.0  -0.0238
  C  C616  1  0.647290  0.823640  0.853730  1.0  -0.0057
  C  C617  1  0.569530  0.784760  0.924430  1.0  0.1432
  C  C618  1  0.494870  0.747430  0.923430  1.0  -0.0238
  C  C619  1  0.313950  0.156980  0.187070  1.0  -0.0054
  C  C620  1  0.236190  0.118100  0.257770  1.0  0.1432
  C  C621  1  0.161530  0.080770  0.256770  1.0  -0.0238
  C  C622  1  0.509690  0.019380  0.520400  1.0  -0.003
  C  C623  1  0.548570  0.097140  0.591100  1.0  0.143
  C  C624  1  0.585900  0.171800  0.590100  1.0  -0.0202
  C  C625  1  0.176360  0.352710  0.853730  1.0  -0.0033
  C  C626  1  0.215240  0.430470  0.924430  1.0  0.143
  C  C627  1  0.252570  0.505130  0.923430  1.0  -0.0202
  C  C628  1  0.843020  0.686050  0.187070  1.0  -0.003
  C  C629  1  0.881900  0.763810  0.257770  1.0  0.1431
  C  C630  1  0.919230  0.838470  0.256770  1.0  -0.0202
  O  O631  1  0.635970  0.779180  0.404400  1.0  -0.577
  O  O632  1  0.611740  0.767170  0.302900  1.0  -0.5637
  O  O633  1  0.302640  0.112510  0.737730  1.0  -0.5801
  O  O634  1  0.278410  0.100500  0.636230  1.0  -0.5629
  O  O635  1  0.969300  0.445850  0.071070  1.0  -0.5771
  O  O636  1  0.945070  0.433840  0.969570  1.0  -0.5637
  O  O637  1  0.220820  0.856790  0.404400  1.0  -0.5796
  O  O638  1  0.232830  0.844570  0.302900  1.0  -0.5638
  O  O639  1  0.887490  0.190120  0.737730  1.0  -0.5797
  O  O640  1  0.899500  0.177900  0.636230  1.0  -0.5638
  O  O641  1  0.554150  0.523460  0.071070  1.0  -0.5796
  O  O642  1  0.566160  0.511240  0.969570  1.0  -0.5638
  O  O643  1  0.143210  0.364030  0.404400  1.0  -0.5812
  O  O644  1  0.155430  0.388260  0.302900  1.0  -0.5633
  O  O645  1  0.809880  0.697360  0.737730  1.0  -0.578
  O  O646  1  0.822100  0.721590  0.636230  1.0  -0.5638
  O  O647  1  0.476540  0.030700  0.071070  1.0  -0.5811
  O  O648  1  0.488760  0.054930  0.969570  1.0  -0.5632
  O  O649  1  0.779180  0.635970  0.595600  1.0  -0.5798
  O  O650  1  0.767170  0.611740  0.697100  1.0  -0.5639
  O  O651  1  0.445850  0.969300  0.928930  1.0  -0.58
  O  O652  1  0.433840  0.945070  0.030430  1.0  -0.5639
  O  O653  1  0.112510  0.302640  0.262270  1.0  -0.5826
  O  O654  1  0.100500  0.278410  0.363770  1.0  -0.5633
  O  O655  1  0.856790  0.220820  0.595600  1.0  -0.5827
  O  O656  1  0.844570  0.232830  0.697100  1.0  -0.5638
  O  O657  1  0.523460  0.554150  0.928930  1.0  -0.5826
  O  O658  1  0.511240  0.566160  0.030430  1.0  -0.5638
  O  O659  1  0.190120  0.887490  0.262270  1.0  -0.5828
  O  O660  1  0.177900  0.899500  0.363770  1.0  -0.5638
  O  O661  1  0.364030  0.143210  0.595600  1.0  -0.5812
  O  O662  1  0.388260  0.155430  0.697100  1.0  -0.5629
  O  O663  1  0.030700  0.476540  0.928930  1.0  -0.5815
  O  O664  1  0.054930  0.488760  0.030430  1.0  -0.5628
  O  O665  1  0.697360  0.809880  0.262270  1.0  -0.5788
  O  O666  1  0.721590  0.822100  0.363770  1.0  -0.5633
  O  O667  1  0.364030  0.220820  0.595600  1.0  -0.5798
  O  O668  1  0.388260  0.232830  0.697100  1.0  -0.5634
  O  O669  1  0.030700  0.554150  0.928930  1.0  -0.5798
  O  O670  1  0.054930  0.566160  0.030430  1.0  -0.5634
  O  O671  1  0.697360  0.887490  0.262270  1.0  -0.5826
  O  O672  1  0.721590  0.899500  0.363770  1.0  -0.5631
  O  O673  1  0.779180  0.143210  0.595600  1.0  -0.5818
  O  O674  1  0.767170  0.155430  0.697100  1.0  -0.5637
  O  O675  1  0.445850  0.476540  0.928930  1.0  -0.5816
  O  O676  1  0.433840  0.488760  0.030430  1.0  -0.5637
  O  O677  1  0.112510  0.809880  0.262270  1.0  -0.5819
  O  O678  1  0.100500  0.822100  0.363770  1.0  -0.5637
  O  O679  1  0.856790  0.635970  0.595600  1.0  -0.5835
  O  O680  1  0.844570  0.611740  0.697100  1.0  -0.5634
  O  O681  1  0.523460  0.969300  0.928930  1.0  -0.5836
  O  O682  1  0.511240  0.945070  0.030430  1.0  -0.5633
  O  O683  1  0.190120  0.302640  0.262270  1.0  -0.5813
  O  O684  1  0.177900  0.278410  0.363770  1.0  -0.5638
  O  O685  1  0.220820  0.364030  0.404400  1.0  -0.579
  O  O686  1  0.232830  0.388260  0.302900  1.0  -0.5644
  O  O687  1  0.887490  0.697360  0.737730  1.0  -0.5818
  O  O688  1  0.899500  0.721590  0.636230  1.0  -0.5633
  O  O689  1  0.554150  0.030700  0.071070  1.0  -0.5792
  O  O690  1  0.566160  0.054930  0.969570  1.0  -0.5644
  O  O691  1  0.143210  0.779180  0.404400  1.0  -0.5802
  O  O692  1  0.155430  0.767170  0.302900  1.0  -0.5632
  O  O693  1  0.809880  0.112510  0.737730  1.0  -0.5804
  O  O694  1  0.822100  0.100500  0.636230  1.0  -0.5633
  O  O695  1  0.476540  0.445850  0.071070  1.0  -0.5803
  O  O696  1  0.488760  0.433840  0.969570  1.0  -0.5633
  O  O697  1  0.635970  0.856790  0.404400  1.0  -0.5796
  O  O698  1  0.611740  0.844570  0.302900  1.0  -0.5631
  O  O699  1  0.302640  0.190120  0.737730  1.0  -0.5766
  O  O700  1  0.278410  0.177900  0.636230  1.0  -0.5633
  O  O701  1  0.969300  0.523460  0.071070  1.0  -0.5797
  O  O702  1  0.945070  0.511240  0.969570  1.0  -0.563
  O  O703  1  0.432420  0.567580  0.367100  1.0  -0.2941
  O  O704  1  0.099090  0.900910  0.700430  1.0  -0.2941
  O  O705  1  0.765750  0.234250  0.033770  1.0  -0.2941
  O  O706  1  0.432420  0.864840  0.367100  1.0  -0.2946
  O  O707  1  0.099090  0.198170  0.700430  1.0  -0.2946
  O  O708  1  0.765750  0.531510  0.033770  1.0  -0.2946
  O  O709  1  0.135160  0.567580  0.367100  1.0  -0.2942
  O  O710  1  0.801830  0.900910  0.700430  1.0  -0.2942
  O  O711  1  0.468490  0.234250  0.033770  1.0  -0.2942
  O  O712  1  0.567580  0.432420  0.632900  1.0  -0.3006
  O  O713  1  0.234250  0.765750  0.966230  1.0  -0.3006
  O  O714  1  0.900910  0.099090  0.299570  1.0  -0.3006
  O  O715  1  0.864840  0.432420  0.632900  1.0  -0.3002
  O  O716  1  0.531510  0.765750  0.966230  1.0  -0.3002
  O  O717  1  0.198170  0.099090  0.299570  1.0  -0.3002
  O  O718  1  0.567580  0.135160  0.632900  1.0  -0.2994
  O  O719  1  0.234250  0.468490  0.966230  1.0  -0.2994
  O  O720  1  0.900910  0.801830  0.299570  1.0  -0.2994
