# generated using pymatgen
data_CuH13C21O5
_symmetry_space_group_name_H-M   'P 1'
_cell_length_a   35.02270000
_cell_length_b   35.02270000
_cell_length_c   22.75390000
_cell_angle_alpha   90.00000000
_cell_angle_beta   90.00000000
_cell_angle_gamma   120.00000000
_symmetry_Int_Tables_number   1
_chemical_formula_structural   CuH13C21O5
_chemical_formula_sum   'Cu18 H234 C378 O90'
_cell_volume   24170.50503079
_cell_formula_units_Z   18
loop_
 _symmetry_equiv_pos_site_id
 _symmetry_equiv_pos_as_xyz
  1  'x, y, z'
loop_
 _atom_site_type_symbol
 _atom_site_label
 _atom_site_symmetry_multiplicity
 _atom_site_fract_x
 _atom_site_fract_y
 _atom_site_fract_z
 _atom_site_occupancy
 _atom_site_charge
  Cu  Cu1  1  0.158380  0.316750  0.387020  1.0  0.9076
  Cu  Cu2  1  0.825040  0.650080  0.720350  1.0  0.9076
  Cu  Cu3  1  0.491710  0.983420  0.053690  1.0  0.9095
  Cu  Cu4  1  0.683250  0.841620  0.387020  1.0  0.9065
  Cu  Cu5  1  0.349920  0.174960  0.720350  1.0  0.9065
  Cu  Cu6  1  0.016580  0.508290  0.053690  1.0  0.9088
  Cu  Cu7  1  0.158380  0.841620  0.387020  1.0  0.9062
  Cu  Cu8  1  0.825040  0.174960  0.720350  1.0  0.9062
  Cu  Cu9  1  0.491710  0.508290  0.053690  1.0  0.9065
  Cu  Cu10  1  0.316750  0.158380  0.612980  1.0  0.9057
  Cu  Cu11  1  0.983420  0.491710  0.946310  1.0  0.9081
  Cu  Cu12  1  0.650080  0.825040  0.279650  1.0  0.9057
  Cu  Cu13  1  0.841620  0.683250  0.612980  1.0  0.9066
  Cu  Cu14  1  0.508290  0.016580  0.946310  1.0  0.9086
  Cu  Cu15  1  0.174960  0.349920  0.279650  1.0  0.9066
  Cu  Cu16  1  0.841620  0.158380  0.612980  1.0  0.9062
  Cu  Cu17  1  0.508290  0.491710  0.946310  1.0  0.9065
  Cu  Cu18  1  0.174960  0.825040  0.279650  1.0  0.9062
  H  H19  1  0.313100  0.446700  0.300700  1.0  0.1063
  H  H20  1  0.384900  0.494800  0.328200  1.0  0.1017
  H  H21  1  0.357200  0.448200  0.491700  1.0  0.1136
  H  H22  1  0.285100  0.400700  0.463900  1.0  0.1026
  H  H23  1  0.428800  0.457000  0.475300  1.0  0.1074
  H  H24  1  0.435200  0.609500  0.436300  1.0  0.0896
  H  H25  1  0.979770  0.780030  0.634030  1.0  0.1066
  H  H26  1  0.051570  0.828130  0.661530  1.0  0.1017
  H  H27  1  0.023870  0.781530  0.825030  1.0  0.1135
  H  H28  1  0.951770  0.734030  0.797230  1.0  0.1038
  H  H29  1  0.095470  0.790330  0.808630  1.0  0.1074
  H  H30  1  0.101870  0.942830  0.769630  1.0  0.0884
  H  H31  1  0.646430  0.113370  0.967370  1.0  0.1063
  H  H32  1  0.718230  0.161470  0.994870  1.0  0.1017
  H  H33  1  0.690530  0.114870  0.158370  1.0  0.1136
  H  H34  1  0.618430  0.067370  0.130570  1.0  0.1026
  H  H35  1  0.762130  0.123670  0.141970  1.0  0.1074
  H  H36  1  0.768530  0.276170  0.102970  1.0  0.0896
  H  H37  1  0.553300  0.866400  0.300700  1.0  0.1063
  H  H38  1  0.505200  0.890100  0.328200  1.0  0.1015
  H  H39  1  0.551800  0.909000  0.491700  1.0  0.1115
  H  H40  1  0.599300  0.884400  0.463900  1.0  0.1036
  H  H41  1  0.543000  0.971800  0.475300  1.0  0.1069
  H  H42  1  0.390500  0.825700  0.436300  1.0  0.0918
  H  H43  1  0.219970  0.199730  0.634030  1.0  0.1061
  H  H44  1  0.171870  0.223430  0.661530  1.0  0.1017
  H  H45  1  0.218470  0.242330  0.825030  1.0  0.111
  H  H46  1  0.265970  0.217730  0.797230  1.0  0.1024
  H  H47  1  0.209670  0.305130  0.808630  1.0  0.1069
  H  H48  1  0.057170  0.159030  0.769630  1.0  0.0905
  H  H49  1  0.886630  0.533070  0.967370  1.0  0.1063
  H  H50  1  0.838530  0.556770  0.994870  1.0  0.1013
  H  H51  1  0.885130  0.575670  0.158370  1.0  0.1115
  H  H52  1  0.932630  0.551070  0.130570  1.0  0.1036
  H  H53  1  0.876330  0.638470  0.141970  1.0  0.1069
  H  H54  1  0.723830  0.492370  0.102970  1.0  0.0918
  H  H55  1  0.133600  0.686900  0.300700  1.0  0.1071
  H  H56  1  0.109900  0.615100  0.328200  1.0  0.1011
  H  H57  1  0.091000  0.642800  0.491700  1.0  0.1131
  H  H58  1  0.115600  0.714900  0.463900  1.0  0.1032
  H  H59  1  0.028200  0.571200  0.475300  1.0  0.1067
  H  H60  1  0.174300  0.564800  0.436300  1.0  0.0899
  H  H61  1  0.800270  0.020230  0.634030  1.0  0.1071
  H  H62  1  0.776570  0.948430  0.661530  1.0  0.1008
  H  H63  1  0.757670  0.976130  0.825030  1.0  0.1116
  H  H64  1  0.782270  0.048230  0.797230  1.0  0.1034
  H  H65  1  0.694870  0.904530  0.808630  1.0  0.1067
  H  H66  1  0.840970  0.898130  0.769630  1.0  0.0896
  H  H67  1  0.466930  0.353570  0.967370  1.0  0.1071
  H  H68  1  0.443230  0.281770  0.994870  1.0  0.1015
  H  H69  1  0.424330  0.309470  0.158370  1.0  0.1131
  H  H70  1  0.448930  0.381570  0.130570  1.0  0.1032
  H  H71  1  0.361530  0.237870  0.141970  1.0  0.1067
  H  H72  1  0.507630  0.231470  0.102970  1.0  0.0899
  H  H73  1  0.446700  0.313100  0.699300  1.0  0.1065
  H  H74  1  0.494800  0.384900  0.671800  1.0  0.1018
  H  H75  1  0.448200  0.357200  0.508300  1.0  0.1126
  H  H76  1  0.400700  0.285100  0.536100  1.0  0.1016
  H  H77  1  0.457000  0.428800  0.524700  1.0  0.1067
  H  H78  1  0.609500  0.435200  0.563700  1.0  0.0903
  H  H79  1  0.113370  0.646430  0.032630  1.0  0.1065
  H  H80  1  0.161470  0.718230  0.005130  1.0  0.1018
  H  H81  1  0.114870  0.690530  0.841630  1.0  0.1126
  H  H82  1  0.067370  0.618430  0.869430  1.0  0.1016
  H  H83  1  0.123670  0.762130  0.858030  1.0  0.1067
  H  H84  1  0.276170  0.768530  0.897030  1.0  0.0903
  H  H85  1  0.780030  0.979770  0.365970  1.0  0.1066
  H  H86  1  0.828130  0.051570  0.338470  1.0  0.1018
  H  H87  1  0.781530  0.023870  0.174970  1.0  0.1125
  H  H88  1  0.734030  0.951770  0.202770  1.0  0.1029
  H  H89  1  0.790330  0.095470  0.191370  1.0  0.1067
  H  H90  1  0.942830  0.101870  0.230370  1.0  0.0892
  H  H91  1  0.866400  0.553300  0.699300  1.0  0.1068
  H  H92  1  0.890100  0.505200  0.671800  1.0  0.1015
  H  H93  1  0.909000  0.551800  0.508300  1.0  0.1114
  H  H94  1  0.884400  0.599300  0.536100  1.0  0.1033
  H  H95  1  0.971800  0.543000  0.524700  1.0  0.1076
  H  H96  1  0.825700  0.390500  0.563700  1.0  0.0906
  H  H97  1  0.533070  0.886630  0.032630  1.0  0.1068
  H  H98  1  0.556770  0.838530  0.005130  1.0  0.1012
  H  H99  1  0.575670  0.885130  0.841630  1.0  0.1114
  H  H100  1  0.551070  0.932630  0.869430  1.0  0.1033
  H  H101  1  0.638470  0.876330  0.858030  1.0  0.1076
  H  H102  1  0.492370  0.723830  0.897030  1.0  0.0906
  H  H103  1  0.199730  0.219970  0.365970  1.0  0.107
  H  H104  1  0.223430  0.171870  0.338470  1.0  0.1017
  H  H105  1  0.242330  0.218470  0.174970  1.0  0.1108
  H  H106  1  0.217730  0.265970  0.202770  1.0  0.1018
  H  H107  1  0.305130  0.209670  0.191370  1.0  0.1076
  H  H108  1  0.159030  0.057170  0.230370  1.0  0.0889
  H  H109  1  0.686900  0.133600  0.699300  1.0  0.1064
  H  H110  1  0.615100  0.109900  0.671800  1.0  0.1018
  H  H111  1  0.642800  0.091000  0.508300  1.0  0.1128
  H  H112  1  0.714900  0.115600  0.536100  1.0  0.1041
  H  H113  1  0.571200  0.028200  0.524700  1.0  0.1073
  H  H114  1  0.564800  0.174300  0.563700  1.0  0.0898
  H  H115  1  0.353570  0.466930  0.032630  1.0  0.1063
  H  H116  1  0.281770  0.443230  0.005130  1.0  0.1017
  H  H117  1  0.309470  0.424330  0.841630  1.0  0.1128
  H  H118  1  0.381570  0.448930  0.869430  1.0  0.1041
  H  H119  1  0.237870  0.361530  0.858030  1.0  0.1073
  H  H120  1  0.231470  0.507630  0.897030  1.0  0.0898
  H  H121  1  0.020230  0.800270  0.365970  1.0  0.1064
  H  H122  1  0.948430  0.776570  0.338470  1.0  0.1013
  H  H123  1  0.976130  0.757670  0.174970  1.0  0.1116
  H  H124  1  0.048230  0.782270  0.202770  1.0  0.1037
  H  H125  1  0.904530  0.694870  0.191370  1.0  0.1073
  H  H126  1  0.898130  0.840970  0.230370  1.0  0.089
  H  H127  1  0.686900  0.553300  0.699300  1.0  0.1065
  H  H128  1  0.615100  0.505200  0.671800  1.0  0.1017
  H  H129  1  0.642800  0.551800  0.508300  1.0  0.1127
  H  H130  1  0.714900  0.599300  0.536100  1.0  0.1021
  H  H131  1  0.571200  0.543000  0.524700  1.0  0.1072
  H  H132  1  0.564800  0.390500  0.563700  1.0  0.0894
  H  H133  1  0.353570  0.886630  0.032630  1.0  0.1065
  H  H134  1  0.281770  0.838530  0.005130  1.0  0.1017
  H  H135  1  0.309470  0.885130  0.841630  1.0  0.1127
  H  H136  1  0.381570  0.932630  0.869430  1.0  0.1021
  H  H137  1  0.237870  0.876330  0.858030  1.0  0.1072
  H  H138  1  0.231470  0.723830  0.897030  1.0  0.0894
  H  H139  1  0.020230  0.219970  0.365970  1.0  0.1066
  H  H140  1  0.948430  0.171870  0.338470  1.0  0.1017
  H  H141  1  0.976130  0.218470  0.174970  1.0  0.1126
  H  H142  1  0.048230  0.265970  0.202770  1.0  0.1033
  H  H143  1  0.904530  0.209670  0.191370  1.0  0.1072
  H  H144  1  0.898130  0.057170  0.230370  1.0  0.0883
  H  H145  1  0.446700  0.133600  0.699300  1.0  0.1061
  H  H146  1  0.494800  0.109900  0.671800  1.0  0.1017
  H  H147  1  0.448200  0.091000  0.508300  1.0  0.1109
  H  H148  1  0.400700  0.115600  0.536100  1.0  0.1036
  H  H149  1  0.457000  0.028200  0.524700  1.0  0.1076
  H  H150  1  0.609500  0.174300  0.563700  1.0  0.0909
  H  H151  1  0.113370  0.466930  0.032630  1.0  0.1061
  H  H152  1  0.161470  0.443230  0.005130  1.0  0.1014
  H  H153  1  0.114870  0.424330  0.841630  1.0  0.1109
  H  H154  1  0.067370  0.448930  0.869430  1.0  0.1036
  H  H155  1  0.123670  0.361530  0.858030  1.0  0.1076
  H  H156  1  0.276170  0.507630  0.897030  1.0  0.0909
  H  H157  1  0.780030  0.800270  0.365970  1.0  0.1064
  H  H158  1  0.828130  0.776570  0.338470  1.0  0.1019
  H  H159  1  0.781530  0.757670  0.174970  1.0  0.1104
  H  H160  1  0.734030  0.782270  0.202770  1.0  0.102
  H  H161  1  0.790330  0.694870  0.191370  1.0  0.1076
  H  H162  1  0.942830  0.840970  0.230370  1.0  0.09
  H  H163  1  0.866400  0.313100  0.699300  1.0  0.1065
  H  H164  1  0.890100  0.384900  0.671800  1.0  0.1014
  H  H165  1  0.909000  0.357200  0.508300  1.0  0.1124
  H  H166  1  0.884400  0.285100  0.536100  1.0  0.1032
  H  H167  1  0.971800  0.428800  0.524700  1.0  0.1063
  H  H168  1  0.825700  0.435200  0.563700  1.0  0.0892
  H  H169  1  0.533070  0.646430  0.032630  1.0  0.1065
  H  H170  1  0.556770  0.718230  0.005130  1.0  0.1015
  H  H171  1  0.575670  0.690530  0.841630  1.0  0.1124
  H  H172  1  0.551070  0.618430  0.869430  1.0  0.1031
  H  H173  1  0.638470  0.762130  0.858030  1.0  0.1063
  H  H174  1  0.492370  0.768530  0.897030  1.0  0.0892
  H  H175  1  0.199730  0.979770  0.365970  1.0  0.1065
  H  H176  1  0.223430  0.051570  0.338470  1.0  0.1009
  H  H177  1  0.242330  0.023870  0.174970  1.0  0.1112
  H  H178  1  0.217730  0.951770  0.202770  1.0  0.103
  H  H179  1  0.305130  0.095470  0.191370  1.0  0.1063
  H  H180  1  0.159030  0.101870  0.230370  1.0  0.0892
  H  H181  1  0.553300  0.686900  0.300700  1.0  0.1065
  H  H182  1  0.505200  0.615100  0.328200  1.0  0.1014
  H  H183  1  0.551800  0.642800  0.491700  1.0  0.113
  H  H184  1  0.599300  0.714900  0.463900  1.0  0.102
  H  H185  1  0.543000  0.571200  0.475300  1.0  0.1061
  H  H186  1  0.390500  0.564800  0.436300  1.0  0.0896
  H  H187  1  0.219970  0.020230  0.634030  1.0  0.1069
  H  H188  1  0.171870  0.948430  0.661530  1.0  0.1014
  H  H189  1  0.218470  0.976130  0.825030  1.0  0.1129
  H  H190  1  0.265970  0.048230  0.797230  1.0  0.1033
  H  H191  1  0.209670  0.904530  0.808630  1.0  0.1061
  H  H192  1  0.057170  0.898130  0.769630  1.0  0.0884
  H  H193  1  0.886630  0.353570  0.967370  1.0  0.1065
  H  H194  1  0.838530  0.281770  0.994870  1.0  0.1014
  H  H195  1  0.885130  0.309470  0.158370  1.0  0.113
  H  H196  1  0.932630  0.381570  0.130570  1.0  0.102
  H  H197  1  0.876330  0.237870  0.141970  1.0  0.1061
  H  H198  1  0.723830  0.231470  0.102970  1.0  0.0896
  H  H199  1  0.133600  0.446700  0.300700  1.0  0.1065
  H  H200  1  0.109900  0.494800  0.328200  1.0  0.1012
  H  H201  1  0.091000  0.448200  0.491700  1.0  0.1116
  H  H202  1  0.115600  0.400700  0.463900  1.0  0.1035
  H  H203  1  0.028200  0.457000  0.475300  1.0  0.107
  H  H204  1  0.174300  0.609500  0.436300  1.0  0.0914
  H  H205  1  0.800270  0.780030  0.634030  1.0  0.1063
  H  H206  1  0.776570  0.828130  0.661530  1.0  0.1016
  H  H207  1  0.757670  0.781530  0.825030  1.0  0.1112
  H  H208  1  0.782270  0.734030  0.797230  1.0  0.1022
  H  H209  1  0.694870  0.790330  0.808630  1.0  0.107
  H  H210  1  0.840970  0.942830  0.769630  1.0  0.0895
  H  H211  1  0.466930  0.113370  0.967370  1.0  0.1065
  H  H212  1  0.443230  0.161470  0.994870  1.0  0.1012
  H  H213  1  0.424330  0.114870  0.158370  1.0  0.1116
  H  H214  1  0.448930  0.067370  0.130570  1.0  0.1035
  H  H215  1  0.361530  0.123670  0.141970  1.0  0.107
  H  H216  1  0.507630  0.276170  0.102970  1.0  0.0914
  H  H217  1  0.313100  0.866400  0.300700  1.0  0.1065
  H  H218  1  0.384900  0.890100  0.328200  1.0  0.1014
  H  H219  1  0.357200  0.909000  0.491700  1.0  0.1133
  H  H220  1  0.285100  0.884400  0.463900  1.0  0.1037
  H  H221  1  0.428800  0.971800  0.475300  1.0  0.1071
  H  H222  1  0.435200  0.825700  0.436300  1.0  0.0886
  H  H223  1  0.979770  0.199730  0.634030  1.0  0.1065
  H  H224  1  0.051570  0.223430  0.661530  1.0  0.1011
  H  H225  1  0.023870  0.242330  0.825030  1.0  0.1119
  H  H226  1  0.951770  0.217730  0.797230  1.0  0.1039
  H  H227  1  0.095470  0.305130  0.808630  1.0  0.1071
  H  H228  1  0.101870  0.159030  0.769630  1.0  0.0886
  H  H229  1  0.646430  0.533070  0.967370  1.0  0.1065
  H  H230  1  0.718230  0.556770  0.994870  1.0  0.1017
  H  H231  1  0.690530  0.575670  0.158370  1.0  0.1133
  H  H232  1  0.618430  0.551070  0.130570  1.0  0.1037
  H  H233  1  0.762130  0.638470  0.141970  1.0  0.1071
  H  H234  1  0.768530  0.492370  0.102970  1.0  0.0886
  H  H235  1  0.400600  0.599400  0.386400  1.0  0.1033
  H  H236  1  0.067270  0.932730  0.719730  1.0  0.1035
  H  H237  1  0.733930  0.266070  0.053070  1.0  0.1033
  H  H238  1  0.400600  0.801200  0.386400  1.0  0.1032
  H  H239  1  0.067270  0.134530  0.719730  1.0  0.1032
  H  H240  1  0.733930  0.467870  0.053070  1.0  0.1032
  H  H241  1  0.198800  0.599400  0.386400  1.0  0.1039
  H  H242  1  0.865470  0.932730  0.719730  1.0  0.1039
  H  H243  1  0.532130  0.266070  0.053070  1.0  0.1039
  H  H244  1  0.599400  0.400600  0.613600  1.0  0.1055
  H  H245  1  0.266070  0.733930  0.946930  1.0  0.1055
  H  H246  1  0.932730  0.067270  0.280270  1.0  0.1053
  H  H247  1  0.801200  0.400600  0.613600  1.0  0.1031
  H  H248  1  0.467870  0.733930  0.946930  1.0  0.1031
  H  H249  1  0.134530  0.067270  0.280270  1.0  0.1031
  H  H250  1  0.599400  0.198800  0.613600  1.0  0.1027
  H  H251  1  0.266070  0.532130  0.946930  1.0  0.1027
  H  H252  1  0.932730  0.865470  0.280270  1.0  0.1027
  C  C253  1  0.244670  0.387540  0.361820  1.0  0.6898
  C  C254  1  0.291640  0.419010  0.380240  1.0  -0.1536
  C  C255  1  0.321800  0.447030  0.339360  1.0  -0.0409
  C  C256  1  0.365000  0.475620  0.355930  1.0  -0.1001
  C  C257  1  0.379010  0.476290  0.411840  1.0  0.0658
  C  C258  1  0.348510  0.448050  0.453040  1.0  -0.196
  C  C259  1  0.305190  0.419620  0.436230  1.0  -0.0232
  C  C260  1  0.426080  0.504720  0.430230  1.0  -0.0022
  C  C261  1  0.445740  0.486310  0.464000  1.0  -0.1217
  C  C262  1  0.911340  0.720870  0.695150  1.0  0.6898
  C  C263  1  0.958310  0.752340  0.713570  1.0  -0.1535
  C  C264  1  0.988470  0.780360  0.672690  1.0  -0.0409
  C  C265  1  0.031670  0.808950  0.689260  1.0  -0.1001
  C  C266  1  0.045680  0.809620  0.745170  1.0  0.0658
  C  C267  1  0.015180  0.781380  0.786370  1.0  -0.196
  C  C268  1  0.971860  0.752950  0.769560  1.0  -0.0232
  C  C269  1  0.092750  0.838050  0.763560  1.0  -0.0022
  C  C270  1  0.112410  0.819640  0.797330  1.0  -0.1217
  C  C271  1  0.578000  0.054210  0.028490  1.0  0.6898
  C  C272  1  0.624970  0.085680  0.046910  1.0  -0.1537
  C  C273  1  0.655130  0.113700  0.006030  1.0  -0.0409
  C  C274  1  0.698330  0.142290  0.022600  1.0  -0.1001
  C  C275  1  0.712340  0.142960  0.078510  1.0  0.0658
  C  C276  1  0.681840  0.114720  0.119710  1.0  -0.196
  C  C277  1  0.638520  0.086290  0.102900  1.0  -0.0232
  C  C278  1  0.759410  0.171390  0.096900  1.0  -0.0022
  C  C279  1  0.779070  0.152980  0.130670  1.0  -0.1217
  C  C280  1  0.612460  0.857130  0.361820  1.0  0.6894
  C  C281  1  0.580990  0.872630  0.380240  1.0  -0.1544
  C  C282  1  0.552970  0.874770  0.339360  1.0  -0.0423
  C  C283  1  0.524380  0.889380  0.355930  1.0  -0.1003
  C  C284  1  0.523710  0.902720  0.411840  1.0  0.0655
  C  C285  1  0.551950  0.900460  0.453040  1.0  -0.1941
  C  C286  1  0.580380  0.885570  0.436230  1.0  -0.0197
  C  C287  1  0.495280  0.921360  0.430230  1.0  0.0011
  C  C288  1  0.513690  0.959430  0.464000  1.0  -0.1254
  C  C289  1  0.279130  0.190460  0.695150  1.0  0.6894
  C  C290  1  0.247660  0.205960  0.713570  1.0  -0.1544
  C  C291  1  0.219640  0.208100  0.672690  1.0  -0.0423
  C  C292  1  0.191050  0.222710  0.689260  1.0  -0.1003
  C  C293  1  0.190380  0.236050  0.745170  1.0  0.0655
  C  C294  1  0.218620  0.233790  0.786370  1.0  -0.1941
  C  C295  1  0.247050  0.218900  0.769560  1.0  -0.0197
  C  C296  1  0.161950  0.254690  0.763560  1.0  0.0011
  C  C297  1  0.180360  0.292760  0.797330  1.0  -0.1254
  C  C298  1  0.945790  0.523800  0.028490  1.0  0.6895
  C  C299  1  0.914320  0.539300  0.046910  1.0  -0.154
  C  C300  1  0.886300  0.541440  0.006030  1.0  -0.0423
  C  C301  1  0.857710  0.556050  0.022600  1.0  -0.1003
  C  C302  1  0.857040  0.569390  0.078510  1.0  0.0655
  C  C303  1  0.885280  0.567130  0.119710  1.0  -0.1941
  C  C304  1  0.913710  0.552240  0.102900  1.0  -0.0197
  C  C305  1  0.828610  0.588030  0.096900  1.0  0.0011
  C  C306  1  0.847020  0.626100  0.130670  1.0  -0.1254
  C  C307  1  0.142870  0.755330  0.361820  1.0  0.6907
  C  C308  1  0.127370  0.708360  0.380240  1.0  -0.1529
  C  C309  1  0.125230  0.678200  0.339360  1.0  -0.0427
  C  C310  1  0.110620  0.635000  0.355930  1.0  -0.1008
  C  C311  1  0.097280  0.620990  0.411840  1.0  0.0658
  C  C312  1  0.099540  0.651490  0.453040  1.0  -0.1957
  C  C313  1  0.114430  0.694810  0.436230  1.0  -0.0233
  C  C314  1  0.078640  0.573920  0.430230  1.0  -0.0002
  C  C315  1  0.040570  0.554260  0.464000  1.0  -0.1259
  C  C316  1  0.809540  0.088660  0.695150  1.0  0.6908
  C  C317  1  0.794040  0.041690  0.713570  1.0  -0.1529
  C  C318  1  0.791900  0.011530  0.672690  1.0  -0.0427
  C  C319  1  0.777290  0.968330  0.689260  1.0  -0.1008
  C  C320  1  0.763950  0.954320  0.745170  1.0  0.0658
  C  C321  1  0.766210  0.984820  0.786370  1.0  -0.1957
  C  C322  1  0.781100  0.028140  0.769560  1.0  -0.0233
  C  C323  1  0.745310  0.907250  0.763560  1.0  -0.0002
  C  C324  1  0.707240  0.887590  0.797330  1.0  -0.1259
  C  C325  1  0.476200  0.422000  0.028490  1.0  0.6907
  C  C326  1  0.460700  0.375030  0.046910  1.0  -0.1528
  C  C327  1  0.458560  0.344870  0.006030  1.0  -0.0427
  C  C328  1  0.443950  0.301670  0.022600  1.0  -0.1008
  C  C329  1  0.430610  0.287660  0.078510  1.0  0.0658
  C  C330  1  0.432870  0.318160  0.119710  1.0  -0.1957
  C  C331  1  0.447760  0.361480  0.102900  1.0  -0.0233
  C  C332  1  0.411970  0.240590  0.096900  1.0  -0.0002
  C  C333  1  0.373900  0.220930  0.130670  1.0  -0.1259
  C  C334  1  0.387540  0.244670  0.638180  1.0  0.6906
  C  C335  1  0.419010  0.291640  0.619760  1.0  -0.1525
  C  C336  1  0.447030  0.321800  0.660640  1.0  -0.0423
  C  C337  1  0.475620  0.365000  0.644070  1.0  -0.1008
  C  C338  1  0.476290  0.379010  0.588160  1.0  0.0657
  C  C339  1  0.448050  0.348510  0.546960  1.0  -0.1937
  C  C340  1  0.419620  0.305190  0.563770  1.0  -0.0218
  C  C341  1  0.504720  0.426080  0.569770  1.0  -0.0011
  C  C342  1  0.486310  0.445740  0.536000  1.0  -0.1268
  C  C343  1  0.054210  0.578000  0.971510  1.0  0.6906
  C  C344  1  0.085680  0.624970  0.953090  1.0  -0.1527
  C  C345  1  0.113700  0.655130  0.993970  1.0  -0.0423
  C  C346  1  0.142290  0.698330  0.977400  1.0  -0.1008
  C  C347  1  0.142960  0.712340  0.921490  1.0  0.0657
  C  C348  1  0.114720  0.681840  0.880290  1.0  -0.1937
  C  C349  1  0.086290  0.638520  0.897100  1.0  -0.0218
  C  C350  1  0.171390  0.759410  0.903100  1.0  -0.0011
  C  C351  1  0.152980  0.779070  0.869330  1.0  -0.1268
  C  C352  1  0.720870  0.911340  0.304850  1.0  0.6906
  C  C353  1  0.752340  0.958310  0.286430  1.0  -0.1525
  C  C354  1  0.780360  0.988470  0.327310  1.0  -0.0423
  C  C355  1  0.808950  0.031670  0.310740  1.0  -0.1008
  C  C356  1  0.809620  0.045680  0.254830  1.0  0.0657
  C  C357  1  0.781380  0.015180  0.213630  1.0  -0.1937
  C  C358  1  0.752950  0.971860  0.230440  1.0  -0.0218
  C  C359  1  0.838050  0.092750  0.236440  1.0  -0.0011
  C  C360  1  0.819640  0.112410  0.202670  1.0  -0.1268
  C  C361  1  0.857130  0.612460  0.638180  1.0  0.6902
  C  C362  1  0.872630  0.580990  0.619760  1.0  -0.1537
  C  C363  1  0.874770  0.552970  0.660640  1.0  -0.0426
  C  C364  1  0.889380  0.524380  0.644070  1.0  -0.0994
  C  C365  1  0.902720  0.523710  0.588160  1.0  0.0659
  C  C366  1  0.900460  0.551950  0.546960  1.0  -0.1947
  C  C367  1  0.885570  0.580380  0.563770  1.0  -0.0232
  C  C368  1  0.921360  0.495280  0.569770  1.0  -0.002
  C  C369  1  0.959430  0.513690  0.536000  1.0  -0.1227
  C  C370  1  0.523800  0.945790  0.971510  1.0  0.6903
  C  C371  1  0.539300  0.914320  0.953090  1.0  -0.1533
  C  C372  1  0.541440  0.886300  0.993970  1.0  -0.0426
  C  C373  1  0.556050  0.857710  0.977400  1.0  -0.0994
  C  C374  1  0.569390  0.857040  0.921490  1.0  0.0659
  C  C375  1  0.567130  0.885280  0.880290  1.0  -0.1947
  C  C376  1  0.552240  0.913710  0.897100  1.0  -0.0232
  C  C377  1  0.588030  0.828610  0.903100  1.0  -0.002
  C  C378  1  0.626100  0.847020  0.869330  1.0  -0.1227
  C  C379  1  0.190460  0.279130  0.304850  1.0  0.6902
  C  C380  1  0.205960  0.247660  0.286430  1.0  -0.1537
  C  C381  1  0.208100  0.219640  0.327310  1.0  -0.0426
  C  C382  1  0.222710  0.191050  0.310740  1.0  -0.0994
  C  C383  1  0.236050  0.190380  0.254830  1.0  0.0659
  C  C384  1  0.233790  0.218620  0.213630  1.0  -0.1947
  C  C385  1  0.218900  0.247050  0.230440  1.0  -0.0232
  C  C386  1  0.254690  0.161950  0.236440  1.0  -0.002
  C  C387  1  0.292760  0.180360  0.202670  1.0  -0.1227
  C  C388  1  0.755330  0.142870  0.638180  1.0  0.6899
  C  C389  1  0.708360  0.127370  0.619760  1.0  -0.1548
  C  C390  1  0.678200  0.125230  0.660640  1.0  -0.0429
  C  C391  1  0.635000  0.110620  0.644070  1.0  -0.1008
  C  C392  1  0.620990  0.097280  0.588160  1.0  0.0651
  C  C393  1  0.651490  0.099540  0.546960  1.0  -0.192
  C  C394  1  0.694810  0.114430  0.563770  1.0  -0.0195
  C  C395  1  0.573920  0.078640  0.569770  1.0  0.0009
  C  C396  1  0.554260  0.040570  0.536000  1.0  -0.1268
  C  C397  1  0.422000  0.476200  0.971510  1.0  0.6899
  C  C398  1  0.375030  0.460700  0.953090  1.0  -0.1548
  C  C399  1  0.344870  0.458560  0.993970  1.0  -0.0429
  C  C400  1  0.301670  0.443950  0.977400  1.0  -0.1009
  C  C401  1  0.287660  0.430610  0.921490  1.0  0.0651
  C  C402  1  0.318160  0.432870  0.880290  1.0  -0.192
  C  C403  1  0.361480  0.447760  0.897100  1.0  -0.0195
  C  C404  1  0.240590  0.411970  0.903100  1.0  0.0009
  C  C405  1  0.220930  0.373900  0.869330  1.0  -0.1268
  C  C406  1  0.088660  0.809540  0.304850  1.0  0.69
  C  C407  1  0.041690  0.794040  0.286430  1.0  -0.1548
  C  C408  1  0.011530  0.791900  0.327310  1.0  -0.0429
  C  C409  1  0.968330  0.777290  0.310740  1.0  -0.1008
  C  C410  1  0.954320  0.763950  0.254830  1.0  0.0651
  C  C411  1  0.984820  0.766210  0.213630  1.0  -0.192
  C  C412  1  0.028140  0.781100  0.230440  1.0  -0.0195
  C  C413  1  0.907250  0.745310  0.236440  1.0  0.0009
  C  C414  1  0.887590  0.707240  0.202670  1.0  -0.1268
  C  C415  1  0.755330  0.612460  0.638180  1.0  0.6902
  C  C416  1  0.708360  0.580990  0.619760  1.0  -0.1549
  C  C417  1  0.678200  0.552970  0.660640  1.0  -0.042
  C  C418  1  0.635000  0.524380  0.644070  1.0  -0.1006
  C  C419  1  0.620990  0.523710  0.588160  1.0  0.0656
  C  C420  1  0.651490  0.551950  0.546960  1.0  -0.1952
  C  C421  1  0.694810  0.580380  0.563770  1.0  -0.0233
  C  C422  1  0.573920  0.495280  0.569770  1.0  -0.0021
  C  C423  1  0.554260  0.513690  0.536000  1.0  -0.1218
  C  C424  1  0.422000  0.945790  0.971510  1.0  0.6902
  C  C425  1  0.375030  0.914320  0.953090  1.0  -0.1551
  C  C426  1  0.344870  0.886300  0.993970  1.0  -0.042
  C  C427  1  0.301670  0.857710  0.977400  1.0  -0.1007
  C  C428  1  0.287660  0.857040  0.921490  1.0  0.0656
  C  C429  1  0.318160  0.885280  0.880290  1.0  -0.1952
  C  C430  1  0.361480  0.913710  0.897100  1.0  -0.0233
  C  C431  1  0.240590  0.828610  0.903100  1.0  -0.0021
  C  C432  1  0.220930  0.847020  0.869330  1.0  -0.1218
  C  C433  1  0.088660  0.279130  0.304850  1.0  0.6902
  C  C434  1  0.041690  0.247660  0.286430  1.0  -0.1549
  C  C435  1  0.011530  0.219640  0.327310  1.0  -0.042
  C  C436  1  0.968330  0.191050  0.310740  1.0  -0.1006
  C  C437  1  0.954320  0.190380  0.254830  1.0  0.0656
  C  C438  1  0.984820  0.218620  0.213630  1.0  -0.1952
  C  C439  1  0.028140  0.247050  0.230440  1.0  -0.0233
  C  C440  1  0.907250  0.161950  0.236440  1.0  -0.0021
  C  C441  1  0.887590  0.180360  0.202670  1.0  -0.1218
  C  C442  1  0.387540  0.142870  0.638180  1.0  0.6905
  C  C443  1  0.419010  0.127370  0.619760  1.0  -0.1543
  C  C444  1  0.447030  0.125230  0.660640  1.0  -0.0434
  C  C445  1  0.475620  0.110620  0.644070  1.0  -0.1004
  C  C446  1  0.476290  0.097280  0.588160  1.0  0.0643
  C  C447  1  0.448050  0.099540  0.546960  1.0  -0.1918
  C  C448  1  0.419620  0.114430  0.563770  1.0  -0.0193
  C  C449  1  0.504720  0.078640  0.569770  1.0  -0.0005
  C  C450  1  0.486310  0.040570  0.536000  1.0  -0.1282
  C  C451  1  0.054210  0.476200  0.971510  1.0  0.6905
  C  C452  1  0.085680  0.460700  0.953090  1.0  -0.1539
  C  C453  1  0.113700  0.458560  0.993970  1.0  -0.0434
  C  C454  1  0.142290  0.443950  0.977400  1.0  -0.1004
  C  C455  1  0.142960  0.430610  0.921490  1.0  0.0643
  C  C456  1  0.114720  0.432870  0.880290  1.0  -0.1918
  C  C457  1  0.086290  0.447760  0.897100  1.0  -0.0193
  C  C458  1  0.171390  0.411970  0.903100  1.0  -0.0005
  C  C459  1  0.152980  0.373900  0.869330  1.0  -0.1282
  C  C460  1  0.720870  0.809540  0.304850  1.0  0.6904
  C  C461  1  0.752340  0.794040  0.286430  1.0  -0.1543
  C  C462  1  0.780360  0.791900  0.327310  1.0  -0.0434
  C  C463  1  0.808950  0.777290  0.310740  1.0  -0.1004
  C  C464  1  0.809620  0.763950  0.254830  1.0  0.0643
  C  C465  1  0.781380  0.766210  0.213630  1.0  -0.1918
  C  C466  1  0.752950  0.781100  0.230440  1.0  -0.0193
  C  C467  1  0.838050  0.745310  0.236440  1.0  -0.0005
  C  C468  1  0.819640  0.707240  0.202670  1.0  -0.1282
  C  C469  1  0.857130  0.244670  0.638180  1.0  0.6905
  C  C470  1  0.872630  0.291640  0.619760  1.0  -0.1524
  C  C471  1  0.874770  0.321800  0.660640  1.0  -0.0425
  C  C472  1  0.889380  0.365000  0.644070  1.0  -0.102
  C  C473  1  0.902720  0.379010  0.588160  1.0  0.0656
  C  C474  1  0.900460  0.348510  0.546960  1.0  -0.1945
  C  C475  1  0.885570  0.305190  0.563770  1.0  -0.0224
  C  C476  1  0.921360  0.426080  0.569770  1.0  -0.0003
  C  C477  1  0.959430  0.445740  0.536000  1.0  -0.1252
  C  C478  1  0.523800  0.578000  0.971510  1.0  0.6904
  C  C479  1  0.539300  0.624970  0.953090  1.0  -0.1524
  C  C480  1  0.541440  0.655130  0.993970  1.0  -0.0425
  C  C481  1  0.556050  0.698330  0.977400  1.0  -0.102
  C  C482  1  0.569390  0.712340  0.921490  1.0  0.0656
  C  C483  1  0.567130  0.681840  0.880290  1.0  -0.1945
  C  C484  1  0.552240  0.638520  0.897100  1.0  -0.0224
  C  C485  1  0.588030  0.759410  0.903100  1.0  -0.0003
  C  C486  1  0.626100  0.779070  0.869330  1.0  -0.1252
  C  C487  1  0.190460  0.911340  0.304850  1.0  0.6905
  C  C488  1  0.205960  0.958310  0.286430  1.0  -0.1524
  C  C489  1  0.208100  0.988470  0.327310  1.0  -0.0425
  C  C490  1  0.222710  0.031670  0.310740  1.0  -0.102
  C  C491  1  0.236050  0.045680  0.254830  1.0  0.0656
  C  C492  1  0.233790  0.015180  0.213630  1.0  -0.1945
  C  C493  1  0.218900  0.971860  0.230440  1.0  -0.0224
  C  C494  1  0.254690  0.092750  0.236440  1.0  -0.0003
  C  C495  1  0.292760  0.112410  0.202670  1.0  -0.1252
  C  C496  1  0.612460  0.755330  0.361820  1.0  0.6905
  C  C497  1  0.580990  0.708360  0.380240  1.0  -0.1527
  C  C498  1  0.552970  0.678200  0.339360  1.0  -0.0418
  C  C499  1  0.524380  0.635000  0.355930  1.0  -0.1016
  C  C500  1  0.523710  0.620990  0.411840  1.0  0.0661
  C  C501  1  0.551950  0.651490  0.453040  1.0  -0.1954
  C  C502  1  0.580380  0.694810  0.436230  1.0  -0.0211
  C  C503  1  0.495280  0.573920  0.430230  1.0  0.0007
  C  C504  1  0.513690  0.554260  0.464000  1.0  -0.1246
  C  C505  1  0.279130  0.088660  0.695150  1.0  0.6905
  C  C506  1  0.247660  0.041690  0.713570  1.0  -0.1526
  C  C507  1  0.219640  0.011530  0.672690  1.0  -0.0418
  C  C508  1  0.191050  0.968330  0.689260  1.0  -0.1016
  C  C509  1  0.190380  0.954320  0.745170  1.0  0.0661
  C  C510  1  0.218620  0.984820  0.786370  1.0  -0.1954
  C  C511  1  0.247050  0.028140  0.769560  1.0  -0.0211
  C  C512  1  0.161950  0.907250  0.763560  1.0  0.0007
  C  C513  1  0.180360  0.887590  0.797330  1.0  -0.1246
  C  C514  1  0.945790  0.422000  0.028490  1.0  0.6905
  C  C515  1  0.914320  0.375030  0.046910  1.0  -0.1528
  C  C516  1  0.886300  0.344870  0.006030  1.0  -0.0418
  C  C517  1  0.857710  0.301670  0.022600  1.0  -0.1016
  C  C518  1  0.857040  0.287660  0.078510  1.0  0.0661
  C  C519  1  0.885280  0.318160  0.119710  1.0  -0.1954
  C  C520  1  0.913710  0.361480  0.102900  1.0  -0.0211
  C  C521  1  0.828610  0.240590  0.096900  1.0  0.0007
  C  C522  1  0.847020  0.220930  0.130670  1.0  -0.1246
  C  C523  1  0.142870  0.387540  0.361820  1.0  0.6895
  C  C524  1  0.127370  0.419010  0.380240  1.0  -0.1546
  C  C525  1  0.125230  0.447030  0.339360  1.0  -0.0419
  C  C526  1  0.110620  0.475620  0.355930  1.0  -0.1003
  C  C527  1  0.097280  0.476290  0.411840  1.0  0.0655
  C  C528  1  0.099540  0.448050  0.453040  1.0  -0.1965
  C  C529  1  0.114430  0.419620  0.436230  1.0  -0.0223
  C  C530  1  0.078640  0.504720  0.430230  1.0  -0.002
  C  C531  1  0.040570  0.486310  0.464000  1.0  -0.1225
  C  C532  1  0.809540  0.720870  0.695150  1.0  0.6895
  C  C533  1  0.794040  0.752340  0.713570  1.0  -0.1546
  C  C534  1  0.791900  0.780360  0.672690  1.0  -0.0419
  C  C535  1  0.777290  0.808950  0.689260  1.0  -0.1003
  C  C536  1  0.763950  0.809620  0.745170  1.0  0.0655
  C  C537  1  0.766210  0.781380  0.786370  1.0  -0.1965
  C  C538  1  0.781100  0.752950  0.769560  1.0  -0.0223
  C  C539  1  0.745310  0.838050  0.763560  1.0  -0.002
  C  C540  1  0.707240  0.819640  0.797330  1.0  -0.1225
  C  C541  1  0.476200  0.054210  0.028490  1.0  0.6896
  C  C542  1  0.460700  0.085680  0.046910  1.0  -0.1542
  C  C543  1  0.458560  0.113700  0.006030  1.0  -0.042
  C  C544  1  0.443950  0.142290  0.022600  1.0  -0.1003
  C  C545  1  0.430610  0.142960  0.078510  1.0  0.0655
  C  C546  1  0.432870  0.114720  0.119710  1.0  -0.1965
  C  C547  1  0.447760  0.086290  0.102900  1.0  -0.0223
  C  C548  1  0.411970  0.171390  0.096900  1.0  -0.002
  C  C549  1  0.373900  0.152980  0.130670  1.0  -0.1225
  C  C550  1  0.244670  0.857130  0.361820  1.0  0.6901
  C  C551  1  0.291640  0.872630  0.380240  1.0  -0.1543
  C  C552  1  0.321800  0.874770  0.339360  1.0  -0.0414
  C  C553  1  0.365000  0.889380  0.355930  1.0  -0.1006
  C  C554  1  0.379010  0.902720  0.411840  1.0  0.0645
  C  C555  1  0.348510  0.900460  0.453040  1.0  -0.1941
  C  C556  1  0.305190  0.885570  0.436230  1.0  -0.0198
  C  C557  1  0.426080  0.921360  0.430230  1.0  -1e-04
  C  C558  1  0.445740  0.959430  0.464000  1.0  -0.1274
  C  C559  1  0.911340  0.190460  0.695150  1.0  0.6902
  C  C560  1  0.958310  0.205960  0.713570  1.0  -0.1543
  C  C561  1  0.988470  0.208100  0.672690  1.0  -0.0414
  C  C562  1  0.031670  0.222710  0.689260  1.0  -0.1006
  C  C563  1  0.045680  0.236050  0.745170  1.0  0.0645
  C  C564  1  0.015180  0.233790  0.786370  1.0  -0.1941
  C  C565  1  0.971860  0.218900  0.769560  1.0  -0.0198
  C  C566  1  0.092750  0.254690  0.763560  1.0  -1e-04
  C  C567  1  0.112410  0.292760  0.797330  1.0  -0.1274
  C  C568  1  0.578000  0.523800  0.028490  1.0  0.6901
  C  C569  1  0.624970  0.539300  0.046910  1.0  -0.1542
  C  C570  1  0.655130  0.541440  0.006030  1.0  -0.0415
  C  C571  1  0.698330  0.556050  0.022600  1.0  -0.1006
  C  C572  1  0.712340  0.569390  0.078510  1.0  0.0645
  C  C573  1  0.681840  0.567130  0.119710  1.0  -0.1941
  C  C574  1  0.638520  0.552240  0.102900  1.0  -0.0198
  C  C575  1  0.759410  0.588030  0.096900  1.0  -1e-04
  C  C576  1  0.779070  0.626100  0.130670  1.0  -0.1274
  C  C577  1  0.490000  0.510000  0.481900  1.0  -0.0078
  C  C578  1  0.451190  0.548810  0.414140  1.0  0.1804
  C  C579  1  0.413170  0.586830  0.412000  1.0  -0.0278
  C  C580  1  0.156670  0.843330  0.815230  1.0  -0.0078
  C  C581  1  0.117860  0.882140  0.747470  1.0  0.1804
  C  C582  1  0.079840  0.920160  0.745330  1.0  -0.0278
  C  C583  1  0.823330  0.176670  0.148570  1.0  -0.0078
  C  C584  1  0.784520  0.215480  0.080810  1.0  0.1804
  C  C585  1  0.746500  0.253500  0.078670  1.0  -0.0278
  C  C586  1  0.490000  0.980000  0.481900  1.0  -0.0026
  C  C587  1  0.451190  0.902380  0.414140  1.0  0.1811
  C  C588  1  0.413170  0.826340  0.412000  1.0  -0.0226
  C  C589  1  0.156670  0.313330  0.815230  1.0  -0.0026
  C  C590  1  0.117860  0.235710  0.747470  1.0  0.1811
  C  C591  1  0.079840  0.159670  0.745330  1.0  -0.0226
  C  C592  1  0.823330  0.646670  0.148570  1.0  -0.0026
  C  C593  1  0.784520  0.569050  0.080810  1.0  0.1811
  C  C594  1  0.746500  0.493010  0.078670  1.0  -0.0226
  C  C595  1  0.020000  0.510000  0.481900  1.0  -0.0055
  C  C596  1  0.097620  0.548810  0.414140  1.0  0.1798
  C  C597  1  0.173660  0.586830  0.412000  1.0  -0.027
  C  C598  1  0.686670  0.843330  0.815230  1.0  -0.0055
  C  C599  1  0.764290  0.882140  0.747470  1.0  0.1798
  C  C600  1  0.840330  0.920160  0.745330  1.0  -0.027
  C  C601  1  0.353330  0.176670  0.148570  1.0  -0.0055
  C  C602  1  0.430950  0.215480  0.080810  1.0  0.1798
  C  C603  1  0.506990  0.253500  0.078670  1.0  -0.027
  C  C604  1  0.510000  0.490000  0.518100  1.0  -0.007
  C  C605  1  0.548810  0.451190  0.585860  1.0  0.1794
  C  C606  1  0.586830  0.413170  0.588000  1.0  -0.0257
  C  C607  1  0.176670  0.823330  0.851430  1.0  -0.007
  C  C608  1  0.215480  0.784520  0.919190  1.0  0.1794
  C  C609  1  0.253500  0.746500  0.921330  1.0  -0.0257
  C  C610  1  0.843330  0.156670  0.184770  1.0  -0.007
  C  C611  1  0.882140  0.117860  0.252530  1.0  0.1794
  C  C612  1  0.920160  0.079840  0.254670  1.0  -0.0257
  C  C613  1  0.980000  0.490000  0.518100  1.0  -0.0052
  C  C614  1  0.902380  0.451190  0.585860  1.0  0.1799
  C  C615  1  0.826340  0.413170  0.588000  1.0  -0.0275
  C  C616  1  0.646670  0.823330  0.851430  1.0  -0.0052
  C  C617  1  0.569050  0.784520  0.919190  1.0  0.1799
  C  C618  1  0.493010  0.746500  0.921330  1.0  -0.0275
  C  C619  1  0.313330  0.156670  0.184770  1.0  -0.0052
  C  C620  1  0.235710  0.117860  0.252530  1.0  0.1799
  C  C621  1  0.159670  0.079840  0.254670  1.0  -0.0275
  C  C622  1  0.510000  0.020000  0.518100  1.0  -0.0028
  C  C623  1  0.548810  0.097620  0.585860  1.0  0.18
  C  C624  1  0.586830  0.173660  0.588000  1.0  -0.0249
  C  C625  1  0.176670  0.353330  0.851430  1.0  -0.0028
  C  C626  1  0.215480  0.430950  0.919190  1.0  0.18
  C  C627  1  0.253500  0.506990  0.921330  1.0  -0.0249
  C  C628  1  0.843330  0.686670  0.184770  1.0  -0.0028
  C  C629  1  0.882140  0.764290  0.252530  1.0  0.18
  C  C630  1  0.920160  0.840330  0.254670  1.0  -0.0249
  O  O631  1  0.219880  0.361370  0.401150  1.0  -0.574
  O  O632  1  0.234090  0.389460  0.310410  1.0  -0.5734
  O  O633  1  0.886550  0.694700  0.734480  1.0  -0.5742
  O  O634  1  0.900760  0.722790  0.643740  1.0  -0.5736
  O  O635  1  0.553210  0.028040  0.067820  1.0  -0.574
  O  O636  1  0.567420  0.056130  0.977080  1.0  -0.5734
  O  O637  1  0.638630  0.858510  0.401150  1.0  -0.5735
  O  O638  1  0.610540  0.844630  0.310410  1.0  -0.5724
  O  O639  1  0.305300  0.191840  0.734480  1.0  -0.5734
  O  O640  1  0.277210  0.177960  0.643740  1.0  -0.5728
  O  O641  1  0.971960  0.525180  0.067820  1.0  -0.5734
  O  O642  1  0.943870  0.511300  0.977080  1.0  -0.5724
  O  O643  1  0.141490  0.780120  0.401150  1.0  -0.5739
  O  O644  1  0.155370  0.765910  0.310410  1.0  -0.5721
  O  O645  1  0.808160  0.113450  0.734480  1.0  -0.5743
  O  O646  1  0.822040  0.099240  0.643740  1.0  -0.5721
  O  O647  1  0.474820  0.446790  0.067820  1.0  -0.5741
  O  O648  1  0.488700  0.432580  0.977080  1.0  -0.5722
  O  O649  1  0.361370  0.219880  0.598850  1.0  -0.5755
  O  O650  1  0.389460  0.234090  0.689590  1.0  -0.5717
  O  O651  1  0.028040  0.553210  0.932180  1.0  -0.5755
  O  O652  1  0.056130  0.567420  0.022920  1.0  -0.5718
  O  O653  1  0.694700  0.886550  0.265520  1.0  -0.5755
  O  O654  1  0.722790  0.900760  0.356260  1.0  -0.5717
  O  O655  1  0.858510  0.638630  0.598850  1.0  -0.5754
  O  O656  1  0.844630  0.610540  0.689590  1.0  -0.5738
  O  O657  1  0.525180  0.971960  0.932180  1.0  -0.5753
  O  O658  1  0.511300  0.943870  0.022920  1.0  -0.5737
  O  O659  1  0.191840  0.305300  0.265520  1.0  -0.5757
  O  O660  1  0.177960  0.277210  0.356260  1.0  -0.5735
  O  O661  1  0.780120  0.141490  0.598850  1.0  -0.5749
  O  O662  1  0.765910  0.155370  0.689590  1.0  -0.5735
  O  O663  1  0.446790  0.474820  0.932180  1.0  -0.575
  O  O664  1  0.432580  0.488700  0.022920  1.0  -0.5735
  O  O665  1  0.113450  0.808160  0.265520  1.0  -0.5753
  O  O666  1  0.099240  0.822040  0.356260  1.0  -0.5734
  O  O667  1  0.780120  0.638630  0.598850  1.0  -0.5752
  O  O668  1  0.765910  0.610540  0.689590  1.0  -0.5733
  O  O669  1  0.446790  0.971960  0.932180  1.0  -0.5752
  O  O670  1  0.432580  0.943870  0.022920  1.0  -0.5733
  O  O671  1  0.113450  0.305300  0.265520  1.0  -0.5754
  O  O672  1  0.099240  0.277210  0.356260  1.0  -0.5735
  O  O673  1  0.361370  0.141490  0.598850  1.0  -0.575
  O  O674  1  0.389460  0.155370  0.689590  1.0  -0.5722
  O  O675  1  0.028040  0.474820  0.932180  1.0  -0.5749
  O  O676  1  0.056130  0.488700  0.022920  1.0  -0.5721
  O  O677  1  0.694700  0.808160  0.265520  1.0  -0.5752
  O  O678  1  0.722790  0.822040  0.356260  1.0  -0.5723
  O  O679  1  0.858510  0.219880  0.598850  1.0  -0.5748
  O  O680  1  0.844630  0.234090  0.689590  1.0  -0.5731
  O  O681  1  0.525180  0.553210  0.932180  1.0  -0.5749
  O  O682  1  0.511300  0.567420  0.022920  1.0  -0.5731
  O  O683  1  0.191840  0.886550  0.265520  1.0  -0.5751
  O  O684  1  0.177960  0.900760  0.356260  1.0  -0.573
  O  O685  1  0.638630  0.780120  0.401150  1.0  -0.5726
  O  O686  1  0.610540  0.765910  0.310410  1.0  -0.5726
  O  O687  1  0.305300  0.113450  0.734480  1.0  -0.5729
  O  O688  1  0.277210  0.099240  0.643740  1.0  -0.5725
  O  O689  1  0.971960  0.446790  0.067820  1.0  -0.5726
  O  O690  1  0.943870  0.432580  0.977080  1.0  -0.5726
  O  O691  1  0.141490  0.361370  0.401150  1.0  -0.5738
  O  O692  1  0.155370  0.389460  0.310410  1.0  -0.573
  O  O693  1  0.808160  0.694700  0.734480  1.0  -0.5738
  O  O694  1  0.822040  0.722790  0.643740  1.0  -0.573
  O  O695  1  0.474820  0.028040  0.067820  1.0  -0.5736
  O  O696  1  0.488700  0.056130  0.977080  1.0  -0.573
  O  O697  1  0.219880  0.858510  0.401150  1.0  -0.5726
  O  O698  1  0.234090  0.844630  0.310410  1.0  -0.5718
  O  O699  1  0.886550  0.191840  0.734480  1.0  -0.5729
  O  O700  1  0.900760  0.177960  0.643740  1.0  -0.5717
  O  O701  1  0.553210  0.525180  0.067820  1.0  -0.5728
  O  O702  1  0.567420  0.511300  0.977080  1.0  -0.5718
  O  O703  1  0.432500  0.567500  0.378170  1.0  -0.3369
  O  O704  1  0.099170  0.900830  0.711500  1.0  -0.3369
  O  O705  1  0.765830  0.234170  0.044840  1.0  -0.3369
  O  O706  1  0.432500  0.865000  0.378170  1.0  -0.3395
  O  O707  1  0.099170  0.198330  0.711500  1.0  -0.3395
  O  O708  1  0.765830  0.531670  0.044840  1.0  -0.3395
  O  O709  1  0.135000  0.567500  0.378170  1.0  -0.3375
  O  O710  1  0.801670  0.900830  0.711500  1.0  -0.3375
  O  O711  1  0.468330  0.234170  0.044840  1.0  -0.3375
  O  O712  1  0.567500  0.432500  0.621830  1.0  -0.343
  O  O713  1  0.234170  0.765830  0.955160  1.0  -0.343
  O  O714  1  0.900830  0.099170  0.288500  1.0  -0.343
  O  O715  1  0.865000  0.432500  0.621830  1.0  -0.3418
  O  O716  1  0.531670  0.765830  0.955160  1.0  -0.3418
  O  O717  1  0.198330  0.099170  0.288500  1.0  -0.3418
  O  O718  1  0.567500  0.135000  0.621830  1.0  -0.3426
  O  O719  1  0.234170  0.468330  0.955160  1.0  -0.3426
  O  O720  1  0.900830  0.801670  0.288500  1.0  -0.3426
