# generated using pymatgen
data_CuH13C21O5
_symmetry_space_group_name_H-M   'P 1'
_cell_length_a   35.83410000
_cell_length_b   35.83410000
_cell_length_c   15.59030000
_cell_angle_alpha   90.00000000
_cell_angle_beta   90.00000000
_cell_angle_gamma   120.00000000
_symmetry_Int_Tables_number   1
_chemical_formula_structural   CuH13C21O5
_chemical_formula_sum   'Cu18 H234 C378 O90'
_cell_volume   17337.16596471
_cell_formula_units_Z   18
loop_
 _symmetry_equiv_pos_site_id
 _symmetry_equiv_pos_as_xyz
  1  'x, y, z'
loop_
 _atom_site_type_symbol
 _atom_site_label
 _atom_site_symmetry_multiplicity
 _atom_site_fract_x
 _atom_site_fract_y
 _atom_site_fract_z
 _atom_site_occupancy
 _atom_site_charge
  Cu  Cu1  1  0.503500  0.006990  0.416160  1.0  0.9085
  Cu  Cu2  1  0.170160  0.340320  0.749490  1.0  0.9085
  Cu  Cu3  1  0.836830  0.673660  0.082830  1.0  0.9085
  Cu  Cu4  1  0.993010  0.496500  0.416160  1.0  0.9092
  Cu  Cu5  1  0.659680  0.829840  0.749490  1.0  0.9092
  Cu  Cu6  1  0.326340  0.163170  0.082830  1.0  0.9092
  Cu  Cu7  1  0.503500  0.496500  0.416160  1.0  0.9087
  Cu  Cu8  1  0.170160  0.829840  0.749490  1.0  0.9086
  Cu  Cu9  1  0.836830  0.163170  0.082830  1.0  0.9087
  Cu  Cu10  1  0.006990  0.503500  0.583840  1.0  0.9061
  Cu  Cu11  1  0.673660  0.836830  0.917170  1.0  0.9061
  Cu  Cu12  1  0.340320  0.170160  0.250510  1.0  0.9061
  Cu  Cu13  1  0.496500  0.993010  0.583840  1.0  0.9058
  Cu  Cu14  1  0.163170  0.326340  0.917170  1.0  0.9058
  Cu  Cu15  1  0.829840  0.659680  0.250510  1.0  0.9058
  Cu  Cu16  1  0.496500  0.503500  0.583840  1.0  0.9065
  Cu  Cu17  1  0.163170  0.836830  0.917170  1.0  0.9065
  Cu  Cu18  1  0.829840  0.170160  0.250510  1.0  0.9064
  H  H19  1  0.641900  0.103600  0.399800  1.0  0.1049
  H  H20  1  0.714400  0.152600  0.423600  1.0  0.1059
  H  H21  1  0.696100  0.132100  0.676700  1.0  0.1087
  H  H22  1  0.622900  0.086000  0.653100  1.0  0.1141
  H  H23  1  0.763300  0.124500  0.633100  1.0  0.1189
  H  H24  1  0.769800  0.274900  0.595600  1.0  0.1231
  H  H25  1  0.308570  0.436930  0.733130  1.0  0.1049
  H  H26  1  0.381070  0.485930  0.756930  1.0  0.1059
  H  H27  1  0.362770  0.465430  0.010030  1.0  0.1087
  H  H28  1  0.289570  0.419330  0.986430  1.0  0.1141
  H  H29  1  0.429970  0.457830  0.966430  1.0  0.1193
  H  H30  1  0.436470  0.608230  0.928930  1.0  0.1231
  H  H31  1  0.975230  0.770270  0.066470  1.0  0.1049
  H  H32  1  0.047730  0.819270  0.090270  1.0  0.106
  H  H33  1  0.029430  0.798770  0.343370  1.0  0.1087
  H  H34  1  0.956230  0.752670  0.319770  1.0  0.1142
  H  H35  1  0.096630  0.791170  0.299770  1.0  0.1189
  H  H36  1  0.103130  0.941570  0.262270  1.0  0.1223
  H  H37  1  0.896400  0.538300  0.399800  1.0  0.1051
  H  H38  1  0.847400  0.561800  0.423600  1.0  0.1059
  H  H39  1  0.867900  0.564000  0.676700  1.0  0.1084
  H  H40  1  0.914000  0.536900  0.653100  1.0  0.1143
  H  H41  1  0.875500  0.638800  0.633100  1.0  0.1174
  H  H42  1  0.725100  0.494900  0.595600  1.0  0.1258
  H  H43  1  0.563070  0.871630  0.733130  1.0  0.1051
  H  H44  1  0.514070  0.895130  0.756930  1.0  0.1059
  H  H45  1  0.534570  0.897330  0.010030  1.0  0.1084
  H  H46  1  0.580670  0.870230  0.986430  1.0  0.1143
  H  H47  1  0.542170  0.972130  0.966430  1.0  0.1173
  H  H48  1  0.391770  0.828230  0.928930  1.0  0.1258
  H  H49  1  0.229730  0.204970  0.066470  1.0  0.1051
  H  H50  1  0.180730  0.228470  0.090270  1.0  0.105
  H  H51  1  0.201230  0.230670  0.343370  1.0  0.1108
  H  H52  1  0.247330  0.203570  0.319770  1.0  0.1143
  H  H53  1  0.208830  0.305470  0.299770  1.0  0.1174
  H  H54  1  0.058430  0.161570  0.262270  1.0  0.1245
  H  H55  1  0.461700  0.358100  0.399800  1.0  0.1047
  H  H56  1  0.438200  0.285600  0.423600  1.0  0.1053
  H  H57  1  0.436000  0.303900  0.676700  1.0  0.1105
  H  H58  1  0.463100  0.377100  0.653100  1.0  0.1139
  H  H59  1  0.361200  0.236700  0.633100  1.0  0.1171
  H  H60  1  0.505100  0.230200  0.595600  1.0  0.1238
  H  H61  1  0.128370  0.691430  0.733130  1.0  0.1047
  H  H62  1  0.104870  0.618930  0.756930  1.0  0.1053
  H  H63  1  0.102670  0.637230  0.010030  1.0  0.1105
  H  H64  1  0.129770  0.710430  0.986430  1.0  0.1139
  H  H65  1  0.027870  0.570030  0.966430  1.0  0.1169
  H  H66  1  0.171770  0.563530  0.928930  1.0  0.1238
  H  H67  1  0.795030  0.024770  0.066470  1.0  0.1047
  H  H68  1  0.771530  0.952270  0.090270  1.0  0.1055
  H  H69  1  0.769330  0.970570  0.343370  1.0  0.1079
  H  H70  1  0.796430  0.043770  0.319770  1.0  0.1139
  H  H71  1  0.694530  0.903370  0.299770  1.0  0.1171
  H  H72  1  0.838430  0.896870  0.262270  1.0  0.1258
  H  H73  1  0.103600  0.641900  0.600200  1.0  0.1051
  H  H74  1  0.152600  0.714400  0.576400  1.0  0.1055
  H  H75  1  0.132100  0.696100  0.323300  1.0  0.1087
  H  H76  1  0.086000  0.622900  0.346900  1.0  0.1134
  H  H77  1  0.124500  0.763300  0.366900  1.0  0.1176
  H  H78  1  0.274900  0.769800  0.404400  1.0  0.123
  H  H79  1  0.770270  0.975230  0.933530  1.0  0.105
  H  H80  1  0.819270  0.047730  0.909730  1.0  0.1057
  H  H81  1  0.798770  0.029430  0.656630  1.0  0.1087
  H  H82  1  0.752670  0.956230  0.680230  1.0  0.1134
  H  H83  1  0.791170  0.096630  0.700230  1.0  0.1176
  H  H84  1  0.941570  0.103130  0.737730  1.0  0.1221
  H  H85  1  0.436930  0.308570  0.266870  1.0  0.1051
  H  H86  1  0.485930  0.381070  0.243070  1.0  0.1055
  H  H87  1  0.465430  0.362770  0.989970  1.0  0.1087
  H  H88  1  0.419330  0.289570  0.013570  1.0  0.1134
  H  H89  1  0.457830  0.429970  0.033570  1.0  0.1177
  H  H90  1  0.608230  0.436470  0.071070  1.0  0.123
  H  H91  1  0.538300  0.896400  0.600200  1.0  0.1049
  H  H92  1  0.561800  0.847400  0.576400  1.0  0.106
  H  H93  1  0.564000  0.867900  0.323300  1.0  0.1086
  H  H94  1  0.536900  0.914000  0.346900  1.0  0.113
  H  H95  1  0.638800  0.875500  0.366900  1.0  0.1198
  H  H96  1  0.494900  0.725100  0.404400  1.0  0.1239
  H  H97  1  0.204970  0.229730  0.933530  1.0  0.1049
  H  H98  1  0.228470  0.180730  0.909730  1.0  0.1053
  H  H99  1  0.230670  0.201230  0.656630  1.0  0.1108
  H  H100  1  0.203570  0.247330  0.680230  1.0  0.1134
  H  H101  1  0.305470  0.208830  0.700230  1.0  0.1198
  H  H102  1  0.161570  0.058430  0.737730  1.0  0.123
  H  H103  1  0.871630  0.563070  0.266870  1.0  0.1049
  H  H104  1  0.895130  0.514070  0.243070  1.0  0.106
  H  H105  1  0.897330  0.534570  0.989970  1.0  0.1086
  H  H106  1  0.870230  0.580670  0.013570  1.0  0.113
  H  H107  1  0.972130  0.542170  0.033570  1.0  0.1197
  H  H108  1  0.828230  0.391770  0.071070  1.0  0.1239
  H  H109  1  0.358100  0.461700  0.600200  1.0  0.1051
  H  H110  1  0.285600  0.438200  0.576400  1.0  0.1058
  H  H111  1  0.303900  0.436000  0.323300  1.0  0.1112
  H  H112  1  0.377100  0.463100  0.346900  1.0  0.1138
  H  H113  1  0.236700  0.361200  0.366900  1.0  0.1186
  H  H114  1  0.230200  0.505100  0.404400  1.0  0.1217
  H  H115  1  0.024770  0.795030  0.933530  1.0  0.105
  H  H116  1  0.952270  0.771530  0.909730  1.0  0.1058
  H  H117  1  0.970570  0.769330  0.656630  1.0  0.109
  H  H118  1  0.043770  0.796430  0.680230  1.0  0.1138
  H  H119  1  0.903370  0.694530  0.700230  1.0  0.1186
  H  H120  1  0.896870  0.838430  0.737730  1.0  0.124
  H  H121  1  0.691430  0.128370  0.266870  1.0  0.1051
  H  H122  1  0.618930  0.104870  0.243070  1.0  0.1058
  H  H123  1  0.637230  0.102670  0.989970  1.0  0.1112
  H  H124  1  0.710430  0.129770  0.013570  1.0  0.1138
  H  H125  1  0.570030  0.027870  0.033570  1.0  0.1183
  H  H126  1  0.563530  0.171770  0.071070  1.0  0.1217
  H  H127  1  0.358100  0.896400  0.600200  1.0  0.1051
  H  H128  1  0.285600  0.847400  0.576400  1.0  0.1058
  H  H129  1  0.303900  0.867900  0.323300  1.0  0.1087
  H  H130  1  0.377100  0.914000  0.346900  1.0  0.1138
  H  H131  1  0.236700  0.875500  0.366900  1.0  0.12
  H  H132  1  0.230200  0.725100  0.404400  1.0  0.1223
  H  H133  1  0.024770  0.229730  0.933530  1.0  0.105
  H  H134  1  0.952270  0.180730  0.909730  1.0  0.1059
  H  H135  1  0.970570  0.201230  0.656630  1.0  0.1087
  H  H136  1  0.043770  0.247330  0.680230  1.0  0.1138
  H  H137  1  0.903370  0.208830  0.700230  1.0  0.12
  H  H138  1  0.896870  0.058430  0.737730  1.0  0.1213
  H  H139  1  0.691430  0.563070  0.266870  1.0  0.1051
  H  H140  1  0.618930  0.514070  0.243070  1.0  0.1058
  H  H141  1  0.637230  0.534570  0.989970  1.0  0.1087
  H  H142  1  0.710430  0.580670  0.013570  1.0  0.1138
  H  H143  1  0.570030  0.542170  0.033570  1.0  0.1201
  H  H144  1  0.563530  0.391770  0.071070  1.0  0.1223
  H  H145  1  0.103600  0.461700  0.600200  1.0  0.1051
  H  H146  1  0.152600  0.438200  0.576400  1.0  0.1059
  H  H147  1  0.132100  0.436000  0.323300  1.0  0.1091
  H  H148  1  0.086000  0.463100  0.346900  1.0  0.1131
  H  H149  1  0.124500  0.361200  0.366900  1.0  0.1182
  H  H150  1  0.274900  0.505100  0.404400  1.0  0.1242
  H  H151  1  0.770270  0.795030  0.933530  1.0  0.1051
  H  H152  1  0.819270  0.771530  0.909730  1.0  0.1053
  H  H153  1  0.798770  0.769330  0.656630  1.0  0.1111
  H  H154  1  0.752670  0.796430  0.680230  1.0  0.1135
  H  H155  1  0.791170  0.694530  0.700230  1.0  0.1182
  H  H156  1  0.941570  0.838430  0.737730  1.0  0.1225
  H  H157  1  0.436930  0.128370  0.266870  1.0  0.1051
  H  H158  1  0.485930  0.104870  0.243070  1.0  0.1059
  H  H159  1  0.465430  0.102670  0.989970  1.0  0.109
  H  H160  1  0.419330  0.129770  0.013570  1.0  0.1131
  H  H161  1  0.457830  0.027870  0.033570  1.0  0.1181
  H  H162  1  0.608230  0.171770  0.071070  1.0  0.1242
  H  H163  1  0.538300  0.641900  0.600200  1.0  0.1052
  H  H164  1  0.561800  0.714400  0.576400  1.0  0.1053
  H  H165  1  0.564000  0.696100  0.323300  1.0  0.111
  H  H166  1  0.536900  0.622900  0.346900  1.0  0.1132
  H  H167  1  0.638800  0.763300  0.366900  1.0  0.119
  H  H168  1  0.494900  0.769800  0.404400  1.0  0.122
  H  H169  1  0.204970  0.975230  0.933530  1.0  0.1051
  H  H170  1  0.228470  0.047730  0.909730  1.0  0.1053
  H  H171  1  0.230670  0.029430  0.656630  1.0  0.109
  H  H172  1  0.203570  0.956230  0.680230  1.0  0.1132
  H  H173  1  0.305470  0.096630  0.700230  1.0  0.119
  H  H174  1  0.161570  0.103130  0.737730  1.0  0.1241
  H  H175  1  0.871630  0.308570  0.266870  1.0  0.1052
  H  H176  1  0.895130  0.381070  0.243070  1.0  0.1053
  H  H177  1  0.897330  0.362770  0.989970  1.0  0.111
  H  H178  1  0.870230  0.289570  0.013570  1.0  0.1132
  H  H179  1  0.972130  0.429970  0.033570  1.0  0.1188
  H  H180  1  0.828230  0.436470  0.071070  1.0  0.122
  H  H181  1  0.896400  0.358100  0.399800  1.0  0.1048
  H  H182  1  0.847400  0.285600  0.423600  1.0  0.1054
  H  H183  1  0.867900  0.303900  0.676700  1.0  0.1077
  H  H184  1  0.914000  0.377100  0.653100  1.0  0.1141
  H  H185  1  0.875500  0.236700  0.633100  1.0  0.1183
  H  H186  1  0.725100  0.230200  0.595600  1.0  0.1241
  H  H187  1  0.563070  0.691430  0.733130  1.0  0.1048
  H  H188  1  0.514070  0.618930  0.756930  1.0  0.1054
  H  H189  1  0.534570  0.637230  0.010030  1.0  0.1077
  H  H190  1  0.580670  0.710430  0.986430  1.0  0.1141
  H  H191  1  0.542170  0.570030  0.966430  1.0  0.1184
  H  H192  1  0.391770  0.563530  0.928930  1.0  0.1241
  H  H193  1  0.229730  0.024770  0.066470  1.0  0.1048
  H  H194  1  0.180730  0.952270  0.090270  1.0  0.1055
  H  H195  1  0.201230  0.970570  0.343370  1.0  0.1077
  H  H196  1  0.247330  0.043770  0.319770  1.0  0.1142
  H  H197  1  0.208830  0.903370  0.299770  1.0  0.1183
  H  H198  1  0.058430  0.896870  0.262270  1.0  0.1232
  H  H199  1  0.461700  0.103600  0.399800  1.0  0.105
  H  H200  1  0.438200  0.152600  0.423600  1.0  0.1058
  H  H201  1  0.436000  0.132100  0.676700  1.0  0.1083
  H  H202  1  0.463100  0.086000  0.653100  1.0  0.1143
  H  H203  1  0.361200  0.124500  0.633100  1.0  0.1197
  H  H204  1  0.505100  0.274900  0.595600  1.0  0.124
  H  H205  1  0.128370  0.436930  0.733130  1.0  0.105
  H  H206  1  0.104870  0.485930  0.756930  1.0  0.1058
  H  H207  1  0.102670  0.465430  0.010030  1.0  0.1082
  H  H208  1  0.129770  0.419330  0.986430  1.0  0.1143
  H  H209  1  0.027870  0.457830  0.966430  1.0  0.1196
  H  H210  1  0.171770  0.608230  0.928930  1.0  0.124
  H  H211  1  0.795030  0.770270  0.066470  1.0  0.105
  H  H212  1  0.771530  0.819270  0.090270  1.0  0.105
  H  H213  1  0.769330  0.798770  0.343370  1.0  0.1106
  H  H214  1  0.796430  0.752670  0.319770  1.0  0.1145
  H  H215  1  0.694530  0.791170  0.299770  1.0  0.1197
  H  H216  1  0.838430  0.941570  0.262270  1.0  0.1224
  H  H217  1  0.641900  0.538300  0.399800  1.0  0.1051
  H  H218  1  0.714400  0.561800  0.423600  1.0  0.1054
  H  H219  1  0.696100  0.564000  0.676700  1.0  0.1111
  H  H220  1  0.622900  0.536900  0.653100  1.0  0.1138
  H  H221  1  0.763300  0.638800  0.633100  1.0  0.1177
  H  H222  1  0.769800  0.494900  0.595600  1.0  0.1234
  H  H223  1  0.308570  0.871630  0.733130  1.0  0.1051
  H  H224  1  0.381070  0.895130  0.756930  1.0  0.1054
  H  H225  1  0.362770  0.897330  0.010030  1.0  0.1111
  H  H226  1  0.289570  0.870230  0.986430  1.0  0.1138
  H  H227  1  0.429970  0.972130  0.966430  1.0  0.1175
  H  H228  1  0.436470  0.828230  0.928930  1.0  0.1234
  H  H229  1  0.975230  0.204970  0.066470  1.0  0.105
  H  H230  1  0.047730  0.228470  0.090270  1.0  0.1056
  H  H231  1  0.029430  0.230670  0.343370  1.0  0.1087
  H  H232  1  0.956230  0.203570  0.319770  1.0  0.1138
  H  H233  1  0.096630  0.305470  0.299770  1.0  0.1177
  H  H234  1  0.103130  0.161570  0.262270  1.0  0.1257
  H  H235  1  0.733600  0.266400  0.525900  1.0  0.1501
  H  H236  1  0.400270  0.599730  0.859230  1.0  0.1501
  H  H237  1  0.066930  0.933070  0.192570  1.0  0.15
  H  H238  1  0.733600  0.467200  0.525900  1.0  0.1503
  H  H239  1  0.400270  0.800530  0.859230  1.0  0.1503
  H  H240  1  0.066930  0.133870  0.192570  1.0  0.1503
  H  H241  1  0.532800  0.266400  0.525900  1.0  0.1515
  H  H242  1  0.199470  0.599730  0.859230  1.0  0.1515
  H  H243  1  0.866130  0.933070  0.192570  1.0  0.1515
  H  H244  1  0.266400  0.733600  0.474100  1.0  0.1519
  H  H245  1  0.933070  0.066930  0.807430  1.0  0.1518
  H  H246  1  0.599730  0.400270  0.140770  1.0  0.1519
  H  H247  1  0.467200  0.733600  0.474100  1.0  0.1508
  H  H248  1  0.133870  0.066930  0.807430  1.0  0.1508
  H  H249  1  0.800530  0.400270  0.140770  1.0  0.1508
  H  H250  1  0.266400  0.532800  0.474100  1.0  0.1493
  H  H251  1  0.933070  0.866130  0.807430  1.0  0.1493
  H  H252  1  0.599730  0.199470  0.140770  1.0  0.1493
  C  C253  1  0.578450  0.057050  0.509300  1.0  0.6811
  C  C254  1  0.625430  0.089130  0.523500  1.0  -0.1227
  C  C255  1  0.652720  0.109260  0.456800  1.0  -0.056
  C  C256  1  0.696210  0.138010  0.470900  1.0  -0.1651
  C  C257  1  0.713230  0.145570  0.552200  1.0  0.0668
  C  C258  1  0.685360  0.126350  0.619600  1.0  -0.1957
  C  C259  1  0.641700  0.098580  0.605600  1.0  -0.0411
  C  C260  1  0.760380  0.172380  0.569800  1.0  0.0126
  C  C261  1  0.780020  0.153950  0.617100  1.0  -0.1418
  C  C262  1  0.245120  0.390380  0.842630  1.0  0.6811
  C  C263  1  0.292100  0.422460  0.856830  1.0  -0.1227
  C  C264  1  0.319390  0.442590  0.790130  1.0  -0.056
  C  C265  1  0.362880  0.471340  0.804230  1.0  -0.1651
  C  C266  1  0.379900  0.478900  0.885530  1.0  0.0668
  C  C267  1  0.352030  0.459680  0.952930  1.0  -0.1957
  C  C268  1  0.308370  0.431910  0.938930  1.0  -0.0409
  C  C269  1  0.427050  0.505710  0.903130  1.0  0.0126
  C  C270  1  0.446690  0.487280  0.950430  1.0  -0.1418
  C  C271  1  0.911780  0.723720  0.175970  1.0  0.6811
  C  C272  1  0.958760  0.755800  0.190170  1.0  -0.1227
  C  C273  1  0.986050  0.775930  0.123470  1.0  -0.056
  C  C274  1  0.029540  0.804680  0.137570  1.0  -0.1651
  C  C275  1  0.046560  0.812240  0.218870  1.0  0.0668
  C  C276  1  0.018690  0.793020  0.286270  1.0  -0.1957
  C  C277  1  0.975030  0.765250  0.272270  1.0  -0.0411
  C  C278  1  0.093710  0.839050  0.236470  1.0  0.0126
  C  C279  1  0.113350  0.820620  0.283770  1.0  -0.1418
  C  C280  1  0.942950  0.521400  0.509300  1.0  0.6796
  C  C281  1  0.910870  0.536300  0.523500  1.0  -0.1225
  C  C282  1  0.890740  0.543460  0.456800  1.0  -0.0571
  C  C283  1  0.861990  0.558200  0.470900  1.0  -0.1655
  C  C284  1  0.854430  0.567660  0.552200  1.0  0.0654
  C  C285  1  0.873650  0.559010  0.619600  1.0  -0.1954
  C  C286  1  0.901420  0.543120  0.605600  1.0  -0.0403
  C  C287  1  0.827620  0.588000  0.569800  1.0  0.013
  C  C288  1  0.846050  0.626070  0.617100  1.0  -0.1419
  C  C289  1  0.609620  0.854730  0.842630  1.0  0.6796
  C  C290  1  0.577540  0.869630  0.856830  1.0  -0.1225
  C  C291  1  0.557410  0.876790  0.790130  1.0  -0.0571
  C  C292  1  0.528660  0.891530  0.804230  1.0  -0.1655
  C  C293  1  0.521100  0.900990  0.885530  1.0  0.0654
  C  C294  1  0.540320  0.892340  0.952930  1.0  -0.1954
  C  C295  1  0.568090  0.876450  0.938930  1.0  -0.0405
  C  C296  1  0.494290  0.921330  0.903130  1.0  0.013
  C  C297  1  0.512720  0.959400  0.950430  1.0  -0.1419
  C  C298  1  0.276280  0.188070  0.175970  1.0  0.6796
  C  C299  1  0.244200  0.202970  0.190170  1.0  -0.1225
  C  C300  1  0.224070  0.210130  0.123470  1.0  -0.0571
  C  C301  1  0.195320  0.224870  0.137570  1.0  -0.1655
  C  C302  1  0.187760  0.234330  0.218870  1.0  0.0654
  C  C303  1  0.206980  0.225680  0.286270  1.0  -0.1954
  C  C304  1  0.234750  0.209790  0.272270  1.0  -0.0403
  C  C305  1  0.160950  0.254670  0.236470  1.0  0.013
  C  C306  1  0.179380  0.292740  0.283770  1.0  -0.1419
  C  C307  1  0.478600  0.421550  0.509300  1.0  0.6818
  C  C308  1  0.463700  0.374570  0.523500  1.0  -0.122
  C  C309  1  0.456540  0.347280  0.456800  1.0  -0.0551
  C  C310  1  0.441800  0.303790  0.470900  1.0  -0.1642
  C  C311  1  0.432340  0.286770  0.552200  1.0  0.0678
  C  C312  1  0.440990  0.314640  0.619600  1.0  -0.1952
  C  C313  1  0.456880  0.358300  0.605600  1.0  -0.0413
  C  C314  1  0.412000  0.239620  0.569800  1.0  0.0107
  C  C315  1  0.373930  0.219980  0.617100  1.0  -0.1415
  C  C316  1  0.145270  0.754880  0.842630  1.0  0.6818
  C  C317  1  0.130370  0.707900  0.856830  1.0  -0.122
  C  C318  1  0.123210  0.680610  0.790130  1.0  -0.0551
  C  C319  1  0.108470  0.637120  0.804230  1.0  -0.1642
  C  C320  1  0.099010  0.620100  0.885530  1.0  0.0678
  C  C321  1  0.107660  0.647970  0.952930  1.0  -0.1951
  C  C322  1  0.123550  0.691630  0.938930  1.0  -0.0414
  C  C323  1  0.078670  0.572950  0.903130  1.0  0.0107
  C  C324  1  0.040600  0.553310  0.950430  1.0  -0.1415
  C  C325  1  0.811930  0.088220  0.175970  1.0  0.6818
  C  C326  1  0.797030  0.041240  0.190170  1.0  -0.122
  C  C327  1  0.789870  0.013950  0.123470  1.0  -0.0551
  C  C328  1  0.775130  0.970460  0.137570  1.0  -0.1642
  C  C329  1  0.765670  0.953440  0.218870  1.0  0.0678
  C  C330  1  0.774320  0.981310  0.286270  1.0  -0.1952
  C  C331  1  0.790210  0.024970  0.272270  1.0  -0.0413
  C  C332  1  0.745330  0.906290  0.236470  1.0  0.0107
  C  C333  1  0.707260  0.886650  0.283770  1.0  -0.1415
  C  C334  1  0.057050  0.578450  0.490700  1.0  0.6815
  C  C335  1  0.089130  0.625430  0.476500  1.0  -0.1217
  C  C336  1  0.109260  0.652720  0.543200  1.0  -0.0553
  C  C337  1  0.138010  0.696210  0.529100  1.0  -0.1646
  C  C338  1  0.145570  0.713230  0.447800  1.0  0.068
  C  C339  1  0.126350  0.685360  0.380400  1.0  -0.1956
  C  C340  1  0.098580  0.641700  0.394400  1.0  -0.0413
  C  C341  1  0.172380  0.760380  0.430200  1.0  0.0109
  C  C342  1  0.153950  0.780020  0.382900  1.0  -0.1409
  C  C343  1  0.723720  0.911780  0.824030  1.0  0.6815
  C  C344  1  0.755800  0.958760  0.809830  1.0  -0.1217
  C  C345  1  0.775930  0.986050  0.876530  1.0  -0.0553
  C  C346  1  0.804680  0.029540  0.862430  1.0  -0.1646
  C  C347  1  0.812240  0.046560  0.781130  1.0  0.068
  C  C348  1  0.793020  0.018690  0.713730  1.0  -0.1956
  C  C349  1  0.765250  0.975030  0.727730  1.0  -0.0413
  C  C350  1  0.839050  0.093710  0.763530  1.0  0.0109
  C  C351  1  0.820620  0.113350  0.716230  1.0  -0.1409
  C  C352  1  0.390380  0.245120  0.157370  1.0  0.6815
  C  C353  1  0.422460  0.292100  0.143170  1.0  -0.1217
  C  C354  1  0.442590  0.319390  0.209870  1.0  -0.0553
  C  C355  1  0.471340  0.362880  0.195770  1.0  -0.1646
  C  C356  1  0.478900  0.379900  0.114470  1.0  0.068
  C  C357  1  0.459680  0.352030  0.047070  1.0  -0.1957
  C  C358  1  0.431910  0.308370  0.061070  1.0  -0.041
  C  C359  1  0.505710  0.427050  0.096870  1.0  0.0109
  C  C360  1  0.487280  0.446690  0.049570  1.0  -0.1408
  C  C361  1  0.521400  0.942950  0.490700  1.0  0.6816
  C  C362  1  0.536300  0.910870  0.476500  1.0  -0.1229
  C  C363  1  0.543460  0.890740  0.543200  1.0  -0.0568
  C  C364  1  0.558200  0.861990  0.529100  1.0  -0.1645
  C  C365  1  0.567660  0.854430  0.447800  1.0  0.0664
  C  C366  1  0.559010  0.873650  0.380400  1.0  -0.1966
  C  C367  1  0.543120  0.901420  0.394400  1.0  -0.0408
  C  C368  1  0.588000  0.827620  0.430200  1.0  0.0127
  C  C369  1  0.626070  0.846050  0.382900  1.0  -0.1423
  C  C370  1  0.188070  0.276280  0.824030  1.0  0.6816
  C  C371  1  0.202970  0.244200  0.809830  1.0  -0.1229
  C  C372  1  0.210130  0.224070  0.876530  1.0  -0.0568
  C  C373  1  0.224870  0.195320  0.862430  1.0  -0.1645
  C  C374  1  0.234330  0.187760  0.781130  1.0  0.0664
  C  C375  1  0.225680  0.206980  0.713730  1.0  -0.1966
  C  C376  1  0.209790  0.234750  0.727730  1.0  -0.0408
  C  C377  1  0.254670  0.160950  0.763530  1.0  0.0127
  C  C378  1  0.292740  0.179380  0.716230  1.0  -0.1423
  C  C379  1  0.854730  0.609620  0.157370  1.0  0.6816
  C  C380  1  0.869630  0.577540  0.143170  1.0  -0.1229
  C  C381  1  0.876790  0.557410  0.209870  1.0  -0.0568
  C  C382  1  0.891530  0.528660  0.195770  1.0  -0.1645
  C  C383  1  0.900990  0.521100  0.114470  1.0  0.0664
  C  C384  1  0.892340  0.540320  0.047070  1.0  -0.1965
  C  C385  1  0.876450  0.568090  0.061070  1.0  -0.041
  C  C386  1  0.921330  0.494290  0.096870  1.0  0.0127
  C  C387  1  0.959400  0.512720  0.049570  1.0  -0.1423
  C  C388  1  0.421550  0.478600  0.490700  1.0  0.6799
  C  C389  1  0.374570  0.463700  0.476500  1.0  -0.1228
  C  C390  1  0.347280  0.456540  0.543200  1.0  -0.0573
  C  C391  1  0.303790  0.441800  0.529100  1.0  -0.1652
  C  C392  1  0.286770  0.432340  0.447800  1.0  0.0653
  C  C393  1  0.314640  0.440990  0.380400  1.0  -0.196
  C  C394  1  0.358300  0.456880  0.394400  1.0  -0.0411
  C  C395  1  0.239620  0.412000  0.430200  1.0  0.013
  C  C396  1  0.219980  0.373930  0.382900  1.0  -0.1412
  C  C397  1  0.088220  0.811930  0.824030  1.0  0.6799
  C  C398  1  0.041240  0.797030  0.809830  1.0  -0.1228
  C  C399  1  0.013950  0.789870  0.876530  1.0  -0.0573
  C  C400  1  0.970460  0.775130  0.862430  1.0  -0.1652
  C  C401  1  0.953440  0.765670  0.781130  1.0  0.0653
  C  C402  1  0.981310  0.774320  0.713730  1.0  -0.196
  C  C403  1  0.024970  0.790210  0.727730  1.0  -0.0411
  C  C404  1  0.906290  0.745330  0.763530  1.0  0.013
  C  C405  1  0.886650  0.707260  0.716230  1.0  -0.1412
  C  C406  1  0.754880  0.145270  0.157370  1.0  0.6799
  C  C407  1  0.707900  0.130370  0.143170  1.0  -0.1228
  C  C408  1  0.680610  0.123210  0.209870  1.0  -0.0573
  C  C409  1  0.637120  0.108470  0.195770  1.0  -0.1652
  C  C410  1  0.620100  0.099010  0.114470  1.0  0.0653
  C  C411  1  0.647970  0.107660  0.047070  1.0  -0.196
  C  C412  1  0.691630  0.123550  0.061070  1.0  -0.0412
  C  C413  1  0.572950  0.078670  0.096870  1.0  0.013
  C  C414  1  0.553310  0.040600  0.049570  1.0  -0.1413
  C  C415  1  0.421550  0.942950  0.490700  1.0  0.6807
  C  C416  1  0.374570  0.910870  0.476500  1.0  -0.1242
  C  C417  1  0.347280  0.890740  0.543200  1.0  -0.0573
  C  C418  1  0.303790  0.861990  0.529100  1.0  -0.1651
  C  C419  1  0.286770  0.854430  0.447800  1.0  0.0664
  C  C420  1  0.314640  0.873650  0.380400  1.0  -0.197
  C  C421  1  0.358300  0.901420  0.394400  1.0  -0.0422
  C  C422  1  0.239620  0.827620  0.430200  1.0  0.0133
  C  C423  1  0.219980  0.846050  0.382900  1.0  -0.1416
  C  C424  1  0.088220  0.276280  0.824030  1.0  0.6807
  C  C425  1  0.041240  0.244200  0.809830  1.0  -0.1242
  C  C426  1  0.013950  0.224070  0.876530  1.0  -0.0573
  C  C427  1  0.970460  0.195320  0.862430  1.0  -0.1651
  C  C428  1  0.953440  0.187760  0.781130  1.0  0.0664
  C  C429  1  0.981310  0.206980  0.713730  1.0  -0.1971
  C  C430  1  0.024970  0.234750  0.727730  1.0  -0.0422
  C  C431  1  0.906290  0.160950  0.763530  1.0  0.0133
  C  C432  1  0.886650  0.179380  0.716230  1.0  -0.1417
  C  C433  1  0.754880  0.609620  0.157370  1.0  0.6807
  C  C434  1  0.707900  0.577540  0.143170  1.0  -0.1242
  C  C435  1  0.680610  0.557410  0.209870  1.0  -0.0573
  C  C436  1  0.637120  0.528660  0.195770  1.0  -0.1651
  C  C437  1  0.620100  0.521100  0.114470  1.0  0.0664
  C  C438  1  0.647970  0.540320  0.047070  1.0  -0.1971
  C  C439  1  0.691630  0.568090  0.061070  1.0  -0.042
  C  C440  1  0.572950  0.494290  0.096870  1.0  0.0134
  C  C441  1  0.553310  0.512720  0.049570  1.0  -0.1416
  C  C442  1  0.057050  0.478600  0.490700  1.0  0.6802
  C  C443  1  0.089130  0.463700  0.476500  1.0  -0.1227
  C  C444  1  0.109260  0.456540  0.543200  1.0  -0.0572
  C  C445  1  0.138010  0.441800  0.529100  1.0  -0.1639
  C  C446  1  0.145570  0.432340  0.447800  1.0  0.0658
  C  C447  1  0.126350  0.440990  0.380400  1.0  -0.1963
  C  C448  1  0.098580  0.456880  0.394400  1.0  -0.0408
  C  C449  1  0.172380  0.412000  0.430200  1.0  0.0125
  C  C450  1  0.153950  0.373930  0.382900  1.0  -0.1418
  C  C451  1  0.723720  0.811930  0.824030  1.0  0.6802
  C  C452  1  0.755800  0.797030  0.809830  1.0  -0.1227
  C  C453  1  0.775930  0.789870  0.876530  1.0  -0.0572
  C  C454  1  0.804680  0.775130  0.862430  1.0  -0.1639
  C  C455  1  0.812240  0.765670  0.781130  1.0  0.0658
  C  C456  1  0.793020  0.774320  0.713730  1.0  -0.1963
  C  C457  1  0.765250  0.790210  0.727730  1.0  -0.0408
  C  C458  1  0.839050  0.745330  0.763530  1.0  0.0125
  C  C459  1  0.820620  0.707260  0.716230  1.0  -0.1418
  C  C460  1  0.390380  0.145270  0.157370  1.0  0.6802
  C  C461  1  0.422460  0.130370  0.143170  1.0  -0.1227
  C  C462  1  0.442590  0.123210  0.209870  1.0  -0.0572
  C  C463  1  0.471340  0.108470  0.195770  1.0  -0.1639
  C  C464  1  0.478900  0.099010  0.114470  1.0  0.0658
  C  C465  1  0.459680  0.107660  0.047070  1.0  -0.1962
  C  C466  1  0.431910  0.123550  0.061070  1.0  -0.041
  C  C467  1  0.505710  0.078670  0.096870  1.0  0.0125
  C  C468  1  0.487280  0.040600  0.049570  1.0  -0.1418
  C  C469  1  0.521400  0.578450  0.490700  1.0  0.6812
  C  C470  1  0.536300  0.625430  0.476500  1.0  -0.1217
  C  C471  1  0.543460  0.652720  0.543200  1.0  -0.0549
  C  C472  1  0.558200  0.696210  0.529100  1.0  -0.1655
  C  C473  1  0.567660  0.713230  0.447800  1.0  0.0666
  C  C474  1  0.559010  0.685360  0.380400  1.0  -0.1957
  C  C475  1  0.543120  0.641700  0.394400  1.0  -0.0416
  C  C476  1  0.588000  0.760380  0.430200  1.0  0.0116
  C  C477  1  0.626070  0.780020  0.382900  1.0  -0.1404
  C  C478  1  0.188070  0.911780  0.824030  1.0  0.6812
  C  C479  1  0.202970  0.958760  0.809830  1.0  -0.1217
  C  C480  1  0.210130  0.986050  0.876530  1.0  -0.0549
  C  C481  1  0.224870  0.029540  0.862430  1.0  -0.1656
  C  C482  1  0.234330  0.046560  0.781130  1.0  0.0666
  C  C483  1  0.225680  0.018690  0.713730  1.0  -0.1957
  C  C484  1  0.209790  0.975030  0.727730  1.0  -0.0416
  C  C485  1  0.254670  0.093710  0.763530  1.0  0.0116
  C  C486  1  0.292740  0.113350  0.716230  1.0  -0.1404
  C  C487  1  0.854730  0.245120  0.157370  1.0  0.6812
  C  C488  1  0.869630  0.292100  0.143170  1.0  -0.1217
  C  C489  1  0.876790  0.319390  0.209870  1.0  -0.0549
  C  C490  1  0.891530  0.362880  0.195770  1.0  -0.1655
  C  C491  1  0.900990  0.379900  0.114470  1.0  0.0666
  C  C492  1  0.892340  0.352030  0.047070  1.0  -0.1957
  C  C493  1  0.876450  0.308370  0.061070  1.0  -0.0417
  C  C494  1  0.921330  0.427050  0.096870  1.0  0.0116
  C  C495  1  0.959400  0.446690  0.049570  1.0  -0.1404
  C  C496  1  0.942950  0.421550  0.509300  1.0  0.6816
  C  C497  1  0.910870  0.374570  0.523500  1.0  -0.122
  C  C498  1  0.890740  0.347280  0.456800  1.0  -0.0549
  C  C499  1  0.861990  0.303790  0.470900  1.0  -0.1649
  C  C500  1  0.854430  0.286770  0.552200  1.0  0.0664
  C  C501  1  0.873650  0.314640  0.619600  1.0  -0.1952
  C  C502  1  0.901420  0.358300  0.605600  1.0  -0.0403
  C  C503  1  0.827620  0.239620  0.569800  1.0  0.0116
  C  C504  1  0.846050  0.219980  0.617100  1.0  -0.1408
  C  C505  1  0.609620  0.754880  0.842630  1.0  0.6816
  C  C506  1  0.577540  0.707900  0.856830  1.0  -0.122
  C  C507  1  0.557410  0.680610  0.790130  1.0  -0.0549
  C  C508  1  0.528660  0.637120  0.804230  1.0  -0.1649
  C  C509  1  0.521100  0.620100  0.885530  1.0  0.0664
  C  C510  1  0.540320  0.647970  0.952930  1.0  -0.1952
  C  C511  1  0.568090  0.691630  0.938930  1.0  -0.04
  C  C512  1  0.494290  0.572950  0.903130  1.0  0.0116
  C  C513  1  0.512720  0.553310  0.950430  1.0  -0.1407
  C  C514  1  0.276280  0.088220  0.175970  1.0  0.6816
  C  C515  1  0.244200  0.041240  0.190170  1.0  -0.122
  C  C516  1  0.224070  0.013950  0.123470  1.0  -0.0549
  C  C517  1  0.195320  0.970460  0.137570  1.0  -0.1649
  C  C518  1  0.187760  0.953440  0.218870  1.0  0.0664
  C  C519  1  0.206980  0.981310  0.286270  1.0  -0.1952
  C  C520  1  0.234750  0.024970  0.272270  1.0  -0.0403
  C  C521  1  0.160950  0.906290  0.236470  1.0  0.0116
  C  C522  1  0.179380  0.886650  0.283770  1.0  -0.1408
  C  C523  1  0.478600  0.057050  0.509300  1.0  0.6803
  C  C524  1  0.463700  0.089130  0.523500  1.0  -0.1234
  C  C525  1  0.456540  0.109260  0.456800  1.0  -0.0566
  C  C526  1  0.441800  0.138010  0.470900  1.0  -0.1652
  C  C527  1  0.432340  0.145570  0.552200  1.0  0.0664
  C  C528  1  0.440990  0.126350  0.619600  1.0  -0.197
  C  C529  1  0.456880  0.098580  0.605600  1.0  -0.0407
  C  C530  1  0.412000  0.172380  0.569800  1.0  0.013
  C  C531  1  0.373930  0.153950  0.617100  1.0  -0.142
  C  C532  1  0.145270  0.390380  0.842630  1.0  0.6803
  C  C533  1  0.130370  0.422460  0.856830  1.0  -0.1234
  C  C534  1  0.123210  0.442590  0.790130  1.0  -0.0566
  C  C535  1  0.108470  0.471340  0.804230  1.0  -0.1652
  C  C536  1  0.099010  0.478900  0.885530  1.0  0.0664
  C  C537  1  0.107660  0.459680  0.952930  1.0  -0.197
  C  C538  1  0.123550  0.431910  0.938930  1.0  -0.0409
  C  C539  1  0.078670  0.505710  0.903130  1.0  0.013
  C  C540  1  0.040600  0.487280  0.950430  1.0  -0.142
  C  C541  1  0.811930  0.723720  0.175970  1.0  0.6803
  C  C542  1  0.797030  0.755800  0.190170  1.0  -0.1234
  C  C543  1  0.789870  0.775930  0.123470  1.0  -0.0566
  C  C544  1  0.775130  0.804680  0.137570  1.0  -0.1652
  C  C545  1  0.765670  0.812240  0.218870  1.0  0.0664
  C  C546  1  0.774320  0.793020  0.286270  1.0  -0.197
  C  C547  1  0.790210  0.765250  0.272270  1.0  -0.0407
  C  C548  1  0.745330  0.839050  0.236470  1.0  0.013
  C  C549  1  0.707260  0.820620  0.283770  1.0  -0.142
  C  C550  1  0.578450  0.521400  0.509300  1.0  0.6799
  C  C551  1  0.625430  0.536300  0.523500  1.0  -0.1228
  C  C552  1  0.652720  0.543460  0.456800  1.0  -0.057
  C  C553  1  0.696210  0.558200  0.470900  1.0  -0.1645
  C  C554  1  0.713230  0.567660  0.552200  1.0  0.0661
  C  C555  1  0.685360  0.559010  0.619600  1.0  -0.1957
  C  C556  1  0.641700  0.543120  0.605600  1.0  -0.0406
  C  C557  1  0.760380  0.588000  0.569800  1.0  0.0126
  C  C558  1  0.780020  0.626070  0.617100  1.0  -0.1426
  C  C559  1  0.245120  0.854730  0.842630  1.0  0.6799
  C  C560  1  0.292100  0.869630  0.856830  1.0  -0.1228
  C  C561  1  0.319390  0.876790  0.790130  1.0  -0.057
  C  C562  1  0.362880  0.891530  0.804230  1.0  -0.1645
  C  C563  1  0.379900  0.900990  0.885530  1.0  0.0661
  C  C564  1  0.352030  0.892340  0.952930  1.0  -0.1957
  C  C565  1  0.308370  0.876450  0.938930  1.0  -0.0408
  C  C566  1  0.427050  0.921330  0.903130  1.0  0.0126
  C  C567  1  0.446690  0.959400  0.950430  1.0  -0.1426
  C  C568  1  0.911780  0.188070  0.175970  1.0  0.6799
  C  C569  1  0.958760  0.202970  0.190170  1.0  -0.1228
  C  C570  1  0.986050  0.210130  0.123470  1.0  -0.057
  C  C571  1  0.029540  0.224870  0.137570  1.0  -0.1645
  C  C572  1  0.046560  0.234330  0.218870  1.0  0.0661
  C  C573  1  0.018690  0.225680  0.286270  1.0  -0.1957
  C  C574  1  0.975030  0.209790  0.272270  1.0  -0.0406
  C  C575  1  0.093710  0.254670  0.236470  1.0  0.0126
  C  C576  1  0.113350  0.292740  0.283770  1.0  -0.1426
  C  C577  1  0.823110  0.176890  0.642000  1.0  0.0068
  C  C578  1  0.784770  0.215230  0.545100  1.0  0.1884
  C  C579  1  0.746950  0.253050  0.559300  1.0  -0.0393
  C  C580  1  0.489780  0.510220  0.975330  1.0  0.0073
  C  C581  1  0.451440  0.548560  0.878430  1.0  0.1883
  C  C582  1  0.413620  0.586380  0.892630  1.0  -0.0393
  C  C583  1  0.156440  0.843560  0.308670  1.0  0.0068
  C  C584  1  0.118100  0.881900  0.211770  1.0  0.1884
  C  C585  1  0.080280  0.919720  0.225970  1.0  -0.0393
  C  C586  1  0.823110  0.646220  0.642000  1.0  0.0102
  C  C587  1  0.784770  0.569540  0.545100  1.0  0.1882
  C  C588  1  0.746950  0.493900  0.559300  1.0  -0.0354
  C  C589  1  0.489780  0.979550  0.975330  1.0  0.0102
  C  C590  1  0.451440  0.902870  0.878430  1.0  0.1882
  C  C591  1  0.413620  0.827230  0.892630  1.0  -0.0354
  C  C592  1  0.156440  0.312890  0.308670  1.0  0.0102
  C  C593  1  0.118100  0.236210  0.211770  1.0  0.1876
  C  C594  1  0.080280  0.160570  0.225970  1.0  -0.0353
  C  C595  1  0.353780  0.176890  0.642000  1.0  0.0064
  C  C596  1  0.430460  0.215230  0.545100  1.0  0.1885
  C  C597  1  0.506100  0.253050  0.559300  1.0  -0.0395
  C  C598  1  0.020450  0.510220  0.975330  1.0  0.0064
  C  C599  1  0.097130  0.548560  0.878430  1.0  0.1885
  C  C600  1  0.172770  0.586380  0.892630  1.0  -0.0395
  C  C601  1  0.687110  0.843560  0.308670  1.0  0.0064
  C  C602  1  0.763790  0.881900  0.211770  1.0  0.1879
  C  C603  1  0.839430  0.919720  0.225970  1.0  -0.0395
  C  C604  1  0.176890  0.823110  0.358000  1.0  0.0071
  C  C605  1  0.215230  0.784770  0.454900  1.0  0.1877
  C  C606  1  0.253050  0.746950  0.440700  1.0  -0.0379
  C  C607  1  0.843560  0.156440  0.691330  1.0  0.0071
  C  C608  1  0.881900  0.118100  0.788230  1.0  0.1877
  C  C609  1  0.919720  0.080280  0.774030  1.0  -0.0379
  C  C610  1  0.510220  0.489780  0.024670  1.0  0.0075
  C  C611  1  0.548560  0.451440  0.121570  1.0  0.1876
  C  C612  1  0.586380  0.413620  0.107370  1.0  -0.0379
  C  C613  1  0.646220  0.823110  0.358000  1.0  0.0069
  C  C614  1  0.569540  0.784770  0.454900  1.0  0.188
  C  C615  1  0.493900  0.746950  0.440700  1.0  -0.0385
  C  C616  1  0.312890  0.156440  0.691330  1.0  0.0069
  C  C617  1  0.236210  0.118100  0.788230  1.0  0.1874
  C  C618  1  0.160570  0.080280  0.774030  1.0  -0.0385
  C  C619  1  0.979550  0.489780  0.024670  1.0  0.0068
  C  C620  1  0.902870  0.451440  0.121570  1.0  0.188
  C  C621  1  0.827230  0.413620  0.107370  1.0  -0.0385
  C  C622  1  0.176890  0.353780  0.358000  1.0  0.0102
  C  C623  1  0.215230  0.430460  0.454900  1.0  0.1881
  C  C624  1  0.253050  0.506100  0.440700  1.0  -0.0362
  C  C625  1  0.843560  0.687110  0.691330  1.0  0.0101
  C  C626  1  0.881900  0.763790  0.788230  1.0  0.1876
  C  C627  1  0.919720  0.839430  0.774030  1.0  -0.0362
  C  C628  1  0.510220  0.020450  0.024670  1.0  0.01
  C  C629  1  0.548560  0.097130  0.121570  1.0  0.1882
  C  C630  1  0.586380  0.172770  0.107370  1.0  -0.0362
  O  O631  1  0.557650  0.038060  0.576930  1.0  -0.5803
  O  O632  1  0.564020  0.050720  0.435080  1.0  -0.5519
  O  O633  1  0.224320  0.371390  0.910260  1.0  -0.5802
  O  O634  1  0.230690  0.384050  0.768410  1.0  -0.5519
  O  O635  1  0.890980  0.704730  0.243600  1.0  -0.5802
  O  O636  1  0.897350  0.717390  0.101750  1.0  -0.5531
  O  O637  1  0.961940  0.519590  0.576930  1.0  -0.5804
  O  O638  1  0.949280  0.513300  0.435080  1.0  -0.5532
  O  O639  1  0.628610  0.852920  0.910260  1.0  -0.5804
  O  O640  1  0.615950  0.846630  0.768410  1.0  -0.5532
  O  O641  1  0.295270  0.186260  0.243600  1.0  -0.5805
  O  O642  1  0.282610  0.179970  0.101750  1.0  -0.5517
  O  O643  1  0.480410  0.442350  0.576930  1.0  -0.5791
  O  O644  1  0.486700  0.435980  0.435080  1.0  -0.5518
  O  O645  1  0.147080  0.775680  0.910260  1.0  -0.5792
  O  O646  1  0.153370  0.769310  0.768410  1.0  -0.552
  O  O647  1  0.813740  0.109020  0.243600  1.0  -0.579
  O  O648  1  0.820030  0.102650  0.101750  1.0  -0.552
  O  O649  1  0.038060  0.557650  0.423070  1.0  -0.5799
  O  O650  1  0.050720  0.564020  0.564920  1.0  -0.5527
  O  O651  1  0.704730  0.890980  0.756400  1.0  -0.5798
  O  O652  1  0.717390  0.897350  0.898250  1.0  -0.5538
  O  O653  1  0.371390  0.224320  0.089740  1.0  -0.5799
  O  O654  1  0.384050  0.230690  0.231590  1.0  -0.5527
  O  O655  1  0.519590  0.961940  0.423070  1.0  -0.5805
  O  O656  1  0.513300  0.949280  0.564920  1.0  -0.5543
  O  O657  1  0.186260  0.295270  0.756400  1.0  -0.5806
  O  O658  1  0.179970  0.282610  0.898250  1.0  -0.5532
  O  O659  1  0.852920  0.628610  0.089740  1.0  -0.5805
  O  O660  1  0.846630  0.615950  0.231590  1.0  -0.5543
  O  O661  1  0.442350  0.480410  0.423070  1.0  -0.5807
  O  O662  1  0.435980  0.486700  0.564920  1.0  -0.5528
  O  O663  1  0.109020  0.813740  0.756400  1.0  -0.5806
  O  O664  1  0.102650  0.820030  0.898250  1.0  -0.553
  O  O665  1  0.775680  0.147080  0.089740  1.0  -0.5808
  O  O666  1  0.769310  0.153370  0.231590  1.0  -0.553
  O  O667  1  0.442350  0.961940  0.423070  1.0  -0.5807
  O  O668  1  0.435980  0.949280  0.564920  1.0  -0.554
  O  O669  1  0.109020  0.295270  0.756400  1.0  -0.5806
  O  O670  1  0.102650  0.282610  0.898250  1.0  -0.5551
  O  O671  1  0.775680  0.628610  0.089740  1.0  -0.5806
  O  O672  1  0.769310  0.615950  0.231590  1.0  -0.5539
  O  O673  1  0.038060  0.480410  0.423070  1.0  -0.5806
  O  O674  1  0.050720  0.486700  0.564920  1.0  -0.5549
  O  O675  1  0.704730  0.813740  0.756400  1.0  -0.5806
  O  O676  1  0.717390  0.820030  0.898250  1.0  -0.5534
  O  O677  1  0.371390  0.147080  0.089740  1.0  -0.5806
  O  O678  1  0.384050  0.153370  0.231590  1.0  -0.5549
  O  O679  1  0.519590  0.557650  0.423070  1.0  -0.5804
  O  O680  1  0.513300  0.564020  0.564920  1.0  -0.5528
  O  O681  1  0.186260  0.890980  0.756400  1.0  -0.5803
  O  O682  1  0.179970  0.897350  0.898250  1.0  -0.5529
  O  O683  1  0.852920  0.224320  0.089740  1.0  -0.5805
  O  O684  1  0.846630  0.230690  0.231590  1.0  -0.553
  O  O685  1  0.961940  0.442350  0.576930  1.0  -0.58
  O  O686  1  0.949280  0.435980  0.435080  1.0  -0.5515
  O  O687  1  0.628610  0.775680  0.910260  1.0  -0.5799
  O  O688  1  0.615950  0.769310  0.768410  1.0  -0.5515
  O  O689  1  0.295270  0.109020  0.243600  1.0  -0.5799
  O  O690  1  0.282610  0.102650  0.101750  1.0  -0.5529
  O  O691  1  0.480410  0.038060  0.576930  1.0  -0.5806
  O  O692  1  0.486700  0.050720  0.435080  1.0  -0.5536
  O  O693  1  0.147080  0.371390  0.910260  1.0  -0.5806
  O  O694  1  0.153370  0.384050  0.768410  1.0  -0.5536
  O  O695  1  0.813740  0.704730  0.243600  1.0  -0.5807
  O  O696  1  0.820030  0.717390  0.101750  1.0  -0.5524
  O  O697  1  0.557650  0.519590  0.576930  1.0  -0.5804
  O  O698  1  0.564020  0.513300  0.435080  1.0  -0.5529
  O  O699  1  0.224320  0.852920  0.910260  1.0  -0.5806
  O  O700  1  0.230690  0.846630  0.768410  1.0  -0.5531
  O  O701  1  0.890980  0.186260  0.243600  1.0  -0.5803
  O  O702  1  0.897350  0.179970  0.101750  1.0  -0.553
  O  O703  1  0.765630  0.234370  0.500300  1.0  -0.3762
  O  O704  1  0.432300  0.567700  0.833630  1.0  -0.3762
  O  O705  1  0.098960  0.901040  0.166970  1.0  -0.3762
  O  O706  1  0.765630  0.531260  0.500300  1.0  -0.3719
  O  O707  1  0.432300  0.864590  0.833630  1.0  -0.3719
  O  O708  1  0.098960  0.197930  0.166970  1.0  -0.3719
  O  O709  1  0.468740  0.234370  0.500300  1.0  -0.37
  O  O710  1  0.135410  0.567700  0.833630  1.0  -0.37
  O  O711  1  0.802070  0.901040  0.166970  1.0  -0.37
  O  O712  1  0.234370  0.765630  0.499700  1.0  -0.3802
  O  O713  1  0.901040  0.098960  0.833030  1.0  -0.3802
  O  O714  1  0.567700  0.432300  0.166370  1.0  -0.3802
  O  O715  1  0.531260  0.765630  0.499700  1.0  -0.3769
  O  O716  1  0.197930  0.098960  0.833030  1.0  -0.3769
  O  O717  1  0.864590  0.432300  0.166370  1.0  -0.3769
  O  O718  1  0.234370  0.468740  0.499700  1.0  -0.3765
  O  O719  1  0.901040  0.802070  0.833030  1.0  -0.3765
  O  O720  1  0.567700  0.135410  0.166370  1.0  -0.3765
