# generated using pymatgen
data_CuH13C21O5
_symmetry_space_group_name_H-M   'P 1'
_cell_length_a   35.81860000
_cell_length_b   35.81860000
_cell_length_c   15.32050000
_cell_angle_alpha   90.00000000
_cell_angle_beta   90.00000000
_cell_angle_gamma   120.00000000
_symmetry_Int_Tables_number   1
_chemical_formula_structural   CuH13C21O5
_chemical_formula_sum   'Cu18 H234 C378 O90'
_cell_volume   17022.39974440
_cell_formula_units_Z   18
loop_
 _symmetry_equiv_pos_site_id
 _symmetry_equiv_pos_as_xyz
  1  'x, y, z'
loop_
 _atom_site_type_symbol
 _atom_site_label
 _atom_site_symmetry_multiplicity
 _atom_site_fract_x
 _atom_site_fract_y
 _atom_site_fract_z
 _atom_site_occupancy
 _atom_site_charge
  Cu  Cu1  1  0.496610  0.503390  0.585220  1.0  0.9034
  Cu  Cu2  1  0.163280  0.836720  0.918550  1.0  0.9034
  Cu  Cu3  1  0.829940  0.170060  0.251890  1.0  0.9034
  Cu  Cu4  1  0.496610  0.993220  0.585220  1.0  0.9038
  Cu  Cu5  1  0.163280  0.326550  0.918550  1.0  0.9038
  Cu  Cu6  1  0.829940  0.659890  0.251890  1.0  0.9038
  Cu  Cu7  1  0.006780  0.503390  0.585220  1.0  0.9036
  Cu  Cu8  1  0.673450  0.836720  0.918550  1.0  0.9036
  Cu  Cu9  1  0.340110  0.170060  0.251890  1.0  0.9036
  Cu  Cu10  1  0.503390  0.496610  0.414780  1.0  0.9065
  Cu  Cu11  1  0.170060  0.829940  0.748110  1.0  0.9065
  Cu  Cu12  1  0.836720  0.163280  0.081450  1.0  0.9065
  Cu  Cu13  1  0.993220  0.496610  0.414780  1.0  0.9059
  Cu  Cu14  1  0.659890  0.829940  0.748110  1.0  0.9059
  Cu  Cu15  1  0.326550  0.163280  0.081450  1.0  0.9059
  Cu  Cu16  1  0.503390  0.006780  0.414780  1.0  0.9061
  Cu  Cu17  1  0.170060  0.340110  0.748110  1.0  0.9061
  Cu  Cu18  1  0.836720  0.673450  0.081450  1.0  0.9061
  H  H19  1  0.462000  0.358600  0.398600  1.0  0.0912
  H  H20  1  0.438300  0.286000  0.421700  1.0  0.1042
  H  H21  1  0.438100  0.304400  0.678900  1.0  0.1115
  H  H22  1  0.463500  0.377200  0.654800  1.0  0.1132
  H  H23  1  0.361600  0.237000  0.634300  1.0  0.1133
  H  H24  1  0.505500  0.230400  0.595000  1.0  0.1181
  H  H25  1  0.128670  0.691930  0.731930  1.0  0.0912
  H  H26  1  0.104970  0.619330  0.755030  1.0  0.1043
  H  H27  1  0.104770  0.637730  0.012230  1.0  0.1115
  H  H28  1  0.130170  0.710530  0.988130  1.0  0.1132
  H  H29  1  0.028270  0.570330  0.967630  1.0  0.1134
  H  H30  1  0.172170  0.563730  0.928330  1.0  0.118
  H  H31  1  0.795330  0.025270  0.065270  1.0  0.0913
  H  H32  1  0.771630  0.952670  0.088370  1.0  0.1044
  H  H33  1  0.771430  0.971070  0.345570  1.0  0.1092
  H  H34  1  0.796830  0.043870  0.321470  1.0  0.1132
  H  H35  1  0.694930  0.903670  0.300970  1.0  0.1133
  H  H36  1  0.838830  0.897070  0.261670  1.0  0.1188
  H  H37  1  0.641400  0.103400  0.398600  1.0  0.0913
  H  H38  1  0.714000  0.152300  0.421700  1.0  0.105
  H  H39  1  0.695600  0.133700  0.678900  1.0  0.11
  H  H40  1  0.622800  0.086300  0.654800  1.0  0.1138
  H  H41  1  0.763000  0.124600  0.634300  1.0  0.1151
  H  H42  1  0.769600  0.275100  0.595000  1.0  0.1166
  H  H43  1  0.308070  0.436730  0.731930  1.0  0.0913
  H  H44  1  0.380670  0.485630  0.755030  1.0  0.105
  H  H45  1  0.362270  0.467030  0.012230  1.0  0.11
  H  H46  1  0.289470  0.419630  0.988130  1.0  0.1139
  H  H47  1  0.429670  0.457930  0.967630  1.0  0.1152
  H  H48  1  0.436270  0.608430  0.928330  1.0  0.1166
  H  H49  1  0.974730  0.770070  0.065270  1.0  0.0911
  H  H50  1  0.047330  0.818970  0.088370  1.0  0.105
  H  H51  1  0.028930  0.800370  0.345570  1.0  0.11
  H  H52  1  0.956130  0.752970  0.321470  1.0  0.1127
  H  H53  1  0.096330  0.791270  0.300970  1.0  0.1151
  H  H54  1  0.102930  0.941770  0.261670  1.0  0.1155
  H  H55  1  0.896600  0.538000  0.398600  1.0  0.0914
  H  H56  1  0.847700  0.561700  0.421700  1.0  0.105
  H  H57  1  0.866300  0.561900  0.678900  1.0  0.1099
  H  H58  1  0.913700  0.536500  0.654800  1.0  0.1125
  H  H59  1  0.875400  0.638400  0.634300  1.0  0.1139
  H  H60  1  0.724900  0.494500  0.595000  1.0  0.1167
  H  H61  1  0.563270  0.871330  0.731930  1.0  0.0914
  H  H62  1  0.514370  0.895030  0.755030  1.0  0.1051
  H  H63  1  0.532970  0.895230  0.012230  1.0  0.1099
  H  H64  1  0.580370  0.869830  0.988130  1.0  0.1125
  H  H65  1  0.542070  0.971730  0.967630  1.0  0.1138
  H  H66  1  0.391570  0.827830  0.928330  1.0  0.1167
  H  H67  1  0.229930  0.204670  0.065270  1.0  0.0915
  H  H68  1  0.181030  0.228370  0.088370  1.0  0.1046
  H  H69  1  0.199630  0.228570  0.345570  1.0  0.1122
  H  H70  1  0.247030  0.203170  0.321470  1.0  0.1137
  H  H71  1  0.208730  0.305070  0.300970  1.0  0.1139
  H  H72  1  0.058230  0.161170  0.261670  1.0  0.1177
  H  H73  1  0.358600  0.462000  0.601400  1.0  0.0914
  H  H74  1  0.286000  0.438300  0.578300  1.0  0.1047
  H  H75  1  0.304400  0.438100  0.321100  1.0  0.1122
  H  H76  1  0.377200  0.463500  0.345200  1.0  0.113
  H  H77  1  0.237000  0.361600  0.365700  1.0  0.1152
  H  H78  1  0.230400  0.505500  0.405000  1.0  0.1161
  H  H79  1  0.025270  0.795330  0.934730  1.0  0.0915
  H  H80  1  0.952670  0.771630  0.911630  1.0  0.1051
  H  H81  1  0.971070  0.771430  0.654430  1.0  0.1106
  H  H82  1  0.043870  0.796830  0.678530  1.0  0.113
  H  H83  1  0.903670  0.694930  0.699030  1.0  0.1152
  H  H84  1  0.897070  0.838830  0.738330  1.0  0.1165
  H  H85  1  0.691930  0.128670  0.268070  1.0  0.0914
  H  H86  1  0.619330  0.104970  0.244970  1.0  0.1048
  H  H87  1  0.637730  0.104770  0.987770  1.0  0.1122
  H  H88  1  0.710530  0.130170  0.011870  1.0  0.113
  H  H89  1  0.570330  0.028270  0.032370  1.0  0.1153
  H  H90  1  0.563730  0.172170  0.071670  1.0  0.116
  H  H91  1  0.103400  0.641400  0.601400  1.0  0.0916
  H  H92  1  0.152300  0.714000  0.578300  1.0  0.1044
  H  H93  1  0.133700  0.695600  0.321100  1.0  0.1099
  H  H94  1  0.086300  0.622800  0.345200  1.0  0.1127
  H  H95  1  0.124600  0.763000  0.365700  1.0  0.1138
  H  H96  1  0.275100  0.769600  0.405000  1.0  0.1165
  H  H97  1  0.770070  0.974730  0.934730  1.0  0.0914
  H  H98  1  0.818970  0.047330  0.911630  1.0  0.1044
  H  H99  1  0.800370  0.028930  0.654430  1.0  0.11
  H  H100  1  0.752970  0.956130  0.678530  1.0  0.1113
  H  H101  1  0.791270  0.096330  0.699030  1.0  0.1138
  H  H102  1  0.941770  0.102930  0.738330  1.0  0.1159
  H  H103  1  0.436730  0.308070  0.268070  1.0  0.0916
  H  H104  1  0.485630  0.380670  0.244970  1.0  0.1043
  H  H105  1  0.467030  0.362270  0.987770  1.0  0.11
  H  H106  1  0.419630  0.289470  0.011870  1.0  0.1128
  H  H107  1  0.457930  0.429670  0.032370  1.0  0.1139
  H  H108  1  0.608430  0.436270  0.071670  1.0  0.1166
  H  H109  1  0.538000  0.896600  0.601400  1.0  0.0913
  H  H110  1  0.561700  0.847700  0.578300  1.0  0.1052
  H  H111  1  0.561900  0.866300  0.321100  1.0  0.1102
  H  H112  1  0.536500  0.913700  0.345200  1.0  0.1114
  H  H113  1  0.638400  0.875400  0.365700  1.0  0.1163
  H  H114  1  0.494500  0.724900  0.405000  1.0  0.1155
  H  H115  1  0.204670  0.229930  0.934730  1.0  0.0913
  H  H116  1  0.228370  0.181030  0.911630  1.0  0.1048
  H  H117  1  0.228570  0.199630  0.654430  1.0  0.1119
  H  H118  1  0.203170  0.247030  0.678530  1.0  0.113
  H  H119  1  0.305070  0.208730  0.699030  1.0  0.1163
  H  H120  1  0.161170  0.058230  0.738330  1.0  0.116
  H  H121  1  0.871330  0.563270  0.268070  1.0  0.0913
  H  H122  1  0.895030  0.514370  0.244970  1.0  0.1052
  H  H123  1  0.895230  0.532970  0.987770  1.0  0.1102
  H  H124  1  0.869830  0.580370  0.011870  1.0  0.1114
  H  H125  1  0.971730  0.542070  0.032370  1.0  0.1162
  H  H126  1  0.827830  0.391570  0.071670  1.0  0.1155
  H  H127  1  0.538000  0.641400  0.601400  1.0  0.0915
  H  H128  1  0.561700  0.714000  0.578300  1.0  0.1041
  H  H129  1  0.561900  0.695600  0.321100  1.0  0.1117
  H  H130  1  0.536500  0.622800  0.345200  1.0  0.1127
  H  H131  1  0.638400  0.763000  0.365700  1.0  0.1158
  H  H132  1  0.494500  0.769600  0.405000  1.0  0.1159
  H  H133  1  0.204670  0.974730  0.934730  1.0  0.0916
  H  H134  1  0.228370  0.047330  0.911630  1.0  0.1044
  H  H135  1  0.228570  0.028930  0.654430  1.0  0.11
  H  H136  1  0.203170  0.956130  0.678530  1.0  0.1127
  H  H137  1  0.305070  0.096330  0.699030  1.0  0.1158
  H  H138  1  0.161170  0.102930  0.738330  1.0  0.117
  H  H139  1  0.871330  0.308070  0.268070  1.0  0.0915
  H  H140  1  0.895030  0.380670  0.244970  1.0  0.1042
  H  H141  1  0.895230  0.362270  0.987770  1.0  0.1117
  H  H142  1  0.869830  0.289470  0.011870  1.0  0.1127
  H  H143  1  0.971730  0.429670  0.032370  1.0  0.1159
  H  H144  1  0.827830  0.436270  0.071670  1.0  0.1159
  H  H145  1  0.358600  0.896600  0.601400  1.0  0.0914
  H  H146  1  0.286000  0.847700  0.578300  1.0  0.1052
  H  H147  1  0.304400  0.866300  0.321100  1.0  0.1104
  H  H148  1  0.377200  0.913700  0.345200  1.0  0.113
  H  H149  1  0.237000  0.875400  0.365700  1.0  0.1162
  H  H150  1  0.230400  0.724900  0.405000  1.0  0.1162
  H  H151  1  0.025270  0.229930  0.934730  1.0  0.0912
  H  H152  1  0.952670  0.181030  0.911630  1.0  0.1052
  H  H153  1  0.971070  0.199630  0.654430  1.0  0.1104
  H  H154  1  0.043870  0.247030  0.678530  1.0  0.1116
  H  H155  1  0.903670  0.208730  0.699030  1.0  0.1162
  H  H156  1  0.897070  0.058230  0.738330  1.0  0.1151
  H  H157  1  0.691930  0.563270  0.268070  1.0  0.0914
  H  H158  1  0.619330  0.514370  0.244970  1.0  0.1051
  H  H159  1  0.637730  0.532970  0.987770  1.0  0.1104
  H  H160  1  0.710530  0.580370  0.011870  1.0  0.1131
  H  H161  1  0.570330  0.542070  0.032370  1.0  0.1163
  H  H162  1  0.563730  0.391570  0.071670  1.0  0.1162
  H  H163  1  0.103400  0.462000  0.601400  1.0  0.0915
  H  H164  1  0.152300  0.438300  0.578300  1.0  0.1053
  H  H165  1  0.133700  0.438100  0.321100  1.0  0.1105
  H  H166  1  0.086300  0.463500  0.345200  1.0  0.1115
  H  H167  1  0.124600  0.361600  0.365700  1.0  0.1146
  H  H168  1  0.275100  0.505500  0.405000  1.0  0.1166
  H  H169  1  0.770070  0.795330  0.934730  1.0  0.0915
  H  H170  1  0.818970  0.771630  0.911630  1.0  0.1049
  H  H171  1  0.800370  0.771430  0.654430  1.0  0.1122
  H  H172  1  0.752970  0.796830  0.678530  1.0  0.1129
  H  H173  1  0.791270  0.694930  0.699030  1.0  0.1146
  H  H174  1  0.941770  0.838830  0.738330  1.0  0.1173
  H  H175  1  0.436730  0.128670  0.268070  1.0  0.0915
  H  H176  1  0.485630  0.104970  0.244970  1.0  0.1053
  H  H177  1  0.467030  0.104770  0.987770  1.0  0.1105
  H  H178  1  0.419630  0.130170  0.011870  1.0  0.1115
  H  H179  1  0.457930  0.028270  0.032370  1.0  0.1144
  H  H180  1  0.608430  0.172170  0.071670  1.0  0.1166
  H  H181  1  0.641400  0.538000  0.398600  1.0  0.0914
  H  H182  1  0.714000  0.561700  0.421700  1.0  0.1046
  H  H183  1  0.695600  0.561900  0.678900  1.0  0.1124
  H  H184  1  0.622800  0.536500  0.654800  1.0  0.1134
  H  H185  1  0.763000  0.638400  0.634300  1.0  0.1138
  H  H186  1  0.769600  0.494500  0.595000  1.0  0.118
  H  H187  1  0.308070  0.871330  0.731930  1.0  0.0914
  H  H188  1  0.380670  0.895030  0.755030  1.0  0.1046
  H  H189  1  0.362270  0.895230  0.012230  1.0  0.1124
  H  H190  1  0.289470  0.869830  0.988130  1.0  0.1134
  H  H191  1  0.429670  0.971730  0.967630  1.0  0.1139
  H  H192  1  0.436270  0.827830  0.928330  1.0  0.1179
  H  H193  1  0.974730  0.204670  0.065270  1.0  0.0915
  H  H194  1  0.047330  0.228370  0.088370  1.0  0.105
  H  H195  1  0.028930  0.228570  0.345570  1.0  0.1101
  H  H196  1  0.956130  0.203170  0.321470  1.0  0.1134
  H  H197  1  0.096330  0.305070  0.300970  1.0  0.1138
  H  H198  1  0.102930  0.161170  0.261670  1.0  0.1193
  H  H199  1  0.896600  0.358600  0.398600  1.0  0.0912
  H  H200  1  0.847700  0.286000  0.421700  1.0  0.1044
  H  H201  1  0.866300  0.304400  0.678900  1.0  0.1091
  H  H202  1  0.913700  0.377200  0.654800  1.0  0.1134
  H  H203  1  0.875400  0.237000  0.634300  1.0  0.115
  H  H204  1  0.724900  0.230400  0.595000  1.0  0.1175
  H  H205  1  0.563270  0.691930  0.731930  1.0  0.0912
  H  H206  1  0.514370  0.619330  0.755030  1.0  0.1043
  H  H207  1  0.532970  0.637730  0.012230  1.0  0.1091
  H  H208  1  0.580370  0.710530  0.988130  1.0  0.1135
  H  H209  1  0.542070  0.570330  0.967630  1.0  0.1151
  H  H210  1  0.391570  0.563730  0.928330  1.0  0.1176
  H  H211  1  0.229930  0.025270  0.065270  1.0  0.091
  H  H212  1  0.181030  0.952670  0.088370  1.0  0.1044
  H  H213  1  0.199630  0.971070  0.345570  1.0  0.1091
  H  H214  1  0.247030  0.043870  0.321470  1.0  0.1122
  H  H215  1  0.208730  0.903670  0.300970  1.0  0.1151
  H  H216  1  0.058230  0.897070  0.261670  1.0  0.117
  H  H217  1  0.462000  0.103400  0.398600  1.0  0.0914
  H  H218  1  0.438300  0.152300  0.421700  1.0  0.1049
  H  H219  1  0.438100  0.133700  0.678900  1.0  0.1097
  H  H220  1  0.463500  0.086300  0.654800  1.0  0.1127
  H  H221  1  0.361600  0.124600  0.634300  1.0  0.1156
  H  H222  1  0.505500  0.275100  0.595000  1.0  0.1162
  H  H223  1  0.128670  0.436730  0.731930  1.0  0.0914
  H  H224  1  0.104970  0.485630  0.755030  1.0  0.1049
  H  H225  1  0.104770  0.467030  0.012230  1.0  0.1097
  H  H226  1  0.130170  0.419630  0.988130  1.0  0.1127
  H  H227  1  0.028270  0.457930  0.967630  1.0  0.1154
  H  H228  1  0.172170  0.608430  0.928330  1.0  0.1162
  H  H229  1  0.795330  0.770070  0.065270  1.0  0.0915
  H  H230  1  0.771630  0.818970  0.088370  1.0  0.1047
  H  H231  1  0.771430  0.800370  0.345570  1.0  0.112
  H  H232  1  0.796830  0.752970  0.321470  1.0  0.114
  H  H233  1  0.694930  0.791270  0.300970  1.0  0.1156
  H  H234  1  0.838830  0.941770  0.261670  1.0  0.1165
  H  H235  1  0.533000  0.266500  0.523800  1.0  0.1439
  H  H236  1  0.199670  0.599830  0.857130  1.0  0.1439
  H  H237  1  0.866330  0.933170  0.190470  1.0  0.1439
  H  H238  1  0.733500  0.266500  0.523800  1.0  0.1408
  H  H239  1  0.400170  0.599830  0.857130  1.0  0.1408
  H  H240  1  0.066830  0.933170  0.190470  1.0  0.1409
  H  H241  1  0.733500  0.467000  0.523800  1.0  0.142
  H  H242  1  0.400170  0.800330  0.857130  1.0  0.142
  H  H243  1  0.066830  0.133670  0.190470  1.0  0.142
  H  H244  1  0.266500  0.533000  0.476200  1.0  0.1427
  H  H245  1  0.933170  0.866330  0.809530  1.0  0.1427
  H  H246  1  0.599830  0.199670  0.142870  1.0  0.1427
  H  H247  1  0.266500  0.733500  0.476200  1.0  0.1422
  H  H248  1  0.933170  0.066830  0.809530  1.0  0.1422
  H  H249  1  0.599830  0.400170  0.142870  1.0  0.1422
  H  H250  1  0.467000  0.733500  0.476200  1.0  0.1439
  H  H251  1  0.133670  0.066830  0.809530  1.0  0.1438
  H  H252  1  0.800330  0.400170  0.142870  1.0  0.1439
  C  C253  1  0.478610  0.421780  0.508500  1.0  0.689
  C  C254  1  0.464110  0.374750  0.522600  1.0  -0.1346
  C  C255  1  0.456850  0.347740  0.456600  1.0  -0.0742
  C  C256  1  0.441960  0.304070  0.470200  1.0  -0.1498
  C  C257  1  0.432610  0.286960  0.551300  1.0  0.0916
  C  C258  1  0.442140  0.315030  0.620900  1.0  -0.1794
  C  C259  1  0.457480  0.358450  0.606500  1.0  -0.0382
  C  C260  1  0.412350  0.239850  0.569600  1.0  0.0091
  C  C261  1  0.374170  0.220240  0.617500  1.0  -0.1379
  C  C262  1  0.145280  0.755110  0.841830  1.0  0.689
  C  C263  1  0.130780  0.708080  0.855930  1.0  -0.1344
  C  C264  1  0.123520  0.681070  0.789930  1.0  -0.0742
  C  C265  1  0.108630  0.637400  0.803530  1.0  -0.1498
  C  C266  1  0.099280  0.620290  0.884630  1.0  0.0916
  C  C267  1  0.108810  0.648360  0.954230  1.0  -0.1794
  C  C268  1  0.124150  0.691780  0.939830  1.0  -0.0382
  C  C269  1  0.079020  0.573180  0.902930  1.0  0.0093
  C  C270  1  0.040840  0.553570  0.950830  1.0  -0.1379
  C  C271  1  0.811940  0.088450  0.175170  1.0  0.689
  C  C272  1  0.797440  0.041420  0.189270  1.0  -0.1346
  C  C273  1  0.790180  0.014410  0.123270  1.0  -0.0742
  C  C274  1  0.775290  0.970740  0.136870  1.0  -0.1505
  C  C275  1  0.765940  0.953630  0.217970  1.0  0.0916
  C  C276  1  0.775470  0.981700  0.287570  1.0  -0.1794
  C  C277  1  0.790810  0.025120  0.273170  1.0  -0.0382
  C  C278  1  0.745680  0.906520  0.236270  1.0  0.0091
  C  C279  1  0.707500  0.886910  0.284170  1.0  -0.1379
  C  C280  1  0.578220  0.056830  0.508500  1.0  0.6887
  C  C281  1  0.625250  0.089360  0.522600  1.0  -0.1354
  C  C282  1  0.652260  0.109110  0.456600  1.0  -0.0746
  C  C283  1  0.695930  0.137890  0.470200  1.0  -0.1497
  C  C284  1  0.713040  0.145650  0.551300  1.0  0.0915
  C  C285  1  0.684970  0.127110  0.620900  1.0  -0.1818
  C  C286  1  0.641550  0.099030  0.606500  1.0  -0.0396
  C  C287  1  0.760150  0.172500  0.569600  1.0  0.0117
  C  C288  1  0.779760  0.153930  0.617500  1.0  -0.1376
  C  C289  1  0.244890  0.390160  0.841830  1.0  0.6887
  C  C290  1  0.291920  0.422690  0.855930  1.0  -0.1354
  C  C291  1  0.318930  0.442440  0.789930  1.0  -0.0746
  C  C292  1  0.362600  0.471220  0.803530  1.0  -0.1497
  C  C293  1  0.379710  0.478980  0.884630  1.0  0.0915
  C  C294  1  0.351640  0.460440  0.954230  1.0  -0.1818
  C  C295  1  0.308220  0.432360  0.939830  1.0  -0.0396
  C  C296  1  0.426820  0.505830  0.902930  1.0  0.0119
  C  C297  1  0.446430  0.487260  0.950830  1.0  -0.1378
  C  C298  1  0.911550  0.723500  0.175170  1.0  0.6887
  C  C299  1  0.958580  0.756030  0.189270  1.0  -0.1354
  C  C300  1  0.985590  0.775780  0.123270  1.0  -0.0746
  C  C301  1  0.029260  0.804560  0.136870  1.0  -0.1494
  C  C302  1  0.046370  0.812320  0.217970  1.0  0.0915
  C  C303  1  0.018300  0.793780  0.287570  1.0  -0.1818
  C  C304  1  0.974880  0.765700  0.273170  1.0  -0.0396
  C  C305  1  0.093480  0.839170  0.236270  1.0  0.0117
  C  C306  1  0.113090  0.820600  0.284170  1.0  -0.1376
  C  C307  1  0.943170  0.521390  0.508500  1.0  0.6873
  C  C308  1  0.910640  0.535890  0.522600  1.0  -0.1341
  C  C309  1  0.890890  0.543150  0.456600  1.0  -0.0746
  C  C310  1  0.862110  0.558040  0.470200  1.0  -0.1508
  C  C311  1  0.854350  0.567390  0.551300  1.0  0.0902
  C  C312  1  0.872890  0.557860  0.620900  1.0  -0.1814
  C  C313  1  0.900970  0.542520  0.606500  1.0  -0.0386
  C  C314  1  0.827500  0.587650  0.569600  1.0  0.0121
  C  C315  1  0.846070  0.625830  0.617500  1.0  -0.1388
  C  C316  1  0.609840  0.854720  0.841830  1.0  0.6873
  C  C317  1  0.577310  0.869220  0.855930  1.0  -0.1341
  C  C318  1  0.557560  0.876480  0.789930  1.0  -0.0746
  C  C319  1  0.528780  0.891370  0.803530  1.0  -0.1508
  C  C320  1  0.521020  0.900720  0.884630  1.0  0.0902
  C  C321  1  0.539560  0.891190  0.954230  1.0  -0.1814
  C  C322  1  0.567640  0.875850  0.939830  1.0  -0.0386
  C  C323  1  0.494170  0.920980  0.902930  1.0  0.0119
  C  C324  1  0.512740  0.959160  0.950830  1.0  -0.1388
  C  C325  1  0.276500  0.188060  0.175170  1.0  0.6873
  C  C326  1  0.243970  0.202560  0.189270  1.0  -0.1341
  C  C327  1  0.224220  0.209820  0.123270  1.0  -0.0746
  C  C328  1  0.195440  0.224710  0.136870  1.0  -0.1507
  C  C329  1  0.187680  0.234060  0.217970  1.0  0.0902
  C  C330  1  0.206220  0.224530  0.287570  1.0  -0.1814
  C  C331  1  0.234300  0.209190  0.273170  1.0  -0.0386
  C  C332  1  0.160830  0.254320  0.236270  1.0  0.0121
  C  C333  1  0.179400  0.292500  0.284170  1.0  -0.1388
  C  C334  1  0.421780  0.478610  0.491500  1.0  0.6873
  C  C335  1  0.374750  0.464110  0.477400  1.0  -0.1346
  C  C336  1  0.347740  0.456850  0.543400  1.0  -0.0738
  C  C337  1  0.304070  0.441960  0.529800  1.0  -0.1501
  C  C338  1  0.286960  0.432610  0.448700  1.0  0.0901
  C  C339  1  0.315030  0.442140  0.379100  1.0  -0.1809
  C  C340  1  0.358450  0.457480  0.393500  1.0  -0.0391
  C  C341  1  0.239850  0.412350  0.430400  1.0  0.0118
  C  C342  1  0.220240  0.374170  0.382500  1.0  -0.1383
  C  C343  1  0.088450  0.811940  0.824830  1.0  0.6873
  C  C344  1  0.041420  0.797440  0.810730  1.0  -0.1346
  C  C345  1  0.014410  0.790180  0.876730  1.0  -0.0738
  C  C346  1  0.970740  0.775290  0.863130  1.0  -0.1509
  C  C347  1  0.953630  0.765940  0.782030  1.0  0.0901
  C  C348  1  0.981700  0.775470  0.712430  1.0  -0.1809
  C  C349  1  0.025120  0.790810  0.726830  1.0  -0.0391
  C  C350  1  0.906520  0.745680  0.763730  1.0  0.0118
  C  C351  1  0.886910  0.707500  0.715830  1.0  -0.1383
  C  C352  1  0.755110  0.145280  0.158170  1.0  0.6873
  C  C353  1  0.708080  0.130780  0.144070  1.0  -0.1344
  C  C354  1  0.681070  0.123520  0.210070  1.0  -0.0738
  C  C355  1  0.637400  0.108630  0.196470  1.0  -0.1501
  C  C356  1  0.620290  0.099280  0.115370  1.0  0.0901
  C  C357  1  0.648360  0.108810  0.045770  1.0  -0.1809
  C  C358  1  0.691780  0.124150  0.060170  1.0  -0.0391
  C  C359  1  0.573180  0.079020  0.097070  1.0  0.0121
  C  C360  1  0.553570  0.040840  0.049170  1.0  -0.1383
  C  C361  1  0.056830  0.578220  0.491500  1.0  0.6887
  C  C362  1  0.089360  0.625250  0.477400  1.0  -0.135
  C  C363  1  0.109110  0.652260  0.543400  1.0  -0.074
  C  C364  1  0.137890  0.695930  0.529800  1.0  -0.1497
  C  C365  1  0.145650  0.713040  0.448700  1.0  0.0925
  C  C366  1  0.127110  0.684970  0.379100  1.0  -0.1798
  C  C367  1  0.099030  0.641550  0.393500  1.0  -0.0375
  C  C368  1  0.172500  0.760150  0.430400  1.0  0.0091
  C  C369  1  0.153930  0.779760  0.382500  1.0  -0.1375
  C  C370  1  0.723500  0.911550  0.824830  1.0  0.6887
  C  C371  1  0.756030  0.958580  0.810730  1.0  -0.135
  C  C372  1  0.775780  0.985590  0.876730  1.0  -0.0741
  C  C373  1  0.804560  0.029260  0.863130  1.0  -0.1493
  C  C374  1  0.812320  0.046370  0.782030  1.0  0.0925
  C  C375  1  0.793780  0.018300  0.712430  1.0  -0.1798
  C  C376  1  0.765700  0.974880  0.726830  1.0  -0.0375
  C  C377  1  0.839170  0.093480  0.763730  1.0  0.0092
  C  C378  1  0.820600  0.113090  0.715830  1.0  -0.1375
  C  C379  1  0.390160  0.244890  0.158170  1.0  0.6887
  C  C380  1  0.422690  0.291920  0.144070  1.0  -0.135
  C  C381  1  0.442440  0.318930  0.210070  1.0  -0.074
  C  C382  1  0.471220  0.362600  0.196470  1.0  -0.1497
  C  C383  1  0.478980  0.379710  0.115370  1.0  0.0925
  C  C384  1  0.460440  0.351640  0.045770  1.0  -0.1798
  C  C385  1  0.432360  0.308220  0.060170  1.0  -0.0375
  C  C386  1  0.505830  0.426820  0.097070  1.0  0.0094
  C  C387  1  0.487260  0.446430  0.049170  1.0  -0.1377
  C  C388  1  0.521390  0.943170  0.491500  1.0  0.6889
  C  C389  1  0.535890  0.910640  0.477400  1.0  -0.1356
  C  C390  1  0.543150  0.890890  0.543400  1.0  -0.074
  C  C391  1  0.558040  0.862110  0.529800  1.0  -0.1492
  C  C392  1  0.567390  0.854350  0.448700  1.0  0.0914
  C  C393  1  0.557860  0.872890  0.379100  1.0  -0.1811
  C  C394  1  0.542520  0.900970  0.393500  1.0  -0.0387
  C  C395  1  0.587650  0.827500  0.430400  1.0  0.0118
  C  C396  1  0.625830  0.846070  0.382500  1.0  -0.1389
  C  C397  1  0.188060  0.276500  0.824830  1.0  0.6889
  C  C398  1  0.202560  0.243970  0.810730  1.0  -0.1356
  C  C399  1  0.209820  0.224220  0.876730  1.0  -0.074
  C  C400  1  0.224710  0.195440  0.863130  1.0  -0.1492
  C  C401  1  0.234060  0.187680  0.782030  1.0  0.0914
  C  C402  1  0.224530  0.206220  0.712430  1.0  -0.1811
  C  C403  1  0.209190  0.234300  0.726830  1.0  -0.0387
  C  C404  1  0.254320  0.160830  0.763730  1.0  0.0118
  C  C405  1  0.292500  0.179400  0.715830  1.0  -0.1389
  C  C406  1  0.854720  0.609840  0.158170  1.0  0.6889
  C  C407  1  0.869220  0.577310  0.144070  1.0  -0.1356
  C  C408  1  0.876480  0.557560  0.210070  1.0  -0.074
  C  C409  1  0.891370  0.528780  0.196470  1.0  -0.1492
  C  C410  1  0.900720  0.521020  0.115370  1.0  0.0914
  C  C411  1  0.891190  0.539560  0.045770  1.0  -0.1811
  C  C412  1  0.875850  0.567640  0.060170  1.0  -0.0386
  C  C413  1  0.920980  0.494170  0.097070  1.0  0.0115
  C  C414  1  0.959160  0.512740  0.049170  1.0  -0.139
  C  C415  1  0.521390  0.578220  0.491500  1.0  0.6887
  C  C416  1  0.535890  0.625250  0.477400  1.0  -0.135
  C  C417  1  0.543150  0.652260  0.543400  1.0  -0.0737
  C  C418  1  0.558040  0.695930  0.529800  1.0  -0.15
  C  C419  1  0.567390  0.713040  0.448700  1.0  0.0913
  C  C420  1  0.557860  0.684970  0.379100  1.0  -0.1797
  C  C421  1  0.542520  0.641550  0.393500  1.0  -0.0378
  C  C422  1  0.587650  0.760150  0.430400  1.0  0.0102
  C  C423  1  0.625830  0.779760  0.382500  1.0  -0.1375
  C  C424  1  0.188060  0.911550  0.824830  1.0  0.6887
  C  C425  1  0.202560  0.958580  0.810730  1.0  -0.135
  C  C426  1  0.209820  0.985590  0.876730  1.0  -0.0738
  C  C427  1  0.224710  0.029260  0.863130  1.0  -0.1507
  C  C428  1  0.234060  0.046370  0.782030  1.0  0.0913
  C  C429  1  0.224530  0.018300  0.712430  1.0  -0.1797
  C  C430  1  0.209190  0.974880  0.726830  1.0  -0.0378
  C  C431  1  0.254320  0.093480  0.763730  1.0  0.0102
  C  C432  1  0.292500  0.113090  0.715830  1.0  -0.1375
  C  C433  1  0.854720  0.244890  0.158170  1.0  0.6887
  C  C434  1  0.869220  0.291920  0.144070  1.0  -0.1348
  C  C435  1  0.876480  0.318930  0.210070  1.0  -0.0737
  C  C436  1  0.891370  0.362600  0.196470  1.0  -0.15
  C  C437  1  0.900720  0.379710  0.115370  1.0  0.0913
  C  C438  1  0.891190  0.351640  0.045770  1.0  -0.1797
  C  C439  1  0.875850  0.308220  0.060170  1.0  -0.0378
  C  C440  1  0.920980  0.426820  0.097070  1.0  0.0104
  C  C441  1  0.959160  0.446430  0.049170  1.0  -0.1375
  C  C442  1  0.421780  0.943170  0.491500  1.0  0.6881
  C  C443  1  0.374750  0.910640  0.477400  1.0  -0.1361
  C  C444  1  0.347740  0.890890  0.543400  1.0  -0.0741
  C  C445  1  0.304070  0.862110  0.529800  1.0  -0.1502
  C  C446  1  0.286960  0.854350  0.448700  1.0  0.0917
  C  C447  1  0.315030  0.872890  0.379100  1.0  -0.1811
  C  C448  1  0.358450  0.900970  0.393500  1.0  -0.0398
  C  C449  1  0.239850  0.827500  0.430400  1.0  0.0119
  C  C450  1  0.220240  0.846070  0.382500  1.0  -0.1384
  C  C451  1  0.088450  0.276500  0.824830  1.0  0.6881
  C  C452  1  0.041420  0.243970  0.810730  1.0  -0.1361
  C  C453  1  0.014410  0.224220  0.876730  1.0  -0.0742
  C  C454  1  0.970740  0.195440  0.863130  1.0  -0.1499
  C  C455  1  0.953630  0.187680  0.782030  1.0  0.0917
  C  C456  1  0.981700  0.206220  0.712430  1.0  -0.1811
  C  C457  1  0.025120  0.234300  0.726830  1.0  -0.0398
  C  C458  1  0.906520  0.160830  0.763730  1.0  0.0119
  C  C459  1  0.886910  0.179400  0.715830  1.0  -0.1384
  C  C460  1  0.755110  0.609840  0.158170  1.0  0.6881
  C  C461  1  0.708080  0.577310  0.144070  1.0  -0.1361
  C  C462  1  0.681070  0.557560  0.210070  1.0  -0.0741
  C  C463  1  0.637400  0.528780  0.196470  1.0  -0.1502
  C  C464  1  0.620290  0.521020  0.115370  1.0  0.0917
  C  C465  1  0.648360  0.539560  0.045770  1.0  -0.1811
  C  C466  1  0.691780  0.567640  0.060170  1.0  -0.0398
  C  C467  1  0.573180  0.494170  0.097070  1.0  0.0122
  C  C468  1  0.553570  0.512740  0.049170  1.0  -0.1386
  C  C469  1  0.056830  0.478610  0.491500  1.0  0.6878
  C  C470  1  0.089360  0.464110  0.477400  1.0  -0.1358
  C  C471  1  0.109110  0.456850  0.543400  1.0  -0.0742
  C  C472  1  0.137890  0.441960  0.529800  1.0  -0.1501
  C  C473  1  0.145650  0.432610  0.448700  1.0  0.0908
  C  C474  1  0.127110  0.442140  0.379100  1.0  -0.181
  C  C475  1  0.099030  0.457480  0.393500  1.0  -0.0388
  C  C476  1  0.172500  0.412350  0.430400  1.0  0.011
  C  C477  1  0.153930  0.374170  0.382500  1.0  -0.1383
  C  C478  1  0.723500  0.811940  0.824830  1.0  0.6878
  C  C479  1  0.756030  0.797440  0.810730  1.0  -0.1358
  C  C480  1  0.775780  0.790180  0.876730  1.0  -0.0742
  C  C481  1  0.804560  0.775290  0.863130  1.0  -0.1501
  C  C482  1  0.812320  0.765940  0.782030  1.0  0.0908
  C  C483  1  0.793780  0.775470  0.712430  1.0  -0.181
  C  C484  1  0.765700  0.790810  0.726830  1.0  -0.0388
  C  C485  1  0.839170  0.745680  0.763730  1.0  0.011
  C  C486  1  0.820600  0.707500  0.715830  1.0  -0.1383
  C  C487  1  0.390160  0.145280  0.158170  1.0  0.6878
  C  C488  1  0.422690  0.130780  0.144070  1.0  -0.1358
  C  C489  1  0.442440  0.123520  0.210070  1.0  -0.0742
  C  C490  1  0.471220  0.108630  0.196470  1.0  -0.1501
  C  C491  1  0.478980  0.099280  0.115370  1.0  0.0908
  C  C492  1  0.460440  0.108810  0.045770  1.0  -0.181
  C  C493  1  0.432360  0.124150  0.060170  1.0  -0.0387
  C  C494  1  0.505830  0.079020  0.097070  1.0  0.0108
  C  C495  1  0.487260  0.040840  0.049170  1.0  -0.1383
  C  C496  1  0.578220  0.521390  0.508500  1.0  0.6877
  C  C497  1  0.625250  0.535890  0.522600  1.0  -0.1351
  C  C498  1  0.652260  0.543150  0.456600  1.0  -0.0744
  C  C499  1  0.695930  0.558040  0.470200  1.0  -0.1509
  C  C500  1  0.713040  0.567390  0.551300  1.0  0.0911
  C  C501  1  0.684970  0.557860  0.620900  1.0  -0.1815
  C  C502  1  0.641550  0.542520  0.606500  1.0  -0.0391
  C  C503  1  0.760150  0.587650  0.569600  1.0  0.0109
  C  C504  1  0.779760  0.625830  0.617500  1.0  -0.1393
  C  C505  1  0.244890  0.854720  0.841830  1.0  0.6877
  C  C506  1  0.291920  0.869220  0.855930  1.0  -0.135
  C  C507  1  0.318930  0.876480  0.789930  1.0  -0.0744
  C  C508  1  0.362600  0.891370  0.803530  1.0  -0.1509
  C  C509  1  0.379710  0.900720  0.884630  1.0  0.0911
  C  C510  1  0.351640  0.891190  0.954230  1.0  -0.1815
  C  C511  1  0.308220  0.875850  0.939830  1.0  -0.0391
  C  C512  1  0.426820  0.920980  0.902930  1.0  0.0111
  C  C513  1  0.446430  0.959160  0.950830  1.0  -0.1394
  C  C514  1  0.911550  0.188060  0.175170  1.0  0.6877
  C  C515  1  0.958580  0.202560  0.189270  1.0  -0.1351
  C  C516  1  0.985590  0.209820  0.123270  1.0  -0.0745
  C  C517  1  0.029260  0.224710  0.136870  1.0  -0.1516
  C  C518  1  0.046370  0.234060  0.217970  1.0  0.0911
  C  C519  1  0.018300  0.224530  0.287570  1.0  -0.1815
  C  C520  1  0.974880  0.209190  0.273170  1.0  -0.0391
  C  C521  1  0.093480  0.254320  0.236270  1.0  0.0109
  C  C522  1  0.113090  0.292500  0.284170  1.0  -0.1393
  C  C523  1  0.943170  0.421780  0.508500  1.0  0.6889
  C  C524  1  0.910640  0.374750  0.522600  1.0  -0.1347
  C  C525  1  0.890890  0.347740  0.456600  1.0  -0.074
  C  C526  1  0.862110  0.304070  0.470200  1.0  -0.1506
  C  C527  1  0.854350  0.286960  0.551300  1.0  0.0906
  C  C528  1  0.872890  0.315030  0.620900  1.0  -0.1795
  C  C529  1  0.900970  0.358450  0.606500  1.0  -0.0371
  C  C530  1  0.827500  0.239850  0.569600  1.0  0.0103
  C  C531  1  0.846070  0.220240  0.617500  1.0  -0.1379
  C  C532  1  0.609840  0.755110  0.841830  1.0  0.6889
  C  C533  1  0.577310  0.708080  0.855930  1.0  -0.1347
  C  C534  1  0.557560  0.681070  0.789930  1.0  -0.074
  C  C535  1  0.528780  0.637400  0.803530  1.0  -0.1506
  C  C536  1  0.521020  0.620290  0.884630  1.0  0.0906
  C  C537  1  0.539560  0.648360  0.954230  1.0  -0.1795
  C  C538  1  0.567640  0.691780  0.939830  1.0  -0.0371
  C  C539  1  0.494170  0.573180  0.902930  1.0  0.0106
  C  C540  1  0.512740  0.553570  0.950830  1.0  -0.1381
  C  C541  1  0.276500  0.088450  0.175170  1.0  0.6889
  C  C542  1  0.243970  0.041420  0.189270  1.0  -0.1347
  C  C543  1  0.224220  0.014410  0.123270  1.0  -0.074
  C  C544  1  0.195440  0.970740  0.136870  1.0  -0.1503
  C  C545  1  0.187680  0.953630  0.217970  1.0  0.0906
  C  C546  1  0.206220  0.981700  0.287570  1.0  -0.1795
  C  C547  1  0.234300  0.025120  0.273170  1.0  -0.0371
  C  C548  1  0.160830  0.906520  0.236270  1.0  0.0103
  C  C549  1  0.179400  0.886910  0.284170  1.0  -0.1378
  C  C550  1  0.478610  0.056830  0.508500  1.0  0.6878
  C  C551  1  0.464110  0.089360  0.522600  1.0  -0.1355
  C  C552  1  0.456850  0.109110  0.456600  1.0  -0.075
  C  C553  1  0.441960  0.137890  0.470200  1.0  -0.1497
  C  C554  1  0.432610  0.145650  0.551300  1.0  0.0915
  C  C555  1  0.442140  0.127110  0.620900  1.0  -0.1825
  C  C556  1  0.457480  0.099030  0.606500  1.0  -0.0389
  C  C557  1  0.412350  0.172500  0.569600  1.0  0.0121
  C  C558  1  0.374170  0.153930  0.617500  1.0  -0.1384
  C  C559  1  0.145280  0.390160  0.841830  1.0  0.6878
  C  C560  1  0.130780  0.422690  0.855930  1.0  -0.1355
  C  C561  1  0.123520  0.442440  0.789930  1.0  -0.075
  C  C562  1  0.108630  0.471220  0.803530  1.0  -0.1497
  C  C563  1  0.099280  0.478980  0.884630  1.0  0.0915
  C  C564  1  0.108810  0.460440  0.954230  1.0  -0.1825
  C  C565  1  0.124150  0.432360  0.939830  1.0  -0.0389
  C  C566  1  0.079020  0.505830  0.902930  1.0  0.0118
  C  C567  1  0.040840  0.487260  0.950830  1.0  -0.1384
  C  C568  1  0.811940  0.723500  0.175170  1.0  0.6878
  C  C569  1  0.797440  0.756030  0.189270  1.0  -0.1355
  C  C570  1  0.790180  0.775780  0.123270  1.0  -0.075
  C  C571  1  0.775290  0.804560  0.136870  1.0  -0.1497
  C  C572  1  0.765940  0.812320  0.217970  1.0  0.0915
  C  C573  1  0.775470  0.793780  0.287570  1.0  -0.1825
  C  C574  1  0.790810  0.765700  0.273170  1.0  -0.0389
  C  C575  1  0.745680  0.839170  0.236270  1.0  0.0121
  C  C576  1  0.707500  0.820600  0.284170  1.0  -0.1384
  C  C577  1  0.353670  0.176830  0.641900  1.0  -0.035
  C  C578  1  0.430640  0.215320  0.545000  1.0  0.1874
  C  C579  1  0.506400  0.253200  0.558100  1.0  -0.0235
  C  C580  1  0.020340  0.510170  0.975230  1.0  -0.0346
  C  C581  1  0.097310  0.548650  0.878330  1.0  0.1875
  C  C582  1  0.173070  0.586530  0.891430  1.0  -0.0235
  C  C583  1  0.687000  0.843500  0.308570  1.0  -0.035
  C  C584  1  0.763970  0.881990  0.211670  1.0  0.1874
  C  C585  1  0.839730  0.919870  0.224770  1.0  -0.0235
  C  C586  1  0.823170  0.176830  0.641900  1.0  -0.0342
  C  C587  1  0.784680  0.215320  0.545000  1.0  0.1862
  C  C588  1  0.746800  0.253200  0.558100  1.0  -0.023
  C  C589  1  0.489830  0.510170  0.975230  1.0  -0.0339
  C  C590  1  0.451350  0.548650  0.878330  1.0  0.1863
  C  C591  1  0.413470  0.586530  0.891430  1.0  -0.0227
  C  C592  1  0.156500  0.843500  0.308570  1.0  -0.0342
  C  C593  1  0.118010  0.881990  0.211670  1.0  0.1863
  C  C594  1  0.080130  0.919870  0.224770  1.0  -0.023
  C  C595  1  0.823170  0.646330  0.641900  1.0  -0.0319
  C  C596  1  0.784680  0.569360  0.545000  1.0  0.1874
  C  C597  1  0.746800  0.493600  0.558100  1.0  -0.0189
  C  C598  1  0.489830  0.979660  0.975230  1.0  -0.0315
  C  C599  1  0.451350  0.902690  0.878330  1.0  0.1874
  C  C600  1  0.413470  0.826930  0.891430  1.0  -0.019
  C  C601  1  0.156500  0.313000  0.308570  1.0  -0.0319
  C  C602  1  0.118010  0.236030  0.211670  1.0  0.1874
  C  C603  1  0.080130  0.160270  0.224770  1.0  -0.0189
  C  C604  1  0.176830  0.353670  0.358100  1.0  -0.0317
  C  C605  1  0.215320  0.430640  0.455000  1.0  0.1876
  C  C606  1  0.253200  0.506400  0.441900  1.0  -0.0198
  C  C607  1  0.843500  0.687000  0.691430  1.0  -0.0317
  C  C608  1  0.881990  0.763970  0.788330  1.0  0.1876
  C  C609  1  0.919870  0.839730  0.775230  1.0  -0.0198
  C  C610  1  0.510170  0.020340  0.024770  1.0  -0.0312
  C  C611  1  0.548650  0.097310  0.121670  1.0  0.1876
  C  C612  1  0.586530  0.173070  0.108570  1.0  -0.0199
  C  C613  1  0.176830  0.823170  0.358100  1.0  -0.0331
  C  C614  1  0.215320  0.784680  0.455000  1.0  0.1856
  C  C615  1  0.253200  0.746800  0.441900  1.0  -0.0217
  C  C616  1  0.843500  0.156500  0.691430  1.0  -0.0331
  C  C617  1  0.881990  0.118010  0.788330  1.0  0.1856
  C  C618  1  0.919870  0.080130  0.775230  1.0  -0.0217
  C  C619  1  0.510170  0.489830  0.024770  1.0  -0.0333
  C  C620  1  0.548650  0.451350  0.121670  1.0  0.1857
  C  C621  1  0.586530  0.413470  0.108570  1.0  -0.0214
  C  C622  1  0.646330  0.823170  0.358100  1.0  -0.0352
  C  C623  1  0.569360  0.784680  0.455000  1.0  0.1872
  C  C624  1  0.493600  0.746800  0.441900  1.0  -0.0227
  C  C625  1  0.313000  0.156500  0.691430  1.0  -0.0352
  C  C626  1  0.236030  0.118010  0.788330  1.0  0.1873
  C  C627  1  0.160270  0.080130  0.775230  1.0  -0.0227
  C  C628  1  0.979660  0.489830  0.024770  1.0  -0.0348
  C  C629  1  0.902690  0.451350  0.121670  1.0  0.1872
  C  C630  1  0.826930  0.413470  0.108570  1.0  -0.0226
  O  O631  1  0.480670  0.442360  0.577670  1.0  -0.5761
  O  O632  1  0.486600  0.436160  0.433360  1.0  -0.5524
  O  O633  1  0.147340  0.775690  0.911000  1.0  -0.5761
  O  O634  1  0.153270  0.769490  0.766690  1.0  -0.5524
  O  O635  1  0.814000  0.109030  0.244340  1.0  -0.5761
  O  O636  1  0.819930  0.102830  0.100030  1.0  -0.5523
  O  O637  1  0.557640  0.038310  0.577670  1.0  -0.5771
  O  O638  1  0.563840  0.050440  0.433360  1.0  -0.5525
  O  O639  1  0.224310  0.371640  0.911000  1.0  -0.5771
  O  O640  1  0.230510  0.383770  0.766690  1.0  -0.5525
  O  O641  1  0.890970  0.704980  0.244340  1.0  -0.5771
  O  O642  1  0.897170  0.717110  0.100030  1.0  -0.553
  O  O643  1  0.961690  0.519330  0.577670  1.0  -0.5775
  O  O644  1  0.949560  0.513400  0.433360  1.0  -0.5527
  O  O645  1  0.628360  0.852660  0.911000  1.0  -0.5775
  O  O646  1  0.616230  0.846730  0.766690  1.0  -0.5527
  O  O647  1  0.295020  0.186000  0.244340  1.0  -0.5775
  O  O648  1  0.282890  0.180070  0.100030  1.0  -0.5526
  O  O649  1  0.442360  0.480670  0.422330  1.0  -0.5781
  O  O650  1  0.436160  0.486600  0.566640  1.0  -0.5537
  O  O651  1  0.109030  0.814000  0.755660  1.0  -0.5781
  O  O652  1  0.102830  0.819930  0.899970  1.0  -0.5537
  O  O653  1  0.775690  0.147340  0.089000  1.0  -0.5781
  O  O654  1  0.769490  0.153270  0.233310  1.0  -0.5537
  O  O655  1  0.038310  0.557640  0.422330  1.0  -0.5774
  O  O656  1  0.050440  0.563840  0.566640  1.0  -0.5527
  O  O657  1  0.704980  0.890970  0.755660  1.0  -0.5774
  O  O658  1  0.717110  0.897170  0.899970  1.0  -0.5527
  O  O659  1  0.371640  0.224310  0.089000  1.0  -0.5774
  O  O660  1  0.383770  0.230510  0.233310  1.0  -0.5527
  O  O661  1  0.519330  0.961690  0.422330  1.0  -0.5778
  O  O662  1  0.513400  0.949560  0.566640  1.0  -0.5532
  O  O663  1  0.186000  0.295020  0.755660  1.0  -0.5778
  O  O664  1  0.180070  0.282890  0.899970  1.0  -0.5539
  O  O665  1  0.852660  0.628360  0.089000  1.0  -0.5778
  O  O666  1  0.846730  0.616230  0.233310  1.0  -0.5532
  O  O667  1  0.519330  0.557640  0.422330  1.0  -0.5781
  O  O668  1  0.513400  0.563840  0.566640  1.0  -0.5532
  O  O669  1  0.186000  0.890970  0.755660  1.0  -0.5781
  O  O670  1  0.180070  0.897170  0.899970  1.0  -0.5531
  O  O671  1  0.852660  0.224310  0.089000  1.0  -0.5781
  O  O672  1  0.846730  0.230510  0.233310  1.0  -0.5532
  O  O673  1  0.442360  0.961690  0.422330  1.0  -0.5778
  O  O674  1  0.436160  0.949560  0.566640  1.0  -0.5548
  O  O675  1  0.109030  0.295020  0.755660  1.0  -0.5778
  O  O676  1  0.102830  0.282890  0.899970  1.0  -0.5548
  O  O677  1  0.775690  0.628360  0.089000  1.0  -0.5778
  O  O678  1  0.769490  0.616230  0.233310  1.0  -0.5548
  O  O679  1  0.038310  0.480670  0.422330  1.0  -0.5783
  O  O680  1  0.050440  0.486600  0.566640  1.0  -0.5536
  O  O681  1  0.704980  0.814000  0.755660  1.0  -0.5783
  O  O682  1  0.717110  0.819930  0.899970  1.0  -0.5541
  O  O683  1  0.371640  0.147340  0.089000  1.0  -0.5783
  O  O684  1  0.383770  0.153270  0.233310  1.0  -0.5536
  O  O685  1  0.557640  0.519330  0.577670  1.0  -0.5776
  O  O686  1  0.563840  0.513400  0.433360  1.0  -0.5537
  O  O687  1  0.224310  0.852660  0.911000  1.0  -0.5776
  O  O688  1  0.230510  0.846730  0.766690  1.0  -0.5537
  O  O689  1  0.890970  0.186000  0.244340  1.0  -0.5776
  O  O690  1  0.897170  0.180070  0.100030  1.0  -0.5537
  O  O691  1  0.961690  0.442360  0.577670  1.0  -0.5773
  O  O692  1  0.949560  0.436160  0.433360  1.0  -0.5523
  O  O693  1  0.628360  0.775690  0.911000  1.0  -0.5773
  O  O694  1  0.616230  0.769490  0.766690  1.0  -0.5523
  O  O695  1  0.295020  0.109030  0.244340  1.0  -0.5773
  O  O696  1  0.282890  0.102830  0.100030  1.0  -0.5526
  O  O697  1  0.480670  0.038310  0.577670  1.0  -0.5776
  O  O698  1  0.486600  0.050440  0.433360  1.0  -0.5533
  O  O699  1  0.147340  0.371640  0.911000  1.0  -0.5776
  O  O700  1  0.153270  0.383770  0.766690  1.0  -0.5533
  O  O701  1  0.814000  0.704980  0.244340  1.0  -0.5776
  O  O702  1  0.819930  0.717110  0.100030  1.0  -0.5537
  O  O703  1  0.469230  0.234610  0.499200  1.0  -0.363
  O  O704  1  0.135900  0.567950  0.832530  1.0  -0.363
  O  O705  1  0.802560  0.901280  0.165870  1.0  -0.363
  O  O706  1  0.765390  0.234610  0.499200  1.0  -0.365
  O  O707  1  0.432050  0.567950  0.832530  1.0  -0.3651
  O  O708  1  0.098720  0.901280  0.165870  1.0  -0.3649
  O  O709  1  0.765390  0.530770  0.499200  1.0  -0.3637
  O  O710  1  0.432050  0.864100  0.832530  1.0  -0.3637
  O  O711  1  0.098720  0.197440  0.165870  1.0  -0.3637
  O  O712  1  0.234610  0.469230  0.500800  1.0  -0.3698
  O  O713  1  0.901280  0.802560  0.834130  1.0  -0.3698
  O  O714  1  0.567950  0.135900  0.167470  1.0  -0.3698
  O  O715  1  0.234610  0.765390  0.500800  1.0  -0.3709
  O  O716  1  0.901280  0.098720  0.834130  1.0  -0.3708
  O  O717  1  0.567950  0.432050  0.167470  1.0  -0.3709
  O  O718  1  0.530770  0.765390  0.500800  1.0  -0.3695
  O  O719  1  0.197440  0.098720  0.834130  1.0  -0.3695
  O  O720  1  0.864100  0.432050  0.167470  1.0  -0.3695
