# generated using pymatgen
data_CuH13C21O5
_symmetry_space_group_name_H-M   'P 1'
_cell_length_a   35.82310000
_cell_length_b   35.82310000
_cell_length_c   15.72130000
_cell_angle_alpha   90.00000000
_cell_angle_beta   90.00000000
_cell_angle_gamma   120.00000000
_symmetry_Int_Tables_number   1
_chemical_formula_structural   CuH13C21O5
_chemical_formula_sum   'Cu18 H234 C378 O90'
_cell_volume   17472.11251041
_cell_formula_units_Z   18
loop_
 _symmetry_equiv_pos_site_id
 _symmetry_equiv_pos_as_xyz
  1  'x, y, z'
loop_
 _atom_site_type_symbol
 _atom_site_label
 _atom_site_symmetry_multiplicity
 _atom_site_fract_x
 _atom_site_fract_y
 _atom_site_fract_z
 _atom_site_occupancy
 _atom_site_charge
  Cu  Cu1  1  0.340610  0.170300  0.749640  1.0  0.8955
  Cu  Cu2  1  0.007280  0.503640  0.082970  1.0  0.8954
  Cu  Cu3  1  0.673940  0.836970  0.416310  1.0  0.8955
  Cu  Cu4  1  0.829700  0.170310  0.749640  1.0  0.8975
  Cu  Cu5  1  0.496360  0.503640  0.082970  1.0  0.8989
  Cu  Cu6  1  0.163030  0.836970  0.416310  1.0  0.8971
  Cu  Cu7  1  0.829690  0.659390  0.749640  1.0  0.8956
  Cu  Cu8  1  0.496360  0.992720  0.082970  1.0  0.8956
  Cu  Cu9  1  0.163030  0.326060  0.416310  1.0  0.8956
  Cu  Cu10  1  0.170300  0.340610  0.250360  1.0  0.8967
  Cu  Cu11  1  0.836970  0.673940  0.583690  1.0  0.8967
  Cu  Cu12  1  0.503640  0.007280  0.917030  1.0  0.8967
  Cu  Cu13  1  0.170310  0.829700  0.250360  1.0  0.899
  Cu  Cu14  1  0.836970  0.163030  0.583690  1.0  0.8986
  Cu  Cu15  1  0.503640  0.496360  0.917030  1.0  0.9004
  Cu  Cu16  1  0.659390  0.829690  0.250360  1.0  0.8972
  Cu  Cu17  1  0.326060  0.163030  0.583690  1.0  0.8972
  Cu  Cu18  1  0.992720  0.496360  0.917030  1.0  0.8972
  H  H19  1  0.438700  0.308800  0.764800  1.0  0.1061
  H  H20  1  0.485700  0.381300  0.741100  1.0  0.1064
  H  H21  1  0.465300  0.362300  0.490900  1.0  0.1168
  H  H22  1  0.418000  0.289500  0.515100  1.0  0.1144
  H  H23  1  0.457700  0.429800  0.533700  1.0  0.1201
  H  H24  1  0.608500  0.436100  0.573200  1.0  0.1163
  H  H25  1  0.105370  0.642130  0.098130  1.0  0.1061
  H  H26  1  0.152370  0.714630  0.074430  1.0  0.1064
  H  H27  1  0.131970  0.695630  0.824230  1.0  0.1168
  H  H28  1  0.084670  0.622830  0.848430  1.0  0.1144
  H  H29  1  0.124370  0.763130  0.867030  1.0  0.1201
  H  H30  1  0.275170  0.769430  0.906530  1.0  0.1163
  H  H31  1  0.772030  0.975470  0.431470  1.0  0.1061
  H  H32  1  0.819030  0.047970  0.407770  1.0  0.1064
  H  H33  1  0.798630  0.028970  0.157570  1.0  0.1168
  H  H34  1  0.751330  0.956170  0.181770  1.0  0.1135
  H  H35  1  0.791030  0.096470  0.200370  1.0  0.1201
  H  H36  1  0.941830  0.102770  0.239870  1.0  0.1173
  H  H37  1  0.691200  0.129900  0.764800  1.0  0.1064
  H  H38  1  0.618700  0.104400  0.741100  1.0  0.1071
  H  H39  1  0.637700  0.103000  0.490900  1.0  0.117
  H  H40  1  0.710500  0.128500  0.515100  1.0  0.1142
  H  H41  1  0.570200  0.027900  0.533700  1.0  0.1214
  H  H42  1  0.563900  0.172400  0.573200  1.0  0.1146
  H  H43  1  0.357870  0.463230  0.098130  1.0  0.1063
  H  H44  1  0.285370  0.437730  0.074430  1.0  0.1071
  H  H45  1  0.304370  0.436330  0.824230  1.0  0.117
  H  H46  1  0.377170  0.461830  0.848430  1.0  0.1142
  H  H47  1  0.236870  0.361230  0.867030  1.0  0.1214
  H  H48  1  0.230570  0.505730  0.906530  1.0  0.1146
  H  H49  1  0.024530  0.796570  0.431470  1.0  0.1064
  H  H50  1  0.952030  0.771070  0.407770  1.0  0.1085
  H  H51  1  0.971030  0.769670  0.157570  1.0  0.119
  H  H52  1  0.043830  0.795170  0.181770  1.0  0.1142
  H  H53  1  0.903530  0.694570  0.200370  1.0  0.1214
  H  H54  1  0.897230  0.839070  0.239870  1.0  0.1174
  H  H55  1  0.870100  0.561300  0.764800  1.0  0.1064
  H  H56  1  0.895600  0.514300  0.741100  1.0  0.1083
  H  H57  1  0.897000  0.534700  0.490900  1.0  0.1185
  H  H58  1  0.871500  0.582000  0.515100  1.0  0.1141
  H  H59  1  0.972100  0.542300  0.533700  1.0  0.1215
  H  H60  1  0.827600  0.391500  0.573200  1.0  0.1166
  H  H61  1  0.536770  0.894630  0.098130  1.0  0.1064
  H  H62  1  0.562270  0.847630  0.074430  1.0  0.1083
  H  H63  1  0.563670  0.868030  0.824230  1.0  0.1185
  H  H64  1  0.538170  0.915330  0.848430  1.0  0.1141
  H  H65  1  0.638770  0.875630  0.867030  1.0  0.1215
  H  H66  1  0.494270  0.724830  0.906530  1.0  0.1166
  H  H67  1  0.203430  0.227970  0.431470  1.0  0.1064
  H  H68  1  0.228930  0.180970  0.407770  1.0  0.1065
  H  H69  1  0.230330  0.201370  0.157570  1.0  0.1168
  H  H70  1  0.204830  0.248670  0.181770  1.0  0.115
  H  H71  1  0.305430  0.208970  0.200370  1.0  0.1215
  H  H72  1  0.160930  0.058170  0.239870  1.0  0.1153
  H  H73  1  0.308800  0.438700  0.235200  1.0  0.1058
  H  H74  1  0.381300  0.485700  0.258900  1.0  0.1068
  H  H75  1  0.362300  0.465300  0.509100  1.0  0.1164
  H  H76  1  0.289500  0.418000  0.484900  1.0  0.1157
  H  H77  1  0.429800  0.457700  0.466300  1.0  0.1225
  H  H78  1  0.436100  0.608500  0.426800  1.0  0.1159
  H  H79  1  0.975470  0.772030  0.568530  1.0  0.1058
  H  H80  1  0.047970  0.819030  0.592230  1.0  0.1068
  H  H81  1  0.028970  0.798630  0.842430  1.0  0.1164
  H  H82  1  0.956170  0.751330  0.818230  1.0  0.1146
  H  H83  1  0.096470  0.791030  0.799630  1.0  0.1225
  H  H84  1  0.102770  0.941830  0.760130  1.0  0.1169
  H  H85  1  0.642130  0.105370  0.901870  1.0  0.1058
  H  H86  1  0.714630  0.152370  0.925570  1.0  0.1068
  H  H87  1  0.695630  0.131970  0.175770  1.0  0.1164
  H  H88  1  0.622830  0.084670  0.151570  1.0  0.1157
  H  H89  1  0.763130  0.124370  0.132970  1.0  0.1225
  H  H90  1  0.769430  0.275170  0.093470  1.0  0.1159
  H  H91  1  0.129900  0.691200  0.235200  1.0  0.1057
  H  H92  1  0.104400  0.618700  0.258900  1.0  0.1062
  H  H93  1  0.103000  0.637700  0.509100  1.0  0.1158
  H  H94  1  0.128500  0.710500  0.484900  1.0  0.114
  H  H95  1  0.027900  0.570200  0.466300  1.0  0.1212
  H  H96  1  0.172400  0.563900  0.426800  1.0  0.117
  H  H97  1  0.796570  0.024530  0.568530  1.0  0.1057
  H  H98  1  0.771070  0.952030  0.592230  1.0  0.1073
  H  H99  1  0.769670  0.971030  0.842430  1.0  0.1184
  H  H100  1  0.795170  0.043830  0.818230  1.0  0.114
  H  H101  1  0.694570  0.903530  0.799630  1.0  0.1212
  H  H102  1  0.839070  0.897230  0.760130  1.0  0.1201
  H  H103  1  0.463230  0.357870  0.901870  1.0  0.1055
  H  H104  1  0.437730  0.285370  0.925570  1.0  0.1062
  H  H105  1  0.436330  0.304370  0.175770  1.0  0.1158
  H  H106  1  0.461830  0.377170  0.151570  1.0  0.114
  H  H107  1  0.361230  0.236870  0.132970  1.0  0.1212
  H  H108  1  0.505730  0.230570  0.093470  1.0  0.117
  H  H109  1  0.561300  0.870100  0.235200  1.0  0.1059
  H  H110  1  0.514300  0.895600  0.258900  1.0  0.1083
  H  H111  1  0.534700  0.897000  0.509100  1.0  0.1189
  H  H112  1  0.582000  0.871500  0.484900  1.0  0.1147
  H  H113  1  0.542300  0.972100  0.466300  1.0  0.1219
  H  H114  1  0.391500  0.827600  0.426800  1.0  0.1178
  H  H115  1  0.227970  0.203430  0.568530  1.0  0.1059
  H  H116  1  0.180970  0.228930  0.592230  1.0  0.1068
  H  H117  1  0.201370  0.230330  0.842430  1.0  0.1163
  H  H118  1  0.248670  0.204830  0.818230  1.0  0.1159
  H  H119  1  0.208970  0.305430  0.799630  1.0  0.1219
  H  H120  1  0.058170  0.160930  0.760130  1.0  0.1163
  H  H121  1  0.894630  0.536770  0.901870  1.0  0.1059
  H  H122  1  0.847630  0.562270  0.925570  1.0  0.1083
  H  H123  1  0.868030  0.563670  0.175770  1.0  0.1189
  H  H124  1  0.915330  0.538170  0.151570  1.0  0.1147
  H  H125  1  0.875630  0.638770  0.132970  1.0  0.1219
  H  H126  1  0.724830  0.494270  0.093470  1.0  0.1178
  H  H127  1  0.561300  0.691200  0.235200  1.0  0.1056
  H  H128  1  0.514300  0.618700  0.258900  1.0  0.1062
  H  H129  1  0.534700  0.637700  0.509100  1.0  0.1156
  H  H130  1  0.582000  0.710500  0.484900  1.0  0.115
  H  H131  1  0.542300  0.570200  0.466300  1.0  0.1216
  H  H132  1  0.391500  0.563900  0.426800  1.0  0.1172
  H  H133  1  0.227970  0.024530  0.568530  1.0  0.1056
  H  H134  1  0.180970  0.952030  0.592230  1.0  0.1062
  H  H135  1  0.201370  0.971030  0.842430  1.0  0.1156
  H  H136  1  0.248670  0.043830  0.818230  1.0  0.1141
  H  H137  1  0.208970  0.903530  0.799630  1.0  0.1215
  H  H138  1  0.058170  0.897230  0.760130  1.0  0.1178
  H  H139  1  0.894630  0.357870  0.901870  1.0  0.1056
  H  H140  1  0.847630  0.285370  0.925570  1.0  0.1062
  H  H141  1  0.868030  0.304370  0.175770  1.0  0.1156
  H  H142  1  0.915330  0.377170  0.151570  1.0  0.115
  H  H143  1  0.875630  0.236870  0.132970  1.0  0.1216
  H  H144  1  0.724830  0.230570  0.093470  1.0  0.1172
  H  H145  1  0.308800  0.870100  0.235200  1.0  0.1059
  H  H146  1  0.381300  0.895600  0.258900  1.0  0.1064
  H  H147  1  0.362300  0.897000  0.509100  1.0  0.1166
  H  H148  1  0.289500  0.871500  0.484900  1.0  0.1142
  H  H149  1  0.429800  0.972100  0.466300  1.0  0.1208
  H  H150  1  0.436100  0.827600  0.426800  1.0  0.1163
  H  H151  1  0.975470  0.203430  0.568530  1.0  0.1059
  H  H152  1  0.047970  0.228930  0.592230  1.0  0.1077
  H  H153  1  0.028970  0.230330  0.842430  1.0  0.1191
  H  H154  1  0.956170  0.204830  0.818230  1.0  0.1142
  H  H155  1  0.096470  0.305430  0.799630  1.0  0.1208
  H  H156  1  0.102770  0.160930  0.760130  1.0  0.1191
  H  H157  1  0.642130  0.536770  0.901870  1.0  0.1057
  H  H158  1  0.714630  0.562270  0.925570  1.0  0.1064
  H  H159  1  0.695630  0.563670  0.175770  1.0  0.1166
  H  H160  1  0.622830  0.538170  0.151570  1.0  0.1142
  H  H161  1  0.763130  0.638770  0.132970  1.0  0.1208
  H  H162  1  0.769430  0.494270  0.093470  1.0  0.1163
  H  H163  1  0.129900  0.438700  0.235200  1.0  0.1059
  H  H164  1  0.104400  0.485700  0.258900  1.0  0.1084
  H  H165  1  0.103000  0.465300  0.509100  1.0  0.1187
  H  H166  1  0.128500  0.418000  0.484900  1.0  0.1148
  H  H167  1  0.027900  0.457700  0.466300  1.0  0.1224
  H  H168  1  0.172400  0.608500  0.426800  1.0  0.1167
  H  H169  1  0.796570  0.772030  0.568530  1.0  0.1059
  H  H170  1  0.771070  0.819030  0.592230  1.0  0.107
  H  H171  1  0.769670  0.798630  0.842430  1.0  0.116
  H  H172  1  0.795170  0.751330  0.818230  1.0  0.116
  H  H173  1  0.694570  0.791030  0.799630  1.0  0.1224
  H  H174  1  0.839070  0.941830  0.760130  1.0  0.1158
  H  H175  1  0.463230  0.105370  0.901870  1.0  0.1059
  H  H176  1  0.437730  0.152370  0.925570  1.0  0.1084
  H  H177  1  0.436330  0.131970  0.175770  1.0  0.1187
  H  H178  1  0.461830  0.084670  0.151570  1.0  0.1148
  H  H179  1  0.361230  0.124370  0.132970  1.0  0.1224
  H  H180  1  0.505730  0.275170  0.093470  1.0  0.1167
  H  H181  1  0.691200  0.561300  0.764800  1.0  0.1065
  H  H182  1  0.618700  0.514300  0.741100  1.0  0.1071
  H  H183  1  0.637700  0.534700  0.490900  1.0  0.1169
  H  H184  1  0.710500  0.582000  0.515100  1.0  0.115
  H  H185  1  0.570200  0.542300  0.533700  1.0  0.1221
  H  H186  1  0.563900  0.391500  0.573200  1.0  0.1155
  H  H187  1  0.357870  0.894630  0.098130  1.0  0.1064
  H  H188  1  0.285370  0.847630  0.074430  1.0  0.1071
  H  H189  1  0.304370  0.868030  0.824230  1.0  0.1169
  H  H190  1  0.377170  0.915330  0.848430  1.0  0.115
  H  H191  1  0.236870  0.875630  0.867030  1.0  0.1221
  H  H192  1  0.230570  0.724830  0.906530  1.0  0.1155
  H  H193  1  0.024530  0.227970  0.431470  1.0  0.1065
  H  H194  1  0.952030  0.180970  0.407770  1.0  0.1071
  H  H195  1  0.971030  0.201370  0.157570  1.0  0.1169
  H  H196  1  0.043830  0.248670  0.181770  1.0  0.1141
  H  H197  1  0.903530  0.208970  0.200370  1.0  0.1221
  H  H198  1  0.897230  0.058170  0.239870  1.0  0.1163
  H  H199  1  0.870100  0.308800  0.764800  1.0  0.1061
  H  H200  1  0.895600  0.381300  0.741100  1.0  0.1063
  H  H201  1  0.897000  0.362300  0.490900  1.0  0.1167
  H  H202  1  0.871500  0.289500  0.515100  1.0  0.1136
  H  H203  1  0.972100  0.429800  0.533700  1.0  0.1219
  H  H204  1  0.827600  0.436100  0.573200  1.0  0.1148
  H  H205  1  0.536770  0.642130  0.098130  1.0  0.106
  H  H206  1  0.562270  0.714630  0.074430  1.0  0.1063
  H  H207  1  0.563670  0.695630  0.824230  1.0  0.1167
  H  H208  1  0.538170  0.622830  0.848430  1.0  0.1136
  H  H209  1  0.638770  0.763130  0.867030  1.0  0.1219
  H  H210  1  0.494270  0.769430  0.906530  1.0  0.1148
  H  H211  1  0.203430  0.975470  0.431470  1.0  0.1061
  H  H212  1  0.228930  0.047970  0.407770  1.0  0.1077
  H  H213  1  0.230330  0.028970  0.157570  1.0  0.1187
  H  H214  1  0.204830  0.956170  0.181770  1.0  0.1136
  H  H215  1  0.305430  0.096470  0.200370  1.0  0.1219
  H  H216  1  0.160930  0.102770  0.239870  1.0  0.1176
  H  H217  1  0.438700  0.129900  0.764800  1.0  0.1064
  H  H218  1  0.485700  0.104400  0.741100  1.0  0.1084
  H  H219  1  0.465300  0.103000  0.490900  1.0  0.1188
  H  H220  1  0.418000  0.128500  0.515100  1.0  0.1139
  H  H221  1  0.457700  0.027900  0.533700  1.0  0.121
  H  H222  1  0.608500  0.172400  0.573200  1.0  0.1167
  H  H223  1  0.105370  0.463230  0.098130  1.0  0.1064
  H  H224  1  0.152370  0.437730  0.074430  1.0  0.1084
  H  H225  1  0.131970  0.436330  0.824230  1.0  0.1188
  H  H226  1  0.084670  0.461830  0.848430  1.0  0.1139
  H  H227  1  0.124370  0.361230  0.867030  1.0  0.121
  H  H228  1  0.275170  0.505730  0.906530  1.0  0.1167
  H  H229  1  0.772030  0.796570  0.431470  1.0  0.1064
  H  H230  1  0.819030  0.771070  0.407770  1.0  0.1066
  H  H231  1  0.798630  0.769670  0.157570  1.0  0.1171
  H  H232  1  0.751330  0.795170  0.181770  1.0  0.1151
  H  H233  1  0.791030  0.694570  0.200370  1.0  0.121
  H  H234  1  0.941830  0.839070  0.239870  1.0  0.1161
  H  H235  1  0.599600  0.400400  0.643800  1.0  0.1381
  H  H236  1  0.266270  0.733730  0.977130  1.0  0.1381
  H  H237  1  0.932930  0.067070  0.310470  1.0  0.1381
  H  H238  1  0.599600  0.199200  0.643800  1.0  0.1363
  H  H239  1  0.266270  0.532530  0.977130  1.0  0.1363
  H  H240  1  0.932930  0.865870  0.310470  1.0  0.1363
  H  H241  1  0.800800  0.400400  0.643800  1.0  0.1371
  H  H242  1  0.467470  0.733730  0.977130  1.0  0.1371
  H  H243  1  0.134130  0.067070  0.310470  1.0  0.1371
  H  H244  1  0.400400  0.599600  0.356200  1.0  0.1367
  H  H245  1  0.067070  0.932930  0.689530  1.0  0.137
  H  H246  1  0.733730  0.266270  0.022870  1.0  0.1367
  H  H247  1  0.199200  0.599600  0.356200  1.0  0.1379
  H  H248  1  0.865870  0.932930  0.689530  1.0  0.1379
  H  H249  1  0.532530  0.266270  0.022870  1.0  0.1379
  H  H250  1  0.400400  0.800800  0.356200  1.0  0.1366
  H  H251  1  0.067070  0.134130  0.689530  1.0  0.1366
  H  H252  1  0.733730  0.467470  0.022870  1.0  0.1366
  C  C253  1  0.390080  0.244900  0.656600  1.0  0.6693
  C  C254  1  0.422270  0.292120  0.642700  1.0  -0.1321
  C  C255  1  0.443320  0.319600  0.708300  1.0  -0.0773
  C  C256  1  0.471320  0.362970  0.694100  1.0  -0.1695
  C  C257  1  0.478800  0.380040  0.614000  1.0  0.0942
  C  C258  1  0.459350  0.351790  0.547600  1.0  -0.1954
  C  C259  1  0.431240  0.308320  0.562000  1.0  -0.0516
  C  C260  1  0.505650  0.427010  0.595000  1.0  0.0042
  C  C261  1  0.487210  0.446500  0.549100  1.0  -0.1365
  C  C262  1  0.056750  0.578230  0.989930  1.0  0.6692
  C  C263  1  0.088940  0.625450  0.976030  1.0  -0.1326
  C  C264  1  0.109990  0.652930  0.041630  1.0  -0.0772
  C  C265  1  0.137990  0.696300  0.027430  1.0  -0.1695
  C  C266  1  0.145470  0.713370  0.947330  1.0  0.0942
  C  C267  1  0.126020  0.685120  0.880930  1.0  -0.1954
  C  C268  1  0.097910  0.641650  0.895330  1.0  -0.0516
  C  C269  1  0.172320  0.760340  0.928330  1.0  0.0042
  C  C270  1  0.153880  0.779830  0.882430  1.0  -0.1364
  C  C271  1  0.723410  0.911570  0.323270  1.0  0.6693
  C  C272  1  0.755600  0.958790  0.309370  1.0  -0.1321
  C  C273  1  0.776650  0.986270  0.374970  1.0  -0.0773
  C  C274  1  0.804650  0.029640  0.360770  1.0  -0.1695
  C  C275  1  0.812130  0.046710  0.280670  1.0  0.0942
  C  C276  1  0.792680  0.018460  0.214270  1.0  -0.1954
  C  C277  1  0.764570  0.974990  0.228670  1.0  -0.0516
  C  C278  1  0.838980  0.093680  0.261670  1.0  0.0042
  C  C279  1  0.820540  0.113170  0.215770  1.0  -0.1365
  C  C280  1  0.755100  0.145180  0.656600  1.0  0.6678
  C  C281  1  0.707880  0.130150  0.642700  1.0  -0.1333
  C  C282  1  0.680400  0.123720  0.708300  1.0  -0.079
  C  C283  1  0.637030  0.108350  0.694100  1.0  -0.1706
  C  C284  1  0.619960  0.098760  0.614000  1.0  0.0917
  C  C285  1  0.648210  0.107560  0.547600  1.0  -0.1965
  C  C286  1  0.691680  0.122920  0.562000  1.0  -0.0516
  C  C287  1  0.572990  0.078640  0.595000  1.0  0.0061
  C  C288  1  0.553500  0.040710  0.549100  1.0  -0.1368
  C  C289  1  0.421770  0.478510  0.989930  1.0  0.6677
  C  C290  1  0.374550  0.463480  0.976030  1.0  -0.1334
  C  C291  1  0.347070  0.457050  0.041630  1.0  -0.079
  C  C292  1  0.303700  0.441680  0.027430  1.0  -0.1706
  C  C293  1  0.286630  0.432090  0.947330  1.0  0.0917
  C  C294  1  0.314880  0.440890  0.880930  1.0  -0.1965
  C  C295  1  0.358350  0.456250  0.895330  1.0  -0.0516
  C  C296  1  0.239660  0.411970  0.928330  1.0  0.0061
  C  C297  1  0.220170  0.374040  0.882430  1.0  -0.1369
  C  C298  1  0.088430  0.811850  0.323270  1.0  0.6678
  C  C299  1  0.041210  0.796820  0.309370  1.0  -0.1333
  C  C300  1  0.013730  0.790390  0.374970  1.0  -0.079
  C  C301  1  0.970360  0.775020  0.360770  1.0  -0.1706
  C  C302  1  0.953290  0.765430  0.280670  1.0  0.0917
  C  C303  1  0.981540  0.774230  0.214270  1.0  -0.1965
  C  C304  1  0.025010  0.789590  0.228670  1.0  -0.0516
  C  C305  1  0.906320  0.745310  0.261670  1.0  0.0061
  C  C306  1  0.886830  0.707380  0.215770  1.0  -0.1368
  C  C307  1  0.854820  0.609920  0.656600  1.0  0.6687
  C  C308  1  0.869850  0.577730  0.642700  1.0  -0.1346
  C  C309  1  0.876280  0.556680  0.708300  1.0  -0.0781
  C  C310  1  0.891650  0.528680  0.694100  1.0  -0.1687
  C  C311  1  0.901240  0.521200  0.614000  1.0  0.0935
  C  C312  1  0.892440  0.540650  0.547600  1.0  -0.1969
  C  C313  1  0.877080  0.568760  0.562000  1.0  -0.0521
  C  C314  1  0.921360  0.494350  0.595000  1.0  0.0051
  C  C315  1  0.959290  0.512790  0.549100  1.0  -0.1375
  C  C316  1  0.521490  0.943250  0.989930  1.0  0.6688
  C  C317  1  0.536520  0.911060  0.976030  1.0  -0.1338
  C  C318  1  0.542950  0.890010  0.041630  1.0  -0.078
  C  C319  1  0.558320  0.862010  0.027430  1.0  -0.1687
  C  C320  1  0.567910  0.854530  0.947330  1.0  0.0935
  C  C321  1  0.559110  0.873980  0.880930  1.0  -0.1969
  C  C322  1  0.543750  0.902090  0.895330  1.0  -0.0521
  C  C323  1  0.588030  0.827680  0.928330  1.0  0.0051
  C  C324  1  0.625960  0.846120  0.882430  1.0  -0.1374
  C  C325  1  0.188150  0.276590  0.323270  1.0  0.6686
  C  C326  1  0.203180  0.244400  0.309370  1.0  -0.1346
  C  C327  1  0.209610  0.223350  0.374970  1.0  -0.0781
  C  C328  1  0.224980  0.195350  0.360770  1.0  -0.1687
  C  C329  1  0.234570  0.187870  0.280670  1.0  0.0935
  C  C330  1  0.225770  0.207320  0.214270  1.0  -0.1969
  C  C331  1  0.210410  0.235430  0.228670  1.0  -0.0521
  C  C332  1  0.254690  0.161020  0.261670  1.0  0.0051
  C  C333  1  0.292620  0.179460  0.215770  1.0  -0.1375
  C  C334  1  0.244900  0.390080  0.343400  1.0  0.6685
  C  C335  1  0.292120  0.422270  0.357300  1.0  -0.1341
  C  C336  1  0.319600  0.443320  0.291700  1.0  -0.0788
  C  C337  1  0.362970  0.471320  0.305900  1.0  -0.1702
  C  C338  1  0.380040  0.478800  0.386000  1.0  0.0936
  C  C339  1  0.351790  0.459350  0.452400  1.0  -0.1969
  C  C340  1  0.308320  0.431240  0.438000  1.0  -0.052
  C  C341  1  0.427010  0.505650  0.405000  1.0  0.0045
  C  C342  1  0.446500  0.487210  0.450900  1.0  -0.138
  C  C343  1  0.911570  0.723410  0.676730  1.0  0.6685
  C  C344  1  0.958790  0.755600  0.690630  1.0  -0.1341
  C  C345  1  0.986270  0.776650  0.625030  1.0  -0.0788
  C  C346  1  0.029640  0.804650  0.639230  1.0  -0.1702
  C  C347  1  0.046710  0.812130  0.719330  1.0  0.0936
  C  C348  1  0.018460  0.792680  0.785730  1.0  -0.1969
  C  C349  1  0.974990  0.764570  0.771330  1.0  -0.052
  C  C350  1  0.093680  0.838980  0.738330  1.0  0.0045
  C  C351  1  0.113170  0.820540  0.784230  1.0  -0.138
  C  C352  1  0.578230  0.056750  0.010070  1.0  0.6684
  C  C353  1  0.625450  0.088940  0.023970  1.0  -0.1346
  C  C354  1  0.652930  0.109990  0.958370  1.0  -0.0788
  C  C355  1  0.696300  0.137990  0.972570  1.0  -0.1702
  C  C356  1  0.713370  0.145470  0.052670  1.0  0.0936
  C  C357  1  0.685120  0.126020  0.119070  1.0  -0.1969
  C  C358  1  0.641650  0.097910  0.104670  1.0  -0.052
  C  C359  1  0.760340  0.172320  0.071670  1.0  0.0045
  C  C360  1  0.779830  0.153880  0.117570  1.0  -0.1379
  C  C361  1  0.145180  0.755100  0.343400  1.0  0.6693
  C  C362  1  0.130150  0.707880  0.357300  1.0  -0.1327
  C  C363  1  0.123720  0.680400  0.291700  1.0  -0.0772
  C  C364  1  0.108350  0.637030  0.305900  1.0  -0.1698
  C  C365  1  0.098760  0.619960  0.386000  1.0  0.0937
  C  C366  1  0.107560  0.648210  0.452400  1.0  -0.1946
  C  C367  1  0.122920  0.691680  0.438000  1.0  -0.0524
  C  C368  1  0.078640  0.572990  0.405000  1.0  0.0044
  C  C369  1  0.040710  0.553500  0.450900  1.0  -0.1376
  C  C370  1  0.811850  0.088430  0.676730  1.0  0.6693
  C  C371  1  0.796820  0.041210  0.690630  1.0  -0.1327
  C  C372  1  0.790390  0.013730  0.625030  1.0  -0.0773
  C  C373  1  0.775020  0.970360  0.639230  1.0  -0.1698
  C  C374  1  0.765430  0.953290  0.719330  1.0  0.0937
  C  C375  1  0.774230  0.981540  0.785730  1.0  -0.1946
  C  C376  1  0.789590  0.025010  0.771330  1.0  -0.0524
  C  C377  1  0.745310  0.906320  0.738330  1.0  0.0044
  C  C378  1  0.707380  0.886830  0.784230  1.0  -0.1376
  C  C379  1  0.478510  0.421770  0.010070  1.0  0.6693
  C  C380  1  0.463480  0.374550  0.023970  1.0  -0.1328
  C  C381  1  0.457050  0.347070  0.958370  1.0  -0.0773
  C  C382  1  0.441680  0.303700  0.972570  1.0  -0.1698
  C  C383  1  0.432090  0.286630  0.052670  1.0  0.0937
  C  C384  1  0.440890  0.314880  0.119070  1.0  -0.1946
  C  C385  1  0.456250  0.358350  0.104670  1.0  -0.0524
  C  C386  1  0.411970  0.239660  0.071670  1.0  0.0044
  C  C387  1  0.374040  0.220170  0.117570  1.0  -0.1378
  C  C388  1  0.609920  0.854820  0.343400  1.0  0.6674
  C  C389  1  0.577730  0.869850  0.357300  1.0  -0.1335
  C  C390  1  0.556680  0.876280  0.291700  1.0  -0.0794
  C  C391  1  0.528680  0.891650  0.305900  1.0  -0.1717
  C  C392  1  0.521200  0.901240  0.386000  1.0  0.0915
  C  C393  1  0.540650  0.892440  0.452400  1.0  -0.1961
  C  C394  1  0.568760  0.877080  0.438000  1.0  -0.0503
  C  C395  1  0.494350  0.921360  0.405000  1.0  0.0064
  C  C396  1  0.512790  0.959290  0.450900  1.0  -0.1387
  C  C397  1  0.276590  0.188150  0.676730  1.0  0.6673
  C  C398  1  0.244400  0.203180  0.690630  1.0  -0.1335
  C  C399  1  0.223350  0.209610  0.625030  1.0  -0.0794
  C  C400  1  0.195350  0.224980  0.639230  1.0  -0.1717
  C  C401  1  0.187870  0.234570  0.719330  1.0  0.0915
  C  C402  1  0.207320  0.225770  0.785730  1.0  -0.1961
  C  C403  1  0.235430  0.210410  0.771330  1.0  -0.0503
  C  C404  1  0.161020  0.254690  0.738330  1.0  0.0064
  C  C405  1  0.179460  0.292620  0.784230  1.0  -0.1387
  C  C406  1  0.943250  0.521490  0.010070  1.0  0.6675
  C  C407  1  0.911060  0.536520  0.023970  1.0  -0.1327
  C  C408  1  0.890010  0.542950  0.958370  1.0  -0.0793
  C  C409  1  0.862010  0.558320  0.972570  1.0  -0.1717
  C  C410  1  0.854530  0.567910  0.052670  1.0  0.0915
  C  C411  1  0.873980  0.559110  0.119070  1.0  -0.1961
  C  C412  1  0.902090  0.543750  0.104670  1.0  -0.0503
  C  C413  1  0.827680  0.588030  0.071670  1.0  0.0064
  C  C414  1  0.846120  0.625960  0.117570  1.0  -0.1386
  C  C415  1  0.609920  0.755100  0.343400  1.0  0.669
  C  C416  1  0.577730  0.707880  0.357300  1.0  -0.1317
  C  C417  1  0.556680  0.680400  0.291700  1.0  -0.0771
  C  C418  1  0.528680  0.637030  0.305900  1.0  -0.1705
  C  C419  1  0.521200  0.619960  0.386000  1.0  0.0933
  C  C420  1  0.540650  0.648210  0.452400  1.0  -0.1947
  C  C421  1  0.568760  0.691680  0.438000  1.0  -0.0513
  C  C422  1  0.494350  0.572990  0.405000  1.0  0.0054
  C  C423  1  0.512790  0.553500  0.450900  1.0  -0.1379
  C  C424  1  0.276590  0.088430  0.676730  1.0  0.6691
  C  C425  1  0.244400  0.041210  0.690630  1.0  -0.1317
  C  C426  1  0.223350  0.013730  0.625030  1.0  -0.0771
  C  C427  1  0.195350  0.970360  0.639230  1.0  -0.1705
  C  C428  1  0.187870  0.953290  0.719330  1.0  0.0933
  C  C429  1  0.207320  0.981540  0.785730  1.0  -0.1947
  C  C430  1  0.235430  0.025010  0.771330  1.0  -0.0513
  C  C431  1  0.161020  0.906320  0.738330  1.0  0.0054
  C  C432  1  0.179460  0.886830  0.784230  1.0  -0.1379
  C  C433  1  0.943250  0.421770  0.010070  1.0  0.669
  C  C434  1  0.911060  0.374550  0.023970  1.0  -0.1323
  C  C435  1  0.890010  0.347070  0.958370  1.0  -0.0771
  C  C436  1  0.862010  0.303700  0.972570  1.0  -0.1705
  C  C437  1  0.854530  0.286630  0.052670  1.0  0.0933
  C  C438  1  0.873980  0.314880  0.119070  1.0  -0.1947
  C  C439  1  0.902090  0.358350  0.104670  1.0  -0.0513
  C  C440  1  0.827680  0.239660  0.071670  1.0  0.0054
  C  C441  1  0.846120  0.220170  0.117570  1.0  -0.1378
  C  C442  1  0.244900  0.854820  0.343400  1.0  0.6671
  C  C443  1  0.292120  0.869850  0.357300  1.0  -0.1341
  C  C444  1  0.319600  0.876280  0.291700  1.0  -0.0802
  C  C445  1  0.362970  0.891650  0.305900  1.0  -0.1715
  C  C446  1  0.380040  0.901240  0.386000  1.0  0.0926
  C  C447  1  0.351790  0.892440  0.452400  1.0  -0.1965
  C  C448  1  0.308320  0.877080  0.438000  1.0  -0.051
  C  C449  1  0.427010  0.921360  0.405000  1.0  0.0058
  C  C450  1  0.446500  0.959290  0.450900  1.0  -0.1389
  C  C451  1  0.911570  0.188150  0.676730  1.0  0.6672
  C  C452  1  0.958790  0.203180  0.690630  1.0  -0.1341
  C  C453  1  0.986270  0.209610  0.625030  1.0  -0.0802
  C  C454  1  0.029640  0.224980  0.639230  1.0  -0.1715
  C  C455  1  0.046710  0.234570  0.719330  1.0  0.0926
  C  C456  1  0.018460  0.225770  0.785730  1.0  -0.1965
  C  C457  1  0.974990  0.210410  0.771330  1.0  -0.051
  C  C458  1  0.093680  0.254690  0.738330  1.0  0.0058
  C  C459  1  0.113170  0.292620  0.784230  1.0  -0.1389
  C  C460  1  0.578230  0.521490  0.010070  1.0  0.6672
  C  C461  1  0.625450  0.536520  0.023970  1.0  -0.1342
  C  C462  1  0.652930  0.542950  0.958370  1.0  -0.0803
  C  C463  1  0.696300  0.558320  0.972570  1.0  -0.1715
  C  C464  1  0.713370  0.567910  0.052670  1.0  0.0926
  C  C465  1  0.685120  0.559110  0.119070  1.0  -0.1965
  C  C466  1  0.641650  0.543750  0.104670  1.0  -0.051
  C  C467  1  0.760340  0.588030  0.071670  1.0  0.0058
  C  C468  1  0.779830  0.625960  0.117570  1.0  -0.1391
  C  C469  1  0.145180  0.390080  0.343400  1.0  0.6677
  C  C470  1  0.130150  0.422270  0.357300  1.0  -0.1354
  C  C471  1  0.123720  0.443320  0.291700  1.0  -0.0788
  C  C472  1  0.108350  0.471320  0.305900  1.0  -0.1702
  C  C473  1  0.098760  0.478800  0.386000  1.0  0.0933
  C  C474  1  0.107560  0.459350  0.452400  1.0  -0.1973
  C  C475  1  0.122920  0.431240  0.438000  1.0  -0.0511
  C  C476  1  0.078640  0.505650  0.405000  1.0  0.0048
  C  C477  1  0.040710  0.487210  0.450900  1.0  -0.1385
  C  C478  1  0.811850  0.723410  0.676730  1.0  0.6677
  C  C479  1  0.796820  0.755600  0.690630  1.0  -0.1354
  C  C480  1  0.790390  0.776650  0.625030  1.0  -0.0788
  C  C481  1  0.775020  0.804650  0.639230  1.0  -0.1702
  C  C482  1  0.765430  0.812130  0.719330  1.0  0.0933
  C  C483  1  0.774230  0.792680  0.785730  1.0  -0.1973
  C  C484  1  0.789590  0.764570  0.771330  1.0  -0.0511
  C  C485  1  0.745310  0.838980  0.738330  1.0  0.0048
  C  C486  1  0.707380  0.820540  0.784230  1.0  -0.1385
  C  C487  1  0.478510  0.056750  0.010070  1.0  0.6679
  C  C488  1  0.463480  0.088940  0.023970  1.0  -0.1346
  C  C489  1  0.457050  0.109990  0.958370  1.0  -0.0788
  C  C490  1  0.441680  0.137990  0.972570  1.0  -0.1702
  C  C491  1  0.432090  0.145470  0.052670  1.0  0.0933
  C  C492  1  0.440890  0.126020  0.119070  1.0  -0.1973
  C  C493  1  0.456250  0.097910  0.104670  1.0  -0.0511
  C  C494  1  0.411970  0.172320  0.071670  1.0  0.0048
  C  C495  1  0.374040  0.153880  0.117570  1.0  -0.1384
  C  C496  1  0.755100  0.609920  0.656600  1.0  0.6678
  C  C497  1  0.707880  0.577730  0.642700  1.0  -0.1347
  C  C498  1  0.680400  0.556680  0.708300  1.0  -0.0782
  C  C499  1  0.637030  0.528680  0.694100  1.0  -0.1693
  C  C500  1  0.619960  0.521200  0.614000  1.0  0.0935
  C  C501  1  0.648210  0.540650  0.547600  1.0  -0.197
  C  C502  1  0.691680  0.568760  0.562000  1.0  -0.0527
  C  C503  1  0.572990  0.494350  0.595000  1.0  0.0054
  C  C504  1  0.553500  0.512790  0.549100  1.0  -0.1379
  C  C505  1  0.421770  0.943250  0.989930  1.0  0.6678
  C  C506  1  0.374550  0.911060  0.976030  1.0  -0.1352
  C  C507  1  0.347070  0.890010  0.041630  1.0  -0.0782
  C  C508  1  0.303700  0.862010  0.027430  1.0  -0.1693
  C  C509  1  0.286630  0.854530  0.947330  1.0  0.0935
  C  C510  1  0.314880  0.873980  0.880930  1.0  -0.197
  C  C511  1  0.358350  0.902090  0.895330  1.0  -0.0527
  C  C512  1  0.239660  0.827680  0.928330  1.0  0.0054
  C  C513  1  0.220170  0.846120  0.882430  1.0  -0.1378
  C  C514  1  0.088430  0.276590  0.323270  1.0  0.668
  C  C515  1  0.041210  0.244400  0.309370  1.0  -0.1347
  C  C516  1  0.013730  0.223350  0.374970  1.0  -0.0782
  C  C517  1  0.970360  0.195350  0.360770  1.0  -0.1693
  C  C518  1  0.953290  0.187870  0.280670  1.0  0.0935
  C  C519  1  0.981540  0.207320  0.214270  1.0  -0.197
  C  C520  1  0.025010  0.235430  0.228670  1.0  -0.0527
  C  C521  1  0.906320  0.161020  0.261670  1.0  0.0054
  C  C522  1  0.886830  0.179460  0.215770  1.0  -0.1379
  C  C523  1  0.854820  0.244900  0.656600  1.0  0.669
  C  C524  1  0.869850  0.292120  0.642700  1.0  -0.1328
  C  C525  1  0.876280  0.319600  0.708300  1.0  -0.077
  C  C526  1  0.891650  0.362970  0.694100  1.0  -0.1702
  C  C527  1  0.901240  0.380040  0.614000  1.0  0.0937
  C  C528  1  0.892440  0.351790  0.547600  1.0  -0.1957
  C  C529  1  0.877080  0.308320  0.562000  1.0  -0.0524
  C  C530  1  0.921360  0.427010  0.595000  1.0  0.005
  C  C531  1  0.959290  0.446500  0.549100  1.0  -0.137
  C  C532  1  0.521490  0.578230  0.989930  1.0  0.6691
  C  C533  1  0.536520  0.625450  0.976030  1.0  -0.1329
  C  C534  1  0.542950  0.652930  0.041630  1.0  -0.0771
  C  C535  1  0.558320  0.696300  0.027430  1.0  -0.1702
  C  C536  1  0.567910  0.713370  0.947330  1.0  0.0937
  C  C537  1  0.559110  0.685120  0.880930  1.0  -0.1957
  C  C538  1  0.543750  0.641650  0.895330  1.0  -0.0524
  C  C539  1  0.588030  0.760340  0.928330  1.0  0.005
  C  C540  1  0.625960  0.779830  0.882430  1.0  -0.1371
  C  C541  1  0.188150  0.911570  0.323270  1.0  0.6691
  C  C542  1  0.203180  0.958790  0.309370  1.0  -0.1328
  C  C543  1  0.209610  0.986270  0.374970  1.0  -0.077
  C  C544  1  0.224980  0.029640  0.360770  1.0  -0.1702
  C  C545  1  0.234570  0.046710  0.280670  1.0  0.0937
  C  C546  1  0.225770  0.018460  0.214270  1.0  -0.1957
  C  C547  1  0.210410  0.974990  0.228670  1.0  -0.0524
  C  C548  1  0.254690  0.093680  0.261670  1.0  0.005
  C  C549  1  0.292620  0.113170  0.215770  1.0  -0.137
  C  C550  1  0.390080  0.145180  0.656600  1.0  0.6676
  C  C551  1  0.422270  0.130150  0.642700  1.0  -0.134
  C  C552  1  0.443320  0.123720  0.708300  1.0  -0.0796
  C  C553  1  0.471320  0.108350  0.694100  1.0  -0.1701
  C  C554  1  0.478800  0.098760  0.614000  1.0  0.0925
  C  C555  1  0.459350  0.107560  0.547600  1.0  -0.1966
  C  C556  1  0.431240  0.122920  0.562000  1.0  -0.0513
  C  C557  1  0.505650  0.078640  0.595000  1.0  0.0053
  C  C558  1  0.487210  0.040710  0.549100  1.0  -0.1378
  C  C559  1  0.056750  0.478510  0.989930  1.0  0.6678
  C  C560  1  0.088940  0.463480  0.976030  1.0  -0.1332
  C  C561  1  0.109990  0.457050  0.041630  1.0  -0.0795
  C  C562  1  0.137990  0.441680  0.027430  1.0  -0.1701
  C  C563  1  0.145470  0.432090  0.947330  1.0  0.0925
  C  C564  1  0.126020  0.440890  0.880930  1.0  -0.1966
  C  C565  1  0.097910  0.456250  0.895330  1.0  -0.0513
  C  C566  1  0.172320  0.411970  0.928330  1.0  0.0053
  C  C567  1  0.153880  0.374040  0.882430  1.0  -0.1376
  C  C568  1  0.723410  0.811850  0.323270  1.0  0.6676
  C  C569  1  0.755600  0.796820  0.309370  1.0  -0.1339
  C  C570  1  0.776650  0.790390  0.374970  1.0  -0.0796
  C  C571  1  0.804650  0.775020  0.360770  1.0  -0.1701
  C  C572  1  0.812130  0.765430  0.280670  1.0  0.0925
  C  C573  1  0.792680  0.774230  0.214270  1.0  -0.1966
  C  C574  1  0.764570  0.789590  0.228670  1.0  -0.0513
  C  C575  1  0.838980  0.745310  0.261670  1.0  0.0053
  C  C576  1  0.820540  0.707380  0.215770  1.0  -0.1378
  C  C577  1  0.510100  0.489900  0.524300  1.0  0.0245
  C  C578  1  0.548650  0.451350  0.620700  1.0  0.1812
  C  C579  1  0.586450  0.413550  0.609200  1.0  -0.0158
  C  C580  1  0.176770  0.823230  0.857630  1.0  0.0245
  C  C581  1  0.215320  0.784680  0.954030  1.0  0.1812
  C  C582  1  0.253120  0.746880  0.942530  1.0  -0.0158
  C  C583  1  0.843430  0.156570  0.190970  1.0  0.0245
  C  C584  1  0.881980  0.118020  0.287370  1.0  0.1814
  C  C585  1  0.919780  0.080220  0.275870  1.0  -0.0159
  C  C586  1  0.510100  0.020200  0.524300  1.0  0.0288
  C  C587  1  0.548650  0.097300  0.620700  1.0  0.1816
  C  C588  1  0.586450  0.172900  0.609200  1.0  -0.0141
  C  C589  1  0.176770  0.353530  0.857630  1.0  0.0288
  C  C590  1  0.215320  0.430630  0.954030  1.0  0.1816
  C  C591  1  0.253120  0.506230  0.942530  1.0  -0.0141
  C  C592  1  0.843430  0.686870  0.190970  1.0  0.0288
  C  C593  1  0.881980  0.763970  0.287370  1.0  0.1816
  C  C594  1  0.919780  0.839570  0.275870  1.0  -0.0141
  C  C595  1  0.979800  0.489900  0.524300  1.0  0.0254
  C  C596  1  0.902700  0.451350  0.620700  1.0  0.1811
  C  C597  1  0.827100  0.413550  0.609200  1.0  -0.0165
  C  C598  1  0.646470  0.823230  0.857630  1.0  0.0254
  C  C599  1  0.569370  0.784680  0.954030  1.0  0.1811
  C  C600  1  0.493770  0.746880  0.942530  1.0  -0.0165
  C  C601  1  0.313130  0.156570  0.190970  1.0  0.0254
  C  C602  1  0.236030  0.118020  0.287370  1.0  0.1811
  C  C603  1  0.160430  0.080220  0.275870  1.0  -0.0165
  C  C604  1  0.489900  0.510100  0.475700  1.0  0.0238
  C  C605  1  0.451350  0.548650  0.379300  1.0  0.1815
  C  C606  1  0.413550  0.586450  0.390800  1.0  -0.0163
  C  C607  1  0.156570  0.843430  0.809030  1.0  0.0238
  C  C608  1  0.118020  0.881980  0.712630  1.0  0.1817
  C  C609  1  0.080220  0.919780  0.724130  1.0  -0.0163
  C  C610  1  0.823230  0.176770  0.142370  1.0  0.0238
  C  C611  1  0.784680  0.215320  0.045970  1.0  0.1815
  C  C612  1  0.746880  0.253120  0.057470  1.0  -0.0163
  C  C613  1  0.020200  0.510100  0.475700  1.0  0.0248
  C  C614  1  0.097300  0.548650  0.379300  1.0  0.1815
  C  C615  1  0.172900  0.586450  0.390800  1.0  -0.0169
  C  C616  1  0.686870  0.843430  0.809030  1.0  0.0248
  C  C617  1  0.763970  0.881980  0.712630  1.0  0.1815
  C  C618  1  0.839570  0.919780  0.724130  1.0  -0.0169
  C  C619  1  0.353530  0.176770  0.142370  1.0  0.0248
  C  C620  1  0.430630  0.215320  0.045970  1.0  0.1815
  C  C621  1  0.506230  0.253120  0.057470  1.0  -0.0169
  C  C622  1  0.489900  0.979800  0.475700  1.0  0.0286
  C  C623  1  0.451350  0.902700  0.379300  1.0  0.1817
  C  C624  1  0.413550  0.827100  0.390800  1.0  -0.0127
  C  C625  1  0.156570  0.313130  0.809030  1.0  0.0286
  C  C626  1  0.118020  0.236030  0.712630  1.0  0.1818
  C  C627  1  0.080220  0.160430  0.724130  1.0  -0.0127
  C  C628  1  0.823230  0.646470  0.142370  1.0  0.0286
  C  C629  1  0.784680  0.569370  0.045970  1.0  0.1817
  C  C630  1  0.746880  0.493770  0.057470  1.0  -0.0127
  O  O631  1  0.371360  0.224200  0.590090  1.0  -0.5758
  O  O632  1  0.384470  0.230880  0.730720  1.0  -0.5522
  O  O633  1  0.038030  0.557530  0.923420  1.0  -0.5741
  O  O634  1  0.051140  0.564210  0.064050  1.0  -0.5522
  O  O635  1  0.704690  0.890870  0.256760  1.0  -0.5758
  O  O636  1  0.717800  0.897550  0.397390  1.0  -0.5558
  O  O637  1  0.775800  0.147160  0.590090  1.0  -0.5764
  O  O638  1  0.769120  0.153590  0.730720  1.0  -0.557
  O  O639  1  0.442470  0.480490  0.923420  1.0  -0.5763
  O  O640  1  0.435790  0.486920  0.064050  1.0  -0.557
  O  O641  1  0.109130  0.813830  0.256760  1.0  -0.5764
  O  O642  1  0.102450  0.820260  0.397390  1.0  -0.5571
  O  O643  1  0.852840  0.628640  0.590090  1.0  -0.5748
  O  O644  1  0.846410  0.615530  0.730720  1.0  -0.556
  O  O645  1  0.519510  0.961970  0.923420  1.0  -0.5758
  O  O646  1  0.513080  0.948860  0.064050  1.0  -0.5561
  O  O647  1  0.186170  0.295310  0.256760  1.0  -0.5748
  O  O648  1  0.179740  0.282200  0.397390  1.0  -0.5536
  O  O649  1  0.224200  0.371360  0.409910  1.0  -0.5753
  O  O650  1  0.230880  0.384470  0.269280  1.0  -0.5514
  O  O651  1  0.890870  0.704690  0.743240  1.0  -0.5753
  O  O652  1  0.897550  0.717800  0.602610  1.0  -0.554
  O  O653  1  0.557530  0.038030  0.076580  1.0  -0.5738
  O  O654  1  0.564210  0.051140  0.935950  1.0  -0.5515
  O  O655  1  0.147160  0.775800  0.409910  1.0  -0.5742
  O  O656  1  0.153590  0.769120  0.269280  1.0  -0.5546
  O  O657  1  0.813830  0.109130  0.743240  1.0  -0.5742
  O  O658  1  0.820260  0.102450  0.602610  1.0  -0.5547
  O  O659  1  0.480490  0.442470  0.076580  1.0  -0.5741
  O  O660  1  0.486920  0.435790  0.935950  1.0  -0.5546
  O  O661  1  0.628640  0.852840  0.409910  1.0  -0.5737
  O  O662  1  0.615530  0.846410  0.269280  1.0  -0.5559
  O  O663  1  0.295310  0.186170  0.743240  1.0  -0.5737
  O  O664  1  0.282200  0.179740  0.602610  1.0  -0.554
  O  O665  1  0.961970  0.519510  0.076580  1.0  -0.5746
  O  O666  1  0.948860  0.513080  0.935950  1.0  -0.5559
  O  O667  1  0.628640  0.775800  0.409910  1.0  -0.5744
  O  O668  1  0.615530  0.769120  0.269280  1.0  -0.5519
  O  O669  1  0.295310  0.109130  0.743240  1.0  -0.5744
  O  O670  1  0.282200  0.102450  0.602610  1.0  -0.5551
  O  O671  1  0.961970  0.442470  0.076580  1.0  -0.5729
  O  O672  1  0.948860  0.435790  0.935950  1.0  -0.5519
  O  O673  1  0.224200  0.852840  0.409910  1.0  -0.575
  O  O674  1  0.230880  0.846410  0.269280  1.0  -0.5562
  O  O675  1  0.890870  0.186170  0.743240  1.0  -0.575
  O  O676  1  0.897550  0.179740  0.602610  1.0  -0.5564
  O  O677  1  0.557530  0.519510  0.076580  1.0  -0.5749
  O  O678  1  0.564210  0.513080  0.935950  1.0  -0.5562
  O  O679  1  0.147160  0.371360  0.409910  1.0  -0.5738
  O  O680  1  0.153590  0.384470  0.269280  1.0  -0.5559
  O  O681  1  0.813830  0.704690  0.743240  1.0  -0.5738
  O  O682  1  0.820260  0.717800  0.602610  1.0  -0.5538
  O  O683  1  0.480490  0.038030  0.076580  1.0  -0.5747
  O  O684  1  0.486920  0.051140  0.935950  1.0  -0.5559
  O  O685  1  0.775800  0.628640  0.590090  1.0  -0.5755
  O  O686  1  0.769120  0.615530  0.730720  1.0  -0.5533
  O  O687  1  0.442470  0.961970  0.923420  1.0  -0.5739
  O  O688  1  0.435790  0.948860  0.064050  1.0  -0.5533
  O  O689  1  0.109130  0.295310  0.256760  1.0  -0.5755
  O  O690  1  0.102450  0.282200  0.397390  1.0  -0.557
  O  O691  1  0.852840  0.224200  0.590090  1.0  -0.5757
  O  O692  1  0.846410  0.230880  0.730720  1.0  -0.556
  O  O693  1  0.519510  0.557530  0.923420  1.0  -0.5756
  O  O694  1  0.513080  0.564210  0.064050  1.0  -0.556
  O  O695  1  0.186170  0.890870  0.256760  1.0  -0.5757
  O  O696  1  0.179740  0.897550  0.397390  1.0  -0.5561
  O  O697  1  0.371360  0.147160  0.590090  1.0  -0.5753
  O  O698  1  0.384470  0.153590  0.730720  1.0  -0.5569
  O  O699  1  0.038030  0.480490  0.923420  1.0  -0.5763
  O  O700  1  0.051140  0.486920  0.064050  1.0  -0.5569
  O  O701  1  0.704690  0.813830  0.256760  1.0  -0.5753
  O  O702  1  0.717800  0.820260  0.397390  1.0  -0.5542
  O  O703  1  0.567680  0.432320  0.664700  1.0  -0.3357
  O  O704  1  0.234350  0.765650  0.998030  1.0  -0.3357
  O  O705  1  0.901010  0.098990  0.331370  1.0  -0.3357
  O  O706  1  0.567680  0.135360  0.664700  1.0  -0.3318
  O  O707  1  0.234350  0.468690  0.998030  1.0  -0.3318
  O  O708  1  0.901010  0.802030  0.331370  1.0  -0.3318
  O  O709  1  0.864640  0.432320  0.664700  1.0  -0.3312
  O  O710  1  0.531310  0.765650  0.998030  1.0  -0.3312
  O  O711  1  0.197970  0.098990  0.331370  1.0  -0.3312
  O  O712  1  0.432320  0.567680  0.335300  1.0  -0.3308
  O  O713  1  0.098990  0.901010  0.668630  1.0  -0.3308
  O  O714  1  0.765650  0.234350  0.001970  1.0  -0.3308
  O  O715  1  0.135360  0.567680  0.335300  1.0  -0.3259
  O  O716  1  0.802030  0.901010  0.668630  1.0  -0.3259
  O  O717  1  0.468690  0.234350  0.001970  1.0  -0.3259
  O  O718  1  0.432320  0.864640  0.335300  1.0  -0.3266
  O  O719  1  0.098990  0.197970  0.668630  1.0  -0.3266
  O  O720  1  0.765650  0.531310  0.001970  1.0  -0.3266
