# generated using pymatgen
data_CuH13C21O5
_symmetry_space_group_name_H-M   'P 1'
_cell_length_a   35.63100000
_cell_length_b   35.63100000
_cell_length_c   17.33400000
_cell_angle_alpha   90.00000000
_cell_angle_beta   90.00000000
_cell_angle_gamma   120.00000000
_symmetry_Int_Tables_number   1
_chemical_formula_structural   CuH13C21O5
_chemical_formula_sum   'Cu18 H234 C378 O90'
_cell_volume   19058.35649273
_cell_formula_units_Z   18
loop_
 _symmetry_equiv_pos_site_id
 _symmetry_equiv_pos_as_xyz
  1  'x, y, z'
loop_
 _atom_site_type_symbol
 _atom_site_label
 _atom_site_symmetry_multiplicity
 _atom_site_fract_x
 _atom_site_fract_y
 _atom_site_fract_z
 _atom_site_occupancy
 _atom_site_charge
  Cu  Cu1  1  0.838730  0.161270  0.593040  1.0  0.913
  Cu  Cu2  1  0.505400  0.494600  0.926370  1.0  0.9124
  Cu  Cu3  1  0.172060  0.827940  0.259710  1.0  0.913
  Cu  Cu4  1  0.838730  0.677460  0.593040  1.0  0.9137
  Cu  Cu5  1  0.505400  0.010790  0.926370  1.0  0.9138
  Cu  Cu6  1  0.172060  0.344130  0.259710  1.0  0.9137
  Cu  Cu7  1  0.322540  0.161270  0.593040  1.0  0.9138
  Cu  Cu8  1  0.989210  0.494600  0.926370  1.0  0.9137
  Cu  Cu9  1  0.655870  0.827940  0.259710  1.0  0.9138
  Cu  Cu10  1  0.161270  0.838730  0.406960  1.0  0.9145
  Cu  Cu11  1  0.827940  0.172060  0.740290  1.0  0.9145
  Cu  Cu12  1  0.494600  0.505400  0.073630  1.0  0.9139
  Cu  Cu13  1  0.677460  0.838730  0.406960  1.0  0.9146
  Cu  Cu14  1  0.344130  0.172060  0.740290  1.0  0.9146
  Cu  Cu15  1  0.010790  0.505400  0.073630  1.0  0.9146
  Cu  Cu16  1  0.161270  0.322540  0.406960  1.0  0.915
  Cu  Cu17  1  0.827940  0.655870  0.740290  1.0  0.915
  Cu  Cu18  1  0.494600  0.989210  0.073630  1.0  0.915
  H  H19  1  0.975400  0.198400  0.598000  1.0  0.1011
  H  H20  1  0.047600  0.219900  0.623900  1.0  0.1072
  H  H21  1  0.028400  0.236100  0.846300  1.0  0.1201
  H  H22  1  0.954500  0.212700  0.818000  1.0  0.112
  H  H23  1  0.095900  0.304400  0.804500  1.0  0.1027
  H  H24  1  0.057100  0.159100  0.775800  1.0  0.0989
  H  H25  1  0.642070  0.531730  0.931330  1.0  0.1013
  H  H26  1  0.714270  0.553230  0.957230  1.0  0.1072
  H  H27  1  0.695070  0.569430  0.179630  1.0  0.1202
  H  H28  1  0.621170  0.546030  0.151330  1.0  0.112
  H  H29  1  0.762570  0.637730  0.137830  1.0  0.1027
  H  H30  1  0.723770  0.492430  0.109130  1.0  0.0989
  H  H31  1  0.308730  0.865070  0.264670  1.0  0.1011
  H  H32  1  0.380930  0.886570  0.290570  1.0  0.1072
  H  H33  1  0.361730  0.902770  0.512970  1.0  0.1201
  H  H34  1  0.287830  0.879370  0.484670  1.0  0.112
  H  H35  1  0.429230  0.971070  0.471170  1.0  0.1028
  H  H36  1  0.390430  0.825770  0.442470  1.0  0.0989
  H  H37  1  0.801600  0.777000  0.598000  1.0  0.1008
  H  H38  1  0.780100  0.827700  0.623900  1.0  0.1072
  H  H39  1  0.763900  0.792300  0.846300  1.0  0.1199
  H  H40  1  0.787300  0.741800  0.818000  1.0  0.1122
  H  H41  1  0.695600  0.791500  0.804500  1.0  0.1038
  H  H42  1  0.840900  0.898000  0.775800  1.0  0.1002
  H  H43  1  0.468270  0.110330  0.931330  1.0  0.101
  H  H44  1  0.446770  0.161030  0.957230  1.0  0.1072
  H  H45  1  0.430570  0.125630  0.179630  1.0  0.1199
  H  H46  1  0.453970  0.075130  0.151330  1.0  0.1122
  H  H47  1  0.362270  0.124830  0.137830  1.0  0.1038
  H  H48  1  0.507570  0.231330  0.109130  1.0  0.1002
  H  H49  1  0.134930  0.443670  0.264670  1.0  0.1008
  H  H50  1  0.113430  0.494370  0.290570  1.0  0.1072
  H  H51  1  0.097230  0.458970  0.512970  1.0  0.1199
  H  H52  1  0.120630  0.408470  0.484670  1.0  0.1122
  H  H53  1  0.028930  0.458170  0.471170  1.0  0.1037
  H  H54  1  0.174230  0.564670  0.442470  1.0  0.1002
  H  H55  1  0.223000  0.024600  0.598000  1.0  0.1007
  H  H56  1  0.172300  0.952400  0.623900  1.0  0.1073
  H  H57  1  0.207700  0.971600  0.846300  1.0  0.1194
  H  H58  1  0.258200  0.045500  0.818000  1.0  0.1125
  H  H59  1  0.208500  0.904100  0.804500  1.0  0.103
  H  H60  1  0.102000  0.942900  0.775800  1.0  0.099
  H  H61  1  0.889670  0.357930  0.931330  1.0  0.1006
  H  H62  1  0.838970  0.285730  0.957230  1.0  0.1073
  H  H63  1  0.874370  0.304930  0.179630  1.0  0.1193
  H  H64  1  0.924870  0.378830  0.151330  1.0  0.1125
  H  H65  1  0.875170  0.237430  0.137830  1.0  0.103
  H  H66  1  0.768670  0.276230  0.109130  1.0  0.099
  H  H67  1  0.556330  0.691270  0.264670  1.0  0.1007
  H  H68  1  0.505630  0.619070  0.290570  1.0  0.1073
  H  H69  1  0.541030  0.638270  0.512970  1.0  0.1194
  H  H70  1  0.591530  0.712170  0.484670  1.0  0.1125
  H  H71  1  0.541830  0.570770  0.471170  1.0  0.103
  H  H72  1  0.435330  0.609570  0.442470  1.0  0.099
  H  H73  1  0.198400  0.975400  0.402000  1.0  0.1007
  H  H74  1  0.219900  0.047600  0.376100  1.0  0.108
  H  H75  1  0.236100  0.028400  0.153700  1.0  0.1196
  H  H76  1  0.212700  0.954500  0.182000  1.0  0.1117
  H  H77  1  0.304400  0.095900  0.195500  1.0  0.1045
  H  H78  1  0.159100  0.057100  0.224200  1.0  0.0981
  H  H79  1  0.865070  0.308730  0.735330  1.0  0.1007
  H  H80  1  0.886570  0.380930  0.709430  1.0  0.108
  H  H81  1  0.902770  0.361730  0.487030  1.0  0.1196
  H  H82  1  0.879370  0.287830  0.515330  1.0  0.1117
  H  H83  1  0.971070  0.429230  0.528830  1.0  0.1047
  H  H84  1  0.825770  0.390430  0.557530  1.0  0.0981
  H  H85  1  0.531730  0.642070  0.068670  1.0  0.1008
  H  H86  1  0.553230  0.714270  0.042770  1.0  0.108
  H  H87  1  0.569430  0.695070  0.820370  1.0  0.1196
  H  H88  1  0.546030  0.621170  0.848670  1.0  0.1117
  H  H89  1  0.637730  0.762570  0.862170  1.0  0.1045
  H  H90  1  0.492430  0.723770  0.890870  1.0  0.0981
  H  H91  1  0.777000  0.801600  0.402000  1.0  0.101
  H  H92  1  0.827700  0.780100  0.376100  1.0  0.108
  H  H93  1  0.792300  0.763900  0.153700  1.0  0.1198
  H  H94  1  0.741800  0.787300  0.182000  1.0  0.1116
  H  H95  1  0.791500  0.695600  0.195500  1.0  0.1045
  H  H96  1  0.898000  0.840900  0.224200  1.0  0.0976
  H  H97  1  0.443670  0.134930  0.735330  1.0  0.101
  H  H98  1  0.494370  0.113430  0.709430  1.0  0.108
  H  H99  1  0.458970  0.097230  0.487030  1.0  0.1198
  H  H100  1  0.408470  0.120630  0.515330  1.0  0.1116
  H  H101  1  0.458170  0.028930  0.528830  1.0  0.1044
  H  H102  1  0.564670  0.174230  0.557530  1.0  0.0976
  H  H103  1  0.110330  0.468270  0.068670  1.0  0.1012
  H  H104  1  0.161030  0.446770  0.042770  1.0  0.108
  H  H105  1  0.125630  0.430570  0.820370  1.0  0.1198
  H  H106  1  0.075130  0.453970  0.848670  1.0  0.1116
  H  H107  1  0.124830  0.362270  0.862170  1.0  0.1045
  H  H108  1  0.231330  0.507570  0.890870  1.0  0.0976
  H  H109  1  0.024600  0.223000  0.402000  1.0  0.1012
  H  H110  1  0.952400  0.172300  0.376100  1.0  0.1077
  H  H111  1  0.971600  0.207700  0.153700  1.0  0.1199
  H  H112  1  0.045500  0.258200  0.182000  1.0  0.1118
  H  H113  1  0.904100  0.208500  0.195500  1.0  0.1045
  H  H114  1  0.942900  0.102000  0.224200  1.0  0.0993
  H  H115  1  0.691270  0.556330  0.735330  1.0  0.1012
  H  H116  1  0.619070  0.505630  0.709430  1.0  0.1077
  H  H117  1  0.638270  0.541030  0.487030  1.0  0.1199
  H  H118  1  0.712170  0.591530  0.515330  1.0  0.1118
  H  H119  1  0.570770  0.541830  0.528830  1.0  0.1045
  H  H120  1  0.609570  0.435330  0.557530  1.0  0.0993
  H  H121  1  0.357930  0.889670  0.068670  1.0  0.101
  H  H122  1  0.285730  0.838970  0.042770  1.0  0.1077
  H  H123  1  0.304930  0.874370  0.820370  1.0  0.1198
  H  H124  1  0.378830  0.924870  0.848670  1.0  0.1118
  H  H125  1  0.237430  0.875170  0.862170  1.0  0.1045
  H  H126  1  0.276230  0.768670  0.890870  1.0  0.0993
  H  H127  1  0.024600  0.801600  0.402000  1.0  0.101
  H  H128  1  0.952400  0.780100  0.376100  1.0  0.108
  H  H129  1  0.971600  0.763900  0.153700  1.0  0.12
  H  H130  1  0.045500  0.787300  0.182000  1.0  0.1118
  H  H131  1  0.904100  0.695600  0.195500  1.0  0.104
  H  H132  1  0.942900  0.840900  0.224200  1.0  0.098
  H  H133  1  0.691270  0.134930  0.735330  1.0  0.101
  H  H134  1  0.619070  0.113430  0.709430  1.0  0.108
  H  H135  1  0.638270  0.097230  0.487030  1.0  0.12
  H  H136  1  0.712170  0.120630  0.515330  1.0  0.1118
  H  H137  1  0.570770  0.028930  0.528830  1.0  0.1042
  H  H138  1  0.609570  0.174230  0.557530  1.0  0.098
  H  H139  1  0.357930  0.468270  0.068670  1.0  0.1012
  H  H140  1  0.285730  0.446770  0.042770  1.0  0.108
  H  H141  1  0.304930  0.430570  0.820370  1.0  0.12
  H  H142  1  0.378830  0.453970  0.848670  1.0  0.1118
  H  H143  1  0.237430  0.362270  0.862170  1.0  0.104
  H  H144  1  0.276230  0.507570  0.890870  1.0  0.098
  H  H145  1  0.198400  0.223000  0.402000  1.0  0.101
  H  H146  1  0.219900  0.172300  0.376100  1.0  0.1078
  H  H147  1  0.236100  0.207700  0.153700  1.0  0.12
  H  H148  1  0.212700  0.258200  0.182000  1.0  0.1113
  H  H149  1  0.304400  0.208500  0.195500  1.0  0.1037
  H  H150  1  0.159100  0.102000  0.224200  1.0  0.0984
  H  H151  1  0.865070  0.556330  0.735330  1.0  0.101
  H  H152  1  0.886570  0.505630  0.709430  1.0  0.1078
  H  H153  1  0.902770  0.541030  0.487030  1.0  0.12
  H  H154  1  0.879370  0.591530  0.515330  1.0  0.1113
  H  H155  1  0.971070  0.541830  0.528830  1.0  0.1036
  H  H156  1  0.825770  0.435330  0.557530  1.0  0.0984
  H  H157  1  0.531730  0.889670  0.068670  1.0  0.1011
  H  H158  1  0.553230  0.838970  0.042770  1.0  0.1078
  H  H159  1  0.569430  0.874370  0.820370  1.0  0.1201
  H  H160  1  0.546030  0.924870  0.848670  1.0  0.1113
  H  H161  1  0.637730  0.875170  0.862170  1.0  0.1037
  H  H162  1  0.492430  0.768670  0.890870  1.0  0.0984
  H  H163  1  0.777000  0.975400  0.402000  1.0  0.1008
  H  H164  1  0.827700  0.047600  0.376100  1.0  0.1078
  H  H165  1  0.792300  0.028400  0.153700  1.0  0.1201
  H  H166  1  0.741800  0.954500  0.182000  1.0  0.1116
  H  H167  1  0.791500  0.095900  0.195500  1.0  0.1034
  H  H168  1  0.898000  0.057100  0.224200  1.0  0.0976
  H  H169  1  0.443670  0.308730  0.735330  1.0  0.1008
  H  H170  1  0.494370  0.380930  0.709430  1.0  0.1078
  H  H171  1  0.458970  0.361730  0.487030  1.0  0.1201
  H  H172  1  0.408470  0.287830  0.515330  1.0  0.1116
  H  H173  1  0.458170  0.429230  0.528830  1.0  0.1034
  H  H174  1  0.564670  0.390430  0.557530  1.0  0.0976
  H  H175  1  0.110330  0.642070  0.068670  1.0  0.1006
  H  H176  1  0.161030  0.714270  0.042770  1.0  0.1078
  H  H177  1  0.125630  0.695070  0.820370  1.0  0.1201
  H  H178  1  0.075130  0.621170  0.848670  1.0  0.1116
  H  H179  1  0.124830  0.762570  0.862170  1.0  0.1034
  H  H180  1  0.231330  0.723770  0.890870  1.0  0.0976
  H  H181  1  0.801600  0.024600  0.598000  1.0  0.1007
  H  H182  1  0.780100  0.952400  0.623900  1.0  0.1073
  H  H183  1  0.763900  0.971600  0.846300  1.0  0.1197
  H  H184  1  0.787300  0.045500  0.818000  1.0  0.1121
  H  H185  1  0.695600  0.904100  0.804500  1.0  0.1039
  H  H186  1  0.840900  0.942900  0.775800  1.0  0.0985
  H  H187  1  0.468270  0.357930  0.931330  1.0  0.1008
  H  H188  1  0.446770  0.285730  0.957230  1.0  0.1073
  H  H189  1  0.430570  0.304930  0.179630  1.0  0.1197
  H  H190  1  0.453970  0.378830  0.151330  1.0  0.1121
  H  H191  1  0.362270  0.237430  0.137830  1.0  0.1039
  H  H192  1  0.507570  0.276230  0.109130  1.0  0.0985
  H  H193  1  0.134930  0.691270  0.264670  1.0  0.1007
  H  H194  1  0.113430  0.619070  0.290570  1.0  0.1073
  H  H195  1  0.097230  0.638270  0.512970  1.0  0.1197
  H  H196  1  0.120630  0.712170  0.484670  1.0  0.1121
  H  H197  1  0.028930  0.570770  0.471170  1.0  0.1041
  H  H198  1  0.174230  0.609570  0.442470  1.0  0.0985
  H  H199  1  0.223000  0.198400  0.598000  1.0  0.1011
  H  H200  1  0.172300  0.219900  0.623900  1.0  0.1077
  H  H201  1  0.207700  0.236100  0.846300  1.0  0.1199
  H  H202  1  0.258200  0.212700  0.818000  1.0  0.1122
  H  H203  1  0.208500  0.304400  0.804500  1.0  0.1046
  H  H204  1  0.102000  0.159100  0.775800  1.0  0.0986
  H  H205  1  0.889670  0.531730  0.931330  1.0  0.1012
  H  H206  1  0.838970  0.553230  0.957230  1.0  0.1077
  H  H207  1  0.874370  0.569430  0.179630  1.0  0.12
  H  H208  1  0.924870  0.546030  0.151330  1.0  0.1122
  H  H209  1  0.875170  0.637730  0.137830  1.0  0.1046
  H  H210  1  0.768670  0.492430  0.109130  1.0  0.0986
  H  H211  1  0.556330  0.865070  0.264670  1.0  0.1011
  H  H212  1  0.505630  0.886570  0.290570  1.0  0.1077
  H  H213  1  0.541030  0.902770  0.512970  1.0  0.1199
  H  H214  1  0.591530  0.879370  0.484670  1.0  0.1122
  H  H215  1  0.541830  0.971070  0.471170  1.0  0.1045
  H  H216  1  0.435330  0.825770  0.442470  1.0  0.0986
  H  H217  1  0.975400  0.777000  0.598000  1.0  0.1008
  H  H218  1  0.047600  0.827700  0.623900  1.0  0.1071
  H  H219  1  0.028400  0.792300  0.846300  1.0  0.1204
  H  H220  1  0.954500  0.741800  0.818000  1.0  0.1121
  H  H221  1  0.095900  0.791500  0.804500  1.0  0.1051
  H  H222  1  0.057100  0.898000  0.775800  1.0  0.0991
  H  H223  1  0.642070  0.110330  0.931330  1.0  0.1006
  H  H224  1  0.714270  0.161030  0.957230  1.0  0.1071
  H  H225  1  0.695070  0.125630  0.179630  1.0  0.1203
  H  H226  1  0.621170  0.075130  0.151330  1.0  0.1121
  H  H227  1  0.762570  0.124830  0.137830  1.0  0.1051
  H  H228  1  0.723770  0.231330  0.109130  1.0  0.099
  H  H229  1  0.308730  0.443670  0.264670  1.0  0.1008
  H  H230  1  0.380930  0.494370  0.290570  1.0  0.1071
  H  H231  1  0.361730  0.458970  0.512970  1.0  0.1204
  H  H232  1  0.287830  0.408470  0.484670  1.0  0.1121
  H  H233  1  0.429230  0.458170  0.471170  1.0  0.1051
  H  H234  1  0.390430  0.564670  0.442470  1.0  0.0991
  H  H235  1  0.065700  0.131400  0.713000  1.0  0.1273
  H  H236  1  0.732370  0.464730  0.046330  1.0  0.1273
  H  H237  1  0.399030  0.798070  0.379670  1.0  0.1273
  H  H238  1  0.868600  0.934300  0.713000  1.0  0.1278
  H  H239  1  0.535270  0.267630  0.046330  1.0  0.1278
  H  H240  1  0.201930  0.600970  0.379670  1.0  0.1278
  H  H241  1  0.065700  0.934300  0.713000  1.0  0.1262
  H  H242  1  0.732370  0.267630  0.046330  1.0  0.1262
  H  H243  1  0.399030  0.600970  0.379670  1.0  0.1262
  H  H244  1  0.131400  0.065700  0.287000  1.0  0.1273
  H  H245  1  0.798070  0.399030  0.620330  1.0  0.1273
  H  H246  1  0.464730  0.732370  0.953670  1.0  0.1273
  H  H247  1  0.934300  0.868600  0.287000  1.0  0.127
  H  H248  1  0.600970  0.201930  0.620330  1.0  0.127
  H  H249  1  0.267630  0.535270  0.953670  1.0  0.127
  H  H250  1  0.934300  0.065700  0.287000  1.0  0.1274
  H  H251  1  0.600970  0.399030  0.620330  1.0  0.1274
  H  H252  1  0.267630  0.732370  0.953670  1.0  0.1274
  C  C253  1  0.911050  0.188250  0.686200  1.0  0.6434
  C  C254  1  0.958100  0.202290  0.706000  1.0  -0.1276
  C  C255  1  0.985930  0.205730  0.649300  1.0  -0.0491
  C  C256  1  0.029330  0.219650  0.664100  1.0  -0.1893
  C  C257  1  0.045160  0.232600  0.734600  1.0  0.0946
  C  C258  1  0.017750  0.228930  0.795000  1.0  -0.1782
  C  C259  1  0.973420  0.214180  0.778000  1.0  -0.0128
  C  C260  1  0.092230  0.252290  0.753900  1.0  -0.0209
  C  C261  1  0.112500  0.291080  0.791900  1.0  -0.1405
  C  C262  1  0.577720  0.521580  0.019530  1.0  0.6434
  C  C263  1  0.624770  0.535620  0.039330  1.0  -0.1276
  C  C264  1  0.652600  0.539060  0.982630  1.0  -0.0485
  C  C265  1  0.696000  0.552980  0.997430  1.0  -0.1893
  C  C266  1  0.711830  0.565930  0.067930  1.0  0.0946
  C  C267  1  0.684420  0.562260  0.128330  1.0  -0.1783
  C  C268  1  0.640090  0.547510  0.111330  1.0  -0.0125
  C  C269  1  0.758900  0.585620  0.087230  1.0  -0.0208
  C  C270  1  0.779170  0.624410  0.125230  1.0  -0.1406
  C  C271  1  0.244380  0.854920  0.352870  1.0  0.6434
  C  C272  1  0.291430  0.868960  0.372670  1.0  -0.1276
  C  C273  1  0.319260  0.872400  0.315970  1.0  -0.0491
  C  C274  1  0.362660  0.886320  0.330770  1.0  -0.1893
  C  C275  1  0.378490  0.899270  0.401270  1.0  0.0946
  C  C276  1  0.351080  0.895600  0.461670  1.0  -0.1782
  C  C277  1  0.306750  0.880850  0.444670  1.0  -0.0128
  C  C278  1  0.425560  0.918960  0.420570  1.0  -0.021
  C  C279  1  0.445830  0.957750  0.458570  1.0  -0.141
  C  C280  1  0.811750  0.722800  0.686200  1.0  0.6439
  C  C281  1  0.797710  0.755810  0.706000  1.0  -0.1257
  C  C282  1  0.794270  0.780200  0.649300  1.0  -0.0495
  C  C283  1  0.780350  0.809680  0.664100  1.0  -0.19
  C  C284  1  0.767400  0.812560  0.734600  1.0  0.0946
  C  C285  1  0.771070  0.788820  0.795000  1.0  -0.1792
  C  C286  1  0.785820  0.759240  0.778000  1.0  -0.0115
  C  C287  1  0.747710  0.839940  0.753900  1.0  -0.022
  C  C288  1  0.708920  0.821420  0.791900  1.0  -0.1396
  C  C289  1  0.478420  0.056130  0.019530  1.0  0.6439
  C  C290  1  0.464380  0.089140  0.039330  1.0  -0.1257
  C  C291  1  0.460940  0.113530  0.982630  1.0  -0.049
  C  C292  1  0.447020  0.143010  0.997430  1.0  -0.19
  C  C293  1  0.434070  0.145890  0.067930  1.0  0.0946
  C  C294  1  0.437740  0.122150  0.128330  1.0  -0.1792
  C  C295  1  0.452490  0.092570  0.111330  1.0  -0.0119
  C  C296  1  0.414380  0.173270  0.087230  1.0  -0.0221
  C  C297  1  0.375590  0.154750  0.125230  1.0  -0.1395
  C  C298  1  0.145080  0.389470  0.352870  1.0  0.6439
  C  C299  1  0.131040  0.422480  0.372670  1.0  -0.1257
  C  C300  1  0.127600  0.446870  0.315970  1.0  -0.0496
  C  C301  1  0.113680  0.476350  0.330770  1.0  -0.19
  C  C302  1  0.100730  0.479230  0.401270  1.0  0.0945
  C  C303  1  0.104400  0.455490  0.461670  1.0  -0.1792
  C  C304  1  0.119150  0.425910  0.444670  1.0  -0.0115
  C  C305  1  0.081040  0.506610  0.420570  1.0  -0.022
  C  C306  1  0.042250  0.488090  0.458570  1.0  -0.1395
  C  C307  1  0.277200  0.088950  0.686200  1.0  0.6448
  C  C308  1  0.244190  0.041900  0.706000  1.0  -0.1279
  C  C309  1  0.219800  0.014070  0.649300  1.0  -0.0484
  C  C310  1  0.190320  0.970670  0.664100  1.0  -0.1892
  C  C311  1  0.187440  0.954840  0.734600  1.0  0.0956
  C  C312  1  0.211180  0.982250  0.795000  1.0  -0.1774
  C  C313  1  0.240760  0.026580  0.778000  1.0  -0.0128
  C  C314  1  0.160060  0.907770  0.753900  1.0  -0.02
  C  C315  1  0.178580  0.887500  0.791900  1.0  -0.1419
  C  C316  1  0.943870  0.422280  0.019530  1.0  0.6447
  C  C317  1  0.910860  0.375230  0.039330  1.0  -0.1279
  C  C318  1  0.886470  0.347400  0.982630  1.0  -0.049
  C  C319  1  0.856990  0.304000  0.997430  1.0  -0.1892
  C  C320  1  0.854110  0.288170  0.067930  1.0  0.0958
  C  C321  1  0.877850  0.315580  0.128330  1.0  -0.1774
  C  C322  1  0.907430  0.359910  0.111330  1.0  -0.0125
  C  C323  1  0.826730  0.241100  0.087230  1.0  -0.0206
  C  C324  1  0.845250  0.220830  0.125230  1.0  -0.1419
  C  C325  1  0.610530  0.755620  0.352870  1.0  0.6448
  C  C326  1  0.577520  0.708570  0.372670  1.0  -0.1279
  C  C327  1  0.553130  0.680740  0.315970  1.0  -0.0484
  C  C328  1  0.523650  0.637340  0.330770  1.0  -0.1891
  C  C329  1  0.520770  0.621510  0.401270  1.0  0.0957
  C  C330  1  0.544510  0.648920  0.461670  1.0  -0.1774
  C  C331  1  0.574090  0.693250  0.444670  1.0  -0.0128
  C  C332  1  0.493390  0.574440  0.420570  1.0  -0.0202
  C  C333  1  0.511910  0.554170  0.458570  1.0  -0.1418
  C  C334  1  0.188250  0.911050  0.313800  1.0  0.6444
  C  C335  1  0.202290  0.958100  0.294000  1.0  -0.1283
  C  C336  1  0.205730  0.985930  0.350700  1.0  -0.0508
  C  C337  1  0.219650  0.029330  0.335900  1.0  -0.1903
  C  C338  1  0.232600  0.045160  0.265400  1.0  0.0948
  C  C339  1  0.228930  0.017750  0.205000  1.0  -0.1765
  C  C340  1  0.214180  0.973420  0.222000  1.0  -0.0122
  C  C341  1  0.252290  0.092230  0.246100  1.0  -0.0203
  C  C342  1  0.291080  0.112500  0.208100  1.0  -0.1414
  C  C343  1  0.854920  0.244380  0.647130  1.0  0.6444
  C  C344  1  0.868960  0.291430  0.627330  1.0  -0.1283
  C  C345  1  0.872400  0.319260  0.684030  1.0  -0.0508
  C  C346  1  0.886320  0.362660  0.669230  1.0  -0.1903
  C  C347  1  0.899270  0.378490  0.598730  1.0  0.0948
  C  C348  1  0.895600  0.351080  0.538330  1.0  -0.1765
  C  C349  1  0.880850  0.306750  0.555330  1.0  -0.0122
  C  C350  1  0.918960  0.425560  0.579430  1.0  -0.0204
  C  C351  1  0.957750  0.445830  0.541430  1.0  -0.1417
  C  C352  1  0.521580  0.577720  0.980470  1.0  0.6444
  C  C353  1  0.535620  0.624770  0.960670  1.0  -0.1283
  C  C354  1  0.539060  0.652600  0.017370  1.0  -0.0502
  C  C355  1  0.552980  0.696000  0.002570  1.0  -0.1903
  C  C356  1  0.565930  0.711830  0.932070  1.0  0.0948
  C  C357  1  0.562260  0.684420  0.871670  1.0  -0.1765
  C  C358  1  0.547510  0.640090  0.888670  1.0  -0.0118
  C  C359  1  0.585620  0.758900  0.912770  1.0  -0.0202
  C  C360  1  0.624410  0.779170  0.874770  1.0  -0.1415
  C  C361  1  0.722800  0.811750  0.313800  1.0  0.6433
  C  C362  1  0.755810  0.797710  0.294000  1.0  -0.1278
  C  C363  1  0.780200  0.794270  0.350700  1.0  -0.0514
  C  C364  1  0.809680  0.780350  0.335900  1.0  -0.1893
  C  C365  1  0.812560  0.767400  0.265400  1.0  0.0941
  C  C366  1  0.788820  0.771070  0.205000  1.0  -0.1763
  C  C367  1  0.759240  0.785820  0.222000  1.0  -0.0109
  C  C368  1  0.839940  0.747710  0.246100  1.0  -0.0206
  C  C369  1  0.821420  0.708920  0.208100  1.0  -0.1407
  C  C370  1  0.389470  0.145080  0.647130  1.0  0.6433
  C  C371  1  0.422480  0.131040  0.627330  1.0  -0.1278
  C  C372  1  0.446870  0.127600  0.684030  1.0  -0.0514
  C  C373  1  0.476350  0.113680  0.669230  1.0  -0.1893
  C  C374  1  0.479230  0.100730  0.598730  1.0  0.094
  C  C375  1  0.455490  0.104400  0.538330  1.0  -0.1763
  C  C376  1  0.425910  0.119150  0.555330  1.0  -0.0109
  C  C377  1  0.506610  0.081040  0.579430  1.0  -0.0206
  C  C378  1  0.488090  0.042250  0.541430  1.0  -0.1407
  C  C379  1  0.056130  0.478420  0.980470  1.0  0.6432
  C  C380  1  0.089140  0.464380  0.960670  1.0  -0.1278
  C  C381  1  0.113530  0.460940  0.017370  1.0  -0.0508
  C  C382  1  0.143010  0.447020  0.002570  1.0  -0.1893
  C  C383  1  0.145890  0.434070  0.932070  1.0  0.0941
  C  C384  1  0.122150  0.437740  0.871670  1.0  -0.1763
  C  C385  1  0.092570  0.452490  0.888670  1.0  -0.0113
  C  C386  1  0.173270  0.414380  0.912770  1.0  -0.0207
  C  C387  1  0.154750  0.375590  0.874770  1.0  -0.1406
  C  C388  1  0.088950  0.277200  0.313800  1.0  0.6437
  C  C389  1  0.041900  0.244190  0.294000  1.0  -0.1265
  C  C390  1  0.014070  0.219800  0.350700  1.0  -0.0501
  C  C391  1  0.970670  0.190320  0.335900  1.0  -0.1916
  C  C392  1  0.954840  0.187440  0.265400  1.0  0.0944
  C  C393  1  0.982250  0.211180  0.205000  1.0  -0.1771
  C  C394  1  0.026580  0.240760  0.222000  1.0  -0.0116
  C  C395  1  0.907770  0.160060  0.246100  1.0  -0.0214
  C  C396  1  0.887500  0.178580  0.208100  1.0  -0.1393
  C  C397  1  0.755620  0.610530  0.647130  1.0  0.6437
  C  C398  1  0.708570  0.577520  0.627330  1.0  -0.1265
  C  C399  1  0.680740  0.553130  0.684030  1.0  -0.05
  C  C400  1  0.637340  0.523650  0.669230  1.0  -0.1915
  C  C401  1  0.621510  0.520770  0.598730  1.0  0.0945
  C  C402  1  0.648920  0.544510  0.538330  1.0  -0.1771
  C  C403  1  0.693250  0.574090  0.555330  1.0  -0.0116
  C  C404  1  0.574440  0.493390  0.579430  1.0  -0.0216
  C  C405  1  0.554170  0.511910  0.541430  1.0  -0.1392
  C  C406  1  0.422280  0.943870  0.980470  1.0  0.6437
  C  C407  1  0.375230  0.910860  0.960670  1.0  -0.1265
  C  C408  1  0.347400  0.886470  0.017370  1.0  -0.0506
  C  C409  1  0.304000  0.856990  0.002570  1.0  -0.1916
  C  C410  1  0.288170  0.854110  0.932070  1.0  0.0947
  C  C411  1  0.315580  0.877850  0.871670  1.0  -0.1771
  C  C412  1  0.359910  0.907430  0.888670  1.0  -0.0112
  C  C413  1  0.241100  0.826730  0.912770  1.0  -0.0222
  C  C414  1  0.220830  0.845250  0.874770  1.0  -0.1393
  C  C415  1  0.088950  0.811750  0.313800  1.0  0.643
  C  C416  1  0.041900  0.797710  0.294000  1.0  -0.1279
  C  C417  1  0.014070  0.794270  0.350700  1.0  -0.0512
  C  C418  1  0.970670  0.780350  0.335900  1.0  -0.1901
  C  C419  1  0.954840  0.767400  0.265400  1.0  0.0933
  C  C420  1  0.982250  0.771070  0.205000  1.0  -0.1765
  C  C421  1  0.026580  0.785820  0.222000  1.0  -0.0107
  C  C422  1  0.907770  0.747710  0.246100  1.0  -0.0193
  C  C423  1  0.887500  0.708920  0.208100  1.0  -0.1411
  C  C424  1  0.755620  0.145080  0.647130  1.0  0.643
  C  C425  1  0.708570  0.131040  0.627330  1.0  -0.1279
  C  C426  1  0.680740  0.127600  0.684030  1.0  -0.0512
  C  C427  1  0.637340  0.113680  0.669230  1.0  -0.1901
  C  C428  1  0.621510  0.100730  0.598730  1.0  0.0933
  C  C429  1  0.648920  0.104400  0.538330  1.0  -0.1765
  C  C430  1  0.693250  0.119150  0.555330  1.0  -0.0107
  C  C431  1  0.574440  0.081040  0.579430  1.0  -0.0194
  C  C432  1  0.554170  0.042250  0.541430  1.0  -0.1414
  C  C433  1  0.422280  0.478420  0.980470  1.0  0.643
  C  C434  1  0.375230  0.464380  0.960670  1.0  -0.1279
  C  C435  1  0.347400  0.460940  0.017370  1.0  -0.0506
  C  C436  1  0.304000  0.447020  0.002570  1.0  -0.1901
  C  C437  1  0.288170  0.434070  0.932070  1.0  0.0933
  C  C438  1  0.315580  0.437740  0.871670  1.0  -0.1765
  C  C439  1  0.359910  0.452490  0.888670  1.0  -0.0104
  C  C440  1  0.241100  0.414380  0.912770  1.0  -0.0192
  C  C441  1  0.220830  0.375590  0.874770  1.0  -0.1412
  C  C442  1  0.188250  0.277200  0.313800  1.0  0.644
  C  C443  1  0.202290  0.244190  0.294000  1.0  -0.1275
  C  C444  1  0.205730  0.219800  0.350700  1.0  -0.0511
  C  C445  1  0.219650  0.190320  0.335900  1.0  -0.1901
  C  C446  1  0.232600  0.187440  0.265400  1.0  0.0949
  C  C447  1  0.228930  0.211180  0.205000  1.0  -0.1775
  C  C448  1  0.214180  0.240760  0.222000  1.0  -0.0114
  C  C449  1  0.252290  0.160060  0.246100  1.0  -0.0219
  C  C450  1  0.291080  0.178580  0.208100  1.0  -0.1398
  C  C451  1  0.854920  0.610530  0.647130  1.0  0.644
  C  C452  1  0.868960  0.577520  0.627330  1.0  -0.1275
  C  C453  1  0.872400  0.553130  0.684030  1.0  -0.0512
  C  C454  1  0.886320  0.523650  0.669230  1.0  -0.1901
  C  C455  1  0.899270  0.520770  0.598730  1.0  0.0948
  C  C456  1  0.895600  0.544510  0.538330  1.0  -0.1775
  C  C457  1  0.880850  0.574090  0.555330  1.0  -0.0114
  C  C458  1  0.918960  0.493390  0.579430  1.0  -0.0219
  C  C459  1  0.957750  0.511910  0.541430  1.0  -0.1398
  C  C460  1  0.521580  0.943870  0.980470  1.0  0.644
  C  C461  1  0.535620  0.910860  0.960670  1.0  -0.1275
  C  C462  1  0.539060  0.886470  0.017370  1.0  -0.0506
  C  C463  1  0.552980  0.856990  0.002570  1.0  -0.1901
  C  C464  1  0.565930  0.854110  0.932070  1.0  0.0949
  C  C465  1  0.562260  0.877850  0.871670  1.0  -0.1775
  C  C466  1  0.547510  0.907430  0.888670  1.0  -0.0118
  C  C467  1  0.585620  0.826730  0.912770  1.0  -0.022
  C  C468  1  0.624410  0.845250  0.874770  1.0  -0.1397
  C  C469  1  0.722800  0.911050  0.313800  1.0  0.6448
  C  C470  1  0.755810  0.958100  0.294000  1.0  -0.1282
  C  C471  1  0.780200  0.985930  0.350700  1.0  -0.0503
  C  C472  1  0.809680  0.029330  0.335900  1.0  -0.1899
  C  C473  1  0.812560  0.045160  0.265400  1.0  0.0954
  C  C474  1  0.788820  0.017750  0.205000  1.0  -0.1766
  C  C475  1  0.759240  0.973420  0.222000  1.0  -0.0122
  C  C476  1  0.839940  0.092230  0.246100  1.0  -0.0207
  C  C477  1  0.821420  0.112500  0.208100  1.0  -0.14
  C  C478  1  0.389470  0.244380  0.647130  1.0  0.6448
  C  C479  1  0.422480  0.291430  0.627330  1.0  -0.1282
  C  C480  1  0.446870  0.319260  0.684030  1.0  -0.0503
  C  C481  1  0.476350  0.362660  0.669230  1.0  -0.1898
  C  C482  1  0.479230  0.378490  0.598730  1.0  0.0955
  C  C483  1  0.455490  0.351080  0.538330  1.0  -0.1766
  C  C484  1  0.425910  0.306750  0.555330  1.0  -0.0122
  C  C485  1  0.506610  0.425560  0.579430  1.0  -0.0209
  C  C486  1  0.488090  0.445830  0.541430  1.0  -0.1399
  C  C487  1  0.056130  0.577720  0.980470  1.0  0.6448
  C  C488  1  0.089140  0.624770  0.960670  1.0  -0.1282
  C  C489  1  0.113530  0.652600  0.017370  1.0  -0.0508
  C  C490  1  0.143010  0.696000  0.002570  1.0  -0.1899
  C  C491  1  0.145890  0.711830  0.932070  1.0  0.0956
  C  C492  1  0.122150  0.684420  0.871670  1.0  -0.1766
  C  C493  1  0.092570  0.640090  0.888670  1.0  -0.0118
  C  C494  1  0.173270  0.758900  0.912770  1.0  -0.0214
  C  C495  1  0.154750  0.779170  0.874770  1.0  -0.1399
  C  C496  1  0.811750  0.088950  0.686200  1.0  0.6451
  C  C497  1  0.797710  0.041900  0.706000  1.0  -0.1279
  C  C498  1  0.794270  0.014070  0.649300  1.0  -0.0494
  C  C499  1  0.780350  0.970670  0.664100  1.0  -0.1897
  C  C500  1  0.767400  0.954840  0.734600  1.0  0.0967
  C  C501  1  0.771070  0.982250  0.795000  1.0  -0.1777
  C  C502  1  0.785820  0.026580  0.778000  1.0  -0.0152
  C  C503  1  0.747710  0.907770  0.753900  1.0  -0.0214
  C  C504  1  0.708920  0.887500  0.791900  1.0  -0.1403
  C  C505  1  0.478420  0.422280  0.019530  1.0  0.6451
  C  C506  1  0.464380  0.375230  0.039330  1.0  -0.1279
  C  C507  1  0.460940  0.347400  0.982630  1.0  -0.0489
  C  C508  1  0.447020  0.304000  0.997430  1.0  -0.1897
  C  C509  1  0.434070  0.288170  0.067930  1.0  0.0967
  C  C510  1  0.437740  0.315580  0.128330  1.0  -0.1778
  C  C511  1  0.452490  0.359910  0.111330  1.0  -0.0149
  C  C512  1  0.414380  0.241100  0.087230  1.0  -0.0212
  C  C513  1  0.375590  0.220830  0.125230  1.0  -0.1404
  C  C514  1  0.145080  0.755620  0.352870  1.0  0.6451
  C  C515  1  0.131040  0.708570  0.372670  1.0  -0.1279
  C  C516  1  0.127600  0.680740  0.315970  1.0  -0.0494
  C  C517  1  0.113680  0.637340  0.330770  1.0  -0.1897
  C  C518  1  0.100730  0.621510  0.401270  1.0  0.0967
  C  C519  1  0.104400  0.648920  0.461670  1.0  -0.1777
  C  C520  1  0.119150  0.693250  0.444670  1.0  -0.0152
  C  C521  1  0.081040  0.574440  0.420570  1.0  -0.0214
  C  C522  1  0.042250  0.554170  0.458570  1.0  -0.1406
  C  C523  1  0.277200  0.188250  0.686200  1.0  0.643
  C  C524  1  0.244190  0.202290  0.706000  1.0  -0.127
  C  C525  1  0.219800  0.205730  0.649300  1.0  -0.0496
  C  C526  1  0.190320  0.219650  0.664100  1.0  -0.1892
  C  C527  1  0.187440  0.232600  0.734600  1.0  0.0935
  C  C528  1  0.211180  0.228930  0.795000  1.0  -0.1784
  C  C529  1  0.240760  0.214180  0.778000  1.0  -0.0113
  C  C530  1  0.160060  0.252290  0.753900  1.0  -0.0197
  C  C531  1  0.178580  0.291080  0.791900  1.0  -0.1418
  C  C532  1  0.943870  0.521580  0.019530  1.0  0.643
  C  C533  1  0.910860  0.535620  0.039330  1.0  -0.127
  C  C534  1  0.886470  0.539060  0.982630  1.0  -0.049
  C  C535  1  0.856990  0.552980  0.997430  1.0  -0.1892
  C  C536  1  0.854110  0.565930  0.067930  1.0  0.0935
  C  C537  1  0.877850  0.562260  0.128330  1.0  -0.1784
  C  C538  1  0.907430  0.547510  0.111330  1.0  -0.0117
  C  C539  1  0.826730  0.585620  0.087230  1.0  -0.0198
  C  C540  1  0.845250  0.624410  0.125230  1.0  -0.1418
  C  C541  1  0.610530  0.854920  0.352870  1.0  0.643
  C  C542  1  0.577520  0.868960  0.372670  1.0  -0.127
  C  C543  1  0.553130  0.872400  0.315970  1.0  -0.0496
  C  C544  1  0.523650  0.886320  0.330770  1.0  -0.1892
  C  C545  1  0.520770  0.899270  0.401270  1.0  0.0934
  C  C546  1  0.544510  0.895600  0.461670  1.0  -0.1784
  C  C547  1  0.574090  0.880850  0.444670  1.0  -0.0113
  C  C548  1  0.493390  0.918960  0.420570  1.0  -0.0197
  C  C549  1  0.511910  0.957750  0.458570  1.0  -0.1418
  C  C550  1  0.911050  0.722800  0.686200  1.0  0.6443
  C  C551  1  0.958100  0.755810  0.706000  1.0  -0.1273
  C  C552  1  0.985930  0.780200  0.649300  1.0  -0.0485
  C  C553  1  0.029330  0.809680  0.664100  1.0  -0.19
  C  C554  1  0.045160  0.812560  0.734600  1.0  0.0948
  C  C555  1  0.017750  0.788820  0.795000  1.0  -0.1787
  C  C556  1  0.973420  0.759240  0.778000  1.0  -0.0136
  C  C557  1  0.092230  0.839940  0.753900  1.0  -0.0223
  C  C558  1  0.112500  0.821420  0.791900  1.0  -0.1393
  C  C559  1  0.577720  0.056130  0.019530  1.0  0.6443
  C  C560  1  0.624770  0.089140  0.039330  1.0  -0.1274
  C  C561  1  0.652600  0.113530  0.982630  1.0  -0.0491
  C  C562  1  0.696000  0.143010  0.997430  1.0  -0.19
  C  C563  1  0.711830  0.145890  0.067930  1.0  0.0951
  C  C564  1  0.684420  0.122150  0.128330  1.0  -0.1787
  C  C565  1  0.640090  0.092570  0.111330  1.0  -0.0132
  C  C566  1  0.758900  0.173270  0.087230  1.0  -0.0229
  C  C567  1  0.779170  0.154750  0.125230  1.0  -0.1393
  C  C568  1  0.244380  0.389470  0.352870  1.0  0.6443
  C  C569  1  0.291430  0.422480  0.372670  1.0  -0.1273
  C  C570  1  0.319260  0.446870  0.315970  1.0  -0.0485
  C  C571  1  0.362660  0.476350  0.330770  1.0  -0.1899
  C  C572  1  0.378490  0.479230  0.401270  1.0  0.0949
  C  C573  1  0.351080  0.455490  0.461670  1.0  -0.1787
  C  C574  1  0.306750  0.425910  0.444670  1.0  -0.0136
  C  C575  1  0.425560  0.506610  0.420570  1.0  -0.0224
  C  C576  1  0.445830  0.488090  0.458570  1.0  -0.1393
  C  C577  1  0.156250  0.312500  0.813600  1.0  0.0234
  C  C578  1  0.116490  0.232970  0.732400  1.0  0.1848
  C  C579  1  0.079100  0.158200  0.743200  1.0  0.0067
  C  C580  1  0.822920  0.645830  0.146930  1.0  0.0234
  C  C581  1  0.783150  0.566300  0.065730  1.0  0.1848
  C  C582  1  0.745770  0.491530  0.076530  1.0  0.0068
  C  C583  1  0.489580  0.979170  0.480270  1.0  0.023
  C  C584  1  0.449820  0.899640  0.399070  1.0  0.1848
  C  C585  1  0.412430  0.824870  0.409870  1.0  0.0067
  C  C586  1  0.687500  0.843750  0.813600  1.0  0.0209
  C  C587  1  0.767030  0.883510  0.732400  1.0  0.1845
  C  C588  1  0.841800  0.920900  0.743200  1.0  0.0017
  C  C589  1  0.354170  0.177080  0.146930  1.0  0.0209
  C  C590  1  0.433700  0.216850  0.065730  1.0  0.1845
  C  C591  1  0.508470  0.254230  0.076530  1.0  0.0017
  C  C592  1  0.020830  0.510420  0.480270  1.0  0.0205
  C  C593  1  0.100360  0.550180  0.399070  1.0  0.1845
  C  C594  1  0.175130  0.587570  0.409870  1.0  0.0017
  C  C595  1  0.156250  0.843750  0.813600  1.0  0.0204
  C  C596  1  0.116490  0.883510  0.732400  1.0  0.1847
  C  C597  1  0.079100  0.920900  0.743200  1.0  0.0013
  C  C598  1  0.822920  0.177080  0.146930  1.0  0.0204
  C  C599  1  0.783150  0.216850  0.065730  1.0  0.1845
  C  C600  1  0.745770  0.254230  0.076530  1.0  0.0013
  C  C601  1  0.489580  0.510420  0.480270  1.0  0.021
  C  C602  1  0.449820  0.550180  0.399070  1.0  0.1847
  C  C603  1  0.412430  0.587570  0.409870  1.0  0.0013
  C  C604  1  0.312500  0.156250  0.186400  1.0  0.0214
  C  C605  1  0.232970  0.116490  0.267600  1.0  0.1824
  C  C606  1  0.158200  0.079100  0.256800  1.0  0.0021
  C  C607  1  0.979170  0.489580  0.519730  1.0  0.021
  C  C608  1  0.899640  0.449820  0.600930  1.0  0.1824
  C  C609  1  0.824870  0.412430  0.590130  1.0  0.0021
  C  C610  1  0.645830  0.822920  0.853070  1.0  0.0214
  C  C611  1  0.566300  0.783150  0.934270  1.0  0.1824
  C  C612  1  0.491530  0.745770  0.923470  1.0  0.0021
  C  C613  1  0.843750  0.687500  0.186400  1.0  0.023
  C  C614  1  0.883510  0.767030  0.267600  1.0  0.1832
  C  C615  1  0.920900  0.841800  0.256800  1.0  0.0052
  C  C616  1  0.510420  0.020830  0.519730  1.0  0.0226
  C  C617  1  0.550180  0.100360  0.600930  1.0  0.1832
  C  C618  1  0.587570  0.175130  0.590130  1.0  0.0052
  C  C619  1  0.177080  0.354170  0.853070  1.0  0.023
  C  C620  1  0.216850  0.433700  0.934270  1.0  0.1832
  C  C621  1  0.254230  0.508470  0.923470  1.0  0.0052
  C  C622  1  0.843750  0.156250  0.186400  1.0  0.0209
  C  C623  1  0.883510  0.116490  0.267600  1.0  0.1827
  C  C624  1  0.920900  0.079100  0.256800  1.0  0.0036
  C  C625  1  0.510420  0.489580  0.519730  1.0  0.0214
  C  C626  1  0.550180  0.449820  0.600930  1.0  0.1828
  C  C627  1  0.587570  0.412430  0.590130  1.0  0.0036
  C  C628  1  0.177080  0.822920  0.853070  1.0  0.0209
  C  C629  1  0.216850  0.783150  0.934270  1.0  0.1826
  C  C630  1  0.254230  0.745770  0.923470  1.0  0.0036
  O  O631  1  0.889150  0.187810  0.747100  1.0  -0.5665
  O  O632  1  0.898300  0.178090  0.618500  1.0  -0.5547
  O  O633  1  0.555820  0.521140  0.080430  1.0  -0.5665
  O  O634  1  0.564970  0.511420  0.951830  1.0  -0.5547
  O  O635  1  0.222480  0.854480  0.413770  1.0  -0.5665
  O  O636  1  0.231630  0.844760  0.285170  1.0  -0.5547
  O  O637  1  0.812190  0.701340  0.747100  1.0  -0.567
  O  O638  1  0.821910  0.720210  0.618500  1.0  -0.5539
  O  O639  1  0.478860  0.034670  0.080430  1.0  -0.567
  O  O640  1  0.488580  0.053540  0.951830  1.0  -0.5539
  O  O641  1  0.145520  0.368010  0.413770  1.0  -0.567
  O  O642  1  0.155240  0.386880  0.285170  1.0  -0.5539
  O  O643  1  0.298660  0.110850  0.747100  1.0  -0.5663
  O  O644  1  0.279790  0.101700  0.618500  1.0  -0.5534
  O  O645  1  0.965330  0.444180  0.080430  1.0  -0.5664
  O  O646  1  0.946460  0.435030  0.951830  1.0  -0.5534
  O  O647  1  0.631990  0.777520  0.413770  1.0  -0.5663
  O  O648  1  0.613120  0.768370  0.285170  1.0  -0.5534
  O  O649  1  0.187810  0.889150  0.252900  1.0  -0.5664
  O  O650  1  0.178090  0.898300  0.381500  1.0  -0.556
  O  O651  1  0.854480  0.222480  0.586230  1.0  -0.5664
  O  O652  1  0.844760  0.231630  0.714830  1.0  -0.556
  O  O653  1  0.521140  0.555820  0.919570  1.0  -0.5664
  O  O654  1  0.511420  0.564970  0.048170  1.0  -0.5561
  O  O655  1  0.701340  0.812190  0.252900  1.0  -0.5661
  O  O656  1  0.720210  0.821910  0.381500  1.0  -0.5566
  O  O657  1  0.368010  0.145520  0.586230  1.0  -0.5661
  O  O658  1  0.386880  0.155240  0.714830  1.0  -0.5566
  O  O659  1  0.034670  0.478860  0.919570  1.0  -0.5661
  O  O660  1  0.053540  0.488580  0.048170  1.0  -0.5566
  O  O661  1  0.110850  0.298660  0.252900  1.0  -0.5662
  O  O662  1  0.101700  0.279790  0.381500  1.0  -0.5556
  O  O663  1  0.777520  0.631990  0.586230  1.0  -0.5662
  O  O664  1  0.768370  0.613120  0.714830  1.0  -0.5556
  O  O665  1  0.444180  0.965330  0.919570  1.0  -0.5663
  O  O666  1  0.435030  0.946460  0.048170  1.0  -0.5556
  O  O667  1  0.110850  0.812190  0.252900  1.0  -0.5642
  O  O668  1  0.101700  0.821910  0.381500  1.0  -0.5563
  O  O669  1  0.777520  0.145520  0.586230  1.0  -0.5642
  O  O670  1  0.768370  0.155240  0.714830  1.0  -0.5563
  O  O671  1  0.444180  0.478860  0.919570  1.0  -0.5641
  O  O672  1  0.435030  0.488580  0.048170  1.0  -0.5563
  O  O673  1  0.187810  0.298660  0.252900  1.0  -0.5652
  O  O674  1  0.178090  0.279790  0.381500  1.0  -0.5556
  O  O675  1  0.854480  0.631990  0.586230  1.0  -0.5652
  O  O676  1  0.844760  0.613120  0.714830  1.0  -0.5556
  O  O677  1  0.521140  0.965330  0.919570  1.0  -0.5653
  O  O678  1  0.511420  0.946460  0.048170  1.0  -0.5556
  O  O679  1  0.701340  0.889150  0.252900  1.0  -0.5656
  O  O680  1  0.720210  0.898300  0.381500  1.0  -0.5557
  O  O681  1  0.368010  0.222480  0.586230  1.0  -0.5656
  O  O682  1  0.386880  0.231630  0.714830  1.0  -0.5557
  O  O683  1  0.034670  0.555820  0.919570  1.0  -0.5656
  O  O684  1  0.053540  0.564970  0.048170  1.0  -0.5557
  O  O685  1  0.812190  0.110850  0.747100  1.0  -0.5667
  O  O686  1  0.821910  0.101700  0.618500  1.0  -0.5537
  O  O687  1  0.478860  0.444180  0.080430  1.0  -0.5667
  O  O688  1  0.488580  0.435030  0.951830  1.0  -0.5537
  O  O689  1  0.145520  0.777520  0.413770  1.0  -0.5667
  O  O690  1  0.155240  0.768370  0.285170  1.0  -0.5537
  O  O691  1  0.298660  0.187810  0.747100  1.0  -0.5653
  O  O692  1  0.279790  0.178090  0.618500  1.0  -0.554
  O  O693  1  0.965330  0.521140  0.080430  1.0  -0.5654
  O  O694  1  0.946460  0.511420  0.951830  1.0  -0.554
  O  O695  1  0.631990  0.854480  0.413770  1.0  -0.5653
  O  O696  1  0.613120  0.844760  0.285170  1.0  -0.554
  O  O697  1  0.889150  0.701340  0.747100  1.0  -0.567
  O  O698  1  0.898300  0.720210  0.618500  1.0  -0.5538
  O  O699  1  0.555820  0.034670  0.080430  1.0  -0.567
  O  O700  1  0.564970  0.053540  0.951830  1.0  -0.5538
  O  O701  1  0.222480  0.368010  0.413770  1.0  -0.567
  O  O702  1  0.231630  0.386880  0.285170  1.0  -0.5538
  O  O703  1  0.097220  0.194440  0.692500  1.0  -0.3368
  O  O704  1  0.763890  0.527770  0.025830  1.0  -0.3368
  O  O705  1  0.430550  0.861110  0.359170  1.0  -0.3368
  O  O706  1  0.805560  0.902780  0.692500  1.0  -0.3363
  O  O707  1  0.472230  0.236110  0.025830  1.0  -0.3363
  O  O708  1  0.138890  0.569450  0.359170  1.0  -0.3363
  O  O709  1  0.097220  0.902780  0.692500  1.0  -0.3152
  O  O710  1  0.763890  0.236110  0.025830  1.0  -0.3367
  O  O711  1  0.430550  0.569450  0.359170  1.0  -0.3152
  O  O712  1  0.194440  0.097220  0.307500  1.0  -0.3418
  O  O713  1  0.861110  0.430550  0.640830  1.0  -0.3418
  O  O714  1  0.527770  0.763890  0.974170  1.0  -0.3418
  O  O715  1  0.902780  0.805560  0.307500  1.0  -0.3416
  O  O716  1  0.569450  0.138890  0.640830  1.0  -0.3416
  O  O717  1  0.236110  0.472230  0.974170  1.0  -0.3416
  O  O718  1  0.902780  0.097220  0.307500  1.0  -0.3208
  O  O719  1  0.569450  0.430550  0.640830  1.0  -0.3208
  O  O720  1  0.236110  0.763890  0.974170  1.0  -0.3425
