# generated using pymatgen
data_CuH13C21O5
_symmetry_space_group_name_H-M   'P 1'
_cell_length_a   35.06730000
_cell_length_b   35.06730000
_cell_length_c   22.39700000
_cell_angle_alpha   90.00000000
_cell_angle_beta   90.00000000
_cell_angle_gamma   120.00000000
_symmetry_Int_Tables_number   1
_chemical_formula_structural   CuH13C21O5
_chemical_formula_sum   'Cu18 H234 C378 O90'
_cell_volume   23852.01859191
_cell_formula_units_Z   18
loop_
 _symmetry_equiv_pos_site_id
 _symmetry_equiv_pos_as_xyz
  1  'x, y, z'
loop_
 _atom_site_type_symbol
 _atom_site_label
 _atom_site_symmetry_multiplicity
 _atom_site_fract_x
 _atom_site_fract_y
 _atom_site_fract_z
 _atom_site_occupancy
 _atom_site_charge
  Cu  Cu1  1  0.491530  0.508470  0.553130  1.0  0.9117
  Cu  Cu2  1  0.158200  0.841800  0.886460  1.0  0.9117
  Cu  Cu3  1  0.824860  0.175140  0.219800  1.0  0.9117
  Cu  Cu4  1  0.491530  0.983060  0.553130  1.0  0.9116
  Cu  Cu5  1  0.158200  0.316390  0.886460  1.0  0.9116
  Cu  Cu6  1  0.824860  0.649730  0.219800  1.0  0.9116
  Cu  Cu7  1  0.016940  0.508470  0.553130  1.0  0.9111
  Cu  Cu8  1  0.683610  0.841800  0.886460  1.0  0.9111
  Cu  Cu9  1  0.350270  0.175140  0.219800  1.0  0.9111
  Cu  Cu10  1  0.508470  0.491530  0.446870  1.0  0.9121
  Cu  Cu11  1  0.175140  0.824860  0.780200  1.0  0.9121
  Cu  Cu12  1  0.841800  0.158200  0.113540  1.0  0.9121
  Cu  Cu13  1  0.983060  0.491530  0.446870  1.0  0.9113
  Cu  Cu14  1  0.649730  0.824860  0.780200  1.0  0.9113
  Cu  Cu15  1  0.316390  0.158200  0.113540  1.0  0.9113
  Cu  Cu16  1  0.508470  0.016940  0.446870  1.0  0.9121
  Cu  Cu17  1  0.175140  0.350270  0.780200  1.0  0.9121
  Cu  Cu18  1  0.841800  0.683610  0.113540  1.0  0.9121
  H  H19  1  0.352900  0.466400  0.534200  1.0  0.1141
  H  H20  1  0.282100  0.444600  0.503500  1.0  0.0882
  H  H21  1  0.309700  0.423600  0.340400  1.0  0.1078
  H  H22  1  0.381700  0.448500  0.367800  1.0  0.1058
  H  H23  1  0.237000  0.360300  0.358300  1.0  0.1492
  H  H24  1  0.230600  0.505900  0.399100  1.0  0.1005
  H  H25  1  0.019570  0.799730  0.867530  1.0  0.1141
  H  H26  1  0.948770  0.777930  0.836830  1.0  0.0906
  H  H27  1  0.976370  0.756930  0.673730  1.0  0.1072
  H  H28  1  0.048370  0.781830  0.701130  1.0  0.1058
  H  H29  1  0.903670  0.693630  0.691630  1.0  0.1492
  H  H30  1  0.897270  0.839230  0.732430  1.0  0.1003
  H  H31  1  0.686230  0.133070  0.200870  1.0  0.1141
  H  H32  1  0.615430  0.111270  0.170170  1.0  0.0882
  H  H33  1  0.643030  0.090270  0.007070  1.0  0.1077
  H  H34  1  0.715030  0.115170  0.034470  1.0  0.106
  H  H35  1  0.570330  0.026970  0.024970  1.0  0.1494
  H  H36  1  0.563930  0.172570  0.065770  1.0  0.1006
  H  H37  1  0.533600  0.886500  0.534200  1.0  0.1148
  H  H38  1  0.555400  0.837500  0.503500  1.0  0.0908
  H  H39  1  0.576400  0.886100  0.340400  1.0  0.1069
  H  H40  1  0.551500  0.933200  0.367800  1.0  0.1045
  H  H41  1  0.639700  0.876700  0.358300  1.0  0.1485
  H  H42  1  0.494100  0.724700  0.399100  1.0  0.1001
  H  H43  1  0.200270  0.219830  0.867530  1.0  0.1147
  H  H44  1  0.222070  0.170830  0.836830  1.0  0.0887
  H  H45  1  0.243070  0.219430  0.673730  1.0  0.1076
  H  H46  1  0.218170  0.266530  0.701130  1.0  0.1052
  H  H47  1  0.306370  0.210030  0.691630  1.0  0.1485
  H  H48  1  0.160770  0.058030  0.732430  1.0  0.1013
  H  H49  1  0.866930  0.553170  0.200870  1.0  0.1148
  H  H50  1  0.888730  0.504170  0.170170  1.0  0.0908
  H  H51  1  0.909730  0.552770  0.007070  1.0  0.1069
  H  H52  1  0.884830  0.599870  0.034470  1.0  0.1049
  H  H53  1  0.973030  0.543370  0.024970  1.0  0.1482
  H  H54  1  0.827430  0.391370  0.065770  1.0  0.1002
  H  H55  1  0.113500  0.647100  0.534200  1.0  0.1145
  H  H56  1  0.162500  0.717900  0.503500  1.0  0.0908
  H  H57  1  0.113900  0.690300  0.340400  1.0  0.1071
  H  H58  1  0.066800  0.618300  0.367800  1.0  0.1042
  H  H59  1  0.123300  0.763000  0.358300  1.0  0.1488
  H  H60  1  0.275300  0.769400  0.399100  1.0  0.1029
  H  H61  1  0.780170  0.980430  0.867530  1.0  0.1148
  H  H62  1  0.829170  0.051230  0.836830  1.0  0.0908
  H  H63  1  0.780570  0.023630  0.673730  1.0  0.1073
  H  H64  1  0.733470  0.951630  0.701130  1.0  0.1049
  H  H65  1  0.789970  0.096330  0.691630  1.0  0.1488
  H  H66  1  0.941970  0.102730  0.732430  1.0  0.1027
  H  H67  1  0.446830  0.313770  0.200870  1.0  0.1145
  H  H68  1  0.495830  0.384570  0.170170  1.0  0.0908
  H  H69  1  0.447230  0.356970  0.007070  1.0  0.1071
  H  H70  1  0.400130  0.284970  0.034470  1.0  0.1053
  H  H71  1  0.456630  0.429670  0.024970  1.0  0.1489
  H  H72  1  0.608630  0.436070  0.065770  1.0  0.1035
  H  H73  1  0.466400  0.352900  0.465800  1.0  0.1148
  H  H74  1  0.444600  0.282100  0.496500  1.0  0.0884
  H  H75  1  0.423600  0.309700  0.659600  1.0  0.1072
  H  H76  1  0.448500  0.381700  0.632200  1.0  0.1055
  H  H77  1  0.360300  0.237000  0.641700  1.0  0.148
  H  H78  1  0.505900  0.230600  0.600900  1.0  0.1015
  H  H79  1  0.133070  0.686230  0.799130  1.0  0.1148
  H  H80  1  0.111270  0.615430  0.829830  1.0  0.0884
  H  H81  1  0.090270  0.643030  0.992930  1.0  0.107
  H  H82  1  0.115170  0.715030  0.965530  1.0  0.1059
  H  H83  1  0.026970  0.570330  0.975030  1.0  0.1483
  H  H84  1  0.172570  0.563930  0.934230  1.0  0.1018
  H  H85  1  0.799730  0.019570  0.132470  1.0  0.1148
  H  H86  1  0.777930  0.948770  0.163170  1.0  0.0914
  H  H87  1  0.756930  0.976370  0.326270  1.0  0.1064
  H  H88  1  0.781830  0.048370  0.298870  1.0  0.1055
  H  H89  1  0.693630  0.903670  0.308370  1.0  0.148
  H  H90  1  0.839230  0.897270  0.267570  1.0  0.102
  H  H91  1  0.886500  0.533600  0.465800  1.0  0.1137
  H  H92  1  0.837500  0.555400  0.496500  1.0  0.0914
  H  H93  1  0.886100  0.576400  0.659600  1.0  0.1063
  H  H94  1  0.933200  0.551500  0.632200  1.0  0.1054
  H  H95  1  0.876700  0.639700  0.641700  1.0  0.1487
  H  H96  1  0.724700  0.494100  0.600900  1.0  0.1016
  H  H97  1  0.553170  0.866930  0.799130  1.0  0.1137
  H  H98  1  0.504170  0.888730  0.829830  1.0  0.0914
  H  H99  1  0.552770  0.909730  0.992930  1.0  0.1063
  H  H100  1  0.599870  0.884830  0.965530  1.0  0.1057
  H  H101  1  0.543370  0.973030  0.975030  1.0  0.1484
  H  H102  1  0.391370  0.827430  0.934230  1.0  0.1016
  H  H103  1  0.219830  0.200270  0.132470  1.0  0.114
  H  H104  1  0.170830  0.222070  0.163170  1.0  0.0886
  H  H105  1  0.219430  0.243070  0.326270  1.0  0.1072
  H  H106  1  0.266530  0.218170  0.298870  1.0  0.106
  H  H107  1  0.210030  0.306370  0.308370  1.0  0.1487
  H  H108  1  0.058030  0.160770  0.267570  1.0  0.1022
  H  H109  1  0.647100  0.113500  0.465800  1.0  0.1144
  H  H110  1  0.717900  0.162500  0.496500  1.0  0.0914
  H  H111  1  0.690300  0.113900  0.659600  1.0  0.1073
  H  H112  1  0.618300  0.066800  0.632200  1.0  0.1052
  H  H113  1  0.763000  0.123300  0.641700  1.0  0.1487
  H  H114  1  0.769400  0.275300  0.600900  1.0  0.1021
  H  H115  1  0.313770  0.446830  0.799130  1.0  0.1144
  H  H116  1  0.384570  0.495830  0.829830  1.0  0.0914
  H  H117  1  0.356970  0.447230  0.992930  1.0  0.1074
  H  H118  1  0.284970  0.400130  0.965530  1.0  0.1061
  H  H119  1  0.429670  0.456630  0.975030  1.0  0.1488
  H  H120  1  0.436070  0.608630  0.934230  1.0  0.103
  H  H121  1  0.980430  0.780170  0.132470  1.0  0.1143
  H  H122  1  0.051230  0.829170  0.163170  1.0  0.0914
  H  H123  1  0.023630  0.780570  0.326270  1.0  0.1075
  H  H124  1  0.951630  0.733470  0.298870  1.0  0.1059
  H  H125  1  0.096330  0.789970  0.308370  1.0  0.1487
  H  H126  1  0.102730  0.941970  0.267570  1.0  0.1017
  H  H127  1  0.647100  0.533600  0.465800  1.0  0.1141
  H  H128  1  0.717900  0.555400  0.496500  1.0  0.0884
  H  H129  1  0.690300  0.576400  0.659600  1.0  0.1078
  H  H130  1  0.618300  0.551500  0.632200  1.0  0.1057
  H  H131  1  0.763000  0.639700  0.641700  1.0  0.1486
  H  H132  1  0.769400  0.494100  0.600900  1.0  0.0992
  H  H133  1  0.313770  0.866930  0.799130  1.0  0.1141
  H  H134  1  0.384570  0.888730  0.829830  1.0  0.0884
  H  H135  1  0.356970  0.909730  0.992930  1.0  0.1077
  H  H136  1  0.284970  0.884830  0.965530  1.0  0.1059
  H  H137  1  0.429670  0.973030  0.975030  1.0  0.1488
  H  H138  1  0.436070  0.827430  0.934230  1.0  0.0996
  H  H139  1  0.980430  0.200270  0.132470  1.0  0.1141
  H  H140  1  0.051230  0.222070  0.163170  1.0  0.0912
  H  H141  1  0.023630  0.243070  0.326270  1.0  0.1071
  H  H142  1  0.951630  0.218170  0.298870  1.0  0.1057
  H  H143  1  0.096330  0.306370  0.308370  1.0  0.1486
  H  H144  1  0.102730  0.160770  0.267570  1.0  0.0997
  H  H145  1  0.466400  0.113500  0.465800  1.0  0.1137
  H  H146  1  0.444600  0.162500  0.496500  1.0  0.0914
  H  H147  1  0.423600  0.113900  0.659600  1.0  0.1065
  H  H148  1  0.448500  0.066800  0.632200  1.0  0.1054
  H  H149  1  0.360300  0.123300  0.641700  1.0  0.149
  H  H150  1  0.505900  0.275300  0.600900  1.0  0.1023
  H  H151  1  0.133070  0.446830  0.799130  1.0  0.1137
  H  H152  1  0.111270  0.495830  0.829830  1.0  0.0914
  H  H153  1  0.090270  0.447230  0.992930  1.0  0.1065
  H  H154  1  0.115170  0.400130  0.965530  1.0  0.1057
  H  H155  1  0.026970  0.456630  0.975030  1.0  0.1485
  H  H156  1  0.172570  0.608630  0.934230  1.0  0.1018
  H  H157  1  0.799730  0.780170  0.132470  1.0  0.1142
  H  H158  1  0.777930  0.829170  0.163170  1.0  0.0883
  H  H159  1  0.756930  0.780570  0.326270  1.0  0.1073
  H  H160  1  0.781830  0.733470  0.298870  1.0  0.1059
  H  H161  1  0.693630  0.789970  0.308370  1.0  0.149
  H  H162  1  0.839230  0.941970  0.267570  1.0  0.1032
  H  H163  1  0.886500  0.352900  0.465800  1.0  0.1145
  H  H164  1  0.837500  0.282100  0.496500  1.0  0.0914
  H  H165  1  0.886100  0.309700  0.659600  1.0  0.1062
  H  H166  1  0.933200  0.381700  0.632200  1.0  0.1049
  H  H167  1  0.876700  0.237000  0.641700  1.0  0.1477
  H  H168  1  0.724700  0.230600  0.600900  1.0  0.1024
  H  H169  1  0.553170  0.686230  0.799130  1.0  0.1145
  H  H170  1  0.504170  0.615430  0.829830  1.0  0.0914
  H  H171  1  0.552770  0.643030  0.992930  1.0  0.1063
  H  H172  1  0.599870  0.715030  0.965530  1.0  0.106
  H  H173  1  0.543370  0.570330  0.975030  1.0  0.1478
  H  H174  1  0.391370  0.563930  0.934230  1.0  0.1035
  H  H175  1  0.219830  0.019570  0.132470  1.0  0.1144
  H  H176  1  0.170830  0.948770  0.163170  1.0  0.0914
  H  H177  1  0.219430  0.976370  0.326270  1.0  0.1064
  H  H178  1  0.266530  0.048370  0.298870  1.0  0.1056
  H  H179  1  0.210030  0.903670  0.308370  1.0  0.1477
  H  H180  1  0.058030  0.897270  0.267570  1.0  0.1023
  H  H181  1  0.533600  0.647100  0.534200  1.0  0.1145
  H  H182  1  0.555400  0.717900  0.503500  1.0  0.088
  H  H183  1  0.576400  0.690300  0.340400  1.0  0.1079
  H  H184  1  0.551500  0.618300  0.367800  1.0  0.1051
  H  H185  1  0.639700  0.763000  0.358300  1.0  0.1488
  H  H186  1  0.494100  0.769400  0.399100  1.0  0.1013
  H  H187  1  0.200270  0.980430  0.867530  1.0  0.1145
  H  H188  1  0.222070  0.051230  0.836830  1.0  0.0906
  H  H189  1  0.243070  0.023630  0.673730  1.0  0.1073
  H  H190  1  0.218170  0.951630  0.701130  1.0  0.1051
  H  H191  1  0.306370  0.096330  0.691630  1.0  0.1488
  H  H192  1  0.160770  0.102730  0.732430  1.0  0.1015
  H  H193  1  0.866930  0.313770  0.200870  1.0  0.1145
  H  H194  1  0.888730  0.384570  0.170170  1.0  0.088
  H  H195  1  0.909730  0.356970  0.007070  1.0  0.1078
  H  H196  1  0.884830  0.284970  0.034470  1.0  0.1055
  H  H197  1  0.973030  0.429670  0.024970  1.0  0.149
  H  H198  1  0.827430  0.436070  0.065770  1.0  0.1019
  H  H199  1  0.113500  0.466400  0.534200  1.0  0.1141
  H  H200  1  0.162500  0.444600  0.503500  1.0  0.0908
  H  H201  1  0.113900  0.423600  0.340400  1.0  0.1068
  H  H202  1  0.066800  0.448500  0.367800  1.0  0.1047
  H  H203  1  0.123300  0.360300  0.358300  1.0  0.15
  H  H204  1  0.275300  0.505900  0.399100  1.0  0.1008
  H  H205  1  0.780170  0.799730  0.867530  1.0  0.1139
  H  H206  1  0.829170  0.777930  0.836830  1.0  0.0889
  H  H207  1  0.780570  0.756930  0.673730  1.0  0.1075
  H  H208  1  0.733470  0.781830  0.701130  1.0  0.1053
  H  H209  1  0.789970  0.693630  0.691630  1.0  0.15
  H  H210  1  0.941970  0.839230  0.732430  1.0  0.1008
  H  H211  1  0.446830  0.133070  0.200870  1.0  0.1141
  H  H212  1  0.495830  0.111270  0.170170  1.0  0.0908
  H  H213  1  0.447230  0.090270  0.007070  1.0  0.1068
  H  H214  1  0.400130  0.115170  0.034470  1.0  0.105
  H  H215  1  0.456630  0.026970  0.024970  1.0  0.1496
  H  H216  1  0.608630  0.172570  0.065770  1.0  0.1012
  H  H217  1  0.352900  0.886500  0.534200  1.0  0.1144
  H  H218  1  0.282100  0.837500  0.503500  1.0  0.0907
  H  H219  1  0.309700  0.886100  0.340400  1.0  0.1073
  H  H220  1  0.381700  0.933200  0.367800  1.0  0.1049
  H  H221  1  0.237000  0.876700  0.358300  1.0  0.1484
  H  H222  1  0.230600  0.724700  0.399100  1.0  0.1012
  H  H223  1  0.019570  0.219830  0.867530  1.0  0.1146
  H  H224  1  0.948770  0.170830  0.836830  1.0  0.0907
  H  H225  1  0.976370  0.219430  0.673730  1.0  0.1075
  H  H226  1  0.048370  0.266530  0.701130  1.0  0.1055
  H  H227  1  0.903670  0.210030  0.691630  1.0  0.1484
  H  H228  1  0.897270  0.058030  0.732430  1.0  0.1006
  H  H229  1  0.686230  0.553170  0.200870  1.0  0.1144
  H  H230  1  0.615430  0.504170  0.170170  1.0  0.0907
  H  H231  1  0.643030  0.552770  0.007070  1.0  0.1073
  H  H232  1  0.715030  0.599870  0.034470  1.0  0.1061
  H  H233  1  0.570330  0.543370  0.024970  1.0  0.1485
  H  H234  1  0.563930  0.391370  0.065770  1.0  0.1023
  H  H235  1  0.265200  0.530400  0.449800  1.0  0.1209
  H  H236  1  0.931870  0.863730  0.783130  1.0  0.1209
  H  H237  1  0.598530  0.197070  0.116470  1.0  0.1209
  H  H238  1  0.469600  0.734800  0.449800  1.0  0.1228
  H  H239  1  0.136270  0.068130  0.783130  1.0  0.1228
  H  H240  1  0.802930  0.401470  0.116470  1.0  0.1228
  H  H241  1  0.265200  0.734800  0.449800  1.0  0.1251
  H  H242  1  0.931870  0.068130  0.783130  1.0  0.125
  H  H243  1  0.598530  0.401470  0.116470  1.0  0.1251
  H  H244  1  0.530400  0.265200  0.550200  1.0  0.122
  H  H245  1  0.197070  0.598530  0.883530  1.0  0.122
  H  H246  1  0.863730  0.931870  0.216870  1.0  0.122
  H  H247  1  0.734800  0.469600  0.550200  1.0  0.121
  H  H248  1  0.401470  0.802930  0.883530  1.0  0.121
  H  H249  1  0.068130  0.136270  0.216870  1.0  0.121
  H  H250  1  0.734800  0.265200  0.550200  1.0  0.1233
  H  H251  1  0.401470  0.598530  0.883530  1.0  0.1233
  H  H252  1  0.068130  0.931870  0.216870  1.0  0.1232
  C  C253  1  0.421760  0.475810  0.470300  1.0  0.7169
  C  C254  1  0.375270  0.460430  0.453200  1.0  -0.1353
  C  C255  1  0.344730  0.458440  0.494600  1.0  -0.0973
  C  C256  1  0.301840  0.444290  0.475900  1.0  -0.1134
  C  C257  1  0.287440  0.430240  0.420300  1.0  0.0997
  C  C258  1  0.318260  0.432410  0.379600  1.0  -0.153
  C  C259  1  0.361680  0.447390  0.396000  1.0  -0.0889
  C  C260  1  0.240480  0.411660  0.402900  1.0  0.0074
  C  C261  1  0.220450  0.373200  0.369600  1.0  -0.129
  C  C262  1  0.088430  0.809140  0.803630  1.0  0.7169
  C  C263  1  0.041940  0.793760  0.786530  1.0  -0.1353
  C  C264  1  0.011400  0.791770  0.827930  1.0  -0.0973
  C  C265  1  0.968510  0.777620  0.809230  1.0  -0.1134
  C  C266  1  0.954110  0.763570  0.753630  1.0  0.0997
  C  C267  1  0.984930  0.765740  0.712930  1.0  -0.153
  C  C268  1  0.028350  0.780720  0.729330  1.0  -0.0889
  C  C269  1  0.907150  0.744990  0.736230  1.0  0.0074
  C  C270  1  0.887120  0.706530  0.702930  1.0  -0.1308
  C  C271  1  0.755090  0.142480  0.136970  1.0  0.7169
  C  C272  1  0.708600  0.127100  0.119870  1.0  -0.1353
  C  C273  1  0.678060  0.125110  0.161270  1.0  -0.0973
  C  C274  1  0.635170  0.110960  0.142570  1.0  -0.1134
  C  C275  1  0.620770  0.096910  0.086970  1.0  0.0997
  C  C276  1  0.651590  0.099080  0.046270  1.0  -0.153
  C  C277  1  0.695010  0.114060  0.062670  1.0  -0.0889
  C  C278  1  0.573810  0.078330  0.069570  1.0  0.0074
  C  C279  1  0.553780  0.039870  0.036270  1.0  -0.1292
  C  C280  1  0.524190  0.945950  0.470300  1.0  0.7169
  C  C281  1  0.539570  0.914840  0.453200  1.0  -0.1342
  C  C282  1  0.541560  0.886290  0.494600  1.0  -0.0977
  C  C283  1  0.555710  0.857550  0.475900  1.0  -0.1132
  C  C284  1  0.569760  0.857200  0.420300  1.0  0.1005
  C  C285  1  0.567590  0.885850  0.379600  1.0  -0.1559
  C  C286  1  0.552610  0.914290  0.396000  1.0  -0.0908
  C  C287  1  0.588340  0.828820  0.402900  1.0  0.0048
  C  C288  1  0.626800  0.847250  0.369600  1.0  -0.1264
  C  C289  1  0.190860  0.279280  0.803630  1.0  0.7169
  C  C290  1  0.206240  0.248170  0.786530  1.0  -0.1342
  C  C291  1  0.208230  0.219620  0.827930  1.0  -0.0977
  C  C292  1  0.222380  0.190880  0.809230  1.0  -0.1132
  C  C293  1  0.236430  0.190530  0.753630  1.0  0.1005
  C  C294  1  0.234260  0.219180  0.712930  1.0  -0.1559
  C  C295  1  0.219280  0.247620  0.729330  1.0  -0.0908
  C  C296  1  0.255010  0.162150  0.736230  1.0  0.0048
  C  C297  1  0.293470  0.180580  0.702930  1.0  -0.1234
  C  C298  1  0.857520  0.612620  0.136970  1.0  0.7169
  C  C299  1  0.872900  0.581510  0.119870  1.0  -0.1342
  C  C300  1  0.874890  0.552960  0.161270  1.0  -0.0977
  C  C301  1  0.889040  0.524220  0.142570  1.0  -0.1132
  C  C302  1  0.903090  0.523870  0.086970  1.0  0.1006
  C  C303  1  0.900920  0.552520  0.046270  1.0  -0.156
  C  C304  1  0.885940  0.580960  0.062670  1.0  -0.0908
  C  C305  1  0.921670  0.495490  0.069570  1.0  0.0048
  C  C306  1  0.960130  0.513920  0.036270  1.0  -0.1266
  C  C307  1  0.054050  0.578240  0.470300  1.0  0.7187
  C  C308  1  0.085160  0.624730  0.453200  1.0  -0.1326
  C  C309  1  0.113710  0.655270  0.494600  1.0  -0.0963
  C  C310  1  0.142450  0.698160  0.475900  1.0  -0.1145
  C  C311  1  0.142800  0.712560  0.420300  1.0  0.1013
  C  C312  1  0.114150  0.681740  0.379600  1.0  -0.1571
  C  C313  1  0.085710  0.638320  0.396000  1.0  -0.0901
  C  C314  1  0.171180  0.759520  0.402900  1.0  0.0061
  C  C315  1  0.152750  0.779550  0.369600  1.0  -0.1317
  C  C316  1  0.720720  0.911570  0.803630  1.0  0.7187
  C  C317  1  0.751830  0.958060  0.786530  1.0  -0.1326
  C  C318  1  0.780380  0.988600  0.827930  1.0  -0.0963
  C  C319  1  0.809120  0.031490  0.809230  1.0  -0.1145
  C  C320  1  0.809470  0.045890  0.753630  1.0  0.1013
  C  C321  1  0.780820  0.015070  0.712930  1.0  -0.1571
  C  C322  1  0.752380  0.971650  0.729330  1.0  -0.0901
  C  C323  1  0.837850  0.092850  0.736230  1.0  0.0061
  C  C324  1  0.819420  0.112880  0.702930  1.0  -0.1317
  C  C325  1  0.387380  0.244910  0.136970  1.0  0.7187
  C  C326  1  0.418490  0.291400  0.119870  1.0  -0.1326
  C  C327  1  0.447040  0.321940  0.161270  1.0  -0.0963
  C  C328  1  0.475780  0.364830  0.142570  1.0  -0.1145
  C  C329  1  0.476130  0.379230  0.086970  1.0  0.1013
  C  C330  1  0.447480  0.348410  0.046270  1.0  -0.1565
  C  C331  1  0.419040  0.304990  0.062670  1.0  -0.0901
  C  C332  1  0.504510  0.426190  0.069570  1.0  0.0061
  C  C333  1  0.486080  0.446220  0.036270  1.0  -0.1317
  C  C334  1  0.475810  0.421760  0.529700  1.0  0.7182
  C  C335  1  0.460430  0.375270  0.546800  1.0  -0.132
  C  C336  1  0.458440  0.344730  0.505400  1.0  -0.0986
  C  C337  1  0.444290  0.301840  0.524100  1.0  -0.1142
  C  C338  1  0.430240  0.287440  0.579700  1.0  0.1008
  C  C339  1  0.432410  0.318260  0.620400  1.0  -0.1586
  C  C340  1  0.447390  0.361680  0.604000  1.0  -0.0913
  C  C341  1  0.411660  0.240480  0.597100  1.0  0.0068
  C  C342  1  0.373200  0.220450  0.630400  1.0  -0.1304
  C  C343  1  0.142480  0.755090  0.863030  1.0  0.7182
  C  C344  1  0.127100  0.708600  0.880130  1.0  -0.132
  C  C345  1  0.125110  0.678060  0.838730  1.0  -0.0986
  C  C346  1  0.110960  0.635170  0.857430  1.0  -0.1142
  C  C347  1  0.096910  0.620770  0.913030  1.0  0.1008
  C  C348  1  0.099080  0.651590  0.953730  1.0  -0.1586
  C  C349  1  0.114060  0.695010  0.937330  1.0  -0.0913
  C  C350  1  0.078330  0.573810  0.930430  1.0  0.0068
  C  C351  1  0.039870  0.553780  0.963730  1.0  -0.1306
  C  C352  1  0.809140  0.088430  0.196370  1.0  0.7182
  C  C353  1  0.793760  0.041940  0.213470  1.0  -0.132
  C  C354  1  0.791770  0.011400  0.172070  1.0  -0.0986
  C  C355  1  0.777620  0.968510  0.190770  1.0  -0.1142
  C  C356  1  0.763570  0.954110  0.246370  1.0  0.1008
  C  C357  1  0.765740  0.984930  0.287070  1.0  -0.1586
  C  C358  1  0.780720  0.028350  0.270670  1.0  -0.0913
  C  C359  1  0.744990  0.907150  0.263770  1.0  0.0068
  C  C360  1  0.706530  0.887120  0.297070  1.0  -0.1324
  C  C361  1  0.945950  0.524190  0.529700  1.0  0.7166
  C  C362  1  0.914840  0.539570  0.546800  1.0  -0.1349
  C  C363  1  0.886290  0.541560  0.505400  1.0  -0.0982
  C  C364  1  0.857550  0.555710  0.524100  1.0  -0.1129
  C  C365  1  0.857200  0.569760  0.579700  1.0  0.0999
  C  C366  1  0.885850  0.567590  0.620400  1.0  -0.1549
  C  C367  1  0.914290  0.552610  0.604000  1.0  -0.0883
  C  C368  1  0.828820  0.588340  0.597100  1.0  0.0073
  C  C369  1  0.847250  0.626800  0.630400  1.0  -0.1318
  C  C370  1  0.612620  0.857520  0.863030  1.0  0.7166
  C  C371  1  0.581510  0.872900  0.880130  1.0  -0.1349
  C  C372  1  0.552960  0.874890  0.838730  1.0  -0.0982
  C  C373  1  0.524220  0.889040  0.857430  1.0  -0.1129
  C  C374  1  0.523870  0.903090  0.913030  1.0  0.1
  C  C375  1  0.552520  0.900920  0.953730  1.0  -0.1551
  C  C376  1  0.580960  0.885940  0.937330  1.0  -0.0884
  C  C377  1  0.495490  0.921670  0.930430  1.0  0.0073
  C  C378  1  0.513920  0.960130  0.963730  1.0  -0.132
  C  C379  1  0.279280  0.190860  0.196370  1.0  0.7166
  C  C380  1  0.248170  0.206240  0.213470  1.0  -0.1349
  C  C381  1  0.219620  0.208230  0.172070  1.0  -0.0982
  C  C382  1  0.190880  0.222380  0.190770  1.0  -0.1129
  C  C383  1  0.190530  0.236430  0.246370  1.0  0.0999
  C  C384  1  0.219180  0.234260  0.287070  1.0  -0.1549
  C  C385  1  0.247620  0.219280  0.270670  1.0  -0.0883
  C  C386  1  0.162150  0.255010  0.263770  1.0  0.0073
  C  C387  1  0.180580  0.293470  0.297070  1.0  -0.1304
  C  C388  1  0.578240  0.054050  0.529700  1.0  0.7171
  C  C389  1  0.624730  0.085160  0.546800  1.0  -0.1342
  C  C390  1  0.655270  0.113710  0.505400  1.0  -0.0976
  C  C391  1  0.698160  0.142450  0.524100  1.0  -0.1142
  C  C392  1  0.712560  0.142800  0.579700  1.0  0.1003
  C  C393  1  0.681740  0.114150  0.620400  1.0  -0.1571
  C  C394  1  0.638320  0.085710  0.604000  1.0  -0.0905
  C  C395  1  0.759520  0.171180  0.597100  1.0  0.0046
  C  C396  1  0.779550  0.152750  0.630400  1.0  -0.1276
  C  C397  1  0.244910  0.387380  0.863030  1.0  0.7171
  C  C398  1  0.291400  0.418490  0.880130  1.0  -0.1342
  C  C399  1  0.321940  0.447040  0.838730  1.0  -0.0976
  C  C400  1  0.364830  0.475780  0.857430  1.0  -0.1142
  C  C401  1  0.379230  0.476130  0.913030  1.0  0.1003
  C  C402  1  0.348410  0.447480  0.953730  1.0  -0.1564
  C  C403  1  0.304990  0.419040  0.937330  1.0  -0.0905
  C  C404  1  0.426190  0.504510  0.930430  1.0  0.0047
  C  C405  1  0.446220  0.486080  0.963730  1.0  -0.1276
  C  C406  1  0.911570  0.720720  0.196370  1.0  0.7171
  C  C407  1  0.958060  0.751830  0.213470  1.0  -0.1342
  C  C408  1  0.988600  0.780380  0.172070  1.0  -0.0976
  C  C409  1  0.031490  0.809120  0.190770  1.0  -0.1142
  C  C410  1  0.045890  0.809470  0.246370  1.0  0.1003
  C  C411  1  0.015070  0.780820  0.287070  1.0  -0.1571
  C  C412  1  0.971650  0.752380  0.270670  1.0  -0.0905
  C  C413  1  0.092850  0.837850  0.263770  1.0  0.0046
  C  C414  1  0.112880  0.819420  0.297070  1.0  -0.1276
  C  C415  1  0.578240  0.524190  0.529700  1.0  0.7167
  C  C416  1  0.624730  0.539570  0.546800  1.0  -0.135
  C  C417  1  0.655270  0.541560  0.505400  1.0  -0.0975
  C  C418  1  0.698160  0.555710  0.524100  1.0  -0.1143
  C  C419  1  0.712560  0.569760  0.579700  1.0  0.0992
  C  C420  1  0.681740  0.567590  0.620400  1.0  -0.1557
  C  C421  1  0.638320  0.552610  0.604000  1.0  -0.089
  C  C422  1  0.759520  0.588340  0.597100  1.0  0.0065
  C  C423  1  0.779550  0.626800  0.630400  1.0  -0.1316
  C  C424  1  0.244910  0.857520  0.863030  1.0  0.7167
  C  C425  1  0.291400  0.872900  0.880130  1.0  -0.135
  C  C426  1  0.321940  0.874890  0.838730  1.0  -0.0975
  C  C427  1  0.364830  0.889040  0.857430  1.0  -0.1143
  C  C428  1  0.379230  0.903090  0.913030  1.0  0.0992
  C  C429  1  0.348410  0.900920  0.953730  1.0  -0.1557
  C  C430  1  0.304990  0.885940  0.937330  1.0  -0.089
  C  C431  1  0.426190  0.921670  0.930430  1.0  0.0065
  C  C432  1  0.446220  0.960130  0.963730  1.0  -0.1318
  C  C433  1  0.911570  0.190860  0.196370  1.0  0.7167
  C  C434  1  0.958060  0.206240  0.213470  1.0  -0.135
  C  C435  1  0.988600  0.208230  0.172070  1.0  -0.0975
  C  C436  1  0.031490  0.222380  0.190770  1.0  -0.1143
  C  C437  1  0.045890  0.236430  0.246370  1.0  0.0992
  C  C438  1  0.015070  0.234260  0.287070  1.0  -0.1557
  C  C439  1  0.971650  0.219280  0.270670  1.0  -0.089
  C  C440  1  0.092850  0.255010  0.263770  1.0  0.0065
  C  C441  1  0.112880  0.293470  0.297070  1.0  -0.1334
  C  C442  1  0.475810  0.054050  0.529700  1.0  0.7181
  C  C443  1  0.460430  0.085160  0.546800  1.0  -0.1342
  C  C444  1  0.458440  0.113710  0.505400  1.0  -0.098
  C  C445  1  0.444290  0.142450  0.524100  1.0  -0.1137
  C  C446  1  0.430240  0.142800  0.579700  1.0  0.1004
  C  C447  1  0.432410  0.114150  0.620400  1.0  -0.1582
  C  C448  1  0.447390  0.085710  0.604000  1.0  -0.0898
  C  C449  1  0.411660  0.171180  0.597100  1.0  0.0051
  C  C450  1  0.373200  0.152750  0.630400  1.0  -0.1279
  C  C451  1  0.142480  0.387380  0.863030  1.0  0.7181
  C  C452  1  0.127100  0.418490  0.880130  1.0  -0.1342
  C  C453  1  0.125110  0.447040  0.838730  1.0  -0.098
  C  C454  1  0.110960  0.475780  0.857430  1.0  -0.1137
  C  C455  1  0.096910  0.476130  0.913030  1.0  0.1004
  C  C456  1  0.099080  0.447480  0.953730  1.0  -0.1583
  C  C457  1  0.114060  0.419040  0.937330  1.0  -0.0898
  C  C458  1  0.078330  0.504510  0.930430  1.0  0.005
  C  C459  1  0.039870  0.486080  0.963730  1.0  -0.1281
  C  C460  1  0.809140  0.720720  0.196370  1.0  0.7181
  C  C461  1  0.793760  0.751830  0.213470  1.0  -0.1342
  C  C462  1  0.791770  0.780380  0.172070  1.0  -0.098
  C  C463  1  0.777620  0.809120  0.190770  1.0  -0.1137
  C  C464  1  0.763570  0.809470  0.246370  1.0  0.1004
  C  C465  1  0.765740  0.780820  0.287070  1.0  -0.1582
  C  C466  1  0.780720  0.752380  0.270670  1.0  -0.0898
  C  C467  1  0.744990  0.837850  0.263770  1.0  0.0051
  C  C468  1  0.706530  0.819420  0.297070  1.0  -0.125
  C  C469  1  0.945950  0.421760  0.529700  1.0  0.7178
  C  C470  1  0.914840  0.375270  0.546800  1.0  -0.132
  C  C471  1  0.886290  0.344730  0.505400  1.0  -0.0981
  C  C472  1  0.857550  0.301840  0.524100  1.0  -0.1145
  C  C473  1  0.857200  0.287440  0.579700  1.0  0.1005
  C  C474  1  0.885850  0.318260  0.620400  1.0  -0.1569
  C  C475  1  0.914290  0.361680  0.604000  1.0  -0.0898
  C  C476  1  0.828820  0.240480  0.597100  1.0  0.0073
  C  C477  1  0.847250  0.220450  0.630400  1.0  -0.1306
  C  C478  1  0.612620  0.755090  0.863030  1.0  0.7178
  C  C479  1  0.581510  0.708600  0.880130  1.0  -0.132
  C  C480  1  0.552960  0.678060  0.838730  1.0  -0.0981
  C  C481  1  0.524220  0.635170  0.857430  1.0  -0.1145
  C  C482  1  0.523870  0.620770  0.913030  1.0  0.1005
  C  C483  1  0.552520  0.651590  0.953730  1.0  -0.1563
  C  C484  1  0.580960  0.695010  0.937330  1.0  -0.0898
  C  C485  1  0.495490  0.573810  0.930430  1.0  0.0074
  C  C486  1  0.513920  0.553780  0.963730  1.0  -0.1307
  C  C487  1  0.279280  0.088430  0.196370  1.0  0.7178
  C  C488  1  0.248170  0.041940  0.213470  1.0  -0.132
  C  C489  1  0.219620  0.011400  0.172070  1.0  -0.0981
  C  C490  1  0.190880  0.968510  0.190770  1.0  -0.1145
  C  C491  1  0.190530  0.954110  0.246370  1.0  0.1005
  C  C492  1  0.219180  0.984930  0.287070  1.0  -0.1569
  C  C493  1  0.247620  0.028350  0.270670  1.0  -0.0898
  C  C494  1  0.162150  0.907150  0.263770  1.0  0.0073
  C  C495  1  0.180580  0.887120  0.297070  1.0  -0.1306
  C  C496  1  0.524190  0.578240  0.470300  1.0  0.7182
  C  C497  1  0.539570  0.624730  0.453200  1.0  -0.1327
  C  C498  1  0.541560  0.655270  0.494600  1.0  -0.0971
  C  C499  1  0.555710  0.698160  0.475900  1.0  -0.1149
  C  C500  1  0.569760  0.712560  0.420300  1.0  0.101
  C  C501  1  0.567590  0.681740  0.379600  1.0  -0.156
  C  C502  1  0.552610  0.638320  0.396000  1.0  -0.0913
  C  C503  1  0.588340  0.759520  0.402900  1.0  0.0067
  C  C504  1  0.626800  0.779550  0.369600  1.0  -0.1282
  C  C505  1  0.190860  0.911570  0.803630  1.0  0.7182
  C  C506  1  0.206240  0.958060  0.786530  1.0  -0.1327
  C  C507  1  0.208230  0.988600  0.827930  1.0  -0.0971
  C  C508  1  0.222380  0.031490  0.809230  1.0  -0.1149
  C  C509  1  0.236430  0.045890  0.753630  1.0  0.101
  C  C510  1  0.234260  0.015070  0.712930  1.0  -0.156
  C  C511  1  0.219280  0.971650  0.729330  1.0  -0.0913
  C  C512  1  0.255010  0.092850  0.736230  1.0  0.0067
  C  C513  1  0.293470  0.112880  0.702930  1.0  -0.1303
  C  C514  1  0.857520  0.244910  0.136970  1.0  0.7182
  C  C515  1  0.872900  0.291400  0.119870  1.0  -0.1327
  C  C516  1  0.874890  0.321940  0.161270  1.0  -0.0971
  C  C517  1  0.889040  0.364830  0.142570  1.0  -0.1149
  C  C518  1  0.903090  0.379230  0.086970  1.0  0.101
  C  C519  1  0.900920  0.348410  0.046270  1.0  -0.156
  C  C520  1  0.885940  0.304990  0.062670  1.0  -0.0913
  C  C521  1  0.921670  0.426190  0.069570  1.0  0.0067
  C  C522  1  0.960130  0.446220  0.036270  1.0  -0.1284
  C  C523  1  0.054050  0.475810  0.470300  1.0  0.7171
  C  C524  1  0.085160  0.460430  0.453200  1.0  -0.1348
  C  C525  1  0.113710  0.458440  0.494600  1.0  -0.098
  C  C526  1  0.142450  0.444290  0.475900  1.0  -0.1139
  C  C527  1  0.142800  0.430240  0.420300  1.0  0.0989
  C  C528  1  0.114150  0.432410  0.379600  1.0  -0.1541
  C  C529  1  0.085710  0.447390  0.396000  1.0  -0.0891
  C  C530  1  0.171180  0.411660  0.402900  1.0  0.0064
  C  C531  1  0.152750  0.373200  0.369600  1.0  -0.1325
  C  C532  1  0.720720  0.809140  0.803630  1.0  0.7171
  C  C533  1  0.751830  0.793760  0.786530  1.0  -0.1348
  C  C534  1  0.780380  0.791770  0.827930  1.0  -0.098
  C  C535  1  0.809120  0.777620  0.809230  1.0  -0.1139
  C  C536  1  0.809470  0.763570  0.753630  1.0  0.0989
  C  C537  1  0.780820  0.765740  0.712930  1.0  -0.1541
  C  C538  1  0.752380  0.780720  0.729330  1.0  -0.0891
  C  C539  1  0.837850  0.744990  0.736230  1.0  0.0064
  C  C540  1  0.819420  0.706530  0.702930  1.0  -0.1302
  C  C541  1  0.387380  0.142480  0.136970  1.0  0.7171
  C  C542  1  0.418490  0.127100  0.119870  1.0  -0.1348
  C  C543  1  0.447040  0.125110  0.161270  1.0  -0.098
  C  C544  1  0.475780  0.110960  0.142570  1.0  -0.1139
  C  C545  1  0.476130  0.096910  0.086970  1.0  0.099
  C  C546  1  0.447480  0.099080  0.046270  1.0  -0.1542
  C  C547  1  0.419040  0.114060  0.062670  1.0  -0.0891
  C  C548  1  0.504510  0.078330  0.069570  1.0  0.0064
  C  C549  1  0.486080  0.039870  0.036270  1.0  -0.1326
  C  C550  1  0.421760  0.945950  0.470300  1.0  0.7176
  C  C551  1  0.375270  0.914840  0.453200  1.0  -0.1348
  C  C552  1  0.344730  0.886290  0.494600  1.0  -0.0963
  C  C553  1  0.301840  0.857550  0.475900  1.0  -0.1138
  C  C554  1  0.287440  0.857200  0.420300  1.0  0.1008
  C  C555  1  0.318260  0.885850  0.379600  1.0  -0.1573
  C  C556  1  0.361680  0.914290  0.396000  1.0  -0.0917
  C  C557  1  0.240480  0.828820  0.402900  1.0  0.0048
  C  C558  1  0.220450  0.847250  0.369600  1.0  -0.1264
  C  C559  1  0.088430  0.279280  0.803630  1.0  0.7176
  C  C560  1  0.041940  0.248170  0.786530  1.0  -0.1348
  C  C561  1  0.011400  0.219620  0.827930  1.0  -0.0963
  C  C562  1  0.968510  0.190880  0.809230  1.0  -0.1138
  C  C563  1  0.954110  0.190530  0.753630  1.0  0.1008
  C  C564  1  0.984930  0.219180  0.712930  1.0  -0.1573
  C  C565  1  0.028350  0.247620  0.729330  1.0  -0.0917
  C  C566  1  0.907150  0.162150  0.736230  1.0  0.0048
  C  C567  1  0.887120  0.180580  0.702930  1.0  -0.1264
  C  C568  1  0.755090  0.612620  0.136970  1.0  0.7176
  C  C569  1  0.708600  0.581510  0.119870  1.0  -0.1348
  C  C570  1  0.678060  0.552960  0.161270  1.0  -0.0963
  C  C571  1  0.635170  0.524220  0.142570  1.0  -0.1138
  C  C572  1  0.620770  0.523870  0.086970  1.0  0.1008
  C  C573  1  0.651590  0.552520  0.046270  1.0  -0.1568
  C  C574  1  0.695010  0.580960  0.062670  1.0  -0.0917
  C  C575  1  0.573810  0.495490  0.069570  1.0  0.0049
  C  C576  1  0.553780  0.513920  0.036270  1.0  -0.1264
  C  C577  1  0.176660  0.353320  0.352600  1.0  -0.0651
  C  C578  1  0.215240  0.430480  0.417600  1.0  0.174
  C  C579  1  0.252650  0.505300  0.423800  1.0  -0.0256
  C  C580  1  0.843330  0.686650  0.685930  1.0  -0.0651
  C  C581  1  0.881910  0.763810  0.750930  1.0  0.174
  C  C582  1  0.919320  0.838630  0.757130  1.0  -0.0256
  C  C583  1  0.509990  0.019990  0.019270  1.0  -0.0649
  C  C584  1  0.548570  0.097150  0.084270  1.0  0.1741
  C  C585  1  0.585980  0.171970  0.090470  1.0  -0.0256
  C  C586  1  0.646680  0.823340  0.352600  1.0  -0.0681
  C  C587  1  0.569520  0.784760  0.417600  1.0  0.1737
  C  C588  1  0.494700  0.747350  0.423800  1.0  -0.0296
  C  C589  1  0.313350  0.156670  0.685930  1.0  -0.0681
  C  C590  1  0.236190  0.118090  0.750930  1.0  0.1737
  C  C591  1  0.161370  0.080680  0.757130  1.0  -0.0296
  C  C592  1  0.980010  0.490010  0.019270  1.0  -0.0679
  C  C593  1  0.902850  0.451430  0.084270  1.0  0.1737
  C  C594  1  0.828030  0.414020  0.090470  1.0  -0.0296
  C  C595  1  0.176660  0.823340  0.352600  1.0  -0.0704
  C  C596  1  0.215240  0.784760  0.417600  1.0  0.1733
  C  C597  1  0.252650  0.747350  0.423800  1.0  -0.0276
  C  C598  1  0.843330  0.156670  0.685930  1.0  -0.0704
  C  C599  1  0.881910  0.118090  0.750930  1.0  0.1733
  C  C600  1  0.919320  0.080680  0.757130  1.0  -0.0276
  C  C601  1  0.509990  0.490010  0.019270  1.0  -0.0703
  C  C602  1  0.548570  0.451430  0.084270  1.0  0.1733
  C  C603  1  0.585980  0.414020  0.090470  1.0  -0.0276
  C  C604  1  0.353320  0.176660  0.647400  1.0  -0.0678
  C  C605  1  0.430480  0.215240  0.582400  1.0  0.173
  C  C606  1  0.505300  0.252650  0.576200  1.0  -0.0287
  C  C607  1  0.019990  0.509990  0.980730  1.0  -0.0678
  C  C608  1  0.097150  0.548570  0.915730  1.0  0.173
  C  C609  1  0.171970  0.585980  0.909530  1.0  -0.0287
  C  C610  1  0.686650  0.843330  0.314070  1.0  -0.0678
  C  C611  1  0.763810  0.881910  0.249070  1.0  0.173
  C  C612  1  0.838630  0.919320  0.242870  1.0  -0.0287
  C  C613  1  0.823340  0.646680  0.647400  1.0  -0.0649
  C  C614  1  0.784760  0.569520  0.582400  1.0  0.1738
  C  C615  1  0.747350  0.494700  0.576200  1.0  -0.0237
  C  C616  1  0.490010  0.980010  0.980730  1.0  -0.0648
  C  C617  1  0.451430  0.902850  0.915730  1.0  0.1738
  C  C618  1  0.414020  0.828030  0.909530  1.0  -0.0237
  C  C619  1  0.156670  0.313350  0.314070  1.0  -0.0649
  C  C620  1  0.118090  0.236190  0.249070  1.0  0.1738
  C  C621  1  0.080680  0.161370  0.242870  1.0  -0.0237
  C  C622  1  0.823340  0.176660  0.647400  1.0  -0.0706
  C  C623  1  0.784760  0.215240  0.582400  1.0  0.1734
  C  C624  1  0.747350  0.252650  0.576200  1.0  -0.0292
  C  C625  1  0.490010  0.509990  0.980730  1.0  -0.0706
  C  C626  1  0.451430  0.548570  0.915730  1.0  0.1734
  C  C627  1  0.414020  0.585980  0.909530  1.0  -0.0292
  C  C628  1  0.156670  0.843330  0.314070  1.0  -0.0706
  C  C629  1  0.118090  0.881910  0.249070  1.0  0.1734
  C  C630  1  0.080680  0.919320  0.242870  1.0  -0.0292
  O  O631  1  0.446940  0.474550  0.433140  1.0  -0.5825
  O  O632  1  0.432910  0.488990  0.521760  1.0  -0.5865
  O  O633  1  0.113610  0.807880  0.766470  1.0  -0.5825
  O  O634  1  0.099580  0.822320  0.855090  1.0  -0.5865
  O  O635  1  0.780270  0.141220  0.099810  1.0  -0.5825
  O  O636  1  0.766240  0.155660  0.188430  1.0  -0.5865
  O  O637  1  0.525450  0.972390  0.433140  1.0  -0.5839
  O  O638  1  0.511010  0.943920  0.521760  1.0  -0.5826
  O  O639  1  0.192120  0.305720  0.766470  1.0  -0.5839
  O  O640  1  0.177680  0.277250  0.855090  1.0  -0.5864
  O  O641  1  0.858780  0.639060  0.099810  1.0  -0.5843
  O  O642  1  0.844340  0.610590  0.188430  1.0  -0.5826
  O  O643  1  0.027610  0.553060  0.433140  1.0  -0.5838
  O  O644  1  0.056080  0.567090  0.521760  1.0  -0.5852
  O  O645  1  0.694280  0.886390  0.766470  1.0  -0.5838
  O  O646  1  0.722750  0.900420  0.855090  1.0  -0.5813
  O  O647  1  0.360940  0.219730  0.099810  1.0  -0.5832
  O  O648  1  0.389410  0.233760  0.188430  1.0  -0.5852
  O  O649  1  0.474550  0.446940  0.566860  1.0  -0.5824
  O  O650  1  0.488990  0.432910  0.478240  1.0  -0.5847
  O  O651  1  0.141220  0.780270  0.900190  1.0  -0.5824
  O  O652  1  0.155660  0.766240  0.811570  1.0  -0.5847
  O  O653  1  0.807880  0.113610  0.233530  1.0  -0.5824
  O  O654  1  0.822320  0.099580  0.144910  1.0  -0.5847
  O  O655  1  0.972390  0.525450  0.566860  1.0  -0.5817
  O  O656  1  0.943920  0.511010  0.478240  1.0  -0.5815
  O  O657  1  0.639060  0.858780  0.900190  1.0  -0.5814
  O  O658  1  0.610590  0.844340  0.811570  1.0  -0.5815
  O  O659  1  0.305720  0.192120  0.233530  1.0  -0.5817
  O  O660  1  0.277250  0.177680  0.144910  1.0  -0.585
  O  O661  1  0.553060  0.027610  0.566860  1.0  -0.5827
  O  O662  1  0.567090  0.056080  0.478240  1.0  -0.5869
  O  O663  1  0.219730  0.360940  0.900190  1.0  -0.5823
  O  O664  1  0.233760  0.389410  0.811570  1.0  -0.5869
  O  O665  1  0.886390  0.694280  0.233530  1.0  -0.5827
  O  O666  1  0.900420  0.722750  0.144910  1.0  -0.5831
  O  O667  1  0.553060  0.525450  0.566860  1.0  -0.5813
  O  O668  1  0.567090  0.511010  0.478240  1.0  -0.5848
  O  O669  1  0.219730  0.858780  0.900190  1.0  -0.5813
  O  O670  1  0.233760  0.844340  0.811570  1.0  -0.5848
  O  O671  1  0.886390  0.192120  0.233530  1.0  -0.5813
  O  O672  1  0.900420  0.177680  0.144910  1.0  -0.5848
  O  O673  1  0.474550  0.027610  0.566860  1.0  -0.582
  O  O674  1  0.488990  0.056080  0.478240  1.0  -0.5825
  O  O675  1  0.141220  0.360940  0.900190  1.0  -0.5822
  O  O676  1  0.155660  0.389410  0.811570  1.0  -0.5825
  O  O677  1  0.807880  0.694280  0.233530  1.0  -0.582
  O  O678  1  0.822320  0.722750  0.144910  1.0  -0.5864
  O  O679  1  0.972390  0.446940  0.566860  1.0  -0.5819
  O  O680  1  0.943920  0.432910  0.478240  1.0  -0.5851
  O  O681  1  0.639060  0.780270  0.900190  1.0  -0.5817
  O  O682  1  0.610590  0.766240  0.811570  1.0  -0.5851
  O  O683  1  0.305720  0.113610  0.233530  1.0  -0.5819
  O  O684  1  0.277250  0.099580  0.144910  1.0  -0.5811
  O  O685  1  0.525450  0.553060  0.433140  1.0  -0.5829
  O  O686  1  0.511010  0.567090  0.521760  1.0  -0.5858
  O  O687  1  0.192120  0.886390  0.766470  1.0  -0.5829
  O  O688  1  0.177680  0.900420  0.855090  1.0  -0.5858
  O  O689  1  0.858780  0.219730  0.099810  1.0  -0.5829
  O  O690  1  0.844340  0.233760  0.188430  1.0  -0.5858
  O  O691  1  0.027610  0.474550  0.433140  1.0  -0.5825
  O  O692  1  0.056080  0.488990  0.521760  1.0  -0.582
  O  O693  1  0.694280  0.807880  0.766470  1.0  -0.5825
  O  O694  1  0.722750  0.822320  0.855090  1.0  -0.5858
  O  O695  1  0.360940  0.141220  0.099810  1.0  -0.5827
  O  O696  1  0.389410  0.155660  0.188430  1.0  -0.582
  O  O697  1  0.446940  0.972390  0.433140  1.0  -0.5843
  O  O698  1  0.432910  0.943920  0.521760  1.0  -0.5862
  O  O699  1  0.113610  0.305720  0.766470  1.0  -0.5843
  O  O700  1  0.099580  0.277250  0.855090  1.0  -0.5822
  O  O701  1  0.780270  0.639060  0.099810  1.0  -0.5836
  O  O702  1  0.766240  0.610590  0.188430  1.0  -0.5862
  O  O703  1  0.233900  0.467800  0.457200  1.0  -0.3195
  O  O704  1  0.900570  0.801130  0.790530  1.0  -0.3195
  O  O705  1  0.567230  0.134470  0.123870  1.0  -0.3195
  O  O706  1  0.532200  0.766100  0.457200  1.0  -0.3188
  O  O707  1  0.198870  0.099430  0.790530  1.0  -0.3188
  O  O708  1  0.865530  0.432770  0.123870  1.0  -0.3188
  O  O709  1  0.233900  0.766100  0.457200  1.0  -0.3206
  O  O710  1  0.900570  0.099430  0.790530  1.0  -0.3206
  O  O711  1  0.567230  0.432770  0.123870  1.0  -0.3206
  O  O712  1  0.467800  0.233900  0.542800  1.0  -0.3172
  O  O713  1  0.134470  0.567230  0.876130  1.0  -0.3172
  O  O714  1  0.801130  0.900570  0.209470  1.0  -0.3172
  O  O715  1  0.766100  0.532200  0.542800  1.0  -0.3183
  O  O716  1  0.432770  0.865530  0.876130  1.0  -0.3183
  O  O717  1  0.099430  0.198870  0.209470  1.0  -0.3183
  O  O718  1  0.766100  0.233900  0.542800  1.0  -0.3164
  O  O719  1  0.432770  0.567230  0.876130  1.0  -0.3164
  O  O720  1  0.099430  0.900570  0.209470  1.0  -0.3164
