# generated using pymatgen
data_CuH13C21O5
_symmetry_space_group_name_H-M   'P 1'
_cell_length_a   35.83320000
_cell_length_b   35.83320000
_cell_length_c   15.21420000
_cell_angle_alpha   90.00000000
_cell_angle_beta   90.00000000
_cell_angle_gamma   120.00000000
_symmetry_Int_Tables_number   1
_chemical_formula_structural   CuH13C21O5
_chemical_formula_sum   'Cu18 H234 C378 O90'
_cell_volume   16918.07476268
_cell_formula_units_Z   18
loop_
 _symmetry_equiv_pos_site_id
 _symmetry_equiv_pos_as_xyz
  1  'x, y, z'
loop_
 _atom_site_type_symbol
 _atom_site_label
 _atom_site_symmetry_multiplicity
 _atom_site_fract_x
 _atom_site_fract_y
 _atom_site_fract_z
 _atom_site_occupancy
 _atom_site_charge
  Cu  Cu1  1  0.503350  0.006690  0.414080  1.0  0.9155
  Cu  Cu2  1  0.170010  0.340020  0.747410  1.0  0.9155
  Cu  Cu3  1  0.836680  0.673360  0.080750  1.0  0.9155
  Cu  Cu4  1  0.993310  0.496650  0.414080  1.0  0.9157
  Cu  Cu5  1  0.659980  0.829990  0.747410  1.0  0.9156
  Cu  Cu6  1  0.326640  0.163320  0.080750  1.0  0.9157
  Cu  Cu7  1  0.503350  0.496650  0.414080  1.0  0.9158
  Cu  Cu8  1  0.170010  0.829990  0.747410  1.0  0.9158
  Cu  Cu9  1  0.836680  0.163320  0.080750  1.0  0.9158
  Cu  Cu10  1  0.006690  0.503350  0.585920  1.0  0.9128
  Cu  Cu11  1  0.673360  0.836680  0.919250  1.0  0.9128
  Cu  Cu12  1  0.340020  0.170010  0.252590  1.0  0.9128
  Cu  Cu13  1  0.496650  0.993310  0.585920  1.0  0.9131
  Cu  Cu14  1  0.163320  0.326640  0.919250  1.0  0.9131
  Cu  Cu15  1  0.829990  0.659980  0.252590  1.0  0.9132
  Cu  Cu16  1  0.496650  0.503350  0.585920  1.0  0.9133
  Cu  Cu17  1  0.163320  0.836680  0.919250  1.0  0.9132
  Cu  Cu18  1  0.829990  0.170010  0.252590  1.0  0.9132
  H  H19  1  0.641600  0.103400  0.397300  1.0  0.0939
  H  H20  1  0.713800  0.152700  0.421200  1.0  0.0969
  H  H21  1  0.695800  0.133800  0.679400  1.0  0.1127
  H  H22  1  0.622900  0.086400  0.656400  1.0  0.1138
  H  H23  1  0.763300  0.124500  0.633500  1.0  0.1109
  H  H24  1  0.769900  0.274700  0.599700  1.0  0.124
  H  H25  1  0.308270  0.436730  0.730630  1.0  0.0939
  H  H26  1  0.380470  0.486030  0.754530  1.0  0.0969
  H  H27  1  0.362470  0.467130  0.012730  1.0  0.1126
  H  H28  1  0.289570  0.419730  0.989730  1.0  0.1138
  H  H29  1  0.429970  0.457830  0.966830  1.0  0.111
  H  H30  1  0.436570  0.608030  0.933030  1.0  0.124
  H  H31  1  0.974930  0.770070  0.063970  1.0  0.0939
  H  H32  1  0.047130  0.819370  0.087870  1.0  0.0969
  H  H33  1  0.029130  0.800470  0.346070  1.0  0.1126
  H  H34  1  0.956230  0.753070  0.323070  1.0  0.113
  H  H35  1  0.096630  0.791170  0.300170  1.0  0.1107
  H  H36  1  0.103230  0.941370  0.266370  1.0  0.1247
  H  H37  1  0.896600  0.538200  0.397300  1.0  0.0938
  H  H38  1  0.847300  0.561100  0.421200  1.0  0.0968
  H  H39  1  0.866200  0.562000  0.679400  1.0  0.1124
  H  H40  1  0.913600  0.536500  0.656400  1.0  0.1129
  H  H41  1  0.875500  0.638800  0.633500  1.0  0.1102
  H  H42  1  0.725300  0.495200  0.599700  1.0  0.1259
  H  H43  1  0.563270  0.871530  0.730630  1.0  0.0938
  H  H44  1  0.513970  0.894430  0.754530  1.0  0.0968
  H  H45  1  0.532870  0.895330  0.012730  1.0  0.1124
  H  H46  1  0.580270  0.869830  0.989730  1.0  0.1129
  H  H47  1  0.542170  0.972130  0.966830  1.0  0.1101
  H  H48  1  0.391970  0.828530  0.933030  1.0  0.1259
  H  H49  1  0.229930  0.204870  0.063970  1.0  0.0939
  H  H50  1  0.180630  0.227770  0.087870  1.0  0.0964
  H  H51  1  0.199530  0.228670  0.346070  1.0  0.115
  H  H52  1  0.246930  0.203170  0.323070  1.0  0.1139
  H  H53  1  0.208830  0.305470  0.300170  1.0  0.1102
  H  H54  1  0.058630  0.161870  0.266370  1.0  0.1249
  H  H55  1  0.461800  0.358400  0.397300  1.0  0.0938
  H  H56  1  0.438900  0.286200  0.421200  1.0  0.0961
  H  H57  1  0.438000  0.304200  0.679400  1.0  0.1143
  H  H58  1  0.463500  0.377100  0.656400  1.0  0.1133
  H  H59  1  0.361200  0.236700  0.633500  1.0  0.1091
  H  H60  1  0.504800  0.230100  0.599700  1.0  0.1265
  H  H61  1  0.128470  0.691730  0.730630  1.0  0.0938
  H  H62  1  0.105570  0.619530  0.754530  1.0  0.0961
  H  H63  1  0.104670  0.637530  0.012730  1.0  0.1143
  H  H64  1  0.130170  0.710430  0.989730  1.0  0.1133
  H  H65  1  0.027870  0.570030  0.966830  1.0  0.1092
  H  H66  1  0.171470  0.563430  0.933030  1.0  0.1265
  H  H67  1  0.795130  0.025070  0.063970  1.0  0.0937
  H  H68  1  0.772230  0.952870  0.087870  1.0  0.0965
  H  H69  1  0.771330  0.970870  0.346070  1.0  0.1119
  H  H70  1  0.796830  0.043770  0.323070  1.0  0.1133
  H  H71  1  0.694530  0.903370  0.300170  1.0  0.1092
  H  H72  1  0.838130  0.896770  0.266370  1.0  0.1268
  H  H73  1  0.103400  0.641600  0.602700  1.0  0.0944
  H  H74  1  0.152700  0.713800  0.578800  1.0  0.0966
  H  H75  1  0.133800  0.695800  0.320600  1.0  0.1127
  H  H76  1  0.086400  0.622900  0.343600  1.0  0.1129
  H  H77  1  0.124500  0.763300  0.366500  1.0  0.1097
  H  H78  1  0.274700  0.769900  0.400300  1.0  0.1243
  H  H79  1  0.770070  0.974930  0.936030  1.0  0.0945
  H  H80  1  0.819370  0.047130  0.912130  1.0  0.0966
  H  H81  1  0.800470  0.029130  0.653930  1.0  0.1127
  H  H82  1  0.753070  0.956230  0.676930  1.0  0.1122
  H  H83  1  0.791170  0.096630  0.699830  1.0  0.1096
  H  H84  1  0.941370  0.103230  0.733630  1.0  0.1248
  H  H85  1  0.436730  0.308270  0.269370  1.0  0.0944
  H  H86  1  0.486030  0.380470  0.245470  1.0  0.0966
  H  H87  1  0.467130  0.362470  0.987270  1.0  0.1127
  H  H88  1  0.419730  0.289570  0.010270  1.0  0.1129
  H  H89  1  0.457830  0.429970  0.033170  1.0  0.1099
  H  H90  1  0.608030  0.436570  0.066970  1.0  0.1243
  H  H91  1  0.538200  0.896600  0.602700  1.0  0.0943
  H  H92  1  0.561100  0.847300  0.578800  1.0  0.097
  H  H93  1  0.562000  0.866200  0.320600  1.0  0.1129
  H  H94  1  0.536500  0.913600  0.343600  1.0  0.1121
  H  H95  1  0.638800  0.875500  0.366500  1.0  0.1116
  H  H96  1  0.495200  0.725300  0.400300  1.0  0.1247
  H  H97  1  0.204870  0.229930  0.936030  1.0  0.0943
  H  H98  1  0.227770  0.180630  0.912130  1.0  0.0966
  H  H99  1  0.228670  0.199530  0.653930  1.0  0.1152
  H  H100  1  0.203170  0.246930  0.676930  1.0  0.1132
  H  H101  1  0.305470  0.208830  0.699830  1.0  0.1116
  H  H102  1  0.161870  0.058630  0.733630  1.0  0.1231
  H  H103  1  0.871530  0.563270  0.269370  1.0  0.0943
  H  H104  1  0.894430  0.513970  0.245470  1.0  0.097
  H  H105  1  0.895330  0.532870  0.987270  1.0  0.113
  H  H106  1  0.869830  0.580270  0.010270  1.0  0.1121
  H  H107  1  0.972130  0.542170  0.033170  1.0  0.1114
  H  H108  1  0.828530  0.391970  0.066970  1.0  0.1247
  H  H109  1  0.358400  0.461800  0.602700  1.0  0.0942
  H  H110  1  0.286200  0.438900  0.578800  1.0  0.0966
  H  H111  1  0.304200  0.438000  0.320600  1.0  0.1152
  H  H112  1  0.377100  0.463500  0.343600  1.0  0.1133
  H  H113  1  0.236700  0.361200  0.366500  1.0  0.1111
  H  H114  1  0.230100  0.504800  0.400300  1.0  0.1242
  H  H115  1  0.025070  0.795130  0.936030  1.0  0.0942
  H  H116  1  0.952870  0.772230  0.912130  1.0  0.097
  H  H117  1  0.970870  0.771330  0.653930  1.0  0.1131
  H  H118  1  0.043770  0.796830  0.676930  1.0  0.1133
  H  H119  1  0.903370  0.694530  0.699830  1.0  0.1112
  H  H120  1  0.896770  0.838130  0.733630  1.0  0.1249
  H  H121  1  0.691730  0.128470  0.269370  1.0  0.0942
  H  H122  1  0.619530  0.105570  0.245470  1.0  0.0966
  H  H123  1  0.637530  0.104670  0.987270  1.0  0.1152
  H  H124  1  0.710430  0.130170  0.010270  1.0  0.1132
  H  H125  1  0.570030  0.027870  0.033170  1.0  0.1111
  H  H126  1  0.563430  0.171470  0.066970  1.0  0.1242
  H  H127  1  0.358400  0.896600  0.602700  1.0  0.0942
  H  H128  1  0.286200  0.847300  0.578800  1.0  0.0967
  H  H129  1  0.304200  0.866200  0.320600  1.0  0.113
  H  H130  1  0.377100  0.913600  0.343600  1.0  0.1133
  H  H131  1  0.236700  0.875500  0.366500  1.0  0.112
  H  H132  1  0.230100  0.725300  0.400300  1.0  0.1234
  H  H133  1  0.025070  0.229930  0.936030  1.0  0.0943
  H  H134  1  0.952870  0.180630  0.912130  1.0  0.0967
  H  H135  1  0.970870  0.199530  0.653930  1.0  0.113
  H  H136  1  0.043770  0.246930  0.676930  1.0  0.1126
  H  H137  1  0.903370  0.208830  0.699830  1.0  0.1118
  H  H138  1  0.896770  0.058630  0.733630  1.0  0.1238
  H  H139  1  0.691730  0.563270  0.269370  1.0  0.0942
  H  H140  1  0.619530  0.513970  0.245470  1.0  0.0967
  H  H141  1  0.637530  0.532870  0.987270  1.0  0.113
  H  H142  1  0.710430  0.580270  0.010270  1.0  0.1133
  H  H143  1  0.570030  0.542170  0.033170  1.0  0.1121
  H  H144  1  0.563430  0.391970  0.066970  1.0  0.1234
  H  H145  1  0.103400  0.461800  0.602700  1.0  0.0939
  H  H146  1  0.152700  0.438900  0.578800  1.0  0.0972
  H  H147  1  0.133800  0.438000  0.320600  1.0  0.1132
  H  H148  1  0.086400  0.463500  0.343600  1.0  0.1123
  H  H149  1  0.124500  0.361200  0.366500  1.0  0.111
  H  H150  1  0.274700  0.504800  0.400300  1.0  0.1255
  H  H151  1  0.770070  0.795130  0.936030  1.0  0.094
  H  H152  1  0.819370  0.772230  0.912130  1.0  0.0969
  H  H153  1  0.800470  0.771330  0.653930  1.0  0.1154
  H  H154  1  0.753070  0.796830  0.676930  1.0  0.1132
  H  H155  1  0.791170  0.694530  0.699830  1.0  0.111
  H  H156  1  0.941370  0.838130  0.733630  1.0  0.1242
  H  H157  1  0.436730  0.128470  0.269370  1.0  0.0939
  H  H158  1  0.486030  0.105570  0.245470  1.0  0.0972
  H  H159  1  0.467130  0.104670  0.987270  1.0  0.1133
  H  H160  1  0.419730  0.130170  0.010270  1.0  0.1123
  H  H161  1  0.457830  0.027870  0.033170  1.0  0.1107
  H  H162  1  0.608030  0.171470  0.066970  1.0  0.1255
  H  H163  1  0.538200  0.641600  0.602700  1.0  0.0942
  H  H164  1  0.561100  0.713800  0.578800  1.0  0.0961
  H  H165  1  0.562000  0.695800  0.320600  1.0  0.1149
  H  H166  1  0.536500  0.622900  0.343600  1.0  0.1128
  H  H167  1  0.638800  0.763300  0.366500  1.0  0.1113
  H  H168  1  0.495200  0.769900  0.400300  1.0  0.1249
  H  H169  1  0.204870  0.974930  0.936030  1.0  0.0941
  H  H170  1  0.227770  0.047130  0.912130  1.0  0.0964
  H  H171  1  0.228670  0.029130  0.653930  1.0  0.1128
  H  H172  1  0.203170  0.956230  0.676930  1.0  0.1128
  H  H173  1  0.305470  0.096630  0.699830  1.0  0.1114
  H  H174  1  0.161870  0.103230  0.733630  1.0  0.1254
  H  H175  1  0.871530  0.308270  0.269370  1.0  0.0942
  H  H176  1  0.894430  0.380470  0.245470  1.0  0.0961
  H  H177  1  0.895330  0.362470  0.987270  1.0  0.1149
  H  H178  1  0.869830  0.289570  0.010270  1.0  0.1128
  H  H179  1  0.972130  0.429970  0.033170  1.0  0.1114
  H  H180  1  0.828530  0.436570  0.066970  1.0  0.1249
  H  H181  1  0.896600  0.358400  0.397300  1.0  0.0941
  H  H182  1  0.847300  0.286200  0.421200  1.0  0.0963
  H  H183  1  0.866200  0.304200  0.679400  1.0  0.1119
  H  H184  1  0.913600  0.377100  0.656400  1.0  0.1134
  H  H185  1  0.875500  0.236700  0.633500  1.0  0.1107
  H  H186  1  0.725300  0.230100  0.599700  1.0  0.1255
  H  H187  1  0.563270  0.691730  0.730630  1.0  0.0941
  H  H188  1  0.513970  0.619530  0.754530  1.0  0.0963
  H  H189  1  0.532870  0.637530  0.012730  1.0  0.1119
  H  H190  1  0.580270  0.710430  0.989730  1.0  0.1135
  H  H191  1  0.542170  0.570030  0.966830  1.0  0.1109
  H  H192  1  0.391970  0.563430  0.933030  1.0  0.1255
  H  H193  1  0.229930  0.025070  0.063970  1.0  0.0942
  H  H194  1  0.180630  0.952870  0.087870  1.0  0.0963
  H  H195  1  0.199530  0.970870  0.346070  1.0  0.1119
  H  H196  1  0.246930  0.043770  0.323070  1.0  0.1127
  H  H197  1  0.208830  0.903370  0.300170  1.0  0.1105
  H  H198  1  0.058630  0.896770  0.266370  1.0  0.1264
  H  H199  1  0.461800  0.103400  0.397300  1.0  0.0944
  H  H200  1  0.438900  0.152700  0.421200  1.0  0.0967
  H  H201  1  0.438000  0.133800  0.679400  1.0  0.1122
  H  H202  1  0.463500  0.086400  0.656400  1.0  0.1133
  H  H203  1  0.361200  0.124500  0.633500  1.0  0.1119
  H  H204  1  0.504800  0.274700  0.599700  1.0  0.1247
  H  H205  1  0.128470  0.436730  0.730630  1.0  0.0944
  H  H206  1  0.105570  0.486030  0.754530  1.0  0.0967
  H  H207  1  0.104670  0.467130  0.012730  1.0  0.1123
  H  H208  1  0.130170  0.419730  0.989730  1.0  0.1133
  H  H209  1  0.027870  0.457830  0.966830  1.0  0.1117
  H  H210  1  0.171470  0.608030  0.933030  1.0  0.1247
  H  H211  1  0.795130  0.770070  0.063970  1.0  0.0944
  H  H212  1  0.772230  0.819370  0.087870  1.0  0.0962
  H  H213  1  0.771330  0.800470  0.346070  1.0  0.1149
  H  H214  1  0.796830  0.753070  0.323070  1.0  0.1141
  H  H215  1  0.694530  0.791170  0.300170  1.0  0.1119
  H  H216  1  0.838130  0.941370  0.266370  1.0  0.1237
  H  H217  1  0.641600  0.538200  0.397300  1.0  0.0943
  H  H218  1  0.713800  0.561100  0.421200  1.0  0.0965
  H  H219  1  0.695800  0.562000  0.679400  1.0  0.1148
  H  H220  1  0.622900  0.536500  0.656400  1.0  0.1135
  H  H221  1  0.763300  0.638800  0.633500  1.0  0.1096
  H  H222  1  0.769900  0.495200  0.599700  1.0  0.1262
  H  H223  1  0.308270  0.871530  0.730630  1.0  0.0943
  H  H224  1  0.380470  0.894430  0.754530  1.0  0.0965
  H  H225  1  0.362470  0.895330  0.012730  1.0  0.1148
  H  H226  1  0.289570  0.869830  0.989730  1.0  0.1134
  H  H227  1  0.429970  0.972130  0.966830  1.0  0.1098
  H  H228  1  0.436570  0.828530  0.933030  1.0  0.1262
  H  H229  1  0.974930  0.204870  0.063970  1.0  0.0942
  H  H230  1  0.047130  0.227770  0.087870  1.0  0.0968
  H  H231  1  0.029130  0.228670  0.346070  1.0  0.1126
  H  H232  1  0.956230  0.203170  0.323070  1.0  0.1135
  H  H233  1  0.096630  0.305470  0.300170  1.0  0.1097
  H  H234  1  0.103230  0.161870  0.266370  1.0  0.1266
  H  H235  1  0.733200  0.266800  0.530100  1.0  0.1438
  H  H236  1  0.399870  0.600130  0.863430  1.0  0.1438
  H  H237  1  0.066530  0.933470  0.196770  1.0  0.1473
  H  H238  1  0.733200  0.466400  0.530100  1.0  0.1519
  H  H239  1  0.399870  0.799730  0.863430  1.0  0.1519
  H  H240  1  0.066530  0.133070  0.196770  1.0  0.1485
  H  H241  1  0.533600  0.266800  0.530100  1.0  0.1535
  H  H242  1  0.200270  0.600130  0.863430  1.0  0.1535
  H  H243  1  0.866930  0.933470  0.196770  1.0  0.1512
  H  H244  1  0.266800  0.733200  0.469900  1.0  0.1454
  H  H245  1  0.933470  0.066530  0.803230  1.0  0.1488
  H  H246  1  0.600130  0.399870  0.136570  1.0  0.1454
  H  H247  1  0.466400  0.733200  0.469900  1.0  0.1525
  H  H248  1  0.133070  0.066530  0.803230  1.0  0.1496
  H  H249  1  0.799730  0.399870  0.136570  1.0  0.1525
  H  H250  1  0.266800  0.533600  0.469900  1.0  0.1514
  H  H251  1  0.933470  0.866930  0.803230  1.0  0.1488
  H  H252  1  0.600130  0.200270  0.136570  1.0  0.1514
  C  C253  1  0.578370  0.057190  0.508400  1.0  0.6826
  C  C254  1  0.625170  0.089280  0.522400  1.0  -0.1203
  C  C255  1  0.652270  0.109160  0.455800  1.0  -0.0846
  C  C256  1  0.695800  0.138110  0.470000  1.0  -0.1682
  C  C257  1  0.712970  0.145860  0.551000  1.0  0.1106
  C  C258  1  0.684980  0.127180  0.621100  1.0  -0.1781
  C  C259  1  0.641550  0.099080  0.607500  1.0  -0.0444
  C  C260  1  0.759910  0.172520  0.569100  1.0  0.0173
  C  C261  1  0.779860  0.153950  0.617300  1.0  -0.1411
  C  C262  1  0.245040  0.390520  0.841730  1.0  0.6826
  C  C263  1  0.291840  0.422610  0.855730  1.0  -0.1203
  C  C264  1  0.318940  0.442490  0.789130  1.0  -0.0846
  C  C265  1  0.362470  0.471440  0.803330  1.0  -0.1682
  C  C266  1  0.379640  0.479190  0.884330  1.0  0.1106
  C  C267  1  0.351650  0.460510  0.954430  1.0  -0.1781
  C  C268  1  0.308220  0.432410  0.940830  1.0  -0.0446
  C  C269  1  0.426580  0.505850  0.902430  1.0  0.0173
  C  C270  1  0.446530  0.487280  0.950630  1.0  -0.1411
  C  C271  1  0.911700  0.723860  0.175070  1.0  0.6826
  C  C272  1  0.958500  0.755950  0.189070  1.0  -0.1203
  C  C273  1  0.985600  0.775830  0.122470  1.0  -0.0846
  C  C274  1  0.029130  0.804780  0.136670  1.0  -0.1682
  C  C275  1  0.046300  0.812530  0.217670  1.0  0.1106
  C  C276  1  0.018310  0.793850  0.287770  1.0  -0.1781
  C  C277  1  0.974880  0.765750  0.274170  1.0  -0.0444
  C  C278  1  0.093240  0.839190  0.235770  1.0  0.0173
  C  C279  1  0.113190  0.820620  0.283970  1.0  -0.141
  C  C280  1  0.942810  0.521180  0.508400  1.0  0.681
  C  C281  1  0.910720  0.535890  0.522400  1.0  -0.12
  C  C282  1  0.890840  0.543110  0.455800  1.0  -0.0847
  C  C283  1  0.861890  0.557690  0.470000  1.0  -0.1685
  C  C284  1  0.854140  0.567110  0.551000  1.0  0.1095
  C  C285  1  0.872820  0.557800  0.621100  1.0  -0.1768
  C  C286  1  0.900920  0.542470  0.607500  1.0  -0.0433
  C  C287  1  0.827480  0.587390  0.569100  1.0  0.0189
  C  C288  1  0.846050  0.625910  0.617300  1.0  -0.1417
  C  C289  1  0.609480  0.854510  0.841730  1.0  0.681
  C  C290  1  0.577390  0.869220  0.855730  1.0  -0.12
  C  C291  1  0.557510  0.876440  0.789130  1.0  -0.0847
  C  C292  1  0.528560  0.891020  0.803330  1.0  -0.1685
  C  C293  1  0.520810  0.900440  0.884330  1.0  0.1095
  C  C294  1  0.539490  0.891130  0.954430  1.0  -0.1768
  C  C295  1  0.567590  0.875800  0.940830  1.0  -0.0431
  C  C296  1  0.494150  0.920720  0.902430  1.0  0.0189
  C  C297  1  0.512720  0.959240  0.950630  1.0  -0.1417
  C  C298  1  0.276140  0.187850  0.175070  1.0  0.681
  C  C299  1  0.244050  0.202560  0.189070  1.0  -0.12
  C  C300  1  0.224170  0.209780  0.122470  1.0  -0.0847
  C  C301  1  0.195220  0.224360  0.136670  1.0  -0.1685
  C  C302  1  0.187470  0.233780  0.217670  1.0  0.1095
  C  C303  1  0.206150  0.224470  0.287770  1.0  -0.1768
  C  C304  1  0.234250  0.209140  0.274170  1.0  -0.0433
  C  C305  1  0.160810  0.254060  0.235770  1.0  0.0189
  C  C306  1  0.179380  0.292580  0.283970  1.0  -0.1417
  C  C307  1  0.478820  0.421630  0.508400  1.0  0.6831
  C  C308  1  0.464110  0.374830  0.522400  1.0  -0.1197
  C  C309  1  0.456890  0.347730  0.455800  1.0  -0.0839
  C  C310  1  0.442310  0.304200  0.470000  1.0  -0.1688
  C  C311  1  0.432890  0.287030  0.551000  1.0  0.1106
  C  C312  1  0.442200  0.315020  0.621100  1.0  -0.1759
  C  C313  1  0.457530  0.358450  0.607500  1.0  -0.0432
  C  C314  1  0.412610  0.240090  0.569100  1.0  0.0166
  C  C315  1  0.374090  0.220140  0.617300  1.0  -0.1408
  C  C316  1  0.145490  0.754960  0.841730  1.0  0.6831
  C  C317  1  0.130780  0.708160  0.855730  1.0  -0.1197
  C  C318  1  0.123560  0.681060  0.789130  1.0  -0.0839
  C  C319  1  0.108980  0.637530  0.803330  1.0  -0.1688
  C  C320  1  0.099560  0.620360  0.884330  1.0  0.1106
  C  C321  1  0.108870  0.648350  0.954430  1.0  -0.1759
  C  C322  1  0.124200  0.691780  0.940830  1.0  -0.0431
  C  C323  1  0.079280  0.573420  0.902430  1.0  0.0166
  C  C324  1  0.040760  0.553470  0.950630  1.0  -0.1408
  C  C325  1  0.812150  0.088300  0.175070  1.0  0.6831
  C  C326  1  0.797440  0.041500  0.189070  1.0  -0.1197
  C  C327  1  0.790220  0.014400  0.122470  1.0  -0.0839
  C  C328  1  0.775640  0.970870  0.136670  1.0  -0.1688
  C  C329  1  0.766220  0.953700  0.217670  1.0  0.1106
  C  C330  1  0.775530  0.981690  0.287770  1.0  -0.1759
  C  C331  1  0.790860  0.025120  0.274170  1.0  -0.0432
  C  C332  1  0.745940  0.906760  0.235770  1.0  0.0166
  C  C333  1  0.707420  0.886810  0.283970  1.0  -0.1408
  C  C334  1  0.057190  0.578370  0.491600  1.0  0.6825
  C  C335  1  0.089280  0.625170  0.477600  1.0  -0.1188
  C  C336  1  0.109160  0.652270  0.544200  1.0  -0.0842
  C  C337  1  0.138110  0.695800  0.530000  1.0  -0.1673
  C  C338  1  0.145860  0.712970  0.449000  1.0  0.1119
  C  C339  1  0.127180  0.684980  0.378900  1.0  -0.1774
  C  C340  1  0.099080  0.641550  0.392500  1.0  -0.0429
  C  C341  1  0.172520  0.759910  0.430900  1.0  0.017
  C  C342  1  0.153950  0.779860  0.382700  1.0  -0.1407
  C  C343  1  0.723860  0.911700  0.824930  1.0  0.6825
  C  C344  1  0.755950  0.958500  0.810930  1.0  -0.1188
  C  C345  1  0.775830  0.985600  0.877530  1.0  -0.0842
  C  C346  1  0.804780  0.029130  0.863330  1.0  -0.1673
  C  C347  1  0.812530  0.046300  0.782330  1.0  0.1119
  C  C348  1  0.793850  0.018310  0.712230  1.0  -0.1774
  C  C349  1  0.765750  0.974880  0.725830  1.0  -0.0429
  C  C350  1  0.839190  0.093240  0.764230  1.0  0.017
  C  C351  1  0.820620  0.113190  0.716030  1.0  -0.1407
  C  C352  1  0.390520  0.245040  0.158270  1.0  0.6825
  C  C353  1  0.422610  0.291840  0.144270  1.0  -0.1188
  C  C354  1  0.442490  0.318940  0.210870  1.0  -0.0842
  C  C355  1  0.471440  0.362470  0.196670  1.0  -0.1673
  C  C356  1  0.479190  0.379640  0.115670  1.0  0.1119
  C  C357  1  0.460510  0.351650  0.045570  1.0  -0.1774
  C  C358  1  0.432410  0.308220  0.059170  1.0  -0.0431
  C  C359  1  0.505850  0.426580  0.097570  1.0  0.0171
  C  C360  1  0.487280  0.446530  0.049370  1.0  -0.1407
  C  C361  1  0.521180  0.942810  0.491600  1.0  0.6828
  C  C362  1  0.535890  0.910720  0.477600  1.0  -0.1203
  C  C363  1  0.543110  0.890840  0.544200  1.0  -0.0843
  C  C364  1  0.557690  0.861890  0.530000  1.0  -0.1682
  C  C365  1  0.567110  0.854140  0.449000  1.0  0.1103
  C  C366  1  0.557800  0.872820  0.378900  1.0  -0.1784
  C  C367  1  0.542470  0.900920  0.392500  1.0  -0.044
  C  C368  1  0.587390  0.827480  0.430900  1.0  0.0172
  C  C369  1  0.625910  0.846050  0.382700  1.0  -0.1407
  C  C370  1  0.187850  0.276140  0.824930  1.0  0.6828
  C  C371  1  0.202560  0.244050  0.810930  1.0  -0.1203
  C  C372  1  0.209780  0.224170  0.877530  1.0  -0.0843
  C  C373  1  0.224360  0.195220  0.863330  1.0  -0.1682
  C  C374  1  0.233780  0.187470  0.782330  1.0  0.1103
  C  C375  1  0.224470  0.206150  0.712230  1.0  -0.1784
  C  C376  1  0.209140  0.234250  0.725830  1.0  -0.044
  C  C377  1  0.254060  0.160810  0.764230  1.0  0.0172
  C  C378  1  0.292580  0.179380  0.716030  1.0  -0.1407
  C  C379  1  0.854510  0.609480  0.158270  1.0  0.6828
  C  C380  1  0.869220  0.577390  0.144270  1.0  -0.1203
  C  C381  1  0.876440  0.557510  0.210870  1.0  -0.0843
  C  C382  1  0.891020  0.528560  0.196670  1.0  -0.1682
  C  C383  1  0.900440  0.520810  0.115670  1.0  0.1103
  C  C384  1  0.891130  0.539490  0.045570  1.0  -0.1784
  C  C385  1  0.875800  0.567590  0.059170  1.0  -0.0438
  C  C386  1  0.920720  0.494150  0.097570  1.0  0.0172
  C  C387  1  0.959240  0.512720  0.049370  1.0  -0.1407
  C  C388  1  0.421630  0.478820  0.491600  1.0  0.681
  C  C389  1  0.374830  0.464110  0.477600  1.0  -0.1201
  C  C390  1  0.347730  0.456890  0.544200  1.0  -0.0847
  C  C391  1  0.304200  0.442310  0.530000  1.0  -0.1681
  C  C392  1  0.287030  0.432890  0.449000  1.0  0.1096
  C  C393  1  0.315020  0.442200  0.378900  1.0  -0.1782
  C  C394  1  0.358450  0.457530  0.392500  1.0  -0.0435
  C  C395  1  0.240090  0.412610  0.430900  1.0  0.019
  C  C396  1  0.220140  0.374090  0.382700  1.0  -0.141
  C  C397  1  0.088300  0.812150  0.824930  1.0  0.681
  C  C398  1  0.041500  0.797440  0.810930  1.0  -0.1201
  C  C399  1  0.014400  0.790220  0.877530  1.0  -0.0847
  C  C400  1  0.970870  0.775640  0.863330  1.0  -0.1681
  C  C401  1  0.953700  0.766220  0.782330  1.0  0.1096
  C  C402  1  0.981690  0.775530  0.712230  1.0  -0.1782
  C  C403  1  0.025120  0.790860  0.725830  1.0  -0.0435
  C  C404  1  0.906760  0.745940  0.764230  1.0  0.019
  C  C405  1  0.886810  0.707420  0.716030  1.0  -0.141
  C  C406  1  0.754960  0.145490  0.158270  1.0  0.681
  C  C407  1  0.708160  0.130780  0.144270  1.0  -0.1201
  C  C408  1  0.681060  0.123560  0.210870  1.0  -0.0847
  C  C409  1  0.637530  0.108980  0.196670  1.0  -0.1681
  C  C410  1  0.620360  0.099560  0.115670  1.0  0.1096
  C  C411  1  0.648350  0.108870  0.045570  1.0  -0.1782
  C  C412  1  0.691780  0.124200  0.059170  1.0  -0.0434
  C  C413  1  0.573420  0.079280  0.097570  1.0  0.019
  C  C414  1  0.553470  0.040760  0.049370  1.0  -0.141
  C  C415  1  0.421630  0.942810  0.491600  1.0  0.6819
  C  C416  1  0.374830  0.910720  0.477600  1.0  -0.1206
  C  C417  1  0.347730  0.890840  0.544200  1.0  -0.0841
  C  C418  1  0.304200  0.861890  0.530000  1.0  -0.1686
  C  C419  1  0.287030  0.854140  0.449000  1.0  0.1108
  C  C420  1  0.315020  0.872820  0.378900  1.0  -0.1786
  C  C421  1  0.358450  0.900920  0.392500  1.0  -0.0442
  C  C422  1  0.240090  0.827480  0.430900  1.0  0.0181
  C  C423  1  0.220140  0.846050  0.382700  1.0  -0.1402
  C  C424  1  0.088300  0.276140  0.824930  1.0  0.6819
  C  C425  1  0.041500  0.244050  0.810930  1.0  -0.1206
  C  C426  1  0.014400  0.224170  0.877530  1.0  -0.0841
  C  C427  1  0.970870  0.195220  0.863330  1.0  -0.1686
  C  C428  1  0.953700  0.187470  0.782330  1.0  0.1108
  C  C429  1  0.981690  0.206150  0.712230  1.0  -0.1786
  C  C430  1  0.025120  0.234250  0.725830  1.0  -0.0442
  C  C431  1  0.906760  0.160810  0.764230  1.0  0.0181
  C  C432  1  0.886810  0.179380  0.716030  1.0  -0.1402
  C  C433  1  0.754960  0.609480  0.158270  1.0  0.6819
  C  C434  1  0.708160  0.577390  0.144270  1.0  -0.1206
  C  C435  1  0.681060  0.557510  0.210870  1.0  -0.0841
  C  C436  1  0.637530  0.528560  0.196670  1.0  -0.1686
  C  C437  1  0.620360  0.520810  0.115670  1.0  0.1108
  C  C438  1  0.648350  0.539490  0.045570  1.0  -0.1786
  C  C439  1  0.691780  0.567590  0.059170  1.0  -0.0444
  C  C440  1  0.573420  0.494150  0.097570  1.0  0.0181
  C  C441  1  0.553470  0.512720  0.049370  1.0  -0.1402
  C  C442  1  0.057190  0.478820  0.491600  1.0  0.6814
  C  C443  1  0.089280  0.464110  0.477600  1.0  -0.121
  C  C444  1  0.109160  0.456890  0.544200  1.0  -0.0849
  C  C445  1  0.138110  0.442310  0.530000  1.0  -0.1683
  C  C446  1  0.145860  0.432890  0.449000  1.0  0.1093
  C  C447  1  0.127180  0.442200  0.378900  1.0  -0.1785
  C  C448  1  0.099080  0.457530  0.392500  1.0  -0.0443
  C  C449  1  0.172520  0.412610  0.430900  1.0  0.0178
  C  C450  1  0.153950  0.374090  0.382700  1.0  -0.1412
  C  C451  1  0.723860  0.812150  0.824930  1.0  0.6814
  C  C452  1  0.755950  0.797440  0.810930  1.0  -0.121
  C  C453  1  0.775830  0.790220  0.877530  1.0  -0.0849
  C  C454  1  0.804780  0.775640  0.863330  1.0  -0.1683
  C  C455  1  0.812530  0.766220  0.782330  1.0  0.1093
  C  C456  1  0.793850  0.775530  0.712230  1.0  -0.1785
  C  C457  1  0.765750  0.790860  0.725830  1.0  -0.0443
  C  C458  1  0.839190  0.745940  0.764230  1.0  0.0177
  C  C459  1  0.820620  0.707420  0.716030  1.0  -0.1412
  C  C460  1  0.390520  0.145490  0.158270  1.0  0.6814
  C  C461  1  0.422610  0.130780  0.144270  1.0  -0.121
  C  C462  1  0.442490  0.123560  0.210870  1.0  -0.0849
  C  C463  1  0.471440  0.108980  0.196670  1.0  -0.1683
  C  C464  1  0.479190  0.099560  0.115670  1.0  0.1093
  C  C465  1  0.460510  0.108870  0.045570  1.0  -0.1785
  C  C466  1  0.432410  0.124200  0.059170  1.0  -0.044
  C  C467  1  0.505850  0.079280  0.097570  1.0  0.0177
  C  C468  1  0.487280  0.040760  0.049370  1.0  -0.1412
  C  C469  1  0.521180  0.578370  0.491600  1.0  0.6823
  C  C470  1  0.535890  0.625170  0.477600  1.0  -0.1189
  C  C471  1  0.543110  0.652270  0.544200  1.0  -0.084
  C  C472  1  0.557690  0.695800  0.530000  1.0  -0.1681
  C  C473  1  0.567110  0.712970  0.449000  1.0  0.111
  C  C474  1  0.557800  0.684980  0.378900  1.0  -0.177
  C  C475  1  0.542470  0.641550  0.392500  1.0  -0.0432
  C  C476  1  0.587390  0.759910  0.430900  1.0  0.0173
  C  C477  1  0.625910  0.779860  0.382700  1.0  -0.1403
  C  C478  1  0.187850  0.911700  0.824930  1.0  0.6823
  C  C479  1  0.202560  0.958500  0.810930  1.0  -0.1189
  C  C480  1  0.209780  0.985600  0.877530  1.0  -0.084
  C  C481  1  0.224360  0.029130  0.863330  1.0  -0.1681
  C  C482  1  0.233780  0.046300  0.782330  1.0  0.111
  C  C483  1  0.224470  0.018310  0.712230  1.0  -0.177
  C  C484  1  0.209140  0.974880  0.725830  1.0  -0.0432
  C  C485  1  0.254060  0.093240  0.764230  1.0  0.0173
  C  C486  1  0.292580  0.113190  0.716030  1.0  -0.1403
  C  C487  1  0.854510  0.245040  0.158270  1.0  0.6823
  C  C488  1  0.869220  0.291840  0.144270  1.0  -0.1189
  C  C489  1  0.876440  0.318940  0.210870  1.0  -0.084
  C  C490  1  0.891020  0.362470  0.196670  1.0  -0.1681
  C  C491  1  0.900440  0.379640  0.115670  1.0  0.111
  C  C492  1  0.891130  0.351650  0.045570  1.0  -0.177
  C  C493  1  0.875800  0.308220  0.059170  1.0  -0.0431
  C  C494  1  0.920720  0.426580  0.097570  1.0  0.0173
  C  C495  1  0.959240  0.446530  0.049370  1.0  -0.1403
  C  C496  1  0.942810  0.421630  0.508400  1.0  0.6829
  C  C497  1  0.910720  0.374830  0.522400  1.0  -0.1199
  C  C498  1  0.890840  0.347730  0.455800  1.0  -0.0837
  C  C499  1  0.861890  0.304200  0.470000  1.0  -0.1689
  C  C500  1  0.854140  0.287030  0.551000  1.0  0.11
  C  C501  1  0.872820  0.315020  0.621100  1.0  -0.1755
  C  C502  1  0.900920  0.358450  0.607500  1.0  -0.0418
  C  C503  1  0.827480  0.240090  0.569100  1.0  0.0171
  C  C504  1  0.846050  0.220140  0.617300  1.0  -0.1409
  C  C505  1  0.609480  0.754960  0.841730  1.0  0.6829
  C  C506  1  0.577390  0.708160  0.855730  1.0  -0.1199
  C  C507  1  0.557510  0.681060  0.789130  1.0  -0.0837
  C  C508  1  0.528560  0.637530  0.803330  1.0  -0.1689
  C  C509  1  0.520810  0.620360  0.884330  1.0  0.11
  C  C510  1  0.539490  0.648350  0.954430  1.0  -0.1755
  C  C511  1  0.567590  0.691780  0.940830  1.0  -0.042
  C  C512  1  0.494150  0.573420  0.902430  1.0  0.0171
  C  C513  1  0.512720  0.553470  0.950630  1.0  -0.1409
  C  C514  1  0.276140  0.088300  0.175070  1.0  0.6829
  C  C515  1  0.244050  0.041500  0.189070  1.0  -0.1199
  C  C516  1  0.224170  0.014400  0.122470  1.0  -0.0837
  C  C517  1  0.195220  0.970870  0.136670  1.0  -0.1689
  C  C518  1  0.187470  0.953700  0.217670  1.0  0.11
  C  C519  1  0.206150  0.981690  0.287770  1.0  -0.1755
  C  C520  1  0.234250  0.025120  0.274170  1.0  -0.0418
  C  C521  1  0.160810  0.906760  0.235770  1.0  0.0171
  C  C522  1  0.179380  0.886810  0.283970  1.0  -0.1409
  C  C523  1  0.478820  0.057190  0.508400  1.0  0.6817
  C  C524  1  0.464110  0.089280  0.522400  1.0  -0.1198
  C  C525  1  0.456890  0.109160  0.455800  1.0  -0.0841
  C  C526  1  0.442310  0.138110  0.470000  1.0  -0.1682
  C  C527  1  0.432890  0.145860  0.551000  1.0  0.1108
  C  C528  1  0.442200  0.127180  0.621100  1.0  -0.1787
  C  C529  1  0.457530  0.099080  0.607500  1.0  -0.0437
  C  C530  1  0.412610  0.172520  0.569100  1.0  0.0182
  C  C531  1  0.374090  0.153950  0.617300  1.0  -0.1418
  C  C532  1  0.145490  0.390520  0.841730  1.0  0.6817
  C  C533  1  0.130780  0.422610  0.855730  1.0  -0.1198
  C  C534  1  0.123560  0.442490  0.789130  1.0  -0.0841
  C  C535  1  0.108980  0.471440  0.803330  1.0  -0.1682
  C  C536  1  0.099560  0.479190  0.884330  1.0  0.1108
  C  C537  1  0.108870  0.460510  0.954430  1.0  -0.1787
  C  C538  1  0.124200  0.432410  0.940830  1.0  -0.0434
  C  C539  1  0.079280  0.505850  0.902430  1.0  0.0181
  C  C540  1  0.040760  0.487280  0.950630  1.0  -0.1418
  C  C541  1  0.812150  0.723860  0.175070  1.0  0.6817
  C  C542  1  0.797440  0.755950  0.189070  1.0  -0.1198
  C  C543  1  0.790220  0.775830  0.122470  1.0  -0.0841
  C  C544  1  0.775640  0.804780  0.136670  1.0  -0.1682
  C  C545  1  0.766220  0.812530  0.217670  1.0  0.1108
  C  C546  1  0.775530  0.793850  0.287770  1.0  -0.1787
  C  C547  1  0.790860  0.765750  0.274170  1.0  -0.0437
  C  C548  1  0.745940  0.839190  0.235770  1.0  0.0181
  C  C549  1  0.707420  0.820620  0.283970  1.0  -0.1418
  C  C550  1  0.578370  0.521180  0.508400  1.0  0.6814
  C  C551  1  0.625170  0.535890  0.522400  1.0  -0.1207
  C  C552  1  0.652270  0.543110  0.455800  1.0  -0.0855
  C  C553  1  0.695800  0.557690  0.470000  1.0  -0.1691
  C  C554  1  0.712970  0.567110  0.551000  1.0  0.1092
  C  C555  1  0.684980  0.557800  0.621100  1.0  -0.1775
  C  C556  1  0.641550  0.542470  0.607500  1.0  -0.044
  C  C557  1  0.759910  0.587390  0.569100  1.0  0.0178
  C  C558  1  0.779860  0.625910  0.617300  1.0  -0.1423
  C  C559  1  0.245040  0.854510  0.841730  1.0  0.6814
  C  C560  1  0.291840  0.869220  0.855730  1.0  -0.1207
  C  C561  1  0.318940  0.876440  0.789130  1.0  -0.0855
  C  C562  1  0.362470  0.891020  0.803330  1.0  -0.1691
  C  C563  1  0.379640  0.900440  0.884330  1.0  0.1092
  C  C564  1  0.351650  0.891130  0.954430  1.0  -0.1775
  C  C565  1  0.308220  0.875800  0.940830  1.0  -0.0439
  C  C566  1  0.426580  0.920720  0.902430  1.0  0.0178
  C  C567  1  0.446530  0.959240  0.950630  1.0  -0.1423
  C  C568  1  0.911700  0.187850  0.175070  1.0  0.6814
  C  C569  1  0.958500  0.202560  0.189070  1.0  -0.1207
  C  C570  1  0.985600  0.209780  0.122470  1.0  -0.0855
  C  C571  1  0.029130  0.224360  0.136670  1.0  -0.1691
  C  C572  1  0.046300  0.233780  0.217670  1.0  0.1092
  C  C573  1  0.018310  0.224470  0.287770  1.0  -0.1775
  C  C574  1  0.974880  0.209140  0.274170  1.0  -0.044
  C  C575  1  0.093240  0.254060  0.235770  1.0  0.0178
  C  C576  1  0.113190  0.292580  0.283970  1.0  -0.1423
  C  C577  1  0.822960  0.177040  0.642200  1.0  -0.003
  C  C578  1  0.784480  0.215520  0.545500  1.0  0.1704
  C  C579  1  0.746820  0.253180  0.562600  1.0  -0.0406
  C  C580  1  0.489630  0.510370  0.975530  1.0  -0.0029
  C  C581  1  0.451150  0.548850  0.878830  1.0  0.1704
  C  C582  1  0.413490  0.586510  0.895930  1.0  -0.0406
  C  C583  1  0.156290  0.843710  0.308870  1.0  -0.003
  C  C584  1  0.117810  0.882190  0.212170  1.0  0.1704
  C  C585  1  0.080150  0.919850  0.229270  1.0  -0.0406
  C  C586  1  0.822960  0.645920  0.642200  1.0  0.0017
  C  C587  1  0.784480  0.568960  0.545500  1.0  0.177
  C  C588  1  0.746820  0.493640  0.562600  1.0  -0.0366
  C  C589  1  0.489630  0.979250  0.975530  1.0  0.0013
  C  C590  1  0.451150  0.902290  0.878830  1.0  0.177
  C  C591  1  0.413490  0.826970  0.895930  1.0  -0.0366
  C  C592  1  0.156290  0.312590  0.308870  1.0  0.0017
  C  C593  1  0.117810  0.235630  0.212170  1.0  0.177
  C  C594  1  0.080150  0.160310  0.229270  1.0  -0.0366
  C  C595  1  0.354080  0.177040  0.642200  1.0  -0.0033
  C  C596  1  0.431040  0.215520  0.545500  1.0  0.1772
  C  C597  1  0.506360  0.253180  0.562600  1.0  -0.0415
  C  C598  1  0.020750  0.510370  0.975530  1.0  -0.0037
  C  C599  1  0.097710  0.548850  0.878830  1.0  0.1772
  C  C600  1  0.173030  0.586510  0.895930  1.0  -0.0415
  C  C601  1  0.687410  0.843710  0.308870  1.0  -0.0033
  C  C602  1  0.764370  0.882190  0.212170  1.0  0.1772
  C  C603  1  0.839690  0.919850  0.229270  1.0  -0.0415
  C  C604  1  0.177040  0.822960  0.357800  1.0  -0.0037
  C  C605  1  0.215520  0.784480  0.454500  1.0  0.1714
  C  C606  1  0.253180  0.746820  0.437400  1.0  -0.0399
  C  C607  1  0.843710  0.156290  0.691130  1.0  -0.0037
  C  C608  1  0.882190  0.117810  0.787830  1.0  0.1714
  C  C609  1  0.919850  0.080150  0.770730  1.0  -0.0399
  C  C610  1  0.510370  0.489630  0.024470  1.0  -0.0034
  C  C611  1  0.548850  0.451150  0.121170  1.0  0.1714
  C  C612  1  0.586510  0.413490  0.104070  1.0  -0.0399
  C  C613  1  0.645920  0.822960  0.357800  1.0  -0.0025
  C  C614  1  0.568960  0.784480  0.454500  1.0  0.178
  C  C615  1  0.493640  0.746820  0.437400  1.0  -0.0404
  C  C616  1  0.312590  0.156290  0.691130  1.0  -0.0025
  C  C617  1  0.235630  0.117810  0.787830  1.0  0.178
  C  C618  1  0.160310  0.080150  0.770730  1.0  -0.0404
  C  C619  1  0.979250  0.489630  0.024470  1.0  -0.0029
  C  C620  1  0.902290  0.451150  0.121170  1.0  0.178
  C  C621  1  0.826970  0.413490  0.104070  1.0  -0.0404
  C  C622  1  0.177040  0.354080  0.357800  1.0  0.0018
  C  C623  1  0.215520  0.431040  0.454500  1.0  0.1781
  C  C624  1  0.253180  0.506360  0.437400  1.0  -0.0378
  C  C625  1  0.843710  0.687410  0.691130  1.0  0.0018
  C  C626  1  0.882190  0.764370  0.787830  1.0  0.1781
  C  C627  1  0.919850  0.839690  0.770730  1.0  -0.0378
  C  C628  1  0.510370  0.020750  0.024470  1.0  0.0013
  C  C629  1  0.548850  0.097710  0.121170  1.0  0.1781
  C  C630  1  0.586510  0.173030  0.104070  1.0  -0.0378
  O  O631  1  0.557580  0.038180  0.578120  1.0  -0.5889
  O  O632  1  0.563650  0.050460  0.432800  1.0  -0.553
  O  O633  1  0.224250  0.371510  0.911450  1.0  -0.5889
  O  O634  1  0.230320  0.383790  0.766130  1.0  -0.553
  O  O635  1  0.890910  0.704850  0.244790  1.0  -0.5889
  O  O636  1  0.896980  0.717130  0.099470  1.0  -0.5537
  O  O637  1  0.961820  0.519400  0.578120  1.0  -0.5896
  O  O638  1  0.949540  0.513190  0.432800  1.0  -0.5536
  O  O639  1  0.628490  0.852730  0.911450  1.0  -0.5896
  O  O640  1  0.616210  0.846520  0.766130  1.0  -0.5536
  O  O641  1  0.295150  0.186070  0.244790  1.0  -0.5896
  O  O642  1  0.282870  0.179860  0.099470  1.0  -0.5532
  O  O643  1  0.480600  0.442420  0.578120  1.0  -0.588
  O  O644  1  0.486810  0.436350  0.432800  1.0  -0.5532
  O  O645  1  0.147270  0.775750  0.911450  1.0  -0.5879
  O  O646  1  0.153480  0.769680  0.766130  1.0  -0.5532
  O  O647  1  0.813930  0.109090  0.244790  1.0  -0.5879
  O  O648  1  0.820140  0.103020  0.099470  1.0  -0.5532
  O  O649  1  0.038180  0.557580  0.421880  1.0  -0.5854
  O  O650  1  0.050460  0.563650  0.567200  1.0  -0.5539
  O  O651  1  0.704850  0.890910  0.755210  1.0  -0.5854
  O  O652  1  0.717130  0.896980  0.900530  1.0  -0.5541
  O  O653  1  0.371510  0.224250  0.088550  1.0  -0.5856
  O  O654  1  0.383790  0.230320  0.233870  1.0  -0.5539
  O  O655  1  0.519400  0.961820  0.421880  1.0  -0.5862
  O  O656  1  0.513190  0.949540  0.567200  1.0  -0.5547
  O  O657  1  0.186070  0.295150  0.755210  1.0  -0.5862
  O  O658  1  0.179860  0.282870  0.900530  1.0  -0.5548
  O  O659  1  0.852730  0.628490  0.088550  1.0  -0.5865
  O  O660  1  0.846520  0.616210  0.233870  1.0  -0.5547
  O  O661  1  0.442420  0.480600  0.421880  1.0  -0.5871
  O  O662  1  0.436350  0.486810  0.567200  1.0  -0.5549
  O  O663  1  0.109090  0.813930  0.755210  1.0  -0.5868
  O  O664  1  0.103020  0.820140  0.900530  1.0  -0.5549
  O  O665  1  0.775750  0.147270  0.088550  1.0  -0.5868
  O  O666  1  0.769680  0.153480  0.233870  1.0  -0.5549
  O  O667  1  0.442420  0.961820  0.421880  1.0  -0.5878
  O  O668  1  0.436350  0.949540  0.567200  1.0  -0.5559
  O  O669  1  0.109090  0.295150  0.755210  1.0  -0.5878
  O  O670  1  0.103020  0.282870  0.900530  1.0  -0.5562
  O  O671  1  0.775750  0.628490  0.088550  1.0  -0.588
  O  O672  1  0.769680  0.616210  0.233870  1.0  -0.5559
  O  O673  1  0.038180  0.480600  0.421880  1.0  -0.5878
  O  O674  1  0.050460  0.486810  0.567200  1.0  -0.5547
  O  O675  1  0.704850  0.813930  0.755210  1.0  -0.5878
  O  O676  1  0.717130  0.820140  0.900530  1.0  -0.555
  O  O677  1  0.371510  0.147270  0.088550  1.0  -0.588
  O  O678  1  0.383790  0.153480  0.233870  1.0  -0.5548
  O  O679  1  0.519400  0.557580  0.421880  1.0  -0.588
  O  O680  1  0.513190  0.563650  0.567200  1.0  -0.5544
  O  O681  1  0.186070  0.890910  0.755210  1.0  -0.5877
  O  O682  1  0.179860  0.896980  0.900530  1.0  -0.5544
  O  O683  1  0.852730  0.224250  0.088550  1.0  -0.5877
  O  O684  1  0.846520  0.230320  0.233870  1.0  -0.5544
  O  O685  1  0.961820  0.442420  0.578120  1.0  -0.5889
  O  O686  1  0.949540  0.436350  0.432800  1.0  -0.5533
  O  O687  1  0.628490  0.775750  0.911450  1.0  -0.5889
  O  O688  1  0.616210  0.769680  0.766130  1.0  -0.5533
  O  O689  1  0.295150  0.109090  0.244790  1.0  -0.5889
  O  O690  1  0.282870  0.103020  0.099470  1.0  -0.5536
  O  O691  1  0.480600  0.038180  0.578120  1.0  -0.589
  O  O692  1  0.486810  0.050460  0.432800  1.0  -0.5541
  O  O693  1  0.147270  0.371510  0.911450  1.0  -0.589
  O  O694  1  0.153480  0.383790  0.766130  1.0  -0.5541
  O  O695  1  0.813930  0.704850  0.244790  1.0  -0.589
  O  O696  1  0.820140  0.717130  0.099470  1.0  -0.5542
  O  O697  1  0.557580  0.519400  0.578120  1.0  -0.5894
  O  O698  1  0.563650  0.513190  0.432800  1.0  -0.5541
  O  O699  1  0.224250  0.852730  0.911450  1.0  -0.5893
  O  O700  1  0.230320  0.846520  0.766130  1.0  -0.554
  O  O701  1  0.890910  0.186070  0.244790  1.0  -0.5893
  O  O702  1  0.896980  0.179860  0.099470  1.0  -0.5541
  O  O703  1  0.765090  0.234910  0.499600  1.0  -0.3698
  O  O704  1  0.431760  0.568240  0.832930  1.0  -0.3698
  O  O705  1  0.098420  0.901580  0.166270  1.0  -0.3705
  O  O706  1  0.765090  0.530180  0.499600  1.0  -0.3666
  O  O707  1  0.431760  0.863510  0.832930  1.0  -0.3666
  O  O708  1  0.098420  0.196850  0.166270  1.0  -0.3663
  O  O709  1  0.469820  0.234910  0.499600  1.0  -0.3665
  O  O710  1  0.136490  0.568240  0.832930  1.0  -0.3665
  O  O711  1  0.803150  0.901580  0.166270  1.0  -0.3662
  O  O712  1  0.234910  0.765090  0.500400  1.0  -0.3732
  O  O713  1  0.901580  0.098420  0.833730  1.0  -0.3738
  O  O714  1  0.568240  0.431760  0.167070  1.0  -0.3732
  O  O715  1  0.530180  0.765090  0.500400  1.0  -0.3719
  O  O716  1  0.196850  0.098420  0.833730  1.0  -0.3717
  O  O717  1  0.863510  0.431760  0.167070  1.0  -0.3719
  O  O718  1  0.234910  0.469820  0.500400  1.0  -0.372
  O  O719  1  0.901580  0.803150  0.833730  1.0  -0.3718
  O  O720  1  0.568240  0.136490  0.167070  1.0  -0.372
