# generated using pymatgen
data_CuH13C21O5
_symmetry_space_group_name_H-M   'P 1'
_cell_length_a   34.80280000
_cell_length_b   34.80280000
_cell_length_c   24.25320000
_cell_angle_alpha   90.00000000
_cell_angle_beta   90.00000000
_cell_angle_gamma   120.00000000
_symmetry_Int_Tables_number   1
_chemical_formula_structural   CuH13C21O5
_chemical_formula_sum   'Cu18 H234 C378 O90'
_cell_volume   25440.64110596
_cell_formula_units_Z   18
loop_
 _symmetry_equiv_pos_site_id
 _symmetry_equiv_pos_as_xyz
  1  'x, y, z'
loop_
 _atom_site_type_symbol
 _atom_site_label
 _atom_site_symmetry_multiplicity
 _atom_site_fract_x
 _atom_site_fract_y
 _atom_site_fract_z
 _atom_site_occupancy
 _atom_site_charge
  Cu  Cu1  1  0.508980  0.491020  0.450280  1.0  0.8931
  Cu  Cu2  1  0.175650  0.824350  0.783610  1.0  0.8931
  Cu  Cu3  1  0.842310  0.157690  0.116950  1.0  0.8931
  Cu  Cu4  1  0.508980  0.017960  0.450280  1.0  0.8986
  Cu  Cu5  1  0.175650  0.351290  0.783610  1.0  0.8986
  Cu  Cu6  1  0.842310  0.684630  0.116950  1.0  0.8986
  Cu  Cu7  1  0.982040  0.491020  0.450280  1.0  0.8972
  Cu  Cu8  1  0.648710  0.824350  0.783610  1.0  0.8972
  Cu  Cu9  1  0.315370  0.157690  0.116950  1.0  0.8972
  Cu  Cu10  1  0.491020  0.508980  0.549720  1.0  0.8928
  Cu  Cu11  1  0.157690  0.842310  0.883050  1.0  0.8928
  Cu  Cu12  1  0.824350  0.175650  0.216390  1.0  0.8928
  Cu  Cu13  1  0.017960  0.508980  0.549720  1.0  0.8965
  Cu  Cu14  1  0.684630  0.842310  0.883050  1.0  0.8965
  Cu  Cu15  1  0.351290  0.175650  0.216390  1.0  0.8965
  Cu  Cu16  1  0.491020  0.982040  0.549720  1.0  0.8973
  Cu  Cu17  1  0.157690  0.315370  0.883050  1.0  0.8973
  Cu  Cu18  1  0.824350  0.648710  0.216390  1.0  0.8973
  H  H19  1  0.534900  0.648100  0.527300  1.0  0.1055
  H  H20  1  0.558600  0.720000  0.499700  1.0  0.1019
  H  H21  1  0.577600  0.689900  0.346200  1.0  0.1063
  H  H22  1  0.553500  0.617500  0.373500  1.0  0.1046
  H  H23  1  0.640300  0.762300  0.359100  1.0  0.1094
  H  H24  1  0.490800  0.722400  0.403500  1.0  0.1144
  H  H25  1  0.201570  0.981430  0.860630  1.0  0.1055
  H  H26  1  0.225270  0.053330  0.833030  1.0  0.1035
  H  H27  1  0.244270  0.023230  0.679530  1.0  0.1071
  H  H28  1  0.220170  0.950830  0.706830  1.0  0.1046
  H  H29  1  0.306970  0.095630  0.692430  1.0  0.1094
  H  H30  1  0.157470  0.055730  0.736830  1.0  0.1125
  H  H31  1  0.868230  0.314770  0.193970  1.0  0.1055
  H  H32  1  0.891930  0.386670  0.166370  1.0  0.1019
  H  H33  1  0.910930  0.356570  0.012870  1.0  0.1068
  H  H34  1  0.886830  0.284170  0.040170  1.0  0.1058
  H  H35  1  0.973630  0.428970  0.025770  1.0  0.1094
  H  H36  1  0.824130  0.389070  0.070170  1.0  0.1126
  H  H37  1  0.351900  0.886800  0.527300  1.0  0.106
  H  H38  1  0.280000  0.838600  0.499700  1.0  0.1039
  H  H39  1  0.310100  0.887700  0.346200  1.0  0.1079
  H  H40  1  0.382500  0.936000  0.373500  1.0  0.1055
  H  H41  1  0.237700  0.878000  0.359100  1.0  0.1106
  H  H42  1  0.277600  0.768400  0.403500  1.0  0.1123
  H  H43  1  0.018570  0.220130  0.860630  1.0  0.1059
  H  H44  1  0.946670  0.171930  0.833030  1.0  0.1039
  H  H45  1  0.976770  0.221030  0.679530  1.0  0.1066
  H  H46  1  0.049170  0.269330  0.706830  1.0  0.1061
  H  H47  1  0.904370  0.211330  0.692430  1.0  0.1106
  H  H48  1  0.944270  0.101730  0.736830  1.0  0.1154
  H  H49  1  0.685230  0.553470  0.193970  1.0  0.106
  H  H50  1  0.613330  0.505270  0.166370  1.0  0.104
  H  H51  1  0.643430  0.554370  0.012870  1.0  0.1079
  H  H52  1  0.715830  0.602670  0.040170  1.0  0.1062
  H  H53  1  0.571030  0.544670  0.025770  1.0  0.1105
  H  H54  1  0.610930  0.435070  0.070170  1.0  0.113
  H  H55  1  0.113200  0.465100  0.527300  1.0  0.1049
  H  H56  1  0.161400  0.441400  0.499700  1.0  0.1038
  H  H57  1  0.112300  0.422400  0.346200  1.0  0.1065
  H  H58  1  0.064000  0.446500  0.373500  1.0  0.1056
  H  H59  1  0.122000  0.359700  0.359100  1.0  0.1091
  H  H60  1  0.231600  0.509200  0.403500  1.0  0.1143
  H  H61  1  0.779870  0.798430  0.860630  1.0  0.1052
  H  H62  1  0.828070  0.774730  0.833030  1.0  0.1027
  H  H63  1  0.778970  0.755730  0.679530  1.0  0.1064
  H  H64  1  0.730670  0.779830  0.706830  1.0  0.1046
  H  H65  1  0.788670  0.693030  0.692430  1.0  0.1091
  H  H66  1  0.898270  0.842530  0.736830  1.0  0.115
  H  H67  1  0.446530  0.131770  0.193970  1.0  0.1049
  H  H68  1  0.494730  0.108070  0.166370  1.0  0.1038
  H  H69  1  0.445630  0.089070  0.012870  1.0  0.1065
  H  H70  1  0.397330  0.113170  0.040170  1.0  0.1058
  H  H71  1  0.455330  0.026370  0.025770  1.0  0.1091
  H  H72  1  0.564930  0.175870  0.070170  1.0  0.1118
  H  H73  1  0.648100  0.534900  0.472700  1.0  0.1053
  H  H74  1  0.720000  0.558600  0.500300  1.0  0.1022
  H  H75  1  0.689900  0.577600  0.653800  1.0  0.1066
  H  H76  1  0.617500  0.553500  0.626500  1.0  0.1046
  H  H77  1  0.762300  0.640300  0.640900  1.0  0.1096
  H  H78  1  0.722400  0.490800  0.596500  1.0  0.1142
  H  H79  1  0.314770  0.868230  0.806030  1.0  0.1053
  H  H80  1  0.386670  0.891930  0.833630  1.0  0.1022
  H  H81  1  0.356570  0.910930  0.987130  1.0  0.107
  H  H82  1  0.284170  0.886830  0.959830  1.0  0.1059
  H  H83  1  0.428970  0.973630  0.974230  1.0  0.1097
  H  H84  1  0.389070  0.824130  0.929830  1.0  0.1121
  H  H85  1  0.981430  0.201570  0.139370  1.0  0.1054
  H  H86  1  0.053330  0.225270  0.166970  1.0  0.1033
  H  H87  1  0.023230  0.244270  0.320470  1.0  0.1072
  H  H88  1  0.950830  0.220170  0.293170  1.0  0.1046
  H  H89  1  0.095630  0.306970  0.307570  1.0  0.1096
  H  H90  1  0.055730  0.157470  0.263170  1.0  0.1118
  H  H91  1  0.886800  0.351900  0.472700  1.0  0.1057
  H  H92  1  0.838600  0.280000  0.500300  1.0  0.1032
  H  H93  1  0.887700  0.310100  0.653800  1.0  0.1071
  H  H94  1  0.936000  0.382500  0.626500  1.0  0.1052
  H  H95  1  0.878000  0.237700  0.640900  1.0  0.1098
  H  H96  1  0.768400  0.277600  0.596500  1.0  0.1111
  H  H97  1  0.553470  0.685230  0.806030  1.0  0.1057
  H  H98  1  0.505270  0.613330  0.833630  1.0  0.1032
  H  H99  1  0.554370  0.643430  0.987130  1.0  0.1071
  H  H100  1  0.602670  0.715830  0.959830  1.0  0.1057
  H  H101  1  0.544670  0.571030  0.974230  1.0  0.1098
  H  H102  1  0.435070  0.610930  0.929830  1.0  0.112
  H  H103  1  0.220130  0.018570  0.139370  1.0  0.1055
  H  H104  1  0.171930  0.946670  0.166970  1.0  0.1032
  H  H105  1  0.221030  0.976770  0.320470  1.0  0.106
  H  H106  1  0.269330  0.049170  0.293170  1.0  0.1058
  H  H107  1  0.211330  0.904370  0.307570  1.0  0.1098
  H  H108  1  0.101730  0.944270  0.263170  1.0  0.1145
  H  H109  1  0.465100  0.113200  0.472700  1.0  0.106
  H  H110  1  0.441400  0.161400  0.500300  1.0  0.1036
  H  H111  1  0.422400  0.112300  0.653800  1.0  0.107
  H  H112  1  0.446500  0.064000  0.626500  1.0  0.106
  H  H113  1  0.359700  0.122000  0.640900  1.0  0.1109
  H  H114  1  0.509200  0.231600  0.596500  1.0  0.116
  H  H115  1  0.131770  0.446530  0.806030  1.0  0.106
  H  H116  1  0.108070  0.494730  0.833630  1.0  0.1036
  H  H117  1  0.089070  0.445630  0.987130  1.0  0.107
  H  H118  1  0.113170  0.397330  0.959830  1.0  0.1064
  H  H119  1  0.026370  0.455330  0.974230  1.0  0.1109
  H  H120  1  0.175870  0.564930  0.929830  1.0  0.1126
  H  H121  1  0.798430  0.779870  0.139370  1.0  0.1061
  H  H122  1  0.774730  0.828070  0.166970  1.0  0.1025
  H  H123  1  0.755730  0.778970  0.320470  1.0  0.107
  H  H124  1  0.779830  0.730670  0.293170  1.0  0.105
  H  H125  1  0.693030  0.788670  0.307570  1.0  0.1109
  H  H126  1  0.842530  0.898270  0.263170  1.0  0.1168
  H  H127  1  0.465100  0.351900  0.472700  1.0  0.106
  H  H128  1  0.441400  0.280000  0.500300  1.0  0.1021
  H  H129  1  0.422400  0.310100  0.653800  1.0  0.1066
  H  H130  1  0.446500  0.382500  0.626500  1.0  0.1043
  H  H131  1  0.359700  0.237700  0.640900  1.0  0.109
  H  H132  1  0.509200  0.277600  0.596500  1.0  0.1148
  H  H133  1  0.131770  0.685230  0.806030  1.0  0.106
  H  H134  1  0.108070  0.613330  0.833630  1.0  0.1021
  H  H135  1  0.089070  0.643430  0.987130  1.0  0.107
  H  H136  1  0.113170  0.715830  0.959830  1.0  0.1056
  H  H137  1  0.026370  0.571030  0.974230  1.0  0.109
  H  H138  1  0.175870  0.610930  0.929830  1.0  0.1124
  H  H139  1  0.798430  0.018570  0.139370  1.0  0.106
  H  H140  1  0.774730  0.946670  0.166970  1.0  0.1033
  H  H141  1  0.755730  0.976770  0.320470  1.0  0.1071
  H  H142  1  0.779830  0.049170  0.293170  1.0  0.1043
  H  H143  1  0.693030  0.904370  0.307570  1.0  0.109
  H  H144  1  0.842530  0.944270  0.263170  1.0  0.1132
  H  H145  1  0.648100  0.113200  0.472700  1.0  0.106
  H  H146  1  0.720000  0.161400  0.500300  1.0  0.1034
  H  H147  1  0.689900  0.112300  0.653800  1.0  0.1076
  H  H148  1  0.617500  0.064000  0.626500  1.0  0.1055
  H  H149  1  0.762300  0.122000  0.640900  1.0  0.1103
  H  H150  1  0.722400  0.231600  0.596500  1.0  0.1121
  H  H151  1  0.314770  0.446530  0.806030  1.0  0.106
  H  H152  1  0.386670  0.494730  0.833630  1.0  0.1034
  H  H153  1  0.356570  0.445630  0.987130  1.0  0.1076
  H  H154  1  0.284170  0.397330  0.959830  1.0  0.1062
  H  H155  1  0.428970  0.455330  0.974230  1.0  0.1103
  H  H156  1  0.389070  0.564930  0.929830  1.0  0.113
  H  H157  1  0.981430  0.779870  0.139370  1.0  0.106
  H  H158  1  0.053330  0.828070  0.166970  1.0  0.1034
  H  H159  1  0.023230  0.778970  0.320470  1.0  0.1065
  H  H160  1  0.950830  0.730670  0.293170  1.0  0.1062
  H  H161  1  0.095630  0.788670  0.307570  1.0  0.1103
  H  H162  1  0.055730  0.898270  0.263170  1.0  0.1155
  H  H163  1  0.886800  0.534900  0.472700  1.0  0.1049
  H  H164  1  0.838600  0.558600  0.500300  1.0  0.1038
  H  H165  1  0.887700  0.577600  0.653800  1.0  0.1066
  H  H166  1  0.936000  0.553500  0.626500  1.0  0.1058
  H  H167  1  0.878000  0.640300  0.640900  1.0  0.1094
  H  H168  1  0.768400  0.490800  0.596500  1.0  0.1143
  H  H169  1  0.553470  0.868230  0.806030  1.0  0.1049
  H  H170  1  0.505270  0.891930  0.833630  1.0  0.1038
  H  H171  1  0.554370  0.910930  0.987130  1.0  0.1066
  H  H172  1  0.602670  0.886830  0.959830  1.0  0.1063
  H  H173  1  0.544670  0.973630  0.974230  1.0  0.1094
  H  H174  1  0.435070  0.824130  0.929830  1.0  0.1109
  H  H175  1  0.220130  0.201570  0.139370  1.0  0.1051
  H  H176  1  0.171930  0.225270  0.166970  1.0  0.1027
  H  H177  1  0.221030  0.244270  0.320470  1.0  0.1065
  H  H178  1  0.269330  0.220170  0.293170  1.0  0.1048
  H  H179  1  0.211330  0.306970  0.307570  1.0  0.1094
  H  H180  1  0.101730  0.157470  0.263170  1.0  0.1153
  H  H181  1  0.351900  0.465100  0.527300  1.0  0.1051
  H  H182  1  0.280000  0.441400  0.499700  1.0  0.1027
  H  H183  1  0.310100  0.422400  0.346200  1.0  0.1068
  H  H184  1  0.382500  0.446500  0.373500  1.0  0.1052
  H  H185  1  0.237700  0.359700  0.359100  1.0  0.1099
  H  H186  1  0.277600  0.509200  0.403500  1.0  0.115
  H  H187  1  0.018570  0.798430  0.860630  1.0  0.1051
  H  H188  1  0.946670  0.774730  0.833030  1.0  0.1038
  H  H189  1  0.976770  0.755730  0.679530  1.0  0.1075
  H  H190  1  0.049170  0.779830  0.706830  1.0  0.1052
  H  H191  1  0.904370  0.693030  0.692430  1.0  0.1099
  H  H192  1  0.944270  0.842530  0.736830  1.0  0.1125
  H  H193  1  0.685230  0.131770  0.193970  1.0  0.1051
  H  H194  1  0.613330  0.108070  0.166370  1.0  0.1027
  H  H195  1  0.643430  0.089070  0.012870  1.0  0.1072
  H  H196  1  0.715830  0.113170  0.040170  1.0  0.1065
  H  H197  1  0.571030  0.026370  0.025770  1.0  0.11
  H  H198  1  0.610930  0.175870  0.070170  1.0  0.1127
  H  H199  1  0.113200  0.648100  0.527300  1.0  0.1055
  H  H200  1  0.161400  0.720000  0.499700  1.0  0.1038
  H  H201  1  0.112300  0.689900  0.346200  1.0  0.1073
  H  H202  1  0.064000  0.617500  0.373500  1.0  0.1047
  H  H203  1  0.122000  0.762300  0.359100  1.0  0.1093
  H  H204  1  0.231600  0.722400  0.403500  1.0  0.111
  H  H205  1  0.779870  0.981430  0.860630  1.0  0.1054
  H  H206  1  0.828070  0.053330  0.833030  1.0  0.1038
  H  H207  1  0.778970  0.023230  0.679530  1.0  0.106
  H  H208  1  0.730670  0.950830  0.706830  1.0  0.1053
  H  H209  1  0.788670  0.095630  0.692430  1.0  0.1093
  H  H210  1  0.898270  0.055730  0.736830  1.0  0.1145
  H  H211  1  0.446530  0.314770  0.193970  1.0  0.1055
  H  H212  1  0.494730  0.386670  0.166370  1.0  0.1038
  H  H213  1  0.445630  0.356570  0.012870  1.0  0.1073
  H  H214  1  0.397330  0.284170  0.040170  1.0  0.1056
  H  H215  1  0.455330  0.428970  0.025770  1.0  0.1093
  H  H216  1  0.564930  0.389070  0.070170  1.0  0.1117
  H  H217  1  0.534900  0.886800  0.527300  1.0  0.1057
  H  H218  1  0.558600  0.838600  0.499700  1.0  0.104
  H  H219  1  0.577600  0.887700  0.346200  1.0  0.107
  H  H220  1  0.553500  0.936000  0.373500  1.0  0.1054
  H  H221  1  0.640300  0.878000  0.359100  1.0  0.1107
  H  H222  1  0.490800  0.768400  0.403500  1.0  0.116
  H  H223  1  0.201570  0.220130  0.860630  1.0  0.106
  H  H224  1  0.225270  0.171930  0.833030  1.0  0.1029
  H  H225  1  0.244270  0.221030  0.679530  1.0  0.1068
  H  H226  1  0.220170  0.269330  0.706830  1.0  0.1046
  H  H227  1  0.306970  0.211330  0.692430  1.0  0.1107
  H  H228  1  0.157470  0.101730  0.736830  1.0  0.1161
  H  H229  1  0.868230  0.553470  0.193970  1.0  0.1057
  H  H230  1  0.891930  0.505270  0.166370  1.0  0.104
  H  H231  1  0.910930  0.554370  0.012870  1.0  0.107
  H  H232  1  0.886830  0.602670  0.040170  1.0  0.1057
  H  H233  1  0.973630  0.544670  0.025770  1.0  0.1106
  H  H234  1  0.824130  0.435070  0.070170  1.0  0.113
  H  H235  1  0.469700  0.734850  0.454200  1.0  0.1277
  H  H236  1  0.136370  0.068180  0.787530  1.0  0.1275
  H  H237  1  0.803030  0.401520  0.120870  1.0  0.1277
  H  H238  1  0.265150  0.734850  0.454200  1.0  0.1283
  H  H239  1  0.931820  0.068180  0.787530  1.0  0.1281
  H  H240  1  0.598480  0.401520  0.120870  1.0  0.1283
  H  H241  1  0.265150  0.530300  0.454200  1.0  0.127
  H  H242  1  0.931820  0.863630  0.787530  1.0  0.127
  H  H243  1  0.598480  0.196970  0.120870  1.0  0.1271
  H  H244  1  0.734850  0.469700  0.545800  1.0  0.1268
  H  H245  1  0.401520  0.803030  0.879130  1.0  0.1268
  H  H246  1  0.068180  0.136370  0.212470  1.0  0.1263
  H  H247  1  0.734850  0.265150  0.545800  1.0  0.1264
  H  H248  1  0.401520  0.598480  0.879130  1.0  0.1265
  H  H249  1  0.068180  0.931820  0.212470  1.0  0.1263
  H  H250  1  0.530300  0.265150  0.545800  1.0  0.1283
  H  H251  1  0.196970  0.598480  0.879130  1.0  0.1283
  H  H252  1  0.863630  0.931820  0.212470  1.0  0.1275
  C  C253  1  0.524670  0.578130  0.470220  1.0  0.6648
  C  C254  1  0.540470  0.625210  0.452270  1.0  -0.136
  C  C255  1  0.543200  0.656390  0.489980  1.0  -0.0742
  C  C256  1  0.557830  0.699260  0.473620  1.0  -0.1405
  C  C257  1  0.571430  0.712890  0.420330  1.0  0.1004
  C  C258  1  0.568940  0.681570  0.383410  1.0  -0.173
  C  C259  1  0.554130  0.638280  0.399440  1.0  -0.0706
  C  C260  1  0.589550  0.759870  0.402340  1.0  -0.0266
  C  C261  1  0.627180  0.779490  0.369380  1.0  -0.1355
  C  C262  1  0.191340  0.911460  0.803550  1.0  0.6648
  C  C263  1  0.207140  0.958540  0.785600  1.0  -0.136
  C  C264  1  0.209870  0.989720  0.823310  1.0  -0.0742
  C  C265  1  0.224500  0.032590  0.806950  1.0  -0.1405
  C  C266  1  0.238100  0.046220  0.753660  1.0  0.1004
  C  C267  1  0.235610  0.014900  0.716740  1.0  -0.173
  C  C268  1  0.220800  0.971610  0.732770  1.0  -0.0706
  C  C269  1  0.256220  0.093200  0.735670  1.0  -0.0266
  C  C270  1  0.293850  0.112820  0.702710  1.0  -0.1324
  C  C271  1  0.858000  0.244800  0.136890  1.0  0.6648
  C  C272  1  0.873800  0.291880  0.118940  1.0  -0.136
  C  C273  1  0.876530  0.323060  0.156650  1.0  -0.0742
  C  C274  1  0.891160  0.365930  0.140290  1.0  -0.1405
  C  C275  1  0.904760  0.379560  0.087000  1.0  0.1004
  C  C276  1  0.902270  0.348240  0.050080  1.0  -0.173
  C  C277  1  0.887460  0.304950  0.066110  1.0  -0.0706
  C  C278  1  0.922880  0.426540  0.069010  1.0  -0.0266
  C  C279  1  0.960510  0.446160  0.036050  1.0  -0.1355
  C  C280  1  0.421870  0.946540  0.470220  1.0  0.6649
  C  C281  1  0.374790  0.915260  0.452270  1.0  -0.1385
  C  C282  1  0.343610  0.886810  0.489980  1.0  -0.0729
  C  C283  1  0.300740  0.858570  0.473620  1.0  -0.1404
  C  C284  1  0.287110  0.858540  0.420330  1.0  0.0995
  C  C285  1  0.318430  0.887370  0.383410  1.0  -0.1732
  C  C286  1  0.361720  0.915850  0.399440  1.0  -0.0706
  C  C287  1  0.240130  0.829680  0.402340  1.0  -0.0283
  C  C288  1  0.220510  0.847690  0.369380  1.0  -0.1288
  C  C289  1  0.088540  0.279870  0.803550  1.0  0.6649
  C  C290  1  0.041460  0.248590  0.785600  1.0  -0.1385
  C  C291  1  0.010280  0.220140  0.823310  1.0  -0.0729
  C  C292  1  0.967410  0.191900  0.806950  1.0  -0.1404
  C  C293  1  0.953780  0.191870  0.753660  1.0  0.0995
  C  C294  1  0.985100  0.220700  0.716740  1.0  -0.1732
  C  C295  1  0.028390  0.249180  0.732770  1.0  -0.0706
  C  C296  1  0.906800  0.163010  0.735670  1.0  -0.0283
  C  C297  1  0.887180  0.181020  0.702710  1.0  -0.1288
  C  C298  1  0.755200  0.613210  0.136890  1.0  0.6649
  C  C299  1  0.708120  0.581930  0.118940  1.0  -0.1385
  C  C300  1  0.676940  0.553480  0.156650  1.0  -0.0729
  C  C301  1  0.634070  0.525240  0.140290  1.0  -0.1404
  C  C302  1  0.620440  0.525210  0.087000  1.0  0.0995
  C  C303  1  0.651760  0.554040  0.050080  1.0  -0.1732
  C  C304  1  0.695050  0.582520  0.066110  1.0  -0.0706
  C  C305  1  0.573460  0.496350  0.069010  1.0  -0.0283
  C  C306  1  0.553840  0.514360  0.036050  1.0  -0.1288
  C  C307  1  0.053460  0.475330  0.470220  1.0  0.665
  C  C308  1  0.084740  0.459530  0.452270  1.0  -0.1371
  C  C309  1  0.113190  0.456800  0.489980  1.0  -0.0741
  C  C310  1  0.141430  0.442170  0.473620  1.0  -0.1391
  C  C311  1  0.141460  0.428570  0.420330  1.0  0.0992
  C  C312  1  0.112630  0.431060  0.383410  1.0  -0.1702
  C  C313  1  0.084150  0.445870  0.399440  1.0  -0.0685
  C  C314  1  0.170320  0.410450  0.402340  1.0  -0.0268
  C  C315  1  0.152310  0.372820  0.369380  1.0  -0.1319
  C  C316  1  0.720130  0.808660  0.803550  1.0  0.665
  C  C317  1  0.751410  0.792860  0.785600  1.0  -0.1371
  C  C318  1  0.779860  0.790130  0.823310  1.0  -0.0741
  C  C319  1  0.808100  0.775500  0.806950  1.0  -0.1391
  C  C320  1  0.808130  0.761900  0.753660  1.0  0.0992
  C  C321  1  0.779300  0.764390  0.716740  1.0  -0.1702
  C  C322  1  0.750820  0.779200  0.732770  1.0  -0.0685
  C  C323  1  0.836990  0.743780  0.735670  1.0  -0.0268
  C  C324  1  0.818980  0.706150  0.702710  1.0  -0.1339
  C  C325  1  0.386790  0.142000  0.136890  1.0  0.665
  C  C326  1  0.418070  0.126200  0.118940  1.0  -0.1371
  C  C327  1  0.446520  0.123470  0.156650  1.0  -0.0741
  C  C328  1  0.474760  0.108840  0.140290  1.0  -0.1391
  C  C329  1  0.474790  0.095240  0.087000  1.0  0.0993
  C  C330  1  0.445960  0.097730  0.050080  1.0  -0.1702
  C  C331  1  0.417480  0.112540  0.066110  1.0  -0.0685
  C  C332  1  0.503650  0.077120  0.069010  1.0  -0.0268
  C  C333  1  0.485640  0.039490  0.036050  1.0  -0.1319
  C  C334  1  0.578130  0.524670  0.529780  1.0  0.6648
  C  C335  1  0.625210  0.540470  0.547730  1.0  -0.1372
  C  C336  1  0.656390  0.543200  0.510020  1.0  -0.0703
  C  C337  1  0.699260  0.557830  0.526380  1.0  -0.138
  C  C338  1  0.712890  0.571430  0.579670  1.0  0.099
  C  C339  1  0.681570  0.568940  0.616590  1.0  -0.1719
  C  C340  1  0.638280  0.554130  0.600560  1.0  -0.069
  C  C341  1  0.759870  0.589550  0.597660  1.0  -0.0265
  C  C342  1  0.779490  0.627180  0.630620  1.0  -0.1362
  C  C343  1  0.244800  0.858000  0.863110  1.0  0.6648
  C  C344  1  0.291880  0.873800  0.881060  1.0  -0.1372
  C  C345  1  0.323060  0.876530  0.843350  1.0  -0.0703
  C  C346  1  0.365930  0.891160  0.859710  1.0  -0.138
  C  C347  1  0.379560  0.904760  0.913000  1.0  0.099
  C  C348  1  0.348240  0.902270  0.949920  1.0  -0.1719
  C  C349  1  0.304950  0.887460  0.933890  1.0  -0.069
  C  C350  1  0.426540  0.922880  0.930990  1.0  -0.0265
  C  C351  1  0.446160  0.960510  0.963950  1.0  -0.1363
  C  C352  1  0.911460  0.191340  0.196450  1.0  0.6648
  C  C353  1  0.958540  0.207140  0.214400  1.0  -0.1372
  C  C354  1  0.989720  0.209870  0.176690  1.0  -0.0703
  C  C355  1  0.032590  0.224500  0.193050  1.0  -0.138
  C  C356  1  0.046220  0.238100  0.246340  1.0  0.099
  C  C357  1  0.014900  0.235610  0.283260  1.0  -0.1719
  C  C358  1  0.971610  0.220800  0.267230  1.0  -0.069
  C  C359  1  0.093200  0.256220  0.264330  1.0  -0.0265
  C  C360  1  0.112820  0.293850  0.297290  1.0  -0.1338
  C  C361  1  0.946540  0.421870  0.529780  1.0  0.6651
  C  C362  1  0.915260  0.374790  0.547730  1.0  -0.1361
  C  C363  1  0.886810  0.343610  0.510020  1.0  -0.0714
  C  C364  1  0.858570  0.300740  0.526380  1.0  -0.1398
  C  C365  1  0.858540  0.287110  0.579670  1.0  0.1003
  C  C366  1  0.887370  0.318430  0.616590  1.0  -0.1733
  C  C367  1  0.915850  0.361720  0.600560  1.0  -0.0686
  C  C368  1  0.829680  0.240130  0.597660  1.0  -0.026
  C  C369  1  0.847690  0.220510  0.630620  1.0  -0.1338
  C  C370  1  0.613210  0.755200  0.863110  1.0  0.6651
  C  C371  1  0.581930  0.708120  0.881060  1.0  -0.1361
  C  C372  1  0.553480  0.676940  0.843350  1.0  -0.0714
  C  C373  1  0.525240  0.634070  0.859710  1.0  -0.1398
  C  C374  1  0.525210  0.620440  0.913000  1.0  0.1004
  C  C375  1  0.554040  0.651760  0.949920  1.0  -0.1733
  C  C376  1  0.582520  0.695050  0.933890  1.0  -0.0686
  C  C377  1  0.496350  0.573460  0.930990  1.0  -0.026
  C  C378  1  0.514360  0.553840  0.963950  1.0  -0.1338
  C  C379  1  0.279870  0.088540  0.196450  1.0  0.6651
  C  C380  1  0.248590  0.041460  0.214400  1.0  -0.1361
  C  C381  1  0.220140  0.010280  0.176690  1.0  -0.0714
  C  C382  1  0.191900  0.967410  0.193050  1.0  -0.1398
  C  C383  1  0.191870  0.953780  0.246340  1.0  0.1003
  C  C384  1  0.220700  0.985100  0.283260  1.0  -0.1733
  C  C385  1  0.249180  0.028390  0.267230  1.0  -0.0686
  C  C386  1  0.163010  0.906800  0.264330  1.0  -0.026
  C  C387  1  0.181020  0.887180  0.297290  1.0  -0.1338
  C  C388  1  0.475330  0.053460  0.529780  1.0  0.6646
  C  C389  1  0.459530  0.084740  0.547730  1.0  -0.1381
  C  C390  1  0.456800  0.113190  0.510020  1.0  -0.0703
  C  C391  1  0.442170  0.141430  0.526380  1.0  -0.1387
  C  C392  1  0.428570  0.141460  0.579670  1.0  0.099
  C  C393  1  0.431060  0.112630  0.616590  1.0  -0.1754
  C  C394  1  0.445870  0.084150  0.600560  1.0  -0.0697
  C  C395  1  0.410450  0.170320  0.597660  1.0  -0.0288
  C  C396  1  0.372820  0.152310  0.630620  1.0  -0.1307
  C  C397  1  0.142000  0.386790  0.863110  1.0  0.6646
  C  C398  1  0.126200  0.418070  0.881060  1.0  -0.1381
  C  C399  1  0.123470  0.446520  0.843350  1.0  -0.0703
  C  C400  1  0.108840  0.474760  0.859710  1.0  -0.1387
  C  C401  1  0.095240  0.474790  0.913000  1.0  0.0991
  C  C402  1  0.097730  0.445960  0.949920  1.0  -0.1754
  C  C403  1  0.112540  0.417480  0.933890  1.0  -0.0697
  C  C404  1  0.077120  0.503650  0.930990  1.0  -0.0288
  C  C405  1  0.039490  0.485640  0.963950  1.0  -0.1307
  C  C406  1  0.808660  0.720130  0.196450  1.0  0.6646
  C  C407  1  0.792860  0.751410  0.214400  1.0  -0.1381
  C  C408  1  0.790130  0.779860  0.176690  1.0  -0.0703
  C  C409  1  0.775500  0.808100  0.193050  1.0  -0.1387
  C  C410  1  0.761900  0.808130  0.246340  1.0  0.099
  C  C411  1  0.764390  0.779300  0.283260  1.0  -0.1754
  C  C412  1  0.779200  0.750820  0.267230  1.0  -0.0697
  C  C413  1  0.743780  0.836990  0.264330  1.0  -0.0288
  C  C414  1  0.706150  0.818980  0.297290  1.0  -0.1319
  C  C415  1  0.475330  0.421870  0.529780  1.0  0.6652
  C  C416  1  0.459530  0.374790  0.547730  1.0  -0.1362
  C  C417  1  0.456800  0.343610  0.510020  1.0  -0.0712
  C  C418  1  0.442170  0.300740  0.526380  1.0  -0.1397
  C  C419  1  0.428570  0.287110  0.579670  1.0  0.1003
  C  C420  1  0.431060  0.318430  0.616590  1.0  -0.1735
  C  C421  1  0.445870  0.361720  0.600560  1.0  -0.0697
  C  C422  1  0.410450  0.240130  0.597660  1.0  -0.0267
  C  C423  1  0.372820  0.220510  0.630620  1.0  -0.1357
  C  C424  1  0.142000  0.755200  0.863110  1.0  0.6652
  C  C425  1  0.126200  0.708120  0.881060  1.0  -0.1362
  C  C426  1  0.123470  0.676940  0.843350  1.0  -0.0712
  C  C427  1  0.108840  0.634070  0.859710  1.0  -0.1397
  C  C428  1  0.095240  0.620440  0.913000  1.0  0.1003
  C  C429  1  0.097730  0.651760  0.949920  1.0  -0.1735
  C  C430  1  0.112540  0.695050  0.933890  1.0  -0.0697
  C  C431  1  0.077120  0.573460  0.930990  1.0  -0.0267
  C  C432  1  0.039490  0.553840  0.963950  1.0  -0.1357
  C  C433  1  0.808660  0.088540  0.196450  1.0  0.6652
  C  C434  1  0.792860  0.041460  0.214400  1.0  -0.1362
  C  C435  1  0.790130  0.010280  0.176690  1.0  -0.0712
  C  C436  1  0.775500  0.967410  0.193050  1.0  -0.1397
  C  C437  1  0.761900  0.953780  0.246340  1.0  0.1003
  C  C438  1  0.764390  0.985100  0.283260  1.0  -0.1735
  C  C439  1  0.779200  0.028390  0.267230  1.0  -0.0697
  C  C440  1  0.743780  0.906800  0.264330  1.0  -0.0267
  C  C441  1  0.706150  0.887180  0.297290  1.0  -0.1331
  C  C442  1  0.578130  0.053460  0.529780  1.0  0.6648
  C  C443  1  0.625210  0.084740  0.547730  1.0  -0.1372
  C  C444  1  0.656390  0.113190  0.510020  1.0  -0.0703
  C  C445  1  0.699260  0.141430  0.526380  1.0  -0.1388
  C  C446  1  0.712890  0.141460  0.579670  1.0  0.0992
  C  C447  1  0.681570  0.112630  0.616590  1.0  -0.1738
  C  C448  1  0.638280  0.084150  0.600560  1.0  -0.0697
  C  C449  1  0.759870  0.170320  0.597660  1.0  -0.029
  C  C450  1  0.779490  0.152310  0.630620  1.0  -0.1293
  C  C451  1  0.244800  0.386790  0.863110  1.0  0.6648
  C  C452  1  0.291880  0.418070  0.881060  1.0  -0.1372
  C  C453  1  0.323060  0.446520  0.843350  1.0  -0.0703
  C  C454  1  0.365930  0.474760  0.859710  1.0  -0.1388
  C  C455  1  0.379560  0.474790  0.913000  1.0  0.0993
  C  C456  1  0.348240  0.445960  0.949920  1.0  -0.1738
  C  C457  1  0.304950  0.417480  0.933890  1.0  -0.0697
  C  C458  1  0.426540  0.503650  0.930990  1.0  -0.029
  C  C459  1  0.446160  0.485640  0.963950  1.0  -0.1293
  C  C460  1  0.911460  0.720130  0.196450  1.0  0.6648
  C  C461  1  0.958540  0.751410  0.214400  1.0  -0.1372
  C  C462  1  0.989720  0.779860  0.176690  1.0  -0.0703
  C  C463  1  0.032590  0.808100  0.193050  1.0  -0.1388
  C  C464  1  0.046220  0.808130  0.246340  1.0  0.0992
  C  C465  1  0.014900  0.779300  0.283260  1.0  -0.1738
  C  C466  1  0.971610  0.750820  0.267230  1.0  -0.0697
  C  C467  1  0.093200  0.836990  0.264330  1.0  -0.029
  C  C468  1  0.112820  0.818980  0.297290  1.0  -0.1293
  C  C469  1  0.946540  0.524670  0.529780  1.0  0.6646
  C  C470  1  0.915260  0.540470  0.547730  1.0  -0.1381
  C  C471  1  0.886810  0.543200  0.510020  1.0  -0.0702
  C  C472  1  0.858570  0.557830  0.526380  1.0  -0.1387
  C  C473  1  0.858540  0.571430  0.579670  1.0  0.0992
  C  C474  1  0.887370  0.568940  0.616590  1.0  -0.1727
  C  C475  1  0.915850  0.554130  0.600560  1.0  -0.069
  C  C476  1  0.829680  0.589550  0.597660  1.0  -0.0254
  C  C477  1  0.847690  0.627180  0.630620  1.0  -0.1338
  C  C478  1  0.613210  0.858000  0.863110  1.0  0.6646
  C  C479  1  0.581930  0.873800  0.881060  1.0  -0.1381
  C  C480  1  0.553480  0.876530  0.843350  1.0  -0.0702
  C  C481  1  0.525240  0.891160  0.859710  1.0  -0.1386
  C  C482  1  0.525210  0.904760  0.913000  1.0  0.0992
  C  C483  1  0.554040  0.902270  0.949920  1.0  -0.1727
  C  C484  1  0.582520  0.887460  0.933890  1.0  -0.069
  C  C485  1  0.496350  0.922880  0.930990  1.0  -0.0254
  C  C486  1  0.514360  0.960510  0.963950  1.0  -0.1338
  C  C487  1  0.279870  0.191340  0.196450  1.0  0.6646
  C  C488  1  0.248590  0.207140  0.214400  1.0  -0.1381
  C  C489  1  0.220140  0.209870  0.176690  1.0  -0.0702
  C  C490  1  0.191900  0.224500  0.193050  1.0  -0.1387
  C  C491  1  0.191870  0.238100  0.246340  1.0  0.0992
  C  C492  1  0.220700  0.235610  0.283260  1.0  -0.1727
  C  C493  1  0.249180  0.220800  0.267230  1.0  -0.069
  C  C494  1  0.163010  0.256220  0.264330  1.0  -0.0254
  C  C495  1  0.181020  0.293850  0.297290  1.0  -0.1359
  C  C496  1  0.421870  0.475330  0.470220  1.0  0.6649
  C  C497  1  0.374790  0.459530  0.452270  1.0  -0.1385
  C  C498  1  0.343610  0.456800  0.489980  1.0  -0.073
  C  C499  1  0.300740  0.442170  0.473620  1.0  -0.1399
  C  C500  1  0.287110  0.428570  0.420330  1.0  0.0995
  C  C501  1  0.318430  0.431060  0.383410  1.0  -0.1706
  C  C502  1  0.361720  0.445870  0.399440  1.0  -0.0697
  C  C503  1  0.240130  0.410450  0.402340  1.0  -0.0257
  C  C504  1  0.220510  0.372820  0.369380  1.0  -0.1357
  C  C505  1  0.088540  0.808660  0.803550  1.0  0.6649
  C  C506  1  0.041460  0.792860  0.785600  1.0  -0.1385
  C  C507  1  0.010280  0.790130  0.823310  1.0  -0.073
  C  C508  1  0.967410  0.775500  0.806950  1.0  -0.1399
  C  C509  1  0.953780  0.761900  0.753660  1.0  0.0995
  C  C510  1  0.985100  0.764390  0.716740  1.0  -0.1706
  C  C511  1  0.028390  0.779200  0.732770  1.0  -0.0697
  C  C512  1  0.906800  0.743780  0.735670  1.0  -0.0257
  C  C513  1  0.887180  0.706150  0.702710  1.0  -0.1331
  C  C514  1  0.755200  0.142000  0.136890  1.0  0.6649
  C  C515  1  0.708120  0.126200  0.118940  1.0  -0.1385
  C  C516  1  0.676940  0.123470  0.156650  1.0  -0.073
  C  C517  1  0.634070  0.108840  0.140290  1.0  -0.1399
  C  C518  1  0.620440  0.095240  0.087000  1.0  0.0995
  C  C519  1  0.651760  0.097730  0.050080  1.0  -0.1706
  C  C520  1  0.695050  0.112540  0.066110  1.0  -0.0697
  C  C521  1  0.573460  0.077120  0.069010  1.0  -0.0257
  C  C522  1  0.553840  0.039490  0.036050  1.0  -0.1357
  C  C523  1  0.053460  0.578130  0.470220  1.0  0.6649
  C  C524  1  0.084740  0.625210  0.452270  1.0  -0.136
  C  C525  1  0.113190  0.656390  0.489980  1.0  -0.0731
  C  C526  1  0.141430  0.699260  0.473620  1.0  -0.1404
  C  C527  1  0.141460  0.712890  0.420330  1.0  0.1003
  C  C528  1  0.112630  0.681570  0.383410  1.0  -0.1721
  C  C529  1  0.084150  0.638280  0.399440  1.0  -0.0693
  C  C530  1  0.170320  0.759870  0.402340  1.0  -0.0274
  C  C531  1  0.152310  0.779490  0.369380  1.0  -0.1324
  C  C532  1  0.720130  0.911460  0.803550  1.0  0.6649
  C  C533  1  0.751410  0.958540  0.785600  1.0  -0.136
  C  C534  1  0.779860  0.989720  0.823310  1.0  -0.0731
  C  C535  1  0.808100  0.032590  0.806950  1.0  -0.1404
  C  C536  1  0.808130  0.046220  0.753660  1.0  0.1003
  C  C537  1  0.779300  0.014900  0.716740  1.0  -0.1721
  C  C538  1  0.750820  0.971610  0.732770  1.0  -0.0693
  C  C539  1  0.836990  0.093200  0.735670  1.0  -0.0274
  C  C540  1  0.818980  0.112820  0.702710  1.0  -0.1324
  C  C541  1  0.386790  0.244800  0.136890  1.0  0.6649
  C  C542  1  0.418070  0.291880  0.118940  1.0  -0.136
  C  C543  1  0.446520  0.323060  0.156650  1.0  -0.0731
  C  C544  1  0.474760  0.365930  0.140290  1.0  -0.1404
  C  C545  1  0.474790  0.379560  0.087000  1.0  0.1004
  C  C546  1  0.445960  0.348240  0.050080  1.0  -0.1721
  C  C547  1  0.417480  0.304950  0.066110  1.0  -0.0693
  C  C548  1  0.503650  0.426540  0.069010  1.0  -0.0273
  C  C549  1  0.485640  0.446160  0.036050  1.0  -0.1324
  C  C550  1  0.524670  0.946540  0.470220  1.0  0.6651
  C  C551  1  0.540470  0.915260  0.452270  1.0  -0.137
  C  C552  1  0.543200  0.886810  0.489980  1.0  -0.0736
  C  C553  1  0.557830  0.858570  0.473620  1.0  -0.1398
  C  C554  1  0.571430  0.858540  0.420330  1.0  0.0994
  C  C555  1  0.568940  0.887370  0.383410  1.0  -0.1723
  C  C556  1  0.554130  0.915850  0.399440  1.0  -0.0699
  C  C557  1  0.589550  0.829680  0.402340  1.0  -0.028
  C  C558  1  0.627180  0.847690  0.369380  1.0  -0.1286
  C  C559  1  0.191340  0.279870  0.803550  1.0  0.6651
  C  C560  1  0.207140  0.248590  0.785600  1.0  -0.137
  C  C561  1  0.209870  0.220140  0.823310  1.0  -0.0736
  C  C562  1  0.224500  0.191900  0.806950  1.0  -0.1398
  C  C563  1  0.238100  0.191870  0.753660  1.0  0.0994
  C  C564  1  0.235610  0.220700  0.716740  1.0  -0.1723
  C  C565  1  0.220800  0.249180  0.732770  1.0  -0.0699
  C  C566  1  0.256220  0.163010  0.735670  1.0  -0.028
  C  C567  1  0.293850  0.181020  0.702710  1.0  -0.1301
  C  C568  1  0.858000  0.613210  0.136890  1.0  0.6651
  C  C569  1  0.873800  0.581930  0.118940  1.0  -0.137
  C  C570  1  0.876530  0.553480  0.156650  1.0  -0.0736
  C  C571  1  0.891160  0.525240  0.140290  1.0  -0.1398
  C  C572  1  0.904760  0.525210  0.087000  1.0  0.0994
  C  C573  1  0.902270  0.554040  0.050080  1.0  -0.1723
  C  C574  1  0.887460  0.582520  0.066110  1.0  -0.0699
  C  C575  1  0.922880  0.496350  0.069010  1.0  -0.028
  C  C576  1  0.960510  0.514360  0.036050  1.0  -0.1286
  C  C577  1  0.646720  0.823360  0.350530  1.0  0.001
  C  C578  1  0.570900  0.785450  0.419140  1.0  0.1914
  C  C579  1  0.493370  0.746690  0.426600  1.0  -0.017
  C  C580  1  0.313390  0.156690  0.683860  1.0  0.001
  C  C581  1  0.237570  0.118780  0.752470  1.0  0.1914
  C  C582  1  0.160040  0.080020  0.759930  1.0  -0.017
  C  C583  1  0.980050  0.490030  0.017200  1.0  0.0009
  C  C584  1  0.904230  0.452120  0.085810  1.0  0.1914
  C  C585  1  0.826700  0.413350  0.093270  1.0  -0.017
  C  C586  1  0.176640  0.823360  0.350530  1.0  1e-04
  C  C587  1  0.214550  0.785450  0.419140  1.0  0.1918
  C  C588  1  0.253310  0.746690  0.426600  1.0  -0.0156
  C  C589  1  0.843310  0.156690  0.683860  1.0  1e-04
  C  C590  1  0.881220  0.118780  0.752470  1.0  0.1918
  C  C591  1  0.919980  0.080020  0.759930  1.0  -0.0156
  C  C592  1  0.509970  0.490030  0.017200  1.0  0.0
  C  C593  1  0.547880  0.452120  0.085810  1.0  0.1914
  C  C594  1  0.586650  0.413350  0.093270  1.0  -0.0139
  C  C595  1  0.176640  0.353280  0.350530  1.0  0.0023
  C  C596  1  0.214550  0.429100  0.419140  1.0  0.1915
  C  C597  1  0.253310  0.506630  0.426600  1.0  -0.0139
  C  C598  1  0.843310  0.686610  0.683860  1.0  0.0023
  C  C599  1  0.881220  0.762430  0.752470  1.0  0.1915
  C  C600  1  0.919980  0.839960  0.759930  1.0  -0.0139
  C  C601  1  0.509970  0.019950  0.017200  1.0  0.0022
  C  C602  1  0.547880  0.095770  0.085810  1.0  0.1915
  C  C603  1  0.586650  0.173300  0.093270  1.0  -0.0139
  C  C604  1  0.823360  0.646720  0.649470  1.0  0.0022
  C  C605  1  0.785450  0.570900  0.580860  1.0  0.1922
  C  C606  1  0.746690  0.493370  0.573400  1.0  -0.0133
  C  C607  1  0.490030  0.980050  0.982800  1.0  0.0022
  C  C608  1  0.452120  0.904230  0.914190  1.0  0.1922
  C  C609  1  0.413350  0.826700  0.906730  1.0  -0.0134
  C  C610  1  0.156690  0.313390  0.316140  1.0  0.0022
  C  C611  1  0.118780  0.237570  0.247530  1.0  0.1922
  C  C612  1  0.080020  0.160040  0.240070  1.0  -0.0133
  C  C613  1  0.823360  0.176640  0.649470  1.0  -0.0005
  C  C614  1  0.785450  0.214550  0.580860  1.0  0.1917
  C  C615  1  0.746690  0.253310  0.573400  1.0  -0.0177
  C  C616  1  0.490030  0.509970  0.982800  1.0  -0.0005
  C  C617  1  0.452120  0.547880  0.914190  1.0  0.1913
  C  C618  1  0.413350  0.586650  0.906730  1.0  -0.0157
  C  C619  1  0.156690  0.843310  0.316140  1.0  -0.0005
  C  C620  1  0.118780  0.881220  0.247530  1.0  0.1917
  C  C621  1  0.080020  0.919980  0.240070  1.0  -0.0177
  C  C622  1  0.353280  0.176640  0.649470  1.0  0.0002
  C  C623  1  0.429100  0.214550  0.580860  1.0  0.1925
  C  C624  1  0.506630  0.253310  0.573400  1.0  -0.0171
  C  C625  1  0.019950  0.509970  0.982800  1.0  0.0002
  C  C626  1  0.095770  0.547880  0.914190  1.0  0.1925
  C  C627  1  0.173300  0.586650  0.906730  1.0  -0.0171
  C  C628  1  0.686610  0.843310  0.316140  1.0  0.0002
  C  C629  1  0.762430  0.881220  0.247530  1.0  0.1925
  C  C630  1  0.839960  0.919980  0.240070  1.0  -0.0171
  O  O631  1  0.526370  0.552840  0.434310  1.0  -0.5651
  O  O632  1  0.511360  0.568100  0.519200  1.0  -0.5674
  O  O633  1  0.193040  0.886170  0.767640  1.0  -0.5651
  O  O634  1  0.178030  0.901430  0.852530  1.0  -0.5674
  O  O635  1  0.859700  0.219510  0.100980  1.0  -0.5651
  O  O636  1  0.844690  0.234770  0.185870  1.0  -0.5674
  O  O637  1  0.447160  0.973530  0.434310  1.0  -0.5644
  O  O638  1  0.431900  0.943260  0.519200  1.0  -0.5677
  O  O639  1  0.113830  0.306860  0.767640  1.0  -0.5644
  O  O640  1  0.098570  0.276590  0.852530  1.0  -0.568
  O  O641  1  0.780490  0.640200  0.100980  1.0  -0.5651
  O  O642  1  0.765230  0.609930  0.185870  1.0  -0.5677
  O  O643  1  0.026470  0.473630  0.434310  1.0  -0.5648
  O  O644  1  0.056740  0.488640  0.519200  1.0  -0.567
  O  O645  1  0.693140  0.806960  0.767640  1.0  -0.5648
  O  O646  1  0.723410  0.821970  0.852530  1.0  -0.5668
  O  O647  1  0.359800  0.140300  0.100980  1.0  -0.564
  O  O648  1  0.390070  0.155310  0.185870  1.0  -0.567
  O  O649  1  0.552840  0.526370  0.565690  1.0  -0.5632
  O  O650  1  0.568100  0.511360  0.480800  1.0  -0.5676
  O  O651  1  0.219510  0.859700  0.899020  1.0  -0.5632
  O  O652  1  0.234770  0.844690  0.814130  1.0  -0.5676
  O  O653  1  0.886170  0.193040  0.232360  1.0  -0.5632
  O  O654  1  0.901430  0.178030  0.147470  1.0  -0.5676
  O  O655  1  0.973530  0.447160  0.565690  1.0  -0.5617
  O  O656  1  0.943260  0.431900  0.480800  1.0  -0.5678
  O  O657  1  0.640200  0.780490  0.899020  1.0  -0.5629
  O  O658  1  0.609930  0.765230  0.814130  1.0  -0.5678
  O  O659  1  0.306860  0.113830  0.232360  1.0  -0.5617
  O  O660  1  0.276590  0.098570  0.147470  1.0  -0.5682
  O  O661  1  0.473630  0.026470  0.565690  1.0  -0.5636
  O  O662  1  0.488640  0.056740  0.480800  1.0  -0.5688
  O  O663  1  0.140300  0.359800  0.899020  1.0  -0.5628
  O  O664  1  0.155310  0.390070  0.814130  1.0  -0.5688
  O  O665  1  0.806960  0.693140  0.232360  1.0  -0.5636
  O  O666  1  0.821970  0.723410  0.147470  1.0  -0.5677
  O  O667  1  0.473630  0.447160  0.565690  1.0  -0.5638
  O  O668  1  0.488640  0.431900  0.480800  1.0  -0.5674
  O  O669  1  0.140300  0.780490  0.899020  1.0  -0.5639
  O  O670  1  0.155310  0.765230  0.814130  1.0  -0.5674
  O  O671  1  0.806960  0.113830  0.232360  1.0  -0.5638
  O  O672  1  0.821970  0.098570  0.147470  1.0  -0.5674
  O  O673  1  0.552840  0.026470  0.565690  1.0  -0.5628
  O  O674  1  0.568100  0.056740  0.480800  1.0  -0.568
  O  O675  1  0.219510  0.359800  0.899020  1.0  -0.5637
  O  O676  1  0.234770  0.390070  0.814130  1.0  -0.568
  O  O677  1  0.886170  0.693140  0.232360  1.0  -0.5628
  O  O678  1  0.901430  0.723410  0.147470  1.0  -0.5691
  O  O679  1  0.973530  0.526370  0.565690  1.0  -0.5629
  O  O680  1  0.943260  0.511360  0.480800  1.0  -0.5682
  O  O681  1  0.640200  0.859700  0.899020  1.0  -0.5618
  O  O682  1  0.609930  0.844690  0.814130  1.0  -0.5682
  O  O683  1  0.306860  0.193040  0.232360  1.0  -0.5629
  O  O684  1  0.276590  0.178030  0.147470  1.0  -0.568
  O  O685  1  0.447160  0.473630  0.434310  1.0  -0.5648
  O  O686  1  0.431900  0.488640  0.519200  1.0  -0.5681
  O  O687  1  0.113830  0.806960  0.767640  1.0  -0.5648
  O  O688  1  0.098570  0.821970  0.852530  1.0  -0.5681
  O  O689  1  0.780490  0.140300  0.100980  1.0  -0.5648
  O  O690  1  0.765230  0.155310  0.185870  1.0  -0.5681
  O  O691  1  0.026470  0.552840  0.434310  1.0  -0.5648
  O  O692  1  0.056740  0.568100  0.519200  1.0  -0.5665
  O  O693  1  0.693140  0.886170  0.767640  1.0  -0.5648
  O  O694  1  0.723410  0.901430  0.852530  1.0  -0.5668
  O  O695  1  0.359800  0.219510  0.100980  1.0  -0.5656
  O  O696  1  0.390070  0.234770  0.185870  1.0  -0.5665
  O  O697  1  0.526370  0.973530  0.434310  1.0  -0.5653
  O  O698  1  0.511360  0.943260  0.519200  1.0  -0.5683
  O  O699  1  0.193040  0.306860  0.767640  1.0  -0.5653
  O  O700  1  0.178030  0.276590  0.852530  1.0  -0.5677
  O  O701  1  0.859700  0.640200  0.100980  1.0  -0.5644
  O  O702  1  0.844690  0.609930  0.185870  1.0  -0.5683
  O  O703  1  0.533650  0.766830  0.452460  1.0  -0.2547
  O  O704  1  0.200320  0.100160  0.785790  1.0  -0.2547
  O  O705  1  0.866980  0.433490  0.119130  1.0  -0.2547
  O  O706  1  0.233170  0.766830  0.452460  1.0  -0.2555
  O  O707  1  0.899840  0.100160  0.785790  1.0  -0.2555
  O  O708  1  0.566510  0.433490  0.119130  1.0  -0.2554
  O  O709  1  0.233170  0.466350  0.452460  1.0  -0.2558
  O  O710  1  0.899840  0.799680  0.785790  1.0  -0.2558
  O  O711  1  0.566510  0.133020  0.119130  1.0  -0.2558
  O  O712  1  0.766830  0.533650  0.547540  1.0  -0.254
  O  O713  1  0.433490  0.866980  0.880870  1.0  -0.2541
  O  O714  1  0.100160  0.200320  0.214210  1.0  -0.254
  O  O715  1  0.766830  0.233170  0.547540  1.0  -0.251
  O  O716  1  0.433490  0.566510  0.880870  1.0  -0.251
  O  O717  1  0.100160  0.899840  0.214210  1.0  -0.251
  O  O718  1  0.466350  0.233170  0.547540  1.0  -0.2516
  O  O719  1  0.133020  0.566510  0.880870  1.0  -0.2516
  O  O720  1  0.799680  0.899840  0.214210  1.0  -0.2516
