# generated using pymatgen
data_CuH15C22O5
_symmetry_space_group_name_H-M   'P 1'
_cell_length_a   35.29650000
_cell_length_b   35.29650000
_cell_length_c   20.99260000
_cell_angle_alpha   90.00000000
_cell_angle_beta   90.00000000
_cell_angle_gamma   120.00000000
_symmetry_Int_Tables_number   1
_chemical_formula_structural   CuH15C22O5
_chemical_formula_sum   'Cu18 H270 C396 O90'
_cell_volume   22649.57973988
_cell_formula_units_Z   18
loop_
 _symmetry_equiv_pos_site_id
 _symmetry_equiv_pos_as_xyz
  1  'x, y, z'
loop_
 _atom_site_type_symbol
 _atom_site_label
 _atom_site_symmetry_multiplicity
 _atom_site_fract_x
 _atom_site_fract_y
 _atom_site_fract_z
 _atom_site_occupancy
 _atom_site_charge
  Cu  Cu1  1  0.319310  0.159650  0.107280  1.0  0.8975
  Cu  Cu2  1  0.985980  0.492990  0.440610  1.0  0.8972
  Cu  Cu3  1  0.652640  0.826320  0.773950  1.0  0.8975
  Cu  Cu4  1  0.840340  0.159660  0.107280  1.0  0.8949
  Cu  Cu5  1  0.507010  0.492990  0.440610  1.0  0.89
  Cu  Cu6  1  0.173680  0.826320  0.773950  1.0  0.8949
  Cu  Cu7  1  0.840340  0.680690  0.107280  1.0  0.8965
  Cu  Cu8  1  0.507010  0.014020  0.440610  1.0  0.8961
  Cu  Cu9  1  0.173680  0.347360  0.773950  1.0  0.8964
  Cu  Cu10  1  0.159660  0.319310  0.892720  1.0  0.8963
  Cu  Cu11  1  0.826320  0.652640  0.226050  1.0  0.8963
  Cu  Cu12  1  0.492990  0.985980  0.559390  1.0  0.896
  Cu  Cu13  1  0.159660  0.840340  0.892720  1.0  0.8947
  Cu  Cu14  1  0.826320  0.173680  0.226050  1.0  0.8947
  Cu  Cu15  1  0.492990  0.507010  0.559390  1.0  0.8898
  Cu  Cu16  1  0.680690  0.840340  0.892720  1.0  0.8972
  Cu  Cu17  1  0.347360  0.173680  0.226050  1.0  0.8971
  Cu  Cu18  1  0.014020  0.507010  0.559390  1.0  0.8968
  H  H19  1  0.221100  0.199500  0.120400  1.0  0.1088
  H  H20  1  0.174400  0.225600  0.146400  1.0  0.1059
  H  H21  1  0.215400  0.241800  0.326900  1.0  0.1107
  H  H22  1  0.262400  0.216300  0.301200  1.0  0.1112
  H  H23  1  0.209200  0.305400  0.306900  1.0  0.111
  H  H24  1  0.057400  0.159300  0.260900  1.0  0.0777
  H  H25  1  0.039800  0.124000  0.160200  1.0  0.115
  H  H26  1  0.887770  0.532830  0.453730  1.0  0.1089
  H  H27  1  0.841070  0.558930  0.479730  1.0  0.1059
  H  H28  1  0.882070  0.575130  0.660230  1.0  0.1107
  H  H29  1  0.929070  0.549630  0.634530  1.0  0.11
  H  H30  1  0.875870  0.638730  0.640230  1.0  0.111
  H  H31  1  0.724070  0.492630  0.594230  1.0  0.0778
  H  H32  1  0.706470  0.457330  0.493530  1.0  0.115
  H  H33  1  0.554430  0.866170  0.787070  1.0  0.1088
  H  H34  1  0.507730  0.892270  0.813070  1.0  0.1079
  H  H35  1  0.548730  0.908470  0.993570  1.0  0.1107
  H  H36  1  0.595730  0.882970  0.967870  1.0  0.1112
  H  H37  1  0.542530  0.972070  0.973570  1.0  0.111
  H  H38  1  0.390730  0.825970  0.927570  1.0  0.0798
  H  H39  1  0.373130  0.790670  0.826870  1.0  0.115
  H  H40  1  0.800500  0.021600  0.120400  1.0  0.1094
  H  H41  1  0.774400  0.948800  0.146400  1.0  0.107
  H  H42  1  0.758200  0.973600  0.326900  1.0  0.1111
  H  H43  1  0.783700  0.046100  0.301200  1.0  0.1108
  H  H44  1  0.694600  0.903800  0.306900  1.0  0.1104
  H  H45  1  0.840700  0.898100  0.260900  1.0  0.0792
  H  H46  1  0.876000  0.915800  0.160200  1.0  0.117
  H  H47  1  0.467170  0.354930  0.453730  1.0  0.1094
  H  H48  1  0.441070  0.282130  0.479730  1.0  0.107
  H  H49  1  0.424870  0.306930  0.660230  1.0  0.1111
  H  H50  1  0.450370  0.379430  0.634530  1.0  0.1108
  H  H51  1  0.361270  0.237130  0.640230  1.0  0.1104
  H  H52  1  0.507370  0.231430  0.594230  1.0  0.0798
  H  H53  1  0.542670  0.249130  0.493530  1.0  0.117
  H  H54  1  0.133830  0.688270  0.787070  1.0  0.1094
  H  H55  1  0.107730  0.615470  0.813070  1.0  0.1051
  H  H56  1  0.091530  0.640270  0.993570  1.0  0.1111
  H  H57  1  0.117030  0.712770  0.967870  1.0  0.1108
  H  H58  1  0.027930  0.570470  0.973570  1.0  0.1104
  H  H59  1  0.174030  0.564770  0.927570  1.0  0.0816
  H  H60  1  0.209330  0.582470  0.826870  1.0  0.117
  H  H61  1  0.978400  0.778900  0.120400  1.0  0.1096
  H  H62  1  0.051200  0.825600  0.146400  1.0  0.1054
  H  H63  1  0.026400  0.784600  0.326900  1.0  0.1117
  H  H64  1  0.953900  0.737600  0.301200  1.0  0.1095
  H  H65  1  0.096200  0.790800  0.306900  1.0  0.1115
  H  H66  1  0.101900  0.942600  0.260900  1.0  0.0789
  H  H67  1  0.084200  0.960200  0.160200  1.0  0.1162
  H  H68  1  0.645070  0.112230  0.453730  1.0  0.1096
  H  H69  1  0.717870  0.158930  0.479730  1.0  0.1054
  H  H70  1  0.693070  0.117930  0.660230  1.0  0.1117
  H  H71  1  0.620570  0.070930  0.634530  1.0  0.1108
  H  H72  1  0.762870  0.124130  0.640230  1.0  0.1115
  H  H73  1  0.768570  0.275930  0.594230  1.0  0.0811
  H  H74  1  0.750870  0.293530  0.493530  1.0  0.1162
  H  H75  1  0.311730  0.445570  0.787070  1.0  0.1096
  H  H76  1  0.384530  0.492270  0.813070  1.0  0.1054
  H  H77  1  0.359730  0.451270  0.993570  1.0  0.1117
  H  H78  1  0.287230  0.404270  0.967870  1.0  0.1095
  H  H79  1  0.429530  0.457470  0.973570  1.0  0.1114
  H  H80  1  0.435230  0.609270  0.927570  1.0  0.0811
  H  H81  1  0.417530  0.626870  0.826870  1.0  0.1162
  H  H82  1  0.199500  0.221100  0.879600  1.0  0.1096
  H  H83  1  0.225600  0.174400  0.853600  1.0  0.1052
  H  H84  1  0.241800  0.215400  0.673100  1.0  0.1109
  H  H85  1  0.216300  0.262400  0.698800  1.0  0.1104
  H  H86  1  0.305400  0.209200  0.693100  1.0  0.1109
  H  H87  1  0.159300  0.057400  0.739100  1.0  0.0786
  H  H88  1  0.124000  0.039800  0.839800  1.0  0.1182
  H  H89  1  0.866170  0.554430  0.212930  1.0  0.1096
  H  H90  1  0.892270  0.507730  0.186930  1.0  0.1074
  H  H91  1  0.908470  0.548730  0.006430  1.0  0.1109
  H  H92  1  0.882970  0.595730  0.032130  1.0  0.1105
  H  H93  1  0.972070  0.542530  0.026430  1.0  0.1109
  H  H94  1  0.825970  0.390730  0.072430  1.0  0.0811
  H  H95  1  0.790670  0.373130  0.173130  1.0  0.1182
  H  H96  1  0.532830  0.887770  0.546270  1.0  0.1096
  H  H97  1  0.558930  0.841070  0.520270  1.0  0.1052
  H  H98  1  0.575130  0.882070  0.339770  1.0  0.1109
  H  H99  1  0.549630  0.929070  0.365470  1.0  0.1089
  H  H100  1  0.638730  0.875870  0.359770  1.0  0.1109
  H  H101  1  0.492630  0.724070  0.405770  1.0  0.0787
  H  H102  1  0.457330  0.706470  0.506470  1.0  0.1182
  H  H103  1  0.021600  0.800500  0.879600  1.0  0.1089
  H  H104  1  0.948800  0.774400  0.853600  1.0  0.107
  H  H105  1  0.973600  0.758200  0.673100  1.0  0.1112
  H  H106  1  0.046100  0.783700  0.698800  1.0  0.1111
  H  H107  1  0.903800  0.694600  0.693100  1.0  0.111
  H  H108  1  0.898100  0.840700  0.739100  1.0  0.078
  H  H109  1  0.915800  0.876000  0.839800  1.0  0.1167
  H  H110  1  0.688270  0.133830  0.212930  1.0  0.1089
  H  H111  1  0.615470  0.107730  0.186930  1.0  0.105
  H  H112  1  0.640270  0.091530  0.006430  1.0  0.1112
  H  H113  1  0.712770  0.117030  0.032130  1.0  0.1111
  H  H114  1  0.570470  0.027930  0.026430  1.0  0.1111
  H  H115  1  0.564770  0.174030  0.072430  1.0  0.0795
  H  H116  1  0.582470  0.209330  0.173130  1.0  0.1167
  H  H117  1  0.354930  0.467170  0.546270  1.0  0.1089
  H  H118  1  0.282130  0.441070  0.520270  1.0  0.107
  H  H119  1  0.306930  0.424870  0.339770  1.0  0.1112
  H  H120  1  0.379430  0.450370  0.365470  1.0  0.1111
  H  H121  1  0.237130  0.361270  0.359770  1.0  0.111
  H  H122  1  0.231430  0.507370  0.405770  1.0  0.0788
  H  H123  1  0.249130  0.542670  0.506470  1.0  0.1167
  H  H124  1  0.778900  0.978400  0.879600  1.0  0.109
  H  H125  1  0.825600  0.051200  0.853600  1.0  0.1052
  H  H126  1  0.784600  0.026400  0.673100  1.0  0.111
  H  H127  1  0.737600  0.953900  0.698800  1.0  0.1087
  H  H128  1  0.790800  0.096200  0.693100  1.0  0.1102
  H  H129  1  0.942600  0.101900  0.739100  1.0  0.0797
  H  H130  1  0.960200  0.084200  0.839800  1.0  0.1179
  H  H131  1  0.445570  0.311730  0.212930  1.0  0.109
  H  H132  1  0.492270  0.384530  0.186930  1.0  0.1052
  H  H133  1  0.451270  0.359730  0.006430  1.0  0.111
  H  H134  1  0.404270  0.287230  0.032130  1.0  0.1087
  H  H135  1  0.457470  0.429530  0.026430  1.0  0.1101
  H  H136  1  0.609270  0.435230  0.072430  1.0  0.0818
  H  H137  1  0.626870  0.417530  0.173130  1.0  0.1179
  H  H138  1  0.112230  0.645070  0.546270  1.0  0.109
  H  H139  1  0.158930  0.717870  0.520270  1.0  0.1052
  H  H140  1  0.117930  0.693070  0.339770  1.0  0.111
  H  H141  1  0.070930  0.620570  0.365470  1.0  0.1103
  H  H142  1  0.124130  0.762870  0.359770  1.0  0.1102
  H  H143  1  0.275930  0.768570  0.405770  1.0  0.0818
  H  H144  1  0.293530  0.750870  0.506470  1.0  0.1179
  H  H145  1  0.778900  0.800500  0.879600  1.0  0.1088
  H  H146  1  0.825600  0.774400  0.853600  1.0  0.1055
  H  H147  1  0.784600  0.758200  0.673100  1.0  0.1105
  H  H148  1  0.737600  0.783700  0.698800  1.0  0.1109
  H  H149  1  0.790800  0.694600  0.693100  1.0  0.1108
  H  H150  1  0.942600  0.840700  0.739100  1.0  0.0779
  H  H151  1  0.960200  0.876000  0.839800  1.0  0.1158
  H  H152  1  0.445570  0.133830  0.212930  1.0  0.1088
  H  H153  1  0.492270  0.107730  0.186930  1.0  0.1078
  H  H154  1  0.451270  0.091530  0.006430  1.0  0.1105
  H  H155  1  0.404270  0.117030  0.032130  1.0  0.1109
  H  H156  1  0.457470  0.027930  0.026430  1.0  0.1108
  H  H157  1  0.609270  0.174030  0.072430  1.0  0.0795
  H  H158  1  0.626870  0.209330  0.173130  1.0  0.1158
  H  H159  1  0.112230  0.467170  0.546270  1.0  0.1088
  H  H160  1  0.158930  0.441070  0.520270  1.0  0.1055
  H  H161  1  0.117930  0.424870  0.339770  1.0  0.1105
  H  H162  1  0.070930  0.450370  0.365470  1.0  0.1093
  H  H163  1  0.124130  0.361270  0.359770  1.0  0.1108
  H  H164  1  0.275930  0.507370  0.405770  1.0  0.0784
  H  H165  1  0.293530  0.542670  0.506470  1.0  0.1158
  H  H166  1  0.199500  0.978400  0.879600  1.0  0.1091
  H  H167  1  0.225600  0.051200  0.853600  1.0  0.1067
  H  H168  1  0.241800  0.026400  0.673100  1.0  0.1109
  H  H169  1  0.216300  0.953900  0.698800  1.0  0.1104
  H  H170  1  0.305400  0.096200  0.693100  1.0  0.1104
  H  H171  1  0.159300  0.101900  0.739100  1.0  0.0801
  H  H172  1  0.124000  0.084200  0.839800  1.0  0.1179
  H  H173  1  0.866170  0.311730  0.212930  1.0  0.1091
  H  H174  1  0.892270  0.384530  0.186930  1.0  0.1048
  H  H175  1  0.908470  0.359730  0.006430  1.0  0.1109
  H  H176  1  0.882970  0.287230  0.032130  1.0  0.1104
  H  H177  1  0.972070  0.429530  0.026430  1.0  0.1104
  H  H178  1  0.825970  0.435230  0.072430  1.0  0.082
  H  H179  1  0.790670  0.417530  0.173130  1.0  0.1179
  H  H180  1  0.532830  0.645070  0.546270  1.0  0.1091
  H  H181  1  0.558930  0.717870  0.520270  1.0  0.1067
  H  H182  1  0.575130  0.693070  0.339770  1.0  0.1109
  H  H183  1  0.549630  0.620570  0.365470  1.0  0.1104
  H  H184  1  0.638730  0.762870  0.359770  1.0  0.1104
  H  H185  1  0.492630  0.768570  0.405770  1.0  0.0808
  H  H186  1  0.457330  0.750870  0.506470  1.0  0.1179
  H  H187  1  0.021600  0.221100  0.879600  1.0  0.1097
  H  H188  1  0.948800  0.174400  0.853600  1.0  0.1052
  H  H189  1  0.973600  0.215400  0.673100  1.0  0.1108
  H  H190  1  0.046100  0.262400  0.698800  1.0  0.1091
  H  H191  1  0.903800  0.209200  0.693100  1.0  0.1107
  H  H192  1  0.898100  0.057400  0.739100  1.0  0.0792
  H  H193  1  0.915800  0.039800  0.839800  1.0  0.1183
  H  H194  1  0.688270  0.554430  0.212930  1.0  0.1097
  H  H195  1  0.615470  0.507730  0.186930  1.0  0.1052
  H  H196  1  0.640270  0.548730  0.006430  1.0  0.1108
  H  H197  1  0.712770  0.595730  0.032130  1.0  0.1091
  H  H198  1  0.570470  0.542530  0.026430  1.0  0.1107
  H  H199  1  0.564770  0.390730  0.072430  1.0  0.0815
  H  H200  1  0.582470  0.373130  0.173130  1.0  0.1183
  H  H201  1  0.354930  0.887770  0.546270  1.0  0.1097
  H  H202  1  0.282130  0.841070  0.520270  1.0  0.1052
  H  H203  1  0.306930  0.882070  0.339770  1.0  0.1108
  H  H204  1  0.379430  0.929070  0.365470  1.0  0.1106
  H  H205  1  0.237130  0.875870  0.359770  1.0  0.1107
  H  H206  1  0.231430  0.724070  0.405770  1.0  0.0815
  H  H207  1  0.249130  0.706470  0.506470  1.0  0.1183
  H  H208  1  0.800500  0.778900  0.120400  1.0  0.1098
  H  H209  1  0.774400  0.825600  0.146400  1.0  0.1052
  H  H210  1  0.758200  0.784600  0.326900  1.0  0.1111
  H  H211  1  0.783700  0.737600  0.301200  1.0  0.1106
  H  H212  1  0.694600  0.790800  0.306900  1.0  0.1111
  H  H213  1  0.840700  0.942600  0.260900  1.0  0.0789
  H  H214  1  0.876000  0.960200  0.160200  1.0  0.1183
  H  H215  1  0.467170  0.112230  0.453730  1.0  0.1098
  H  H216  1  0.441070  0.158930  0.479730  1.0  0.1052
  H  H217  1  0.424870  0.117930  0.660230  1.0  0.1111
  H  H218  1  0.450370  0.070930  0.634530  1.0  0.1095
  H  H219  1  0.361270  0.124130  0.640230  1.0  0.1111
  H  H220  1  0.507370  0.275930  0.594230  1.0  0.0789
  H  H221  1  0.542670  0.293530  0.493530  1.0  0.1183
  H  H222  1  0.133830  0.445570  0.787070  1.0  0.1098
  H  H223  1  0.107730  0.492270  0.813070  1.0  0.1073
  H  H224  1  0.091530  0.451270  0.993570  1.0  0.1111
  H  H225  1  0.117030  0.404270  0.967870  1.0  0.1106
  H  H226  1  0.027930  0.457470  0.973570  1.0  0.1112
  H  H227  1  0.174030  0.609270  0.927570  1.0  0.0809
  H  H228  1  0.209330  0.626870  0.826870  1.0  0.1183
  H  H229  1  0.978400  0.199500  0.120400  1.0  0.109
  H  H230  1  0.051200  0.225600  0.146400  1.0  0.1078
  H  H231  1  0.026400  0.241800  0.326900  1.0  0.111
  H  H232  1  0.953900  0.216300  0.301200  1.0  0.1111
  H  H233  1  0.096200  0.305400  0.306900  1.0  0.1108
  H  H234  1  0.101900  0.159300  0.260900  1.0  0.0777
  H  H235  1  0.084200  0.124000  0.160200  1.0  0.1146
  H  H236  1  0.645070  0.532830  0.453730  1.0  0.109
  H  H237  1  0.717870  0.558930  0.479730  1.0  0.1078
  H  H238  1  0.693070  0.575130  0.660230  1.0  0.111
  H  H239  1  0.620570  0.549630  0.634530  1.0  0.1111
  H  H240  1  0.762870  0.638730  0.640230  1.0  0.1108
  H  H241  1  0.768570  0.492630  0.594230  1.0  0.0779
  H  H242  1  0.750870  0.457330  0.493530  1.0  0.1146
  H  H243  1  0.311730  0.866170  0.787070  1.0  0.109
  H  H244  1  0.384530  0.892270  0.813070  1.0  0.1057
  H  H245  1  0.359730  0.908470  0.993570  1.0  0.1111
  H  H246  1  0.287230  0.882970  0.967870  1.0  0.1111
  H  H247  1  0.429530  0.972070  0.973570  1.0  0.1108
  H  H248  1  0.435230  0.825970  0.927570  1.0  0.08
  H  H249  1  0.417530  0.790670  0.826870  1.0  0.1146
  H  H250  1  0.221100  0.021600  0.120400  1.0  0.1092
  H  H251  1  0.174400  0.948800  0.146400  1.0  0.1053
  H  H252  1  0.215400  0.973600  0.326900  1.0  0.1112
  H  H253  1  0.262400  0.046100  0.301200  1.0  0.1094
  H  H254  1  0.209200  0.903800  0.306900  1.0  0.1105
  H  H255  1  0.057400  0.898100  0.260900  1.0  0.0798
  H  H256  1  0.039800  0.915800  0.160200  1.0  0.1159
  H  H257  1  0.887770  0.354930  0.453730  1.0  0.1092
  H  H258  1  0.841070  0.282130  0.479730  1.0  0.1053
  H  H259  1  0.882070  0.306930  0.660230  1.0  0.1112
  H  H260  1  0.929070  0.379430  0.634530  1.0  0.1107
  H  H261  1  0.875870  0.237130  0.640230  1.0  0.1105
  H  H262  1  0.724070  0.231430  0.594230  1.0  0.0819
  H  H263  1  0.706470  0.249130  0.493530  1.0  0.1159
  H  H264  1  0.554430  0.688270  0.787070  1.0  0.1092
  H  H265  1  0.507730  0.615470  0.813070  1.0  0.1053
  H  H266  1  0.548730  0.640270  0.993570  1.0  0.1112
  H  H267  1  0.595730  0.712770  0.967870  1.0  0.1094
  H  H268  1  0.542530  0.570470  0.973570  1.0  0.1103
  H  H269  1  0.390730  0.564770  0.927570  1.0  0.0819
  H  H270  1  0.373130  0.582470  0.826870  1.0  0.1159
  H  H271  1  0.047650  0.095300  0.209600  1.0  0.1217
  H  H272  1  0.714320  0.428630  0.542930  1.0  0.1215
  H  H273  1  0.380980  0.761970  0.876270  1.0  0.1204
  H  H274  1  0.904700  0.952350  0.209600  1.0  0.1243
  H  H275  1  0.571370  0.285680  0.542930  1.0  0.1239
  H  H276  1  0.238030  0.619020  0.876270  1.0  0.123
  H  H277  1  0.047650  0.952350  0.209600  1.0  0.1204
  H  H278  1  0.714320  0.285680  0.542930  1.0  0.1188
  H  H279  1  0.380980  0.619020  0.876270  1.0  0.1188
  H  H280  1  0.095300  0.047650  0.790400  1.0  0.1208
  H  H281  1  0.761970  0.380980  0.123730  1.0  0.1183
  H  H282  1  0.428630  0.714320  0.457070  1.0  0.1191
  H  H283  1  0.952350  0.904700  0.790400  1.0  0.1248
  H  H284  1  0.619020  0.238030  0.123730  1.0  0.1226
  H  H285  1  0.285680  0.571370  0.457070  1.0  0.1245
  H  H286  1  0.952350  0.047650  0.790400  1.0  0.124
  H  H287  1  0.619020  0.380980  0.123730  1.0  0.1224
  H  H288  1  0.285680  0.714320  0.457070  1.0  0.1217
  C  C289  1  0.278220  0.190020  0.192030  1.0  0.6778
  C  C290  1  0.246810  0.205460  0.208690  1.0  -0.1425
  C  C291  1  0.220160  0.208160  0.161980  1.0  -0.0523
  C  C292  1  0.192120  0.223860  0.177760  1.0  -0.1125
  C  C293  1  0.190210  0.236830  0.238800  1.0  0.0351
  C  C294  1  0.216620  0.233540  0.285180  1.0  -0.1748
  C  C295  1  0.244800  0.218080  0.269760  1.0  -0.0431
  C  C296  1  0.162490  0.256290  0.256630  1.0  -0.04
  C  C297  1  0.180180  0.293240  0.294020  1.0  -0.1104
  C  C298  1  0.944890  0.523350  0.525360  1.0  0.6777
  C  C299  1  0.913480  0.538790  0.542020  1.0  -0.1425
  C  C300  1  0.886830  0.541490  0.495310  1.0  -0.0523
  C  C301  1  0.858790  0.557190  0.511090  1.0  -0.1125
  C  C302  1  0.856880  0.570160  0.572130  1.0  0.0351
  C  C303  1  0.883290  0.566870  0.618510  1.0  -0.1748
  C  C304  1  0.911470  0.551410  0.603090  1.0  -0.043
  C  C305  1  0.829160  0.589620  0.589960  1.0  -0.04
  C  C306  1  0.846850  0.626570  0.627350  1.0  -0.1104
  C  C307  1  0.611550  0.856690  0.858700  1.0  0.6778
  C  C308  1  0.580140  0.872130  0.875360  1.0  -0.1425
  C  C309  1  0.553490  0.874830  0.828650  1.0  -0.0523
  C  C310  1  0.525450  0.890530  0.844430  1.0  -0.1125
  C  C311  1  0.523540  0.903500  0.905470  1.0  0.0351
  C  C312  1  0.549950  0.900210  0.951850  1.0  -0.1748
  C  C313  1  0.578130  0.884750  0.936430  1.0  -0.0431
  C  C314  1  0.495820  0.922960  0.923300  1.0  -0.0382
  C  C315  1  0.513510  0.959910  0.960690  1.0  -0.1048
  C  C316  1  0.809980  0.088200  0.192030  1.0  0.6802
  C  C317  1  0.794540  0.041350  0.208690  1.0  -0.1413
  C  C318  1  0.791840  0.012000  0.161980  1.0  -0.0526
  C  C319  1  0.776140  0.968260  0.177760  1.0  -0.1148
  C  C320  1  0.763170  0.953380  0.238800  1.0  0.0365
  C  C321  1  0.766460  0.983080  0.285180  1.0  -0.175
  C  C322  1  0.781920  0.026720  0.269760  1.0  -0.0448
  C  C323  1  0.743710  0.906200  0.256630  1.0  -0.04
  C  C324  1  0.706760  0.886940  0.294020  1.0  -0.1034
  C  C325  1  0.476650  0.421530  0.525360  1.0  0.6802
  C  C326  1  0.461210  0.374680  0.542020  1.0  -0.1413
  C  C327  1  0.458510  0.345330  0.495310  1.0  -0.0526
  C  C328  1  0.442810  0.301590  0.511090  1.0  -0.1147
  C  C329  1  0.429840  0.286710  0.572130  1.0  0.0365
  C  C330  1  0.433130  0.316410  0.618510  1.0  -0.175
  C  C331  1  0.448590  0.360050  0.603090  1.0  -0.0448
  C  C332  1  0.410380  0.239530  0.589960  1.0  -0.04
  C  C333  1  0.373430  0.220270  0.627350  1.0  -0.1034
  C  C334  1  0.143310  0.754870  0.858700  1.0  0.6802
  C  C335  1  0.127870  0.708020  0.875360  1.0  -0.1413
  C  C336  1  0.125170  0.678670  0.828650  1.0  -0.0526
  C  C337  1  0.109470  0.634930  0.844430  1.0  -0.1148
  C  C338  1  0.096500  0.620050  0.905470  1.0  0.0365
  C  C339  1  0.099790  0.649750  0.951850  1.0  -0.175
  C  C340  1  0.115250  0.693390  0.936430  1.0  -0.0448
  C  C341  1  0.077040  0.572870  0.923300  1.0  -0.0424
  C  C342  1  0.040090  0.553610  0.960690  1.0  -0.111
  C  C343  1  0.911800  0.721780  0.192030  1.0  0.6784
  C  C344  1  0.958650  0.753190  0.208690  1.0  -0.142
  C  C345  1  0.988000  0.779840  0.161980  1.0  -0.0511
  C  C346  1  0.031740  0.807880  0.177760  1.0  -0.1125
  C  C347  1  0.046620  0.809790  0.238800  1.0  0.0354
  C  C348  1  0.016920  0.783380  0.285180  1.0  -0.1752
  C  C349  1  0.973280  0.755200  0.269760  1.0  -0.0443
  C  C350  1  0.093800  0.837510  0.256630  1.0  -0.0421
  C  C351  1  0.113060  0.819820  0.294020  1.0  -0.1085
  C  C352  1  0.578470  0.055110  0.525360  1.0  0.6788
  C  C353  1  0.625320  0.086520  0.542020  1.0  -0.142
  C  C354  1  0.654670  0.113170  0.495310  1.0  -0.0511
  C  C355  1  0.698410  0.141210  0.511090  1.0  -0.1125
  C  C356  1  0.713290  0.143120  0.572130  1.0  0.0354
  C  C357  1  0.683590  0.116710  0.618510  1.0  -0.1752
  C  C358  1  0.639950  0.088530  0.603090  1.0  -0.0443
  C  C359  1  0.760470  0.170840  0.589960  1.0  -0.0421
  C  C360  1  0.779730  0.153150  0.627350  1.0  -0.1085
  C  C361  1  0.245130  0.388450  0.858700  1.0  0.6784
  C  C362  1  0.291980  0.419860  0.875360  1.0  -0.142
  C  C363  1  0.321330  0.446510  0.828650  1.0  -0.0511
  C  C364  1  0.365070  0.474550  0.844430  1.0  -0.1125
  C  C365  1  0.379950  0.476460  0.905470  1.0  0.0354
  C  C366  1  0.350250  0.450050  0.951850  1.0  -0.1752
  C  C367  1  0.306610  0.421870  0.936430  1.0  -0.0443
  C  C368  1  0.427130  0.504180  0.923300  1.0  -0.0421
  C  C369  1  0.446390  0.486490  0.960690  1.0  -0.1084
  C  C370  1  0.190020  0.278220  0.807970  1.0  0.679
  C  C371  1  0.205460  0.246810  0.791310  1.0  -0.1418
  C  C372  1  0.208160  0.220160  0.838020  1.0  -0.0508
  C  C373  1  0.223860  0.192120  0.822240  1.0  -0.1104
  C  C374  1  0.236830  0.190210  0.761200  1.0  0.0358
  C  C375  1  0.233540  0.216620  0.714820  1.0  -0.1744
  C  C376  1  0.218080  0.244800  0.730240  1.0  -0.0445
  C  C377  1  0.256290  0.162490  0.743370  1.0  -0.0415
  C  C378  1  0.293240  0.180180  0.705980  1.0  -0.1097
  C  C379  1  0.856690  0.611550  0.141300  1.0  0.679
  C  C380  1  0.872130  0.580140  0.124640  1.0  -0.1418
  C  C381  1  0.874830  0.553490  0.171350  1.0  -0.0508
  C  C382  1  0.890530  0.525450  0.155570  1.0  -0.1105
  C  C383  1  0.903500  0.523540  0.094530  1.0  0.0358
  C  C384  1  0.900210  0.549950  0.048150  1.0  -0.1744
  C  C385  1  0.884750  0.578130  0.063570  1.0  -0.0445
  C  C386  1  0.922960  0.495820  0.076700  1.0  -0.0393
  C  C387  1  0.959910  0.513510  0.039310  1.0  -0.1038
  C  C388  1  0.523350  0.944890  0.474640  1.0  0.6788
  C  C389  1  0.538790  0.913480  0.457980  1.0  -0.1417
  C  C390  1  0.541490  0.886830  0.504690  1.0  -0.0508
  C  C391  1  0.557190  0.858790  0.488910  1.0  -0.1104
  C  C392  1  0.570160  0.856880  0.427870  1.0  0.0358
  C  C393  1  0.566870  0.883290  0.381490  1.0  -0.1744
  C  C394  1  0.551410  0.911470  0.396910  1.0  -0.0445
  C  C395  1  0.589620  0.829160  0.410040  1.0  -0.0415
  C  C396  1  0.626570  0.846850  0.372650  1.0  -0.1097
  C  C397  1  0.088200  0.809980  0.807970  1.0  0.6779
  C  C398  1  0.041350  0.794540  0.791310  1.0  -0.1431
  C  C399  1  0.012000  0.791840  0.838020  1.0  -0.0497
  C  C400  1  0.968260  0.776140  0.822240  1.0  -0.1116
  C  C401  1  0.953380  0.763170  0.761200  1.0  0.0349
  C  C402  1  0.983080  0.766460  0.714820  1.0  -0.1733
  C  C403  1  0.026720  0.781920  0.730240  1.0  -0.0435
  C  C404  1  0.906200  0.743710  0.743370  1.0  -0.0383
  C  C405  1  0.886940  0.706760  0.705980  1.0  -0.1038
  C  C406  1  0.754870  0.143310  0.141300  1.0  0.6779
  C  C407  1  0.708020  0.127870  0.124640  1.0  -0.1431
  C  C408  1  0.678670  0.125170  0.171350  1.0  -0.0497
  C  C409  1  0.634930  0.109470  0.155570  1.0  -0.1116
  C  C410  1  0.620050  0.096500  0.094530  1.0  0.0349
  C  C411  1  0.649750  0.099790  0.048150  1.0  -0.1733
  C  C412  1  0.693390  0.115250  0.063570  1.0  -0.0435
  C  C413  1  0.572870  0.077040  0.076700  1.0  -0.04
  C  C414  1  0.553610  0.040090  0.039310  1.0  -0.1114
  C  C415  1  0.421530  0.476650  0.474640  1.0  0.6779
  C  C416  1  0.374680  0.461210  0.457980  1.0  -0.1431
  C  C417  1  0.345330  0.458510  0.504690  1.0  -0.0497
  C  C418  1  0.301590  0.442810  0.488910  1.0  -0.1116
  C  C419  1  0.286710  0.429840  0.427870  1.0  0.0349
  C  C420  1  0.316410  0.433130  0.381490  1.0  -0.1733
  C  C421  1  0.360050  0.448590  0.396910  1.0  -0.0435
  C  C422  1  0.239530  0.410380  0.410040  1.0  -0.0383
  C  C423  1  0.220270  0.373430  0.372650  1.0  -0.1038
  C  C424  1  0.721780  0.911800  0.807970  1.0  0.6795
  C  C425  1  0.753190  0.958650  0.791310  1.0  -0.1416
  C  C426  1  0.779840  0.988000  0.838020  1.0  -0.0496
  C  C427  1  0.807880  0.031740  0.822240  1.0  -0.1144
  C  C428  1  0.809790  0.046620  0.761200  1.0  0.0366
  C  C429  1  0.783380  0.016920  0.714820  1.0  -0.1739
  C  C430  1  0.755200  0.973280  0.730240  1.0  -0.0432
  C  C431  1  0.837510  0.093800  0.743370  1.0  -0.0423
  C  C432  1  0.819820  0.113060  0.705980  1.0  -0.1107
  C  C433  1  0.388450  0.245130  0.141300  1.0  0.6795
  C  C434  1  0.419860  0.291980  0.124640  1.0  -0.1416
  C  C435  1  0.446510  0.321330  0.171350  1.0  -0.0496
  C  C436  1  0.474550  0.365070  0.155570  1.0  -0.1143
  C  C437  1  0.476460  0.379950  0.094530  1.0  0.0366
  C  C438  1  0.450050  0.350250  0.048150  1.0  -0.1739
  C  C439  1  0.421870  0.306610  0.063570  1.0  -0.0432
  C  C440  1  0.504180  0.427130  0.076700  1.0  -0.0423
  C  C441  1  0.486490  0.446390  0.039310  1.0  -0.1105
  C  C442  1  0.055110  0.578470  0.474640  1.0  0.6799
  C  C443  1  0.086520  0.625320  0.457980  1.0  -0.1416
  C  C444  1  0.113170  0.654670  0.504690  1.0  -0.0496
  C  C445  1  0.141210  0.698410  0.488910  1.0  -0.1143
  C  C446  1  0.143120  0.713290  0.427870  1.0  0.0366
  C  C447  1  0.116710  0.683590  0.381490  1.0  -0.1739
  C  C448  1  0.088530  0.639950  0.396910  1.0  -0.0432
  C  C449  1  0.170840  0.760470  0.410040  1.0  -0.0423
  C  C450  1  0.153150  0.779730  0.372650  1.0  -0.1107
  C  C451  1  0.721780  0.809980  0.807970  1.0  0.6778
  C  C452  1  0.753190  0.794540  0.791310  1.0  -0.1419
  C  C453  1  0.779840  0.791840  0.838020  1.0  -0.0508
  C  C454  1  0.807880  0.776140  0.822240  1.0  -0.1121
  C  C455  1  0.809790  0.763170  0.761200  1.0  0.0344
  C  C456  1  0.783380  0.766460  0.714820  1.0  -0.172
  C  C457  1  0.755200  0.781920  0.730240  1.0  -0.0428
  C  C458  1  0.837510  0.743710  0.743370  1.0  -0.0416
  C  C459  1  0.819820  0.706760  0.705980  1.0  -0.1114
  C  C460  1  0.388450  0.143310  0.141300  1.0  0.6778
  C  C461  1  0.419860  0.127870  0.124640  1.0  -0.1419
  C  C462  1  0.446510  0.125170  0.171350  1.0  -0.0508
  C  C463  1  0.474550  0.109470  0.155570  1.0  -0.1122
  C  C464  1  0.476460  0.096500  0.094530  1.0  0.0344
  C  C465  1  0.450050  0.099790  0.048150  1.0  -0.172
  C  C466  1  0.421870  0.115250  0.063570  1.0  -0.0428
  C  C467  1  0.504180  0.077040  0.076700  1.0  -0.0394
  C  C468  1  0.486490  0.040090  0.039310  1.0  -0.1064
  C  C469  1  0.055110  0.476650  0.474640  1.0  0.6777
  C  C470  1  0.086520  0.461210  0.457980  1.0  -0.1419
  C  C471  1  0.113170  0.458510  0.504690  1.0  -0.0508
  C  C472  1  0.141210  0.442810  0.488910  1.0  -0.1121
  C  C473  1  0.143120  0.429840  0.427870  1.0  0.0344
  C  C474  1  0.116710  0.433130  0.381490  1.0  -0.172
  C  C475  1  0.088530  0.448590  0.396910  1.0  -0.0428
  C  C476  1  0.170840  0.410380  0.410040  1.0  -0.0416
  C  C477  1  0.153150  0.373430  0.372650  1.0  -0.1114
  C  C478  1  0.190020  0.911800  0.807970  1.0  0.6792
  C  C479  1  0.205460  0.958650  0.791310  1.0  -0.1418
  C  C480  1  0.208160  0.988000  0.838020  1.0  -0.0502
  C  C481  1  0.223860  0.031740  0.822240  1.0  -0.1138
  C  C482  1  0.236830  0.046620  0.761200  1.0  0.036
  C  C483  1  0.233540  0.016920  0.714820  1.0  -0.1746
  C  C484  1  0.218080  0.973280  0.730240  1.0  -0.0451
  C  C485  1  0.256290  0.093800  0.743370  1.0  -0.0383
  C  C486  1  0.293240  0.113060  0.705980  1.0  -0.1029
  C  C487  1  0.856690  0.245130  0.141300  1.0  0.6792
  C  C488  1  0.872130  0.291980  0.124640  1.0  -0.1418
  C  C489  1  0.874830  0.321330  0.171350  1.0  -0.0502
  C  C490  1  0.890530  0.365070  0.155570  1.0  -0.1138
  C  C491  1  0.903500  0.379950  0.094530  1.0  0.036
  C  C492  1  0.900210  0.350250  0.048150  1.0  -0.1746
  C  C493  1  0.884750  0.306610  0.063570  1.0  -0.0451
  C  C494  1  0.922960  0.427130  0.076700  1.0  -0.0402
  C  C495  1  0.959910  0.446390  0.039310  1.0  -0.1105
  C  C496  1  0.523350  0.578470  0.474640  1.0  0.6792
  C  C497  1  0.538790  0.625320  0.457980  1.0  -0.1418
  C  C498  1  0.541490  0.654670  0.504690  1.0  -0.0502
  C  C499  1  0.557190  0.698410  0.488910  1.0  -0.1138
  C  C500  1  0.570160  0.713290  0.427870  1.0  0.036
  C  C501  1  0.566870  0.683590  0.381490  1.0  -0.1746
  C  C502  1  0.551410  0.639950  0.396910  1.0  -0.0451
  C  C503  1  0.589620  0.760470  0.410040  1.0  -0.0383
  C  C504  1  0.626570  0.779730  0.372650  1.0  -0.1029
  C  C505  1  0.088200  0.278220  0.807970  1.0  0.6785
  C  C506  1  0.041350  0.246810  0.791310  1.0  -0.1424
  C  C507  1  0.012000  0.220160  0.838020  1.0  -0.05
  C  C508  1  0.968260  0.192120  0.822240  1.0  -0.1114
  C  C509  1  0.953380  0.190210  0.761200  1.0  0.0364
  C  C510  1  0.983080  0.216620  0.714820  1.0  -0.1743
  C  C511  1  0.026720  0.244800  0.730240  1.0  -0.0455
  C  C512  1  0.906200  0.162490  0.743370  1.0  -0.0422
  C  C513  1  0.886940  0.180180  0.705980  1.0  -0.1076
  C  C514  1  0.754870  0.611550  0.141300  1.0  0.6785
  C  C515  1  0.708020  0.580140  0.124640  1.0  -0.1424
  C  C516  1  0.678670  0.553490  0.171350  1.0  -0.05
  C  C517  1  0.634930  0.525450  0.155570  1.0  -0.1113
  C  C518  1  0.620050  0.523540  0.094530  1.0  0.0364
  C  C519  1  0.649750  0.549950  0.048150  1.0  -0.1743
  C  C520  1  0.693390  0.578130  0.063570  1.0  -0.0455
  C  C521  1  0.572870  0.495820  0.076700  1.0  -0.0422
  C  C522  1  0.553610  0.513510  0.039310  1.0  -0.1076
  C  C523  1  0.421530  0.944890  0.474640  1.0  0.6789
  C  C524  1  0.374680  0.913480  0.457980  1.0  -0.1424
  C  C525  1  0.345330  0.886830  0.504690  1.0  -0.05
  C  C526  1  0.301590  0.858790  0.488910  1.0  -0.1113
  C  C527  1  0.286710  0.856880  0.427870  1.0  0.0364
  C  C528  1  0.316410  0.883290  0.381490  1.0  -0.1743
  C  C529  1  0.360050  0.911470  0.396910  1.0  -0.0455
  C  C530  1  0.239530  0.829160  0.410040  1.0  -0.0422
  C  C531  1  0.220270  0.846850  0.372650  1.0  -0.1076
  C  C532  1  0.809980  0.721780  0.192030  1.0  0.6783
  C  C533  1  0.794540  0.753190  0.208690  1.0  -0.1421
  C  C534  1  0.791840  0.779840  0.161980  1.0  -0.0518
  C  C535  1  0.776140  0.807880  0.177760  1.0  -0.1117
  C  C536  1  0.763170  0.809790  0.238800  1.0  0.0357
  C  C537  1  0.766460  0.783380  0.285180  1.0  -0.1756
  C  C538  1  0.781920  0.755200  0.269760  1.0  -0.0441
  C  C539  1  0.743710  0.837510  0.256630  1.0  -0.0425
  C  C540  1  0.706760  0.819820  0.294020  1.0  -0.107
  C  C541  1  0.476650  0.055110  0.525360  1.0  0.6782
  C  C542  1  0.461210  0.086520  0.542020  1.0  -0.1421
  C  C543  1  0.458510  0.113170  0.495310  1.0  -0.0518
  C  C544  1  0.442810  0.141210  0.511090  1.0  -0.1117
  C  C545  1  0.429840  0.143120  0.572130  1.0  0.0357
  C  C546  1  0.433130  0.116710  0.618510  1.0  -0.1756
  C  C547  1  0.448590  0.088530  0.603090  1.0  -0.044
  C  C548  1  0.410380  0.170840  0.589960  1.0  -0.0425
  C  C549  1  0.373430  0.153150  0.627350  1.0  -0.107
  C  C550  1  0.143310  0.388450  0.858700  1.0  0.6783
  C  C551  1  0.127870  0.419860  0.875360  1.0  -0.1421
  C  C552  1  0.125170  0.446510  0.828650  1.0  -0.0518
  C  C553  1  0.109470  0.474550  0.844430  1.0  -0.1117
  C  C554  1  0.096500  0.476460  0.905470  1.0  0.0357
  C  C555  1  0.099790  0.450050  0.951850  1.0  -0.1756
  C  C556  1  0.115250  0.421870  0.936430  1.0  -0.0441
  C  C557  1  0.077040  0.504180  0.923300  1.0  -0.0404
  C  C558  1  0.040090  0.486490  0.960690  1.0  -0.1005
  C  C559  1  0.911800  0.190020  0.192030  1.0  0.6777
  C  C560  1  0.958650  0.205460  0.208690  1.0  -0.1418
  C  C561  1  0.988000  0.208160  0.161980  1.0  -0.0511
  C  C562  1  0.031740  0.223860  0.177760  1.0  -0.113
  C  C563  1  0.046620  0.236830  0.238800  1.0  0.0346
  C  C564  1  0.016920  0.233540  0.285180  1.0  -0.1729
  C  C565  1  0.973280  0.218080  0.269760  1.0  -0.043
  C  C566  1  0.093800  0.256290  0.256630  1.0  -0.0391
  C  C567  1  0.113060  0.293240  0.294020  1.0  -0.1048
  C  C568  1  0.578470  0.523350  0.525360  1.0  0.6777
  C  C569  1  0.625320  0.538790  0.542020  1.0  -0.1419
  C  C570  1  0.654670  0.541490  0.495310  1.0  -0.0511
  C  C571  1  0.698410  0.557190  0.511090  1.0  -0.113
  C  C572  1  0.713290  0.570160  0.572130  1.0  0.0346
  C  C573  1  0.683590  0.566870  0.618510  1.0  -0.1729
  C  C574  1  0.639950  0.551410  0.603090  1.0  -0.043
  C  C575  1  0.760470  0.589620  0.589960  1.0  -0.0391
  C  C576  1  0.779730  0.626570  0.627350  1.0  -0.1048
  C  C577  1  0.245130  0.856690  0.858700  1.0  0.6777
  C  C578  1  0.291980  0.872130  0.875360  1.0  -0.1418
  C  C579  1  0.321330  0.874830  0.828650  1.0  -0.0511
  C  C580  1  0.365070  0.890530  0.844430  1.0  -0.113
  C  C581  1  0.379950  0.903500  0.905470  1.0  0.0346
  C  C582  1  0.350250  0.900210  0.951850  1.0  -0.1729
  C  C583  1  0.306610  0.884750  0.936430  1.0  -0.043
  C  C584  1  0.427130  0.922960  0.923300  1.0  -0.0414
  C  C585  1  0.446390  0.959910  0.960690  1.0  -0.1123
  C  C586  1  0.278220  0.088200  0.192030  1.0  0.6797
  C  C587  1  0.246810  0.041350  0.208690  1.0  -0.1413
  C  C588  1  0.220160  0.012000  0.161980  1.0  -0.052
  C  C589  1  0.192120  0.968260  0.177760  1.0  -0.114
  C  C590  1  0.190210  0.953380  0.238800  1.0  0.0363
  C  C591  1  0.216620  0.983080  0.285180  1.0  -0.1748
  C  C592  1  0.244800  0.026720  0.269760  1.0  -0.0439
  C  C593  1  0.162490  0.906200  0.256630  1.0  -0.0402
  C  C594  1  0.180180  0.886940  0.294020  1.0  -0.1097
  C  C595  1  0.944890  0.421530  0.525360  1.0  0.68
  C  C596  1  0.913480  0.374680  0.542020  1.0  -0.1413
  C  C597  1  0.886830  0.345330  0.495310  1.0  -0.052
  C  C598  1  0.858790  0.301590  0.511090  1.0  -0.114
  C  C599  1  0.856880  0.286710  0.572130  1.0  0.0363
  C  C600  1  0.883290  0.316410  0.618510  1.0  -0.1748
  C  C601  1  0.911470  0.360050  0.603090  1.0  -0.0439
  C  C602  1  0.829160  0.239530  0.589960  1.0  -0.0402
  C  C603  1  0.846850  0.220270  0.627350  1.0  -0.1097
  C  C604  1  0.611550  0.754870  0.858700  1.0  0.6797
  C  C605  1  0.580140  0.708020  0.875360  1.0  -0.1413
  C  C606  1  0.553490  0.678670  0.828650  1.0  -0.052
  C  C607  1  0.525450  0.634930  0.844430  1.0  -0.114
  C  C608  1  0.523540  0.620050  0.905470  1.0  0.0363
  C  C609  1  0.549950  0.649750  0.951850  1.0  -0.1748
  C  C610  1  0.578130  0.693390  0.936430  1.0  -0.044
  C  C611  1  0.495820  0.572870  0.923300  1.0  -0.0402
  C  C612  1  0.513510  0.553610  0.960690  1.0  -0.1096
  C  C613  1  0.156680  0.313360  0.313600  1.0  -0.0092
  C  C614  1  0.118660  0.237320  0.237810  1.0  0.2011
  C  C615  1  0.080440  0.160870  0.233900  1.0  0.0958
  C  C616  1  0.061200  0.122400  0.186500  1.0  -0.3636
  C  C617  1  0.823350  0.646690  0.646930  1.0  -0.0092
  C  C618  1  0.785330  0.570650  0.571140  1.0  0.2011
  C  C619  1  0.747100  0.494200  0.567230  1.0  0.0958
  C  C620  1  0.727870  0.455730  0.519830  1.0  -0.3636
  C  C621  1  0.490010  0.980030  0.980270  1.0  -0.009
  C  C622  1  0.451990  0.903990  0.904480  1.0  0.2013
  C  C623  1  0.413770  0.827540  0.900570  1.0  0.0958
  C  C624  1  0.394530  0.789070  0.853170  1.0  -0.3636
  C  C625  1  0.686640  0.843320  0.313600  1.0  -0.0126
  C  C626  1  0.762680  0.881340  0.237810  1.0  0.2007
  C  C627  1  0.839130  0.919570  0.233900  1.0  0.0966
  C  C628  1  0.877600  0.938800  0.186500  1.0  -0.3657
  C  C629  1  0.353310  0.176650  0.646930  1.0  -0.0126
  C  C630  1  0.429350  0.214670  0.571140  1.0  0.2007
  C  C631  1  0.505800  0.252900  0.567230  1.0  0.097
  C  C632  1  0.544270  0.272130  0.519830  1.0  -0.3657
  C  C633  1  0.019970  0.509990  0.980270  1.0  -0.0123
  C  C634  1  0.096010  0.548010  0.904480  1.0  0.201
  C  C635  1  0.172460  0.586230  0.900570  1.0  0.097
  C  C636  1  0.210930  0.605470  0.853170  1.0  -0.3657
  C  C637  1  0.156680  0.843320  0.313600  1.0  -0.0132
  C  C638  1  0.118660  0.881340  0.237810  1.0  0.2005
  C  C639  1  0.080440  0.919560  0.233900  1.0  0.0958
  C  C640  1  0.061200  0.938800  0.186500  1.0  -0.3652
  C  C641  1  0.823350  0.176650  0.646930  1.0  -0.0132
  C  C642  1  0.785330  0.214670  0.571140  1.0  0.1997
  C  C643  1  0.747100  0.252900  0.567230  1.0  0.0961
  C  C644  1  0.727870  0.272130  0.519830  1.0  -0.365
  C  C645  1  0.490010  0.509990  0.980270  1.0  -0.0135
  C  C646  1  0.451990  0.548010  0.904480  1.0  0.2005
  C  C647  1  0.413770  0.586230  0.900570  1.0  0.0958
  C  C648  1  0.394530  0.605470  0.853170  1.0  -0.3652
  C  C649  1  0.313360  0.156680  0.686400  1.0  -0.0127
  C  C650  1  0.237320  0.118660  0.762190  1.0  0.1997
  C  C651  1  0.160870  0.080440  0.766100  1.0  0.0981
  C  C652  1  0.122400  0.061200  0.813500  1.0  -0.3646
  C  C653  1  0.980030  0.490010  0.019730  1.0  -0.0124
  C  C654  1  0.903990  0.451990  0.095520  1.0  0.2
  C  C655  1  0.827540  0.413770  0.099430  1.0  0.0981
  C  C656  1  0.789070  0.394530  0.146830  1.0  -0.3646
  C  C657  1  0.646690  0.823350  0.353070  1.0  -0.0127
  C  C658  1  0.570650  0.785330  0.428860  1.0  0.1997
  C  C659  1  0.494200  0.747100  0.432770  1.0  0.098
  C  C660  1  0.455730  0.727870  0.480170  1.0  -0.3646
  C  C661  1  0.843320  0.686640  0.686400  1.0  -0.0088
  C  C662  1  0.881340  0.762680  0.762190  1.0  0.2
  C  C663  1  0.919560  0.839130  0.766100  1.0  0.0961
  C  C664  1  0.938800  0.877600  0.813500  1.0  -0.3669
  C  C665  1  0.509990  0.019970  0.019730  1.0  -0.0086
  C  C666  1  0.548010  0.096010  0.095520  1.0  0.2002
  C  C667  1  0.586230  0.172460  0.099430  1.0  0.0961
  C  C668  1  0.605470  0.210930  0.146830  1.0  -0.3669
  C  C669  1  0.176650  0.353310  0.353070  1.0  -0.0088
  C  C670  1  0.214670  0.429350  0.428860  1.0  0.2
  C  C671  1  0.252900  0.505800  0.432770  1.0  0.0961
  C  C672  1  0.272130  0.544270  0.480170  1.0  -0.3669
  C  C673  1  0.843320  0.156680  0.686400  1.0  -0.0119
  C  C674  1  0.881340  0.118660  0.762190  1.0  0.2
  C  C675  1  0.919560  0.080440  0.766100  1.0  0.098
  C  C676  1  0.938800  0.061200  0.813500  1.0  -0.3637
  C  C677  1  0.509990  0.490010  0.019730  1.0  -0.0124
  C  C678  1  0.548010  0.451990  0.095520  1.0  0.2
  C  C679  1  0.586230  0.413770  0.099430  1.0  0.098
  C  C680  1  0.605470  0.394530  0.146830  1.0  -0.3637
  C  C681  1  0.176650  0.823350  0.353070  1.0  -0.0119
  C  C682  1  0.214670  0.785330  0.428860  1.0  0.1992
  C  C683  1  0.252900  0.747100  0.432770  1.0  0.0983
  C  C684  1  0.272130  0.727870  0.480170  1.0  -0.3635
  O  O685  1  0.302440  0.190240  0.236660  1.0  -0.5626
  O  O686  1  0.278090  0.178270  0.135400  1.0  -0.5525
  O  O687  1  0.969110  0.523570  0.569990  1.0  -0.5625
  O  O688  1  0.944760  0.511600  0.468730  1.0  -0.5525
  O  O689  1  0.635770  0.856910  0.903330  1.0  -0.5624
  O  O690  1  0.611420  0.844940  0.802070  1.0  -0.5525
  O  O691  1  0.809760  0.112200  0.236660  1.0  -0.563
  O  O692  1  0.821730  0.099820  0.135400  1.0  -0.5524
  O  O693  1  0.476430  0.445530  0.569990  1.0  -0.5628
  O  O694  1  0.488400  0.433150  0.468730  1.0  -0.5524
  O  O695  1  0.143090  0.778870  0.903330  1.0  -0.5629
  O  O696  1  0.155060  0.766490  0.802070  1.0  -0.5524
  O  O697  1  0.887800  0.697560  0.236660  1.0  -0.5636
  O  O698  1  0.900180  0.721910  0.135400  1.0  -0.5533
  O  O699  1  0.554470  0.030890  0.569990  1.0  -0.5635
  O  O700  1  0.566850  0.055240  0.468730  1.0  -0.5534
  O  O701  1  0.221130  0.364230  0.903330  1.0  -0.5636
  O  O702  1  0.233510  0.388580  0.802070  1.0  -0.5534
  O  O703  1  0.190240  0.302440  0.763340  1.0  -0.5643
  O  O704  1  0.178270  0.278090  0.864600  1.0  -0.553
  O  O705  1  0.856910  0.635770  0.096670  1.0  -0.5642
  O  O706  1  0.844940  0.611420  0.197930  1.0  -0.553
  O  O707  1  0.523570  0.969110  0.430010  1.0  -0.5644
  O  O708  1  0.511600  0.944760  0.531270  1.0  -0.5529
  O  O709  1  0.112200  0.809760  0.763340  1.0  -0.5632
  O  O710  1  0.099820  0.821730  0.864600  1.0  -0.5527
  O  O711  1  0.778870  0.143090  0.096670  1.0  -0.5632
  O  O712  1  0.766490  0.155060  0.197930  1.0  -0.5527
  O  O713  1  0.445530  0.476430  0.430010  1.0  -0.5631
  O  O714  1  0.433150  0.488400  0.531270  1.0  -0.5528
  O  O715  1  0.697560  0.887800  0.763340  1.0  -0.5636
  O  O716  1  0.721910  0.900180  0.864600  1.0  -0.5519
  O  O717  1  0.364230  0.221130  0.096670  1.0  -0.5636
  O  O718  1  0.388580  0.233510  0.197930  1.0  -0.5519
  O  O719  1  0.030890  0.554470  0.430010  1.0  -0.5634
  O  O720  1  0.055240  0.566850  0.531270  1.0  -0.5521
  O  O721  1  0.697560  0.809760  0.763340  1.0  -0.5633
  O  O722  1  0.721910  0.821730  0.864600  1.0  -0.5516
  O  O723  1  0.364230  0.143090  0.096670  1.0  -0.5633
  O  O724  1  0.388580  0.155060  0.197930  1.0  -0.5516
  O  O725  1  0.030890  0.476430  0.430010  1.0  -0.5636
  O  O726  1  0.055240  0.488400  0.531270  1.0  -0.5515
  O  O727  1  0.190240  0.887800  0.763340  1.0  -0.5636
  O  O728  1  0.178270  0.900180  0.864600  1.0  -0.5526
  O  O729  1  0.856910  0.221130  0.096670  1.0  -0.5636
  O  O730  1  0.844940  0.233510  0.197930  1.0  -0.5526
  O  O731  1  0.523570  0.554470  0.430010  1.0  -0.5635
  O  O732  1  0.511600  0.566850  0.531270  1.0  -0.5527
  O  O733  1  0.112200  0.302440  0.763340  1.0  -0.5644
  O  O734  1  0.099820  0.278090  0.864600  1.0  -0.5523
  O  O735  1  0.778870  0.635770  0.096670  1.0  -0.5644
  O  O736  1  0.766490  0.611420  0.197930  1.0  -0.5523
  O  O737  1  0.445530  0.969110  0.430010  1.0  -0.5644
  O  O738  1  0.433150  0.944760  0.531270  1.0  -0.5524
  O  O739  1  0.809760  0.697560  0.236660  1.0  -0.5638
  O  O740  1  0.821730  0.721910  0.135400  1.0  -0.5528
  O  O741  1  0.476430  0.030890  0.569990  1.0  -0.5635
  O  O742  1  0.488400  0.055240  0.468730  1.0  -0.5527
  O  O743  1  0.143090  0.364230  0.903330  1.0  -0.5636
  O  O744  1  0.155060  0.388580  0.802070  1.0  -0.5528
  O  O745  1  0.887800  0.190240  0.236660  1.0  -0.5623
  O  O746  1  0.900180  0.178270  0.135400  1.0  -0.5526
  O  O747  1  0.554470  0.523570  0.569990  1.0  -0.5621
  O  O748  1  0.566850  0.511600  0.468730  1.0  -0.5526
  O  O749  1  0.221130  0.856910  0.903330  1.0  -0.5623
  O  O750  1  0.233510  0.844940  0.802070  1.0  -0.5526
  O  O751  1  0.302440  0.112200  0.236660  1.0  -0.5623
  O  O752  1  0.278090  0.099820  0.135400  1.0  -0.5522
  O  O753  1  0.969110  0.445530  0.569990  1.0  -0.5627
  O  O754  1  0.944760  0.433150  0.468730  1.0  -0.5522
  O  O755  1  0.635770  0.778870  0.903330  1.0  -0.5623
  O  O756  1  0.611420  0.766490  0.802070  1.0  -0.5522
  O  O757  1  0.100290  0.200570  0.199530  1.0  -0.2766
  O  O758  1  0.766950  0.533900  0.532860  1.0  -0.2766
  O  O759  1  0.433620  0.867240  0.866200  1.0  -0.2766
  O  O760  1  0.799430  0.899710  0.199530  1.0  -0.2779
  O  O761  1  0.466100  0.233050  0.532860  1.0  -0.2779
  O  O762  1  0.132760  0.566380  0.866200  1.0  -0.2779
  O  O763  1  0.100290  0.899710  0.199530  1.0  -0.2779
  O  O764  1  0.766950  0.233050  0.532860  1.0  -0.2777
  O  O765  1  0.433620  0.566380  0.866200  1.0  -0.2779
  O  O766  1  0.200570  0.100290  0.800470  1.0  -0.2796
  O  O767  1  0.867240  0.433620  0.133800  1.0  -0.2796
  O  O768  1  0.533900  0.766950  0.467140  1.0  -0.2796
  O  O769  1  0.899710  0.799430  0.800470  1.0  -0.2789
  O  O770  1  0.566380  0.132760  0.133800  1.0  -0.2789
  O  O771  1  0.233050  0.466100  0.467140  1.0  -0.2789
  O  O772  1  0.899710  0.100290  0.800470  1.0  -0.28
  O  O773  1  0.566380  0.433620  0.133800  1.0  -0.28
  O  O774  1  0.233050  0.766950  0.467140  1.0  -0.2799
