# generated using pymatgen
data_CuH15C22O5
_symmetry_space_group_name_H-M   'P 1'
_cell_length_a   35.32780000
_cell_length_b   35.32780000
_cell_length_c   20.11840000
_cell_angle_alpha   90.00000000
_cell_angle_beta   90.00000000
_cell_angle_gamma   120.00000000
_symmetry_Int_Tables_number   1
_chemical_formula_structural   CuH15C22O5
_chemical_formula_sum   'Cu18 H270 C396 O90'
_cell_volume   21744.89207467
_cell_formula_units_Z   18
loop_
 _symmetry_equiv_pos_site_id
 _symmetry_equiv_pos_as_xyz
  1  'x, y, z'
loop_
 _atom_site_type_symbol
 _atom_site_label
 _atom_site_symmetry_multiplicity
 _atom_site_fract_x
 _atom_site_fract_y
 _atom_site_fract_z
 _atom_site_occupancy
 _atom_site_charge
  Cu  Cu1  1  0.492470  0.507530  0.560860  1.0  0.9336
  Cu  Cu2  1  0.159130  0.840870  0.894190  1.0  0.9313
  Cu  Cu3  1  0.825800  0.174200  0.227530  1.0  0.9336
  Cu  Cu4  1  0.492470  0.984930  0.560860  1.0  0.9374
  Cu  Cu5  1  0.159130  0.318260  0.894190  1.0  0.9374
  Cu  Cu6  1  0.825800  0.651600  0.227530  1.0  0.9373
  Cu  Cu7  1  0.015070  0.507530  0.560860  1.0  0.9382
  Cu  Cu8  1  0.681740  0.840870  0.894190  1.0  0.9383
  Cu  Cu9  1  0.348400  0.174200  0.227530  1.0  0.9382
  Cu  Cu10  1  0.507530  0.492470  0.439140  1.0  0.9341
  Cu  Cu11  1  0.174200  0.825800  0.772470  1.0  0.9341
  Cu  Cu12  1  0.840870  0.159130  0.105810  1.0  0.932
  Cu  Cu13  1  0.984930  0.492470  0.439140  1.0  0.9384
  Cu  Cu14  1  0.651600  0.825800  0.772470  1.0  0.9384
  Cu  Cu15  1  0.318260  0.159130  0.105810  1.0  0.9384
  Cu  Cu16  1  0.507530  0.015070  0.439140  1.0  0.9373
  Cu  Cu17  1  0.174200  0.348400  0.772470  1.0  0.9373
  Cu  Cu18  1  0.840870  0.681740  0.105810  1.0  0.9373
  H  H19  1  0.525000  0.642600  0.543300  1.0  0.1204
  H  H20  1  0.548700  0.715400  0.511900  1.0  0.1021
  H  H21  1  0.574100  0.691300  0.324200  1.0  0.1309
  H  H22  1  0.552100  0.618900  0.355900  1.0  0.1172
  H  H23  1  0.637500  0.761900  0.355700  1.0  0.1132
  H  H24  1  0.483800  0.718900  0.370200  1.0  0.1247
  H  H25  1  0.451200  0.748200  0.484200  1.0  0.1299
  H  H26  1  0.191670  0.975930  0.876630  1.0  0.1204
  H  H27  1  0.215370  0.048730  0.845230  1.0  0.1011
  H  H28  1  0.240770  0.024630  0.657530  1.0  0.1309
  H  H29  1  0.218770  0.952230  0.689230  1.0  0.1172
  H  H30  1  0.304170  0.095230  0.689030  1.0  0.1132
  H  H31  1  0.150470  0.052230  0.703530  1.0  0.1258
  H  H32  1  0.117870  0.081530  0.817530  1.0  0.1302
  H  H33  1  0.858330  0.309270  0.209970  1.0  0.1204
  H  H34  1  0.882030  0.382070  0.178570  1.0  0.1021
  H  H35  1  0.907430  0.357970  0.990870  1.0  0.1309
  H  H36  1  0.885430  0.285570  0.022570  1.0  0.1172
  H  H37  1  0.970830  0.428570  0.022370  1.0  0.1132
  H  H38  1  0.817130  0.385570  0.036870  1.0  0.125
  H  H39  1  0.784530  0.414870  0.150870  1.0  0.1299
  H  H40  1  0.357400  0.882400  0.543300  1.0  0.1206
  H  H41  1  0.284600  0.833300  0.511900  1.0  0.1012
  H  H42  1  0.308700  0.882800  0.324200  1.0  0.131
  H  H43  1  0.381100  0.933200  0.355900  1.0  0.1172
  H  H44  1  0.238100  0.875600  0.355700  1.0  0.1142
  H  H45  1  0.281100  0.764900  0.370200  1.0  0.1263
  H  H46  1  0.251800  0.703000  0.484200  1.0  0.1303
  H  H47  1  0.024070  0.215730  0.876630  1.0  0.1236
  H  H48  1  0.951270  0.166630  0.845230  1.0  0.1012
  H  H49  1  0.975370  0.216130  0.657530  1.0  0.131
  H  H50  1  0.047770  0.266530  0.689230  1.0  0.1163
  H  H51  1  0.904770  0.208930  0.689030  1.0  0.1143
  H  H52  1  0.947770  0.098230  0.703530  1.0  0.1265
  H  H53  1  0.918470  0.036330  0.817530  1.0  0.1302
  H  H54  1  0.690730  0.549070  0.209970  1.0  0.1206
  H  H55  1  0.617930  0.499970  0.178570  1.0  0.1012
  H  H56  1  0.642030  0.549470  0.990870  1.0  0.131
  H  H57  1  0.714430  0.599870  0.022570  1.0  0.1172
  H  H58  1  0.571430  0.542270  0.022370  1.0  0.1147
  H  H59  1  0.614430  0.431570  0.036870  1.0  0.1252
  H  H60  1  0.585130  0.369670  0.150870  1.0  0.1303
  H  H61  1  0.117600  0.475000  0.543300  1.0  0.1232
  H  H62  1  0.166700  0.451300  0.511900  1.0  0.1016
  H  H63  1  0.117200  0.425900  0.324200  1.0  0.1306
  H  H64  1  0.066800  0.447900  0.355900  1.0  0.1153
  H  H65  1  0.124400  0.362500  0.355700  1.0  0.1133
  H  H66  1  0.235100  0.516200  0.370200  1.0  0.1259
  H  H67  1  0.297000  0.548800  0.484200  1.0  0.1271
  H  H68  1  0.784270  0.808330  0.876630  1.0  0.1198
  H  H69  1  0.833370  0.784630  0.845230  1.0  0.1028
  H  H70  1  0.783870  0.759230  0.657530  1.0  0.1306
  H  H71  1  0.733470  0.781230  0.689230  1.0  0.1168
  H  H72  1  0.791070  0.695830  0.689030  1.0  0.1133
  H  H73  1  0.901770  0.849530  0.703530  1.0  0.1257
  H  H74  1  0.963670  0.882130  0.817530  1.0  0.1249
  H  H75  1  0.450930  0.141670  0.209970  1.0  0.1232
  H  H76  1  0.500030  0.117970  0.178570  1.0  0.1016
  H  H77  1  0.450530  0.092570  0.990870  1.0  0.1306
  H  H78  1  0.400130  0.114570  0.022570  1.0  0.1153
  H  H79  1  0.457730  0.029170  0.022370  1.0  0.1134
  H  H80  1  0.568430  0.182870  0.036870  1.0  0.1253
  H  H81  1  0.630330  0.215470  0.150870  1.0  0.1271
  H  H82  1  0.642600  0.525000  0.456700  1.0  0.1202
  H  H83  1  0.715400  0.548700  0.488100  1.0  0.102
  H  H84  1  0.691300  0.574100  0.675800  1.0  0.1311
  H  H85  1  0.618900  0.552100  0.644100  1.0  0.1165
  H  H86  1  0.761900  0.637500  0.644300  1.0  0.1133
  H  H87  1  0.718900  0.483800  0.629800  1.0  0.126
  H  H88  1  0.748200  0.451200  0.515800  1.0  0.1253
  H  H89  1  0.309270  0.858330  0.790030  1.0  0.1202
  H  H90  1  0.382070  0.882030  0.821430  1.0  0.102
  H  H91  1  0.357970  0.907430  0.009130  1.0  0.1311
  H  H92  1  0.285570  0.885430  0.977430  1.0  0.1165
  H  H93  1  0.428570  0.970830  0.977630  1.0  0.1129
  H  H94  1  0.385570  0.817130  0.963130  1.0  0.1258
  H  H95  1  0.414870  0.784530  0.849130  1.0  0.1253
  H  H96  1  0.975930  0.191670  0.123370  1.0  0.1202
  H  H97  1  0.048730  0.215370  0.154770  1.0  0.101
  H  H98  1  0.024630  0.240770  0.342470  1.0  0.1311
  H  H99  1  0.952230  0.218770  0.310770  1.0  0.1165
  H  H100  1  0.095230  0.304170  0.310970  1.0  0.1133
  H  H101  1  0.052230  0.150470  0.296470  1.0  0.1273
  H  H102  1  0.081530  0.117870  0.182470  1.0  0.1272
  H  H103  1  0.882400  0.357400  0.456700  1.0  0.1205
  H  H104  1  0.833300  0.284600  0.488100  1.0  0.1012
  H  H105  1  0.882800  0.308700  0.675800  1.0  0.1309
  H  H106  1  0.933200  0.381100  0.644100  1.0  0.1171
  H  H107  1  0.875600  0.238100  0.644300  1.0  0.1131
  H  H108  1  0.764900  0.281100  0.629800  1.0  0.1265
  H  H109  1  0.703000  0.251800  0.515800  1.0  0.1281
  H  H110  1  0.549070  0.690730  0.790030  1.0  0.1205
  H  H111  1  0.499970  0.617930  0.821430  1.0  0.1012
  H  H112  1  0.549470  0.642030  0.009130  1.0  0.1309
  H  H113  1  0.599870  0.714430  0.977430  1.0  0.1171
  H  H114  1  0.542270  0.571430  0.977630  1.0  0.113
  H  H115  1  0.431570  0.614430  0.963130  1.0  0.1253
  H  H116  1  0.369670  0.585130  0.849130  1.0  0.1281
  H  H117  1  0.215730  0.024070  0.123370  1.0  0.1238
  H  H118  1  0.166630  0.951270  0.154770  1.0  0.1012
  H  H119  1  0.216130  0.975370  0.342470  1.0  0.1309
  H  H120  1  0.266530  0.047770  0.310770  1.0  0.1165
  H  H121  1  0.208930  0.904770  0.310970  1.0  0.1131
  H  H122  1  0.098230  0.947770  0.296470  1.0  0.1263
  H  H123  1  0.036330  0.918470  0.182470  1.0  0.1291
  H  H124  1  0.475000  0.117600  0.456700  1.0  0.1234
  H  H125  1  0.451300  0.166700  0.488100  1.0  0.1011
  H  H126  1  0.425900  0.117200  0.675800  1.0  0.131
  H  H127  1  0.447900  0.066800  0.644100  1.0  0.116
  H  H128  1  0.362500  0.124400  0.644300  1.0  0.1138
  H  H129  1  0.516200  0.235100  0.629800  1.0  0.1279
  H  H130  1  0.548800  0.297000  0.515800  1.0  0.1318
  H  H131  1  0.141670  0.450930  0.790030  1.0  0.1234
  H  H132  1  0.117970  0.500030  0.821430  1.0  0.1011
  H  H133  1  0.092570  0.450530  0.009130  1.0  0.131
  H  H134  1  0.114570  0.400130  0.977430  1.0  0.116
  H  H135  1  0.029170  0.457730  0.977630  1.0  0.1137
  H  H136  1  0.182870  0.568430  0.963130  1.0  0.1273
  H  H137  1  0.215470  0.630330  0.849130  1.0  0.1318
  H  H138  1  0.808330  0.784270  0.123370  1.0  0.1205
  H  H139  1  0.784630  0.833370  0.154770  1.0  0.102
  H  H140  1  0.759230  0.783870  0.342470  1.0  0.131
  H  H141  1  0.781230  0.733470  0.310770  1.0  0.117
  H  H142  1  0.695830  0.791070  0.310970  1.0  0.1138
  H  H143  1  0.849530  0.901770  0.296470  1.0  0.128
  H  H144  1  0.882130  0.963670  0.182470  1.0  0.1297
  H  H145  1  0.475000  0.357400  0.456700  1.0  0.1204
  H  H146  1  0.451300  0.284600  0.488100  1.0  0.1019
  H  H147  1  0.425900  0.308700  0.675800  1.0  0.131
  H  H148  1  0.447900  0.381100  0.644100  1.0  0.1168
  H  H149  1  0.362500  0.238100  0.644300  1.0  0.1125
  H  H150  1  0.516200  0.281100  0.629800  1.0  0.125
  H  H151  1  0.548800  0.251800  0.515800  1.0  0.1297
  H  H152  1  0.141670  0.690730  0.790030  1.0  0.1204
  H  H153  1  0.117970  0.617930  0.821430  1.0  0.1019
  H  H154  1  0.092570  0.642030  0.009130  1.0  0.131
  H  H155  1  0.114570  0.714430  0.977430  1.0  0.1168
  H  H156  1  0.029170  0.571430  0.977630  1.0  0.1125
  H  H157  1  0.182870  0.614430  0.963130  1.0  0.125
  H  H158  1  0.215470  0.585130  0.849130  1.0  0.1297
  H  H159  1  0.808330  0.024070  0.123370  1.0  0.1204
  H  H160  1  0.784630  0.951270  0.154770  1.0  0.101
  H  H161  1  0.759230  0.975370  0.342470  1.0  0.131
  H  H162  1  0.781230  0.047770  0.310770  1.0  0.1168
  H  H163  1  0.695830  0.904770  0.310970  1.0  0.1125
  H  H164  1  0.849530  0.947770  0.296470  1.0  0.126
  H  H165  1  0.882130  0.918470  0.182470  1.0  0.1307
  H  H166  1  0.642600  0.117600  0.456700  1.0  0.1204
  H  H167  1  0.715400  0.166700  0.488100  1.0  0.1011
  H  H168  1  0.691300  0.117200  0.675800  1.0  0.1314
  H  H169  1  0.618900  0.066800  0.644100  1.0  0.117
  H  H170  1  0.761900  0.124400  0.644300  1.0  0.1138
  H  H171  1  0.718900  0.235100  0.629800  1.0  0.1276
  H  H172  1  0.748200  0.297000  0.515800  1.0  0.1285
  H  H173  1  0.309270  0.450930  0.790030  1.0  0.1204
  H  H174  1  0.382070  0.500030  0.821430  1.0  0.1011
  H  H175  1  0.357970  0.450530  0.009130  1.0  0.1314
  H  H176  1  0.285570  0.400130  0.977430  1.0  0.117
  H  H177  1  0.428570  0.457730  0.977630  1.0  0.1139
  H  H178  1  0.385570  0.568430  0.963130  1.0  0.1266
  H  H179  1  0.414870  0.630330  0.849130  1.0  0.1285
  H  H180  1  0.975930  0.784270  0.123370  1.0  0.1235
  H  H181  1  0.048730  0.833370  0.154770  1.0  0.1011
  H  H182  1  0.024630  0.783870  0.342470  1.0  0.1314
  H  H183  1  0.952230  0.733470  0.310770  1.0  0.1162
  H  H184  1  0.095230  0.791070  0.310970  1.0  0.1138
  H  H185  1  0.052230  0.901770  0.296470  1.0  0.1272
  H  H186  1  0.081530  0.963670  0.182470  1.0  0.1299
  H  H187  1  0.882400  0.525000  0.456700  1.0  0.1227
  H  H188  1  0.833300  0.548700  0.488100  1.0  0.1015
  H  H189  1  0.882800  0.574100  0.675800  1.0  0.1308
  H  H190  1  0.933200  0.552100  0.644100  1.0  0.116
  H  H191  1  0.875600  0.637500  0.644300  1.0  0.1143
  H  H192  1  0.764900  0.483800  0.629800  1.0  0.1264
  H  H193  1  0.703000  0.451200  0.515800  1.0  0.125
  H  H194  1  0.549070  0.858330  0.790030  1.0  0.1227
  H  H195  1  0.499970  0.882030  0.821430  1.0  0.1015
  H  H196  1  0.549470  0.907430  0.009130  1.0  0.1308
  H  H197  1  0.599870  0.885430  0.977430  1.0  0.116
  H  H198  1  0.542270  0.970830  0.977630  1.0  0.1133
  H  H199  1  0.431570  0.817130  0.963130  1.0  0.1257
  H  H200  1  0.369670  0.784530  0.849130  1.0  0.125
  H  H201  1  0.215730  0.191670  0.123370  1.0  0.1198
  H  H202  1  0.166630  0.215370  0.154770  1.0  0.1021
  H  H203  1  0.216130  0.240770  0.342470  1.0  0.1308
  H  H204  1  0.266530  0.218770  0.310770  1.0  0.1169
  H  H205  1  0.208930  0.304170  0.310970  1.0  0.1143
  H  H206  1  0.098230  0.150470  0.296470  1.0  0.1262
  H  H207  1  0.036330  0.117870  0.182470  1.0  0.1232
  H  H208  1  0.357400  0.475000  0.543300  1.0  0.1198
  H  H209  1  0.284600  0.451300  0.511900  1.0  0.1029
  H  H210  1  0.308700  0.425900  0.324200  1.0  0.1313
  H  H211  1  0.381100  0.447900  0.355900  1.0  0.1172
  H  H212  1  0.238100  0.362500  0.355700  1.0  0.114
  H  H213  1  0.281100  0.516200  0.370200  1.0  0.1256
  H  H214  1  0.251800  0.548800  0.484200  1.0  0.1257
  H  H215  1  0.024070  0.808330  0.876630  1.0  0.1198
  H  H216  1  0.951270  0.784630  0.845230  1.0  0.1015
  H  H217  1  0.975370  0.759230  0.657530  1.0  0.1313
  H  H218  1  0.047770  0.781230  0.689230  1.0  0.1172
  H  H219  1  0.904770  0.695830  0.689030  1.0  0.114
  H  H220  1  0.947770  0.849530  0.703530  1.0  0.1269
  H  H221  1  0.918470  0.882130  0.817530  1.0  0.1265
  H  H222  1  0.690730  0.141670  0.209970  1.0  0.1198
  H  H223  1  0.617930  0.117970  0.178570  1.0  0.1029
  H  H224  1  0.642030  0.092570  0.990870  1.0  0.1313
  H  H225  1  0.714430  0.114570  0.022570  1.0  0.1172
  H  H226  1  0.571430  0.029170  0.022370  1.0  0.1146
  H  H227  1  0.614430  0.182870  0.036870  1.0  0.1256
  H  H228  1  0.585130  0.215470  0.150870  1.0  0.1257
  H  H229  1  0.117600  0.642600  0.543300  1.0  0.1202
  H  H230  1  0.166700  0.715400  0.511900  1.0  0.1011
  H  H231  1  0.117200  0.691300  0.324200  1.0  0.1312
  H  H232  1  0.066800  0.618900  0.355900  1.0  0.117
  H  H233  1  0.124400  0.761900  0.355700  1.0  0.1125
  H  H234  1  0.235100  0.718900  0.370200  1.0  0.1262
  H  H235  1  0.297000  0.748200  0.484200  1.0  0.1288
  H  H236  1  0.784270  0.975930  0.876630  1.0  0.1232
  H  H237  1  0.833370  0.048730  0.845230  1.0  0.1011
  H  H238  1  0.783870  0.024630  0.657530  1.0  0.1311
  H  H239  1  0.733470  0.952230  0.689230  1.0  0.1159
  H  H240  1  0.791070  0.095230  0.689030  1.0  0.1125
  H  H241  1  0.901770  0.052230  0.703530  1.0  0.1263
  H  H242  1  0.963670  0.081530  0.817530  1.0  0.1295
  H  H243  1  0.450930  0.309270  0.209970  1.0  0.1202
  H  H244  1  0.500030  0.382070  0.178570  1.0  0.1011
  H  H245  1  0.450530  0.357970  0.990870  1.0  0.1311
  H  H246  1  0.400130  0.285570  0.022570  1.0  0.117
  H  H247  1  0.457730  0.428570  0.022370  1.0  0.1125
  H  H248  1  0.568430  0.385570  0.036870  1.0  0.1255
  H  H249  1  0.630330  0.414870  0.150870  1.0  0.1288
  H  H250  1  0.525000  0.882400  0.543300  1.0  0.1235
  H  H251  1  0.548700  0.833300  0.511900  1.0  0.101
  H  H252  1  0.574100  0.882800  0.324200  1.0  0.1308
  H  H253  1  0.552100  0.933200  0.355900  1.0  0.1157
  H  H254  1  0.637500  0.875600  0.355700  1.0  0.1142
  H  H255  1  0.483800  0.764900  0.370200  1.0  0.125
  H  H256  1  0.451200  0.703000  0.484200  1.0  0.1315
  H  H257  1  0.191670  0.215730  0.876630  1.0  0.1205
  H  H258  1  0.215370  0.166630  0.845230  1.0  0.102
  H  H259  1  0.240770  0.216130  0.657530  1.0  0.1308
  H  H260  1  0.218770  0.266530  0.689230  1.0  0.1171
  H  H261  1  0.304170  0.208930  0.689030  1.0  0.1142
  H  H262  1  0.150470  0.098230  0.703530  1.0  0.1247
  H  H263  1  0.117870  0.036330  0.817530  1.0  0.1312
  H  H264  1  0.858330  0.549070  0.209970  1.0  0.1235
  H  H265  1  0.882030  0.499970  0.178570  1.0  0.101
  H  H266  1  0.907430  0.549470  0.990870  1.0  0.1308
  H  H267  1  0.885430  0.599870  0.022570  1.0  0.1157
  H  H268  1  0.970830  0.542270  0.022370  1.0  0.1141
  H  H269  1  0.817130  0.431570  0.036870  1.0  0.1244
  H  H270  1  0.784530  0.369670  0.150870  1.0  0.1315
  H  H271  1  0.418500  0.709250  0.436400  1.0  0.1345
  H  H272  1  0.085170  0.042580  0.769730  1.0  0.1317
  H  H273  1  0.751830  0.375920  0.103070  1.0  0.1369
  H  H274  1  0.290750  0.709250  0.436400  1.0  0.1373
  H  H275  1  0.957420  0.042580  0.769730  1.0  0.1341
  H  H276  1  0.624080  0.375920  0.103070  1.0  0.1348
  H  H277  1  0.290750  0.581500  0.436400  1.0  0.1367
  H  H278  1  0.957420  0.914830  0.769730  1.0  0.1346
  H  H279  1  0.624080  0.248170  0.103070  1.0  0.1396
  H  H280  1  0.709250  0.418500  0.563600  1.0  0.1357
  H  H281  1  0.375920  0.751830  0.896930  1.0  0.1378
  H  H282  1  0.042580  0.085170  0.230270  1.0  0.1333
  H  H283  1  0.709250  0.290750  0.563600  1.0  0.1347
  H  H284  1  0.375920  0.624080  0.896930  1.0  0.1325
  H  H285  1  0.042580  0.957420  0.230270  1.0  0.132
  H  H286  1  0.581500  0.290750  0.563600  1.0  0.1369
  H  H287  1  0.248170  0.624080  0.896930  1.0  0.1392
  H  H288  1  0.914830  0.957420  0.230270  1.0  0.1338
  C  C289  1  0.522500  0.577570  0.471910  1.0  0.6853
  C  C290  1  0.536960  0.624210  0.450900  1.0  -0.1061
  C  C291  1  0.535400  0.652560  0.499640  1.0  -0.0723
  C  C292  1  0.549860  0.695850  0.480510  1.0  -0.1081
  C  C293  1  0.565530  0.710860  0.418200  1.0  0.0595
  C  C294  1  0.565230  0.681710  0.368530  1.0  -0.1621
  C  C295  1  0.551430  0.638560  0.387480  1.0  -0.0299
  C  C296  1  0.584510  0.757870  0.399770  1.0  -0.033
  C  C297  1  0.623830  0.778410  0.366490  1.0  -0.13
  C  C298  1  0.189170  0.910900  0.805240  1.0  0.6853
  C  C299  1  0.203630  0.957540  0.784230  1.0  -0.1061
  C  C300  1  0.202070  0.985890  0.832970  1.0  -0.0723
  C  C301  1  0.216530  0.029180  0.813840  1.0  -0.1083
  C  C302  1  0.232200  0.044190  0.751530  1.0  0.0597
  C  C303  1  0.231900  0.015040  0.701860  1.0  -0.1621
  C  C304  1  0.218100  0.971890  0.720810  1.0  -0.0299
  C  C305  1  0.251180  0.091200  0.733100  1.0  -0.0331
  C  C306  1  0.290500  0.111740  0.699820  1.0  -0.1373
  C  C307  1  0.855830  0.244240  0.138580  1.0  0.6853
  C  C308  1  0.870290  0.290880  0.117570  1.0  -0.1061
  C  C309  1  0.868730  0.319230  0.166310  1.0  -0.0723
  C  C310  1  0.883190  0.362520  0.147180  1.0  -0.1081
  C  C311  1  0.898860  0.377530  0.084870  1.0  0.0595
  C  C312  1  0.898560  0.348380  0.035200  1.0  -0.1621
  C  C313  1  0.884760  0.305230  0.054150  1.0  -0.0299
  C  C314  1  0.917840  0.424540  0.066440  1.0  -0.033
  C  C315  1  0.957160  0.445080  0.033160  1.0  -0.13
  C  C316  1  0.422430  0.944930  0.471910  1.0  0.6847
  C  C317  1  0.375790  0.912750  0.450900  1.0  -0.1057
  C  C318  1  0.347440  0.882840  0.499640  1.0  -0.0708
  C  C319  1  0.304150  0.854010  0.480510  1.0  -0.1073
  C  C320  1  0.289140  0.854670  0.418200  1.0  0.0623
  C  C321  1  0.318290  0.883520  0.368530  1.0  -0.1591
  C  C322  1  0.361440  0.912870  0.387480  1.0  -0.0305
  C  C323  1  0.242130  0.826640  0.399770  1.0  -0.0339
  C  C324  1  0.221590  0.845420  0.366490  1.0  -0.1335
  C  C325  1  0.089100  0.278260  0.805240  1.0  0.6847
  C  C326  1  0.042460  0.246080  0.784230  1.0  -0.1057
  C  C327  1  0.014110  0.216170  0.832970  1.0  -0.0708
  C  C328  1  0.970820  0.187340  0.813840  1.0  -0.1073
  C  C329  1  0.955810  0.188000  0.751530  1.0  0.0623
  C  C330  1  0.984960  0.216850  0.701860  1.0  -0.1591
  C  C331  1  0.028110  0.246200  0.720810  1.0  -0.0305
  C  C332  1  0.908800  0.159970  0.733100  1.0  -0.0342
  C  C333  1  0.888260  0.178750  0.699820  1.0  -0.134
  C  C334  1  0.755760  0.611600  0.138580  1.0  0.6847
  C  C335  1  0.709120  0.579420  0.117570  1.0  -0.1057
  C  C336  1  0.680770  0.549510  0.166310  1.0  -0.0708
  C  C337  1  0.637480  0.520680  0.147180  1.0  -0.1073
  C  C338  1  0.622470  0.521340  0.084870  1.0  0.0623
  C  C339  1  0.651620  0.550190  0.035200  1.0  -0.1591
  C  C340  1  0.694770  0.579540  0.054150  1.0  -0.0305
  C  C341  1  0.575460  0.493310  0.066440  1.0  -0.034
  C  C342  1  0.554920  0.512090  0.033160  1.0  -0.1345
  C  C343  1  0.055070  0.477500  0.471910  1.0  0.6849
  C  C344  1  0.087250  0.463040  0.450900  1.0  -0.1069
  C  C345  1  0.117160  0.464600  0.499640  1.0  -0.0711
  C  C346  1  0.145990  0.450140  0.480510  1.0  -0.1071
  C  C347  1  0.145330  0.434470  0.418200  1.0  0.0593
  C  C348  1  0.116480  0.434770  0.368530  1.0  -0.157
  C  C349  1  0.087130  0.448570  0.387480  1.0  -0.0279
  C  C350  1  0.173360  0.415490  0.399770  1.0  -0.034
  C  C351  1  0.154580  0.376170  0.366490  1.0  -0.1346
  C  C352  1  0.721740  0.810830  0.805240  1.0  0.6849
  C  C353  1  0.753920  0.796370  0.784230  1.0  -0.1069
  C  C354  1  0.783830  0.797930  0.832970  1.0  -0.0711
  C  C355  1  0.812660  0.783470  0.813840  1.0  -0.1071
  C  C356  1  0.812000  0.767800  0.751530  1.0  0.0593
  C  C357  1  0.783150  0.768100  0.701860  1.0  -0.157
  C  C358  1  0.753800  0.781900  0.720810  1.0  -0.0279
  C  C359  1  0.840030  0.748820  0.733100  1.0  -0.0339
  C  C360  1  0.821250  0.709500  0.699820  1.0  -0.1266
  C  C361  1  0.388400  0.144170  0.138580  1.0  0.6849
  C  C362  1  0.420580  0.129710  0.117570  1.0  -0.1069
  C  C363  1  0.450490  0.131270  0.166310  1.0  -0.0711
  C  C364  1  0.479320  0.116810  0.147180  1.0  -0.1071
  C  C365  1  0.478660  0.101140  0.084870  1.0  0.0593
  C  C366  1  0.449810  0.101440  0.035200  1.0  -0.157
  C  C367  1  0.420460  0.115240  0.054150  1.0  -0.0279
  C  C368  1  0.506690  0.082160  0.066440  1.0  -0.0339
  C  C369  1  0.487910  0.042840  0.033160  1.0  -0.1356
  C  C370  1  0.577570  0.522500  0.528090  1.0  0.6851
  C  C371  1  0.624210  0.536960  0.549100  1.0  -0.1074
  C  C372  1  0.652560  0.535400  0.500360  1.0  -0.0702
  C  C373  1  0.695850  0.549860  0.519490  1.0  -0.1072
  C  C374  1  0.710860  0.565530  0.581800  1.0  0.0695
  C  C375  1  0.681710  0.565230  0.631470  1.0  -0.1599
  C  C376  1  0.638560  0.551430  0.612520  1.0  -0.0286
  C  C377  1  0.757870  0.584510  0.600230  1.0  -0.0335
  C  C378  1  0.778410  0.623830  0.633510  1.0  -0.1295
  C  C379  1  0.244240  0.855830  0.861420  1.0  0.6851
  C  C380  1  0.290880  0.870290  0.882430  1.0  -0.1074
  C  C381  1  0.319230  0.868730  0.833690  1.0  -0.0702
  C  C382  1  0.362520  0.883190  0.852820  1.0  -0.1072
  C  C383  1  0.377530  0.898860  0.915130  1.0  0.0695
  C  C384  1  0.348380  0.898560  0.964800  1.0  -0.1599
  C  C385  1  0.305230  0.884760  0.945850  1.0  -0.0286
  C  C386  1  0.424540  0.917840  0.933560  1.0  -0.0335
  C  C387  1  0.445080  0.957160  0.966840  1.0  -0.1279
  C  C388  1  0.910900  0.189170  0.194760  1.0  0.6851
  C  C389  1  0.957540  0.203630  0.215770  1.0  -0.1074
  C  C390  1  0.985890  0.202070  0.167030  1.0  -0.0702
  C  C391  1  0.029180  0.216530  0.186160  1.0  -0.1072
  C  C392  1  0.044190  0.232200  0.248470  1.0  0.0695
  C  C393  1  0.015040  0.231900  0.298140  1.0  -0.1599
  C  C394  1  0.971890  0.218100  0.279190  1.0  -0.0286
  C  C395  1  0.091200  0.251180  0.266900  1.0  -0.0335
  C  C396  1  0.111740  0.290500  0.300180  1.0  -0.1367
  C  C397  1  0.944930  0.422430  0.528090  1.0  0.6852
  C  C398  1  0.912750  0.375790  0.549100  1.0  -0.1056
  C  C399  1  0.882840  0.347440  0.500360  1.0  -0.0711
  C  C400  1  0.854010  0.304150  0.519490  1.0  -0.1078
  C  C401  1  0.854670  0.289140  0.581800  1.0  0.0594
  C  C402  1  0.883520  0.318290  0.631470  1.0  -0.1641
  C  C403  1  0.912870  0.361440  0.612520  1.0  -0.0285
  C  C404  1  0.826640  0.242130  0.600230  1.0  -0.0325
  C  C405  1  0.845420  0.221590  0.633510  1.0  -0.1384
  C  C406  1  0.611600  0.755760  0.861420  1.0  0.6852
  C  C407  1  0.579420  0.709120  0.882430  1.0  -0.1056
  C  C408  1  0.549510  0.680770  0.833690  1.0  -0.0711
  C  C409  1  0.520680  0.637480  0.852820  1.0  -0.1078
  C  C410  1  0.521340  0.622470  0.915130  1.0  0.0598
  C  C411  1  0.550190  0.651620  0.964800  1.0  -0.1645
  C  C412  1  0.579540  0.694770  0.945850  1.0  -0.0284
  C  C413  1  0.493310  0.575460  0.933560  1.0  -0.0321
  C  C414  1  0.512090  0.554920  0.966840  1.0  -0.138
  C  C415  1  0.278260  0.089100  0.194760  1.0  0.6852
  C  C416  1  0.246080  0.042460  0.215770  1.0  -0.1056
  C  C417  1  0.216170  0.014110  0.167030  1.0  -0.0711
  C  C418  1  0.187340  0.970820  0.186160  1.0  -0.1082
  C  C419  1  0.188000  0.955810  0.248470  1.0  0.0595
  C  C420  1  0.216850  0.984960  0.298140  1.0  -0.1641
  C  C421  1  0.246200  0.028110  0.279190  1.0  -0.0285
  C  C422  1  0.159970  0.908800  0.266900  1.0  -0.0323
  C  C423  1  0.178750  0.888260  0.300180  1.0  -0.1384
  C  C424  1  0.477500  0.055070  0.528090  1.0  0.6844
  C  C425  1  0.463040  0.087250  0.549100  1.0  -0.1056
  C  C426  1  0.464600  0.117160  0.500360  1.0  -0.0707
  C  C427  1  0.450140  0.145990  0.519490  1.0  -0.1075
  C  C428  1  0.434470  0.145330  0.581800  1.0  0.07
  C  C429  1  0.434770  0.116480  0.631470  1.0  -0.1622
  C  C430  1  0.448570  0.087130  0.612520  1.0  -0.03
  C  C431  1  0.415490  0.173360  0.600230  1.0  -0.0349
  C  C432  1  0.376170  0.154580  0.633510  1.0  -0.1355
  C  C433  1  0.144170  0.388400  0.861420  1.0  0.6844
  C  C434  1  0.129710  0.420580  0.882430  1.0  -0.1056
  C  C435  1  0.131270  0.450490  0.833690  1.0  -0.0707
  C  C436  1  0.116810  0.479320  0.852820  1.0  -0.1075
  C  C437  1  0.101140  0.478660  0.915130  1.0  0.07
  C  C438  1  0.101440  0.449810  0.964800  1.0  -0.1659
  C  C439  1  0.115240  0.420460  0.945850  1.0  -0.03
  C  C440  1  0.082160  0.506690  0.933560  1.0  -0.0348
  C  C441  1  0.042840  0.487910  0.966840  1.0  -0.135
  C  C442  1  0.810830  0.721740  0.194760  1.0  0.6844
  C  C443  1  0.796370  0.753920  0.215770  1.0  -0.1056
  C  C444  1  0.797930  0.783830  0.167030  1.0  -0.0707
  C  C445  1  0.783470  0.812660  0.186160  1.0  -0.1075
  C  C446  1  0.767800  0.812000  0.248470  1.0  0.07
  C  C447  1  0.768100  0.783150  0.298140  1.0  -0.1622
  C  C448  1  0.781900  0.753800  0.279190  1.0  -0.03
  C  C449  1  0.748820  0.840030  0.266900  1.0  -0.0348
  C  C450  1  0.709500  0.821250  0.300180  1.0  -0.1281
  C  C451  1  0.477500  0.422430  0.528090  1.0  0.6851
  C  C452  1  0.463040  0.375790  0.549100  1.0  -0.1054
  C  C453  1  0.464600  0.347440  0.500360  1.0  -0.0709
  C  C454  1  0.450140  0.304150  0.519490  1.0  -0.1086
  C  C455  1  0.434470  0.289140  0.581800  1.0  0.0696
  C  C456  1  0.434770  0.318290  0.631470  1.0  -0.1617
  C  C457  1  0.448570  0.361440  0.612520  1.0  -0.0301
  C  C458  1  0.415490  0.242130  0.600230  1.0  -0.0342
  C  C459  1  0.376170  0.221590  0.633510  1.0  -0.1294
  C  C460  1  0.144170  0.755760  0.861420  1.0  0.6852
  C  C461  1  0.129710  0.709120  0.882430  1.0  -0.1054
  C  C462  1  0.131270  0.680770  0.833690  1.0  -0.0709
  C  C463  1  0.116810  0.637480  0.852820  1.0  -0.1086
  C  C464  1  0.101140  0.622470  0.915130  1.0  0.0604
  C  C465  1  0.101440  0.651620  0.964800  1.0  -0.1617
  C  C466  1  0.115240  0.694770  0.945850  1.0  -0.0301
  C  C467  1  0.082160  0.575460  0.933560  1.0  -0.0342
  C  C468  1  0.042840  0.554920  0.966840  1.0  -0.1294
  C  C469  1  0.810830  0.089100  0.194760  1.0  0.6851
  C  C470  1  0.796370  0.042460  0.215770  1.0  -0.1054
  C  C471  1  0.797930  0.014110  0.167030  1.0  -0.0709
  C  C472  1  0.783470  0.970820  0.186160  1.0  -0.1083
  C  C473  1  0.767800  0.955810  0.248470  1.0  0.0696
  C  C474  1  0.768100  0.984960  0.298140  1.0  -0.1617
  C  C475  1  0.781900  0.028110  0.279190  1.0  -0.0301
  C  C476  1  0.748820  0.908800  0.266900  1.0  -0.0342
  C  C477  1  0.709500  0.888260  0.300180  1.0  -0.1369
  C  C478  1  0.577570  0.055070  0.528090  1.0  0.685
  C  C479  1  0.624210  0.087250  0.549100  1.0  -0.1061
  C  C480  1  0.652560  0.117160  0.500360  1.0  -0.0698
  C  C481  1  0.695850  0.145990  0.519490  1.0  -0.107
  C  C482  1  0.710860  0.145330  0.581800  1.0  0.0691
  C  C483  1  0.681710  0.116480  0.631470  1.0  -0.1622
  C  C484  1  0.638560  0.087130  0.612520  1.0  -0.0303
  C  C485  1  0.757870  0.173360  0.600230  1.0  -0.0357
  C  C486  1  0.778410  0.154580  0.633510  1.0  -0.1351
  C  C487  1  0.244240  0.388400  0.861420  1.0  0.685
  C  C488  1  0.290880  0.420580  0.882430  1.0  -0.1061
  C  C489  1  0.319230  0.450490  0.833690  1.0  -0.0698
  C  C490  1  0.362520  0.479320  0.852820  1.0  -0.107
  C  C491  1  0.377530  0.478660  0.915130  1.0  0.0691
  C  C492  1  0.348380  0.449810  0.964800  1.0  -0.1622
  C  C493  1  0.305230  0.420460  0.945850  1.0  -0.0303
  C  C494  1  0.424540  0.506690  0.933560  1.0  -0.0353
  C  C495  1  0.445080  0.487910  0.966840  1.0  -0.1346
  C  C496  1  0.910900  0.721740  0.194760  1.0  0.685
  C  C497  1  0.957540  0.753920  0.215770  1.0  -0.1061
  C  C498  1  0.985890  0.783830  0.167030  1.0  -0.0698
  C  C499  1  0.029180  0.812660  0.186160  1.0  -0.107
  C  C500  1  0.044190  0.812000  0.248470  1.0  0.061
  C  C501  1  0.015040  0.783150  0.298140  1.0  -0.1622
  C  C502  1  0.971890  0.753800  0.279190  1.0  -0.0303
  C  C503  1  0.091200  0.840030  0.266900  1.0  -0.0355
  C  C504  1  0.111740  0.821250  0.300180  1.0  -0.1353
  C  C505  1  0.944930  0.522500  0.528090  1.0  0.6847
  C  C506  1  0.912750  0.536960  0.549100  1.0  -0.107
  C  C507  1  0.882840  0.535400  0.500360  1.0  -0.0709
  C  C508  1  0.854010  0.549860  0.519490  1.0  -0.1065
  C  C509  1  0.854670  0.565530  0.581800  1.0  0.0702
  C  C510  1  0.883520  0.565230  0.631470  1.0  -0.1608
  C  C511  1  0.912870  0.551430  0.612520  1.0  -0.0271
  C  C512  1  0.826640  0.584510  0.600230  1.0  -0.0323
  C  C513  1  0.845420  0.623830  0.633510  1.0  -0.138
  C  C514  1  0.611600  0.855830  0.861420  1.0  0.6847
  C  C515  1  0.579420  0.870290  0.882430  1.0  -0.107
  C  C516  1  0.549510  0.868730  0.833690  1.0  -0.0709
  C  C517  1  0.520680  0.883190  0.852820  1.0  -0.1065
  C  C518  1  0.521340  0.898860  0.915130  1.0  0.0702
  C  C519  1  0.550190  0.898560  0.964800  1.0  -0.1627
  C  C520  1  0.579540  0.884760  0.945850  1.0  -0.0271
  C  C521  1  0.493310  0.917840  0.933560  1.0  -0.0322
  C  C522  1  0.512090  0.957160  0.966840  1.0  -0.1377
  C  C523  1  0.278260  0.189170  0.194760  1.0  0.6847
  C  C524  1  0.246080  0.203630  0.215770  1.0  -0.107
  C  C525  1  0.216170  0.202070  0.167030  1.0  -0.0709
  C  C526  1  0.187340  0.216530  0.186160  1.0  -0.1065
  C  C527  1  0.188000  0.232200  0.248470  1.0  0.0702
  C  C528  1  0.216850  0.231900  0.298140  1.0  -0.1608
  C  C529  1  0.246200  0.218100  0.279190  1.0  -0.0271
  C  C530  1  0.159970  0.251180  0.266900  1.0  -0.0322
  C  C531  1  0.178750  0.290500  0.300180  1.0  -0.1299
  C  C532  1  0.422430  0.477500  0.471910  1.0  0.6846
  C  C533  1  0.375790  0.463040  0.450900  1.0  -0.1069
  C  C534  1  0.347440  0.464600  0.499640  1.0  -0.0709
  C  C535  1  0.304150  0.450140  0.480510  1.0  -0.1074
  C  C536  1  0.289140  0.434470  0.418200  1.0  0.0596
  C  C537  1  0.318290  0.434770  0.368530  1.0  -0.1561
  C  C538  1  0.361440  0.448570  0.387480  1.0  -0.0277
  C  C539  1  0.242130  0.415490  0.399770  1.0  -0.0324
  C  C540  1  0.221590  0.376170  0.366490  1.0  -0.1305
  C  C541  1  0.089100  0.810830  0.805240  1.0  0.6846
  C  C542  1  0.042460  0.796370  0.784230  1.0  -0.1069
  C  C543  1  0.014110  0.797930  0.832970  1.0  -0.0709
  C  C544  1  0.970820  0.783470  0.813840  1.0  -0.1074
  C  C545  1  0.955810  0.767800  0.751530  1.0  0.0602
  C  C546  1  0.984960  0.768100  0.701860  1.0  -0.1561
  C  C547  1  0.028110  0.781900  0.720810  1.0  -0.0277
  C  C548  1  0.908800  0.748820  0.733100  1.0  -0.0324
  C  C549  1  0.888260  0.709500  0.699820  1.0  -0.1383
  C  C550  1  0.755760  0.144170  0.138580  1.0  0.6846
  C  C551  1  0.709120  0.129710  0.117570  1.0  -0.1069
  C  C552  1  0.680770  0.131270  0.166310  1.0  -0.0709
  C  C553  1  0.637480  0.116810  0.147180  1.0  -0.1074
  C  C554  1  0.622470  0.101140  0.084870  1.0  0.0596
  C  C555  1  0.651620  0.101440  0.035200  1.0  -0.1561
  C  C556  1  0.694770  0.115240  0.054150  1.0  -0.0277
  C  C557  1  0.575460  0.082160  0.066440  1.0  -0.0324
  C  C558  1  0.554920  0.042840  0.033160  1.0  -0.1306
  C  C559  1  0.055070  0.577570  0.471910  1.0  0.6852
  C  C560  1  0.087250  0.624210  0.450900  1.0  -0.1059
  C  C561  1  0.117160  0.652560  0.499640  1.0  -0.071
  C  C562  1  0.145990  0.695850  0.480510  1.0  -0.1081
  C  C563  1  0.145330  0.710860  0.418200  1.0  0.0698
  C  C564  1  0.116480  0.681710  0.368530  1.0  -0.1582
  C  C565  1  0.087130  0.638560  0.387480  1.0  -0.0294
  C  C566  1  0.173360  0.757870  0.399770  1.0  -0.0342
  C  C567  1  0.154580  0.778410  0.366490  1.0  -0.1348
  C  C568  1  0.721740  0.910900  0.805240  1.0  0.6852
  C  C569  1  0.753920  0.957540  0.784230  1.0  -0.1059
  C  C570  1  0.783830  0.985890  0.832970  1.0  -0.071
  C  C571  1  0.812660  0.029180  0.813840  1.0  -0.1081
  C  C572  1  0.812000  0.044190  0.751530  1.0  0.0605
  C  C573  1  0.783150  0.015040  0.701860  1.0  -0.1582
  C  C574  1  0.753800  0.971890  0.720810  1.0  -0.0294
  C  C575  1  0.840030  0.091200  0.733100  1.0  -0.0345
  C  C576  1  0.821250  0.111740  0.699820  1.0  -0.1353
  C  C577  1  0.388400  0.244240  0.138580  1.0  0.6853
  C  C578  1  0.420580  0.290880  0.117570  1.0  -0.1059
  C  C579  1  0.450490  0.319230  0.166310  1.0  -0.071
  C  C580  1  0.479320  0.362520  0.147180  1.0  -0.1081
  C  C581  1  0.478660  0.377530  0.084870  1.0  0.0698
  C  C582  1  0.449810  0.348380  0.035200  1.0  -0.1582
  C  C583  1  0.420460  0.305230  0.054150  1.0  -0.0294
  C  C584  1  0.506690  0.424540  0.066440  1.0  -0.0343
  C  C585  1  0.487910  0.445080  0.033160  1.0  -0.1353
  C  C586  1  0.522500  0.944930  0.471910  1.0  0.6851
  C  C587  1  0.536960  0.912750  0.450900  1.0  -0.1061
  C  C588  1  0.535400  0.882840  0.499640  1.0  -0.0718
  C  C589  1  0.549860  0.854010  0.480510  1.0  -0.1064
  C  C590  1  0.565530  0.854670  0.418200  1.0  0.06
  C  C591  1  0.565230  0.883520  0.368530  1.0  -0.1593
  C  C592  1  0.551430  0.912870  0.387480  1.0  -0.0297
  C  C593  1  0.584510  0.826640  0.399770  1.0  -0.0348
  C  C594  1  0.623830  0.845420  0.366490  1.0  -0.134
  C  C595  1  0.189170  0.278260  0.805240  1.0  0.6851
  C  C596  1  0.203630  0.246080  0.784230  1.0  -0.1061
  C  C597  1  0.202070  0.216170  0.832970  1.0  -0.0718
  C  C598  1  0.216530  0.187340  0.813840  1.0  -0.1064
  C  C599  1  0.232200  0.188000  0.751530  1.0  0.06
  C  C600  1  0.231900  0.216850  0.701860  1.0  -0.1593
  C  C601  1  0.218100  0.246200  0.720810  1.0  -0.0297
  C  C602  1  0.251180  0.159970  0.733100  1.0  -0.0348
  C  C603  1  0.290500  0.178750  0.699820  1.0  -0.1266
  C  C604  1  0.855830  0.611600  0.138580  1.0  0.6851
  C  C605  1  0.870290  0.579420  0.117570  1.0  -0.1061
  C  C606  1  0.868730  0.549510  0.166310  1.0  -0.0718
  C  C607  1  0.883190  0.520680  0.147180  1.0  -0.1064
  C  C608  1  0.898860  0.521340  0.084870  1.0  0.06
  C  C609  1  0.898560  0.550190  0.035200  1.0  -0.1593
  C  C610  1  0.884760  0.579540  0.054150  1.0  -0.0297
  C  C611  1  0.917840  0.493310  0.066440  1.0  -0.0348
  C  C612  1  0.957160  0.512090  0.033160  1.0  -0.1335
  C  C613  1  0.644700  0.822350  0.347800  1.0  -0.0007
  C  C614  1  0.564610  0.782300  0.416300  1.0  0.1396
  C  C615  1  0.484600  0.742300  0.398200  1.0  -0.0485
  C  C616  1  0.447700  0.723850  0.456600  1.0  -0.3521
  C  C617  1  0.311370  0.155680  0.681130  1.0  -0.0007
  C  C618  1  0.231280  0.115640  0.749630  1.0  0.1396
  C  C619  1  0.151270  0.075630  0.731530  1.0  -0.0485
  C  C620  1  0.114370  0.057180  0.789930  1.0  -0.3521
  C  C621  1  0.978030  0.489020  0.014470  1.0  -0.0016
  C  C622  1  0.897940  0.448970  0.082970  1.0  0.1396
  C  C623  1  0.817930  0.408970  0.064870  1.0  -0.0485
  C  C624  1  0.781030  0.390520  0.123270  1.0  -0.3521
  C  C625  1  0.177650  0.822350  0.347800  1.0  0.0039
  C  C626  1  0.217700  0.782300  0.416300  1.0  0.1462
  C  C627  1  0.257700  0.742300  0.398200  1.0  -0.0513
  C  C628  1  0.276150  0.723850  0.456600  1.0  -0.3532
  C  C629  1  0.844320  0.155680  0.681130  1.0  0.0039
  C  C630  1  0.884360  0.115640  0.749630  1.0  0.1458
  C  C631  1  0.924370  0.075630  0.731530  1.0  -0.051
  C  C632  1  0.942820  0.057180  0.789930  1.0  -0.3532
  C  C633  1  0.510980  0.489020  0.014470  1.0  0.0046
  C  C634  1  0.551030  0.448970  0.082970  1.0  0.1462
  C  C635  1  0.591030  0.408970  0.064870  1.0  -0.0513
  C  C636  1  0.609480  0.390520  0.123270  1.0  -0.3532
  C  C637  1  0.177650  0.355300  0.347800  1.0  0.0007
  C  C638  1  0.217690  0.435390  0.416300  1.0  0.1438
  C  C639  1  0.257700  0.515400  0.398200  1.0  -0.0539
  C  C640  1  0.276150  0.552300  0.456600  1.0  -0.3538
  C  C641  1  0.844320  0.688630  0.681130  1.0  0.0007
  C  C642  1  0.884360  0.768720  0.749630  1.0  0.1438
  C  C643  1  0.924370  0.848730  0.731530  1.0  -0.0539
  C  C644  1  0.942820  0.885630  0.789930  1.0  -0.3538
  C  C645  1  0.510980  0.021970  0.014470  1.0  -0.0002
  C  C646  1  0.551030  0.102060  0.082970  1.0  0.1431
  C  C647  1  0.591030  0.182070  0.064870  1.0  -0.0567
  C  C648  1  0.609480  0.218970  0.123270  1.0  -0.3538
  C  C649  1  0.822350  0.644700  0.652200  1.0  0.0011
  C  C650  1  0.782300  0.564610  0.583700  1.0  0.1431
  C  C651  1  0.742300  0.484600  0.601800  1.0  -0.0526
  C  C652  1  0.723850  0.447700  0.543400  1.0  -0.3541
  C  C653  1  0.489020  0.978030  0.985530  1.0  0.0003
  C  C654  1  0.448970  0.897940  0.917030  1.0  0.1431
  C  C655  1  0.408970  0.817930  0.935130  1.0  -0.0526
  C  C656  1  0.390520  0.781030  0.876730  1.0  -0.3541
  C  C657  1  0.155680  0.311370  0.318870  1.0  0.0011
  C  C658  1  0.115640  0.231280  0.250370  1.0  0.1425
  C  C659  1  0.075630  0.151270  0.268470  1.0  -0.0545
  C  C660  1  0.057180  0.114370  0.210070  1.0  -0.3544
  C  C661  1  0.822350  0.177650  0.652200  1.0  0.0029
  C  C662  1  0.782310  0.217700  0.583700  1.0  0.1417
  C  C663  1  0.742300  0.257700  0.601800  1.0  -0.0503
  C  C664  1  0.723850  0.276150  0.543400  1.0  -0.3532
  C  C665  1  0.489020  0.510980  0.985530  1.0  0.0036
  C  C666  1  0.448970  0.551030  0.917030  1.0  0.1421
  C  C667  1  0.408970  0.591030  0.935130  1.0  -0.0506
  C  C668  1  0.390520  0.609480  0.876730  1.0  -0.3532
  C  C669  1  0.155680  0.844320  0.318870  1.0  0.0029
  C  C670  1  0.115640  0.884360  0.250370  1.0  0.1417
  C  C671  1  0.075630  0.924370  0.268470  1.0  -0.0503
  C  C672  1  0.057180  0.942820  0.210070  1.0  -0.3532
  C  C673  1  0.355300  0.177650  0.652200  1.0  0.0
  C  C674  1  0.435390  0.217700  0.583700  1.0  0.143
  C  C675  1  0.515400  0.257700  0.601800  1.0  -0.0514
  C  C676  1  0.552300  0.276150  0.543400  1.0  -0.3553
  C  C677  1  0.021970  0.510980  0.985530  1.0  -0.0008
  C  C678  1  0.102060  0.551030  0.917030  1.0  0.143
  C  C679  1  0.182070  0.591030  0.935130  1.0  -0.0514
  C  C680  1  0.218970  0.609480  0.876730  1.0  -0.3553
  C  C681  1  0.688630  0.844320  0.318870  1.0  0.0
  C  C682  1  0.768720  0.884360  0.250370  1.0  0.143
  C  C683  1  0.848730  0.924370  0.268470  1.0  -0.0514
  C  C684  1  0.885630  0.942820  0.210070  1.0  -0.3553
  O  O685  1  0.524320  0.553560  0.424680  1.0  -0.5692
  O  O686  1  0.511280  0.566660  0.530410  1.0  -0.5536
  O  O687  1  0.190990  0.886890  0.758010  1.0  -0.5692
  O  O688  1  0.177950  0.899990  0.863740  1.0  -0.5536
  O  O689  1  0.857650  0.220230  0.091350  1.0  -0.5696
  O  O690  1  0.844610  0.233330  0.197080  1.0  -0.5536
  O  O691  1  0.446440  0.970760  0.424680  1.0  -0.5706
  O  O692  1  0.433340  0.944620  0.530410  1.0  -0.5541
  O  O693  1  0.113110  0.304090  0.758010  1.0  -0.5713
  O  O694  1  0.100010  0.277950  0.863740  1.0  -0.5536
  O  O695  1  0.779770  0.637430  0.091350  1.0  -0.5705
  O  O696  1  0.766670  0.611290  0.197080  1.0  -0.5541
  O  O697  1  0.029240  0.475680  0.424680  1.0  -0.5695
  O  O698  1  0.055380  0.488720  0.530410  1.0  -0.5523
  O  O699  1  0.695910  0.809010  0.758010  1.0  -0.5695
  O  O700  1  0.722050  0.822050  0.863740  1.0  -0.5529
  O  O701  1  0.362570  0.142350  0.091350  1.0  -0.5727
  O  O702  1  0.388710  0.155390  0.197080  1.0  -0.5523
  O  O703  1  0.553560  0.524320  0.575320  1.0  -0.5677
  O  O704  1  0.566660  0.511280  0.469590  1.0  -0.5534
  O  O705  1  0.220230  0.857650  0.908650  1.0  -0.568
  O  O706  1  0.233330  0.844610  0.802920  1.0  -0.5534
  O  O707  1  0.886890  0.190990  0.241990  1.0  -0.5679
  O  O708  1  0.899990  0.177950  0.136260  1.0  -0.5534
  O  O709  1  0.970760  0.446440  0.575320  1.0  -0.5689
  O  O710  1  0.944620  0.433340  0.469590  1.0  -0.5527
  O  O711  1  0.637430  0.779770  0.908650  1.0  -0.5681
  O  O712  1  0.611290  0.766670  0.802920  1.0  -0.5527
  O  O713  1  0.304090  0.113110  0.241990  1.0  -0.5689
  O  O714  1  0.277950  0.100010  0.136260  1.0  -0.552
  O  O715  1  0.475680  0.029240  0.575320  1.0  -0.5696
  O  O716  1  0.488720  0.055380  0.469590  1.0  -0.5533
  O  O717  1  0.142350  0.362570  0.908650  1.0  -0.5727
  O  O718  1  0.155390  0.388710  0.802920  1.0  -0.5533
  O  O719  1  0.809010  0.695910  0.241990  1.0  -0.5696
  O  O720  1  0.822050  0.722050  0.136260  1.0  -0.5541
  O  O721  1  0.475680  0.446440  0.575320  1.0  -0.5683
  O  O722  1  0.488720  0.433340  0.469590  1.0  -0.5528
  O  O723  1  0.142350  0.779770  0.908650  1.0  -0.5686
  O  O724  1  0.155390  0.766670  0.802920  1.0  -0.5528
  O  O725  1  0.809010  0.113110  0.241990  1.0  -0.5685
  O  O726  1  0.822050  0.100010  0.136260  1.0  -0.5527
  O  O727  1  0.553560  0.029240  0.575320  1.0  -0.5705
  O  O728  1  0.566660  0.055380  0.469590  1.0  -0.5539
  O  O729  1  0.220230  0.362570  0.908650  1.0  -0.5695
  O  O730  1  0.233330  0.388710  0.802920  1.0  -0.5539
  O  O731  1  0.886890  0.695910  0.241990  1.0  -0.5705
  O  O732  1  0.899990  0.722050  0.136260  1.0  -0.5529
  O  O733  1  0.970760  0.524320  0.575320  1.0  -0.5679
  O  O734  1  0.944620  0.511280  0.469590  1.0  -0.5525
  O  O735  1  0.637430  0.857650  0.908650  1.0  -0.5711
  O  O736  1  0.611290  0.844610  0.802920  1.0  -0.5525
  O  O737  1  0.304090  0.190990  0.241990  1.0  -0.5679
  O  O738  1  0.277950  0.177950  0.136260  1.0  -0.5531
  O  O739  1  0.446440  0.475680  0.424680  1.0  -0.5692
  O  O740  1  0.433340  0.488720  0.530410  1.0  -0.5538
  O  O741  1  0.113110  0.809010  0.758010  1.0  -0.5692
  O  O742  1  0.100010  0.822050  0.863740  1.0  -0.5537
  O  O743  1  0.779770  0.142350  0.091350  1.0  -0.5695
  O  O744  1  0.766670  0.155390  0.197080  1.0  -0.5538
  O  O745  1  0.029240  0.553560  0.424680  1.0  -0.5707
  O  O746  1  0.055380  0.566660  0.530410  1.0  -0.5525
  O  O747  1  0.695910  0.886890  0.758010  1.0  -0.5707
  O  O748  1  0.722050  0.899990  0.863740  1.0  -0.5517
  O  O749  1  0.362570  0.220230  0.091350  1.0  -0.5697
  O  O750  1  0.388710  0.233330  0.197080  1.0  -0.5525
  O  O751  1  0.524320  0.970760  0.424680  1.0  -0.5707
  O  O752  1  0.511280  0.944620  0.530410  1.0  -0.5527
  O  O753  1  0.190990  0.304090  0.758010  1.0  -0.5707
  O  O754  1  0.177950  0.277950  0.863740  1.0  -0.5538
  O  O755  1  0.857650  0.637430  0.091350  1.0  -0.5733
  O  O756  1  0.844610  0.611290  0.197080  1.0  -0.5527
  O  O757  1  0.523560  0.761780  0.449900  1.0  -0.4581
  O  O758  1  0.190230  0.095110  0.783230  1.0  -0.458
  O  O759  1  0.856890  0.428450  0.116570  1.0  -0.4581
  O  O760  1  0.238220  0.761780  0.449900  1.0  -0.4575
  O  O761  1  0.904890  0.095110  0.783230  1.0  -0.4576
  O  O762  1  0.571550  0.428450  0.116570  1.0  -0.4575
  O  O763  1  0.238220  0.476440  0.449900  1.0  -0.4585
  O  O764  1  0.904890  0.809770  0.783230  1.0  -0.4585
  O  O765  1  0.571550  0.143110  0.116570  1.0  -0.4586
  O  O766  1  0.761780  0.523560  0.550100  1.0  -0.4567
  O  O767  1  0.428450  0.856890  0.883430  1.0  -0.4567
  O  O768  1  0.095110  0.190230  0.216770  1.0  -0.4567
  O  O769  1  0.761780  0.238220  0.550100  1.0  -0.4555
  O  O770  1  0.428450  0.571550  0.883430  1.0  -0.4555
  O  O771  1  0.095110  0.904890  0.216770  1.0  -0.4556
  O  O772  1  0.476440  0.238220  0.550100  1.0  -0.4555
  O  O773  1  0.143110  0.571550  0.883430  1.0  -0.4555
  O  O774  1  0.809770  0.904890  0.216770  1.0  -0.4555
