# generated using pymatgen
data_CuH15C22O5
_symmetry_space_group_name_H-M   'P 1'
_cell_length_a   35.26680000
_cell_length_b   35.26680000
_cell_length_c   21.13740000
_cell_angle_alpha   90.00000000
_cell_angle_beta   90.00000000
_cell_angle_gamma   120.00000000
_symmetry_Int_Tables_number   1
_chemical_formula_structural   CuH15C22O5
_chemical_formula_sum   'Cu18 H270 C396 O90'
_cell_volume   22767.44559830
_cell_formula_units_Z   18
loop_
 _symmetry_equiv_pos_site_id
 _symmetry_equiv_pos_as_xyz
  1  'x, y, z'
loop_
 _atom_site_type_symbol
 _atom_site_label
 _atom_site_symmetry_multiplicity
 _atom_site_fract_x
 _atom_site_fract_y
 _atom_site_fract_z
 _atom_site_occupancy
 _atom_site_charge
  Cu  Cu1  1  0.319140  0.159570  0.607700  1.0  0.8946
  Cu  Cu2  1  0.985810  0.492900  0.941030  1.0  0.8976
  Cu  Cu3  1  0.652470  0.826240  0.274370  1.0  0.8946
  Cu  Cu4  1  0.840430  0.159570  0.607700  1.0  0.8921
  Cu  Cu5  1  0.507100  0.492900  0.941030  1.0  0.8964
  Cu  Cu6  1  0.173760  0.826240  0.274370  1.0  0.8921
  Cu  Cu7  1  0.840430  0.680860  0.607700  1.0  0.8938
  Cu  Cu8  1  0.507100  0.014190  0.941030  1.0  0.8965
  Cu  Cu9  1  0.173760  0.347530  0.274370  1.0  0.8938
  Cu  Cu10  1  0.159570  0.319140  0.392300  1.0  0.8936
  Cu  Cu11  1  0.826240  0.652470  0.725630  1.0  0.8936
  Cu  Cu12  1  0.492900  0.985810  0.058970  1.0  0.8957
  Cu  Cu13  1  0.159570  0.840430  0.392300  1.0  0.8912
  Cu  Cu14  1  0.826240  0.173760  0.725630  1.0  0.8912
  Cu  Cu15  1  0.492900  0.507100  0.058970  1.0  0.8955
  Cu  Cu16  1  0.680860  0.840430  0.392300  1.0  0.8944
  Cu  Cu17  1  0.347530  0.173760  0.725630  1.0  0.8944
  Cu  Cu18  1  0.014190  0.507100  0.058970  1.0  0.8971
  H  H19  1  0.445800  0.311900  0.712100  1.0  0.1079
  H  H20  1  0.492400  0.384400  0.685700  1.0  0.1006
  H  H21  1  0.451100  0.359400  0.506100  1.0  0.1135
  H  H22  1  0.403500  0.287100  0.532800  1.0  0.1032
  H  H23  1  0.457400  0.429800  0.526500  1.0  0.1042
  H  H24  1  0.609800  0.434700  0.570300  1.0  0.0852
  H  H25  1  0.627800  0.416600  0.668200  1.0  0.1144
  H  H26  1  0.112470  0.645230  0.045430  1.0  0.1079
  H  H27  1  0.159070  0.717730  0.019030  1.0  0.1006
  H  H28  1  0.117770  0.692730  0.839430  1.0  0.1135
  H  H29  1  0.070170  0.620430  0.866130  1.0  0.1032
  H  H30  1  0.124070  0.763130  0.859830  1.0  0.1042
  H  H31  1  0.276470  0.768030  0.903630  1.0  0.0852
  H  H32  1  0.294470  0.749930  0.001530  1.0  0.1144
  H  H33  1  0.779130  0.978570  0.378770  1.0  0.1097
  H  H34  1  0.825730  0.051070  0.352370  1.0  0.1006
  H  H35  1  0.784430  0.026070  0.172770  1.0  0.1135
  H  H36  1  0.736830  0.953770  0.199470  1.0  0.1045
  H  H37  1  0.790730  0.096470  0.193170  1.0  0.1042
  H  H38  1  0.943130  0.101370  0.236970  1.0  0.0878
  H  H39  1  0.961130  0.083270  0.334870  1.0  0.1149
  H  H40  1  0.688100  0.133900  0.712100  1.0  0.1097
  H  H41  1  0.615600  0.108000  0.685700  1.0  0.1019
  H  H42  1  0.640600  0.091700  0.506100  1.0  0.1136
  H  H43  1  0.712900  0.116400  0.532800  1.0  0.1051
  H  H44  1  0.570200  0.027600  0.526500  1.0  0.1044
  H  H45  1  0.565300  0.175100  0.570300  1.0  0.0833
  H  H46  1  0.583400  0.211200  0.668200  1.0  0.1139
  H  H47  1  0.354770  0.467230  0.045430  1.0  0.1097
  H  H48  1  0.282270  0.441330  0.019030  1.0  0.1003
  H  H49  1  0.307270  0.425030  0.839430  1.0  0.1136
  H  H50  1  0.379570  0.449730  0.866130  1.0  0.1051
  H  H51  1  0.236870  0.360930  0.859830  1.0  0.1044
  H  H52  1  0.231970  0.508430  0.903630  1.0  0.0833
  H  H53  1  0.250070  0.544530  0.001530  1.0  0.1139
  H  H54  1  0.021430  0.800570  0.378770  1.0  0.1097
  H  H55  1  0.948930  0.774670  0.352370  1.0  0.1009
  H  H56  1  0.973930  0.758370  0.172770  1.0  0.1139
  H  H57  1  0.046230  0.783070  0.199470  1.0  0.1048
  H  H58  1  0.903530  0.694270  0.193170  1.0  0.1044
  H  H59  1  0.898630  0.841770  0.236970  1.0  0.0851
  H  H60  1  0.916730  0.877870  0.334870  1.0  0.1142
  H  H61  1  0.866100  0.554200  0.712100  1.0  0.1104
  H  H62  1  0.892000  0.507600  0.685700  1.0  0.1019
  H  H63  1  0.908300  0.548900  0.506100  1.0  0.1133
  H  H64  1  0.883600  0.596500  0.532800  1.0  0.1046
  H  H65  1  0.972400  0.542600  0.526500  1.0  0.1054
  H  H66  1  0.824900  0.390200  0.570300  1.0  0.0846
  H  H67  1  0.788800  0.372200  0.668200  1.0  0.1149
  H  H68  1  0.532770  0.887530  0.045430  1.0  0.1104
  H  H69  1  0.558670  0.840930  0.019030  1.0  0.1011
  H  H70  1  0.574970  0.882230  0.839430  1.0  0.1133
  H  H71  1  0.550270  0.929830  0.866130  1.0  0.1046
  H  H72  1  0.639070  0.875930  0.859830  1.0  0.1054
  H  H73  1  0.491570  0.723530  0.903630  1.0  0.0846
  H  H74  1  0.455470  0.705530  0.001530  1.0  0.1149
  H  H75  1  0.199430  0.220870  0.378770  1.0  0.1086
  H  H76  1  0.225330  0.174270  0.352370  1.0  0.1003
  H  H77  1  0.241630  0.215570  0.172770  1.0  0.1131
  H  H78  1  0.216930  0.263170  0.199470  1.0  0.103
  H  H79  1  0.305730  0.209270  0.193170  1.0  0.1054
  H  H80  1  0.158230  0.056870  0.236970  1.0  0.0854
  H  H81  1  0.122130  0.038870  0.334870  1.0  0.1147
  H  H82  1  0.311900  0.445800  0.287900  1.0  0.1085
  H  H83  1  0.384400  0.492400  0.314300  1.0  0.1009
  H  H84  1  0.359400  0.451100  0.493900  1.0  0.1138
  H  H85  1  0.287100  0.403500  0.467200  1.0  0.1039
  H  H86  1  0.429800  0.457400  0.473500  1.0  0.1048
  H  H87  1  0.434700  0.609800  0.429700  1.0  0.0846
  H  H88  1  0.416600  0.627800  0.331800  1.0  0.1126
  H  H89  1  0.978570  0.779130  0.621230  1.0  0.1105
  H  H90  1  0.051070  0.825730  0.647630  1.0  0.1009
  H  H91  1  0.026070  0.784430  0.827230  1.0  0.1138
  H  H92  1  0.953770  0.736830  0.800530  1.0  0.1048
  H  H93  1  0.096470  0.790730  0.806830  1.0  0.1048
  H  H94  1  0.101370  0.943130  0.763030  1.0  0.087
  H  H95  1  0.083270  0.961130  0.665130  1.0  0.1132
  H  H96  1  0.645230  0.112470  0.954570  1.0  0.1085
  H  H97  1  0.717730  0.159070  0.980970  1.0  0.1009
  H  H98  1  0.692730  0.117770  0.160570  1.0  0.1138
  H  H99  1  0.620430  0.070170  0.133870  1.0  0.1039
  H  H100  1  0.763130  0.124070  0.140170  1.0  0.1048
  H  H101  1  0.768030  0.276470  0.096370  1.0  0.0846
  H  H102  1  0.749930  0.294470  0.998470  1.0  0.1126
  H  H103  1  0.133900  0.688100  0.287900  1.0  0.11
  H  H104  1  0.108000  0.615600  0.314300  1.0  0.1023
  H  H105  1  0.091700  0.640600  0.493900  1.0  0.1132
  H  H106  1  0.116400  0.712900  0.467200  1.0  0.1048
  H  H107  1  0.027600  0.570200  0.473500  1.0  0.1049
  H  H108  1  0.175100  0.565300  0.429700  1.0  0.0855
  H  H109  1  0.211200  0.583400  0.331800  1.0  0.1141
  H  H110  1  0.800570  0.021430  0.621230  1.0  0.11
  H  H111  1  0.774670  0.948930  0.647630  1.0  0.1015
  H  H112  1  0.758370  0.973930  0.827230  1.0  0.1134
  H  H113  1  0.783070  0.046230  0.800530  1.0  0.1045
  H  H114  1  0.694270  0.903530  0.806830  1.0  0.1049
  H  H115  1  0.841770  0.898630  0.763030  1.0  0.0872
  H  H116  1  0.877870  0.916730  0.665130  1.0  0.1144
  H  H117  1  0.467230  0.354770  0.954570  1.0  0.11
  H  H118  1  0.441330  0.282270  0.980970  1.0  0.1006
  H  H119  1  0.425030  0.307270  0.160570  1.0  0.1132
  H  H120  1  0.449730  0.379570  0.133870  1.0  0.1048
  H  H121  1  0.360930  0.236870  0.140170  1.0  0.1049
  H  H122  1  0.508430  0.231970  0.096370  1.0  0.0855
  H  H123  1  0.544530  0.250070  0.998470  1.0  0.1141
  H  H124  1  0.554200  0.866100  0.287900  1.0  0.1095
  H  H125  1  0.507600  0.892000  0.314300  1.0  0.1022
  H  H126  1  0.548900  0.908300  0.493900  1.0  0.1133
  H  H127  1  0.596500  0.883600  0.467200  1.0  0.105
  H  H128  1  0.542600  0.972400  0.473500  1.0  0.1049
  H  H129  1  0.390200  0.824900  0.429700  1.0  0.0837
  H  H130  1  0.372200  0.788800  0.331800  1.0  0.113
  H  H131  1  0.220870  0.199430  0.621230  1.0  0.1077
  H  H132  1  0.174270  0.225330  0.647630  1.0  0.1012
  H  H133  1  0.215570  0.241630  0.827230  1.0  0.1128
  H  H134  1  0.263170  0.216930  0.800530  1.0  0.1039
  H  H135  1  0.209270  0.305730  0.806830  1.0  0.1049
  H  H136  1  0.056870  0.158230  0.763030  1.0  0.084
  H  H137  1  0.038870  0.122130  0.665130  1.0  0.1137
  H  H138  1  0.887530  0.532770  0.954570  1.0  0.1095
  H  H139  1  0.840930  0.558670  0.980970  1.0  0.1017
  H  H140  1  0.882230  0.574970  0.160570  1.0  0.1133
  H  H141  1  0.929830  0.550270  0.133870  1.0  0.105
  H  H142  1  0.875930  0.639070  0.140170  1.0  0.1049
  H  H143  1  0.723530  0.491570  0.096370  1.0  0.0837
  H  H144  1  0.705530  0.455470  0.998470  1.0  0.113
  H  H145  1  0.554200  0.688100  0.287900  1.0  0.108
  H  H146  1  0.507600  0.615600  0.314300  1.0  0.1007
  H  H147  1  0.548900  0.640600  0.493900  1.0  0.1133
  H  H148  1  0.596500  0.712900  0.467200  1.0  0.1036
  H  H149  1  0.542600  0.570200  0.473500  1.0  0.1042
  H  H150  1  0.390200  0.565300  0.429700  1.0  0.0856
  H  H151  1  0.372200  0.583400  0.331800  1.0  0.1133
  H  H152  1  0.220870  0.021430  0.621230  1.0  0.1098
  H  H153  1  0.174270  0.948930  0.647630  1.0  0.1007
  H  H154  1  0.215570  0.973930  0.827230  1.0  0.1133
  H  H155  1  0.263170  0.046230  0.800530  1.0  0.1046
  H  H156  1  0.209270  0.903530  0.806830  1.0  0.1042
  H  H157  1  0.056870  0.898630  0.763030  1.0  0.088
  H  H158  1  0.038870  0.916730  0.665130  1.0  0.1131
  H  H159  1  0.887530  0.354770  0.954570  1.0  0.108
  H  H160  1  0.840930  0.282270  0.980970  1.0  0.1007
  H  H161  1  0.882230  0.307270  0.160570  1.0  0.1133
  H  H162  1  0.929830  0.379570  0.133870  1.0  0.1036
  H  H163  1  0.875930  0.236870  0.140170  1.0  0.1042
  H  H164  1  0.723530  0.231970  0.096370  1.0  0.0856
  H  H165  1  0.705530  0.250070  0.998470  1.0  0.1133
  H  H166  1  0.311900  0.866100  0.287900  1.0  0.1096
  H  H167  1  0.384400  0.892000  0.314300  1.0  0.1028
  H  H168  1  0.359400  0.908300  0.493900  1.0  0.1132
  H  H169  1  0.287100  0.883600  0.467200  1.0  0.105
  H  H170  1  0.429800  0.972400  0.473500  1.0  0.1047
  H  H171  1  0.434700  0.824900  0.429700  1.0  0.0832
  H  H172  1  0.416600  0.788800  0.331800  1.0  0.111
  H  H173  1  0.978570  0.199430  0.621230  1.0  0.1096
  H  H174  1  0.051070  0.225330  0.647630  1.0  0.1018
  H  H175  1  0.026070  0.241630  0.827230  1.0  0.1134
  H  H176  1  0.953770  0.216930  0.800530  1.0  0.1047
  H  H177  1  0.096470  0.305730  0.806830  1.0  0.1047
  H  H178  1  0.101370  0.158230  0.763030  1.0  0.0845
  H  H179  1  0.083270  0.122130  0.665130  1.0  0.1115
  H  H180  1  0.645230  0.532770  0.954570  1.0  0.1096
  H  H181  1  0.717730  0.558670  0.980970  1.0  0.1011
  H  H182  1  0.692730  0.574970  0.160570  1.0  0.1132
  H  H183  1  0.620430  0.550270  0.133870  1.0  0.105
  H  H184  1  0.763130  0.639070  0.140170  1.0  0.1047
  H  H185  1  0.768030  0.491570  0.096370  1.0  0.0832
  H  H186  1  0.749930  0.455470  0.998470  1.0  0.111
  H  H187  1  0.133900  0.445800  0.287900  1.0  0.1106
  H  H188  1  0.108000  0.492400  0.314300  1.0  0.1017
  H  H189  1  0.091700  0.451100  0.493900  1.0  0.1137
  H  H190  1  0.116400  0.403500  0.467200  1.0  0.1047
  H  H191  1  0.027600  0.457400  0.473500  1.0  0.1046
  H  H192  1  0.175100  0.609800  0.429700  1.0  0.0848
  H  H193  1  0.211200  0.627800  0.331800  1.0  0.115
  H  H194  1  0.800570  0.779130  0.621230  1.0  0.1087
  H  H195  1  0.774670  0.825730  0.647630  1.0  0.1005
  H  H196  1  0.758370  0.784430  0.827230  1.0  0.1133
  H  H197  1  0.783070  0.736830  0.800530  1.0  0.1035
  H  H198  1  0.694270  0.790730  0.806830  1.0  0.1046
  H  H199  1  0.841770  0.943130  0.763030  1.0  0.0854
  H  H200  1  0.877870  0.961130  0.665130  1.0  0.1159
  H  H201  1  0.467230  0.112470  0.954570  1.0  0.1106
  H  H202  1  0.441330  0.159070  0.980970  1.0  0.1014
  H  H203  1  0.425030  0.117770  0.160570  1.0  0.1137
  H  H204  1  0.449730  0.070170  0.133870  1.0  0.1047
  H  H205  1  0.360930  0.124070  0.140170  1.0  0.1046
  H  H206  1  0.508430  0.276470  0.096370  1.0  0.0848
  H  H207  1  0.544530  0.294470  0.998470  1.0  0.115
  H  H208  1  0.688100  0.554200  0.712100  1.0  0.1087
  H  H209  1  0.615600  0.507600  0.685700  1.0  0.1003
  H  H210  1  0.640600  0.548900  0.506100  1.0  0.1132
  H  H211  1  0.712900  0.596500  0.532800  1.0  0.1037
  H  H212  1  0.570200  0.542600  0.526500  1.0  0.1056
  H  H213  1  0.565300  0.390200  0.570300  1.0  0.0851
  H  H214  1  0.583400  0.372200  0.668200  1.0  0.1143
  H  H215  1  0.354770  0.887530  0.045430  1.0  0.1087
  H  H216  1  0.282270  0.840930  0.019030  1.0  0.1003
  H  H217  1  0.307270  0.882230  0.839430  1.0  0.1132
  H  H218  1  0.379570  0.929830  0.866130  1.0  0.1037
  H  H219  1  0.236870  0.875930  0.859830  1.0  0.1056
  H  H220  1  0.231970  0.723530  0.903630  1.0  0.0851
  H  H221  1  0.250070  0.705530  0.001530  1.0  0.1143
  H  H222  1  0.021430  0.220870  0.378770  1.0  0.1103
  H  H223  1  0.948930  0.174270  0.352370  1.0  0.1003
  H  H224  1  0.973930  0.215570  0.172770  1.0  0.1132
  H  H225  1  0.046230  0.263170  0.199470  1.0  0.1049
  H  H226  1  0.903530  0.209270  0.193170  1.0  0.1056
  H  H227  1  0.898630  0.056870  0.236970  1.0  0.0875
  H  H228  1  0.916730  0.038870  0.334870  1.0  0.115
  H  H229  1  0.866100  0.311900  0.712100  1.0  0.11
  H  H230  1  0.892000  0.384400  0.685700  1.0  0.1017
  H  H231  1  0.908300  0.359400  0.506100  1.0  0.1132
  H  H232  1  0.883600  0.287100  0.532800  1.0  0.1046
  H  H233  1  0.972400  0.429800  0.526500  1.0  0.1042
  H  H234  1  0.824900  0.434700  0.570300  1.0  0.0853
  H  H235  1  0.788800  0.416600  0.668200  1.0  0.1144
  H  H236  1  0.532770  0.645230  0.045430  1.0  0.1099
  H  H237  1  0.558670  0.717730  0.019030  1.0  0.1002
  H  H238  1  0.574970  0.692730  0.839430  1.0  0.1132
  H  H239  1  0.550270  0.620430  0.866130  1.0  0.1046
  H  H240  1  0.639070  0.763130  0.859830  1.0  0.1042
  H  H241  1  0.491570  0.768030  0.903630  1.0  0.0853
  H  H242  1  0.455470  0.749930  0.001530  1.0  0.1144
  H  H243  1  0.199430  0.978570  0.378770  1.0  0.11
  H  H244  1  0.225330  0.051070  0.352370  1.0  0.1008
  H  H245  1  0.241630  0.026070  0.172770  1.0  0.1136
  H  H246  1  0.216930  0.953770  0.199470  1.0  0.1044
  H  H247  1  0.305730  0.096470  0.193170  1.0  0.1042
  H  H248  1  0.158230  0.101370  0.236970  1.0  0.0876
  H  H249  1  0.122130  0.083270  0.334870  1.0  0.1148
  H  H250  1  0.445800  0.133900  0.712100  1.0  0.1095
  H  H251  1  0.492400  0.108000  0.685700  1.0  0.1025
  H  H252  1  0.451100  0.091700  0.506100  1.0  0.1131
  H  H253  1  0.403500  0.116400  0.532800  1.0  0.1048
  H  H254  1  0.457400  0.027600  0.526500  1.0  0.1051
  H  H255  1  0.609800  0.175100  0.570300  1.0  0.0827
  H  H256  1  0.627800  0.211200  0.668200  1.0  0.1131
  H  H257  1  0.112470  0.467230  0.045430  1.0  0.1095
  H  H258  1  0.159070  0.441330  0.019030  1.0  0.1018
  H  H259  1  0.117770  0.425030  0.839430  1.0  0.1131
  H  H260  1  0.070170  0.449730  0.866130  1.0  0.1048
  H  H261  1  0.124070  0.360930  0.859830  1.0  0.1051
  H  H262  1  0.276470  0.508430  0.903630  1.0  0.0827
  H  H263  1  0.294470  0.544530  0.001530  1.0  0.1131
  H  H264  1  0.779130  0.800570  0.378770  1.0  0.1077
  H  H265  1  0.825730  0.774670  0.352370  1.0  0.101
  H  H266  1  0.784430  0.758370  0.172770  1.0  0.1128
  H  H267  1  0.736830  0.783070  0.199470  1.0  0.1033
  H  H268  1  0.790730  0.694270  0.193170  1.0  0.1051
  H  H269  1  0.943130  0.841770  0.236970  1.0  0.0832
  H  H270  1  0.961130  0.877870  0.334870  1.0  0.1128
  H  H271  1  0.619500  0.380500  0.618100  1.0  0.1114
  H  H272  1  0.286170  0.713830  0.951430  1.0  0.1114
  H  H273  1  0.952830  0.047170  0.284770  1.0  0.1123
  H  H274  1  0.619500  0.239000  0.618100  1.0  0.1128
  H  H275  1  0.286170  0.572330  0.951430  1.0  0.1128
  H  H276  1  0.952830  0.905670  0.284770  1.0  0.112
  H  H277  1  0.761000  0.380500  0.618100  1.0  0.1084
  H  H278  1  0.427670  0.713830  0.951430  1.0  0.1084
  H  H279  1  0.094330  0.047170  0.284770  1.0  0.1081
  H  H280  1  0.380500  0.619500  0.381900  1.0  0.1089
  H  H281  1  0.047170  0.952830  0.715230  1.0  0.1087
  H  H282  1  0.713830  0.286170  0.048570  1.0  0.1089
  H  H283  1  0.239000  0.619500  0.381900  1.0  0.1125
  H  H284  1  0.905670  0.952830  0.715230  1.0  0.1117
  H  H285  1  0.572330  0.286170  0.048570  1.0  0.1125
  H  H286  1  0.380500  0.761000  0.381900  1.0  0.1103
  H  H287  1  0.047170  0.094330  0.715230  1.0  0.1096
  H  H288  1  0.713830  0.427670  0.048570  1.0  0.1103
  C  C289  1  0.388390  0.245070  0.641180  1.0  0.6758
  C  C290  1  0.419800  0.291910  0.624260  1.0  -0.1208
  C  C291  1  0.446670  0.321420  0.670780  1.0  -0.0634
  C  C292  1  0.474570  0.364970  0.654720  1.0  -0.1204
  C  C293  1  0.476420  0.379930  0.594310  1.0  0.0581
  C  C294  1  0.449830  0.350120  0.547640  1.0  -0.1607
  C  C295  1  0.421500  0.306550  0.563700  1.0  -0.0422
  C  C296  1  0.504060  0.426900  0.575940  1.0  -0.049
  C  C297  1  0.486460  0.446450  0.539090  1.0  -0.1077
  C  C298  1  0.055060  0.578400  0.974510  1.0  0.6757
  C  C299  1  0.086470  0.625240  0.957590  1.0  -0.121
  C  C300  1  0.113340  0.654750  0.004110  1.0  -0.0634
  C  C301  1  0.141240  0.698300  0.988050  1.0  -0.1203
  C  C302  1  0.143090  0.713260  0.927640  1.0  0.0581
  C  C303  1  0.116500  0.683450  0.880970  1.0  -0.1607
  C  C304  1  0.088170  0.639880  0.897030  1.0  -0.0422
  C  C305  1  0.170730  0.760230  0.909270  1.0  -0.049
  C  C306  1  0.153130  0.779780  0.872420  1.0  -0.1077
  C  C307  1  0.721720  0.911740  0.307850  1.0  0.6758
  C  C308  1  0.753130  0.958580  0.290930  1.0  -0.1208
  C  C309  1  0.780000  0.988090  0.337450  1.0  -0.0634
  C  C310  1  0.807900  0.031640  0.321390  1.0  -0.1204
  C  C311  1  0.809750  0.046600  0.260980  1.0  0.0581
  C  C312  1  0.783160  0.016790  0.214310  1.0  -0.1607
  C  C313  1  0.754830  0.973220  0.230370  1.0  -0.0422
  C  C314  1  0.837390  0.093570  0.242610  1.0  -0.049
  C  C315  1  0.819790  0.113120  0.205760  1.0  -0.1077
  C  C316  1  0.754930  0.143320  0.641180  1.0  0.6758
  C  C317  1  0.708090  0.127890  0.624260  1.0  -0.1213
  C  C318  1  0.678580  0.125250  0.670780  1.0  -0.0643
  C  C319  1  0.635030  0.109600  0.654720  1.0  -0.1183
  C  C320  1  0.620070  0.096490  0.594310  1.0  0.0572
  C  C321  1  0.649880  0.099710  0.547640  1.0  -0.1593
  C  C322  1  0.693450  0.114950  0.563700  1.0  -0.0418
  C  C323  1  0.573100  0.077160  0.575940  1.0  -0.0476
  C  C324  1  0.553550  0.040010  0.539090  1.0  -0.1047
  C  C325  1  0.421600  0.476650  0.974510  1.0  0.6757
  C  C326  1  0.374760  0.461220  0.957590  1.0  -0.1213
  C  C327  1  0.345250  0.458580  0.004110  1.0  -0.0643
  C  C328  1  0.301700  0.442930  0.988050  1.0  -0.1184
  C  C329  1  0.286740  0.429820  0.927640  1.0  0.0572
  C  C330  1  0.316550  0.433040  0.880970  1.0  -0.1593
  C  C331  1  0.360120  0.448280  0.897030  1.0  -0.0418
  C  C332  1  0.239770  0.410490  0.909270  1.0  -0.0476
  C  C333  1  0.220220  0.373340  0.872420  1.0  -0.1073
  C  C334  1  0.088260  0.809990  0.307850  1.0  0.6758
  C  C335  1  0.041420  0.794560  0.290930  1.0  -0.1213
  C  C336  1  0.011910  0.791920  0.337450  1.0  -0.0643
  C  C337  1  0.968360  0.776270  0.321390  1.0  -0.1183
  C  C338  1  0.953400  0.763160  0.260980  1.0  0.0572
  C  C339  1  0.983210  0.766380  0.214310  1.0  -0.1593
  C  C340  1  0.026780  0.781620  0.230370  1.0  -0.0418
  C  C341  1  0.906430  0.743830  0.242610  1.0  -0.0476
  C  C342  1  0.886880  0.706680  0.205760  1.0  -0.1047
  C  C343  1  0.856680  0.611610  0.641180  1.0  0.6756
  C  C344  1  0.872110  0.580200  0.624260  1.0  -0.1205
  C  C345  1  0.874750  0.553330  0.670780  1.0  -0.0643
  C  C346  1  0.890400  0.525430  0.654720  1.0  -0.1173
  C  C347  1  0.903510  0.523580  0.594310  1.0  0.0587
  C  C348  1  0.900290  0.550170  0.547640  1.0  -0.1616
  C  C349  1  0.885050  0.578500  0.563700  1.0  -0.0432
  C  C350  1  0.922840  0.495940  0.575940  1.0  -0.0484
  C  C351  1  0.959990  0.513540  0.539090  1.0  -0.1057
  C  C352  1  0.523350  0.944940  0.974510  1.0  0.6758
  C  C353  1  0.538780  0.913530  0.957590  1.0  -0.1205
  C  C354  1  0.541420  0.886660  0.004110  1.0  -0.0643
  C  C355  1  0.557070  0.858760  0.988050  1.0  -0.1173
  C  C356  1  0.570180  0.856910  0.927640  1.0  0.0587
  C  C357  1  0.566960  0.883500  0.880970  1.0  -0.1616
  C  C358  1  0.551720  0.911830  0.897030  1.0  -0.0432
  C  C359  1  0.589510  0.829270  0.909270  1.0  -0.0484
  C  C360  1  0.626660  0.846870  0.872420  1.0  -0.1023
  C  C361  1  0.190010  0.278280  0.307850  1.0  0.6756
  C  C362  1  0.205440  0.246870  0.290930  1.0  -0.1205
  C  C363  1  0.208080  0.220000  0.337450  1.0  -0.0643
  C  C364  1  0.223730  0.192100  0.321390  1.0  -0.1173
  C  C365  1  0.236840  0.190250  0.260980  1.0  0.0587
  C  C366  1  0.233620  0.216840  0.214310  1.0  -0.1616
  C  C367  1  0.218380  0.245170  0.230370  1.0  -0.0432
  C  C368  1  0.256170  0.162610  0.242610  1.0  -0.0484
  C  C369  1  0.293320  0.180210  0.205760  1.0  -0.1057
  C  C370  1  0.245070  0.388390  0.358820  1.0  0.6754
  C  C371  1  0.291910  0.419800  0.375740  1.0  -0.121
  C  C372  1  0.321420  0.446670  0.329220  1.0  -0.0644
  C  C373  1  0.364970  0.474570  0.345280  1.0  -0.1198
  C  C374  1  0.379930  0.476420  0.405690  1.0  0.059
  C  C375  1  0.350120  0.449830  0.452360  1.0  -0.1627
  C  C376  1  0.306550  0.421500  0.436300  1.0  -0.0436
  C  C377  1  0.426900  0.504060  0.424060  1.0  -0.0488
  C  C378  1  0.446450  0.486460  0.460910  1.0  -0.1054
  C  C379  1  0.911740  0.721720  0.692150  1.0  0.6754
  C  C380  1  0.958580  0.753130  0.709070  1.0  -0.121
  C  C381  1  0.988090  0.780000  0.662550  1.0  -0.0644
  C  C382  1  0.031640  0.807900  0.678610  1.0  -0.1198
  C  C383  1  0.046600  0.809750  0.739020  1.0  0.059
  C  C384  1  0.016790  0.783160  0.785690  1.0  -0.1627
  C  C385  1  0.973220  0.754830  0.769630  1.0  -0.0436
  C  C386  1  0.093570  0.837390  0.757390  1.0  -0.0488
  C  C387  1  0.113120  0.819790  0.794240  1.0  -0.1054
  C  C388  1  0.578400  0.055060  0.025490  1.0  0.6753
  C  C389  1  0.625240  0.086470  0.042410  1.0  -0.1212
  C  C390  1  0.654750  0.113340  0.995890  1.0  -0.0644
  C  C391  1  0.698300  0.141240  0.011950  1.0  -0.1197
  C  C392  1  0.713260  0.143090  0.072360  1.0  0.059
  C  C393  1  0.683450  0.116500  0.119030  1.0  -0.1627
  C  C394  1  0.639880  0.088170  0.102970  1.0  -0.0436
  C  C395  1  0.760230  0.170730  0.090730  1.0  -0.0488
  C  C396  1  0.779780  0.153130  0.127580  1.0  -0.1054
  C  C397  1  0.143320  0.754930  0.358820  1.0  0.6762
  C  C398  1  0.127890  0.708090  0.375740  1.0  -0.1199
  C  C399  1  0.125250  0.678580  0.329220  1.0  -0.0657
  C  C400  1  0.109600  0.635030  0.345280  1.0  -0.1206
  C  C401  1  0.096490  0.620070  0.405690  1.0  0.0581
  C  C402  1  0.099710  0.649880  0.452360  1.0  -0.1626
  C  C403  1  0.114950  0.693450  0.436300  1.0  -0.0444
  C  C404  1  0.077160  0.573100  0.424060  1.0  -0.0491
  C  C405  1  0.040010  0.553550  0.460910  1.0  -0.1058
  C  C406  1  0.809990  0.088260  0.692150  1.0  0.6762
  C  C407  1  0.794560  0.041420  0.709070  1.0  -0.1199
  C  C408  1  0.791920  0.011910  0.662550  1.0  -0.0657
  C  C409  1  0.776270  0.968360  0.678610  1.0  -0.1206
  C  C410  1  0.763160  0.953400  0.739020  1.0  0.0581
  C  C411  1  0.766380  0.983210  0.785690  1.0  -0.1626
  C  C412  1  0.781620  0.026780  0.769630  1.0  -0.0444
  C  C413  1  0.743830  0.906430  0.757390  1.0  -0.0491
  C  C414  1  0.706680  0.886880  0.794240  1.0  -0.1058
  C  C415  1  0.476650  0.421600  0.025490  1.0  0.6761
  C  C416  1  0.461220  0.374760  0.042410  1.0  -0.1199
  C  C417  1  0.458580  0.345250  0.995890  1.0  -0.0657
  C  C418  1  0.442930  0.301700  0.011950  1.0  -0.1207
  C  C419  1  0.429820  0.286740  0.072360  1.0  0.0581
  C  C420  1  0.433040  0.316550  0.119030  1.0  -0.1626
  C  C421  1  0.448280  0.360120  0.102970  1.0  -0.0444
  C  C422  1  0.410490  0.239770  0.090730  1.0  -0.0491
  C  C423  1  0.373340  0.220220  0.127580  1.0  -0.1088
  C  C424  1  0.611610  0.856680  0.358820  1.0  0.6754
  C  C425  1  0.580200  0.872110  0.375740  1.0  -0.1209
  C  C426  1  0.553330  0.874750  0.329220  1.0  -0.0659
  C  C427  1  0.525430  0.890400  0.345280  1.0  -0.1185
  C  C428  1  0.523580  0.903510  0.405690  1.0  0.0577
  C  C429  1  0.550170  0.900290  0.452360  1.0  -0.1617
  C  C430  1  0.578500  0.885050  0.436300  1.0  -0.0419
  C  C431  1  0.495940  0.922840  0.424060  1.0  -0.0472
  C  C432  1  0.513540  0.959990  0.460910  1.0  -0.1086
  C  C433  1  0.278280  0.190010  0.692150  1.0  0.6754
  C  C434  1  0.246870  0.205440  0.709070  1.0  -0.1209
  C  C435  1  0.220000  0.208080  0.662550  1.0  -0.0659
  C  C436  1  0.192100  0.223730  0.678610  1.0  -0.1185
  C  C437  1  0.190250  0.236840  0.739020  1.0  0.0577
  C  C438  1  0.216840  0.233620  0.785690  1.0  -0.1617
  C  C439  1  0.245170  0.218380  0.769630  1.0  -0.0419
  C  C440  1  0.162610  0.256170  0.757390  1.0  -0.0472
  C  C441  1  0.180210  0.293320  0.794240  1.0  -0.1086
  C  C442  1  0.944940  0.523350  0.025490  1.0  0.6755
  C  C443  1  0.913530  0.538780  0.042410  1.0  -0.1208
  C  C444  1  0.886660  0.541420  0.995890  1.0  -0.0659
  C  C445  1  0.858760  0.557070  0.011950  1.0  -0.1185
  C  C446  1  0.856910  0.570180  0.072360  1.0  0.0577
  C  C447  1  0.883500  0.566960  0.119030  1.0  -0.1617
  C  C448  1  0.911830  0.551720  0.102970  1.0  -0.0419
  C  C449  1  0.829270  0.589510  0.090730  1.0  -0.0472
  C  C450  1  0.846870  0.626660  0.127580  1.0  -0.1075
  C  C451  1  0.611610  0.754930  0.358820  1.0  0.6761
  C  C452  1  0.580200  0.708090  0.375740  1.0  -0.1197
  C  C453  1  0.553330  0.678580  0.329220  1.0  -0.0652
  C  C454  1  0.525430  0.635030  0.345280  1.0  -0.1206
  C  C455  1  0.523580  0.620070  0.405690  1.0  0.0573
  C  C456  1  0.550170  0.649880  0.452360  1.0  -0.1619
  C  C457  1  0.578500  0.693450  0.436300  1.0  -0.0435
  C  C458  1  0.495940  0.573100  0.424060  1.0  -0.0473
  C  C459  1  0.513540  0.553550  0.460910  1.0  -0.1075
  C  C460  1  0.278280  0.088260  0.692150  1.0  0.6761
  C  C461  1  0.246870  0.041420  0.709070  1.0  -0.1197
  C  C462  1  0.220000  0.011910  0.662550  1.0  -0.0652
  C  C463  1  0.192100  0.968360  0.678610  1.0  -0.1206
  C  C464  1  0.190250  0.953400  0.739020  1.0  0.0573
  C  C465  1  0.216840  0.983210  0.785690  1.0  -0.1619
  C  C466  1  0.245170  0.026780  0.769630  1.0  -0.0435
  C  C467  1  0.162610  0.906430  0.757390  1.0  -0.0473
  C  C468  1  0.180210  0.886880  0.794240  1.0  -0.1075
  C  C469  1  0.944940  0.421600  0.025490  1.0  0.676
  C  C470  1  0.913530  0.374760  0.042410  1.0  -0.1199
  C  C471  1  0.886660  0.345250  0.995890  1.0  -0.0652
  C  C472  1  0.858760  0.301700  0.011950  1.0  -0.1205
  C  C473  1  0.856910  0.286740  0.072360  1.0  0.0573
  C  C474  1  0.883500  0.316550  0.119030  1.0  -0.1619
  C  C475  1  0.911830  0.360120  0.102970  1.0  -0.0435
  C  C476  1  0.829270  0.239770  0.090730  1.0  -0.0473
  C  C477  1  0.846870  0.220220  0.127580  1.0  -0.1075
  C  C478  1  0.245070  0.856680  0.358820  1.0  0.6756
  C  C479  1  0.291910  0.872110  0.375740  1.0  -0.1209
  C  C480  1  0.321420  0.874750  0.329220  1.0  -0.0647
  C  C481  1  0.364970  0.890400  0.345280  1.0  -0.1188
  C  C482  1  0.379930  0.903510  0.405690  1.0  0.0576
  C  C483  1  0.350120  0.900290  0.452360  1.0  -0.1605
  C  C484  1  0.306550  0.885050  0.436300  1.0  -0.0422
  C  C485  1  0.426900  0.922840  0.424060  1.0  -0.0485
  C  C486  1  0.446450  0.959990  0.460910  1.0  -0.1067
  C  C487  1  0.911740  0.190010  0.692150  1.0  0.6756
  C  C488  1  0.958580  0.205440  0.709070  1.0  -0.1209
  C  C489  1  0.988090  0.208080  0.662550  1.0  -0.0647
  C  C490  1  0.031640  0.223730  0.678610  1.0  -0.1188
  C  C491  1  0.046600  0.236840  0.739020  1.0  0.0576
  C  C492  1  0.016790  0.233620  0.785690  1.0  -0.1605
  C  C493  1  0.973220  0.218380  0.769630  1.0  -0.0422
  C  C494  1  0.093570  0.256170  0.757390  1.0  -0.0485
  C  C495  1  0.113120  0.293320  0.794240  1.0  -0.1067
  C  C496  1  0.578400  0.523350  0.025490  1.0  0.6755
  C  C497  1  0.625240  0.538780  0.042410  1.0  -0.1209
  C  C498  1  0.654750  0.541420  0.995890  1.0  -0.0647
  C  C499  1  0.698300  0.557070  0.011950  1.0  -0.1189
  C  C500  1  0.713260  0.570180  0.072360  1.0  0.0576
  C  C501  1  0.683450  0.566960  0.119030  1.0  -0.1605
  C  C502  1  0.639880  0.551720  0.102970  1.0  -0.0422
  C  C503  1  0.760230  0.589510  0.090730  1.0  -0.0485
  C  C504  1  0.779780  0.626660  0.127580  1.0  -0.1101
  C  C505  1  0.143320  0.388390  0.358820  1.0  0.6754
  C  C506  1  0.127890  0.419800  0.375740  1.0  -0.1207
  C  C507  1  0.125250  0.446670  0.329220  1.0  -0.0657
  C  C508  1  0.109600  0.474570  0.345280  1.0  -0.1191
  C  C509  1  0.096490  0.476420  0.405690  1.0  0.0591
  C  C510  1  0.099710  0.449830  0.452360  1.0  -0.1629
  C  C511  1  0.114950  0.421500  0.436300  1.0  -0.0431
  C  C512  1  0.077160  0.504060  0.424060  1.0  -0.0496
  C  C513  1  0.040010  0.486460  0.460910  1.0  -0.1045
  C  C514  1  0.809990  0.721720  0.692150  1.0  0.6754
  C  C515  1  0.794560  0.753130  0.709070  1.0  -0.1207
  C  C516  1  0.791920  0.780000  0.662550  1.0  -0.0657
  C  C517  1  0.776270  0.807900  0.678610  1.0  -0.1191
  C  C518  1  0.763160  0.809750  0.739020  1.0  0.0591
  C  C519  1  0.766380  0.783160  0.785690  1.0  -0.1629
  C  C520  1  0.781620  0.754830  0.769630  1.0  -0.0431
  C  C521  1  0.743830  0.837390  0.757390  1.0  -0.0496
  C  C522  1  0.706680  0.819790  0.794240  1.0  -0.1045
  C  C523  1  0.476650  0.055060  0.025490  1.0  0.6755
  C  C524  1  0.461220  0.086470  0.042410  1.0  -0.1206
  C  C525  1  0.458580  0.113340  0.995890  1.0  -0.0657
  C  C526  1  0.442930  0.141240  0.011950  1.0  -0.1191
  C  C527  1  0.429820  0.143090  0.072360  1.0  0.0591
  C  C528  1  0.433040  0.116500  0.119030  1.0  -0.1629
  C  C529  1  0.448280  0.088170  0.102970  1.0  -0.0431
  C  C530  1  0.410490  0.170730  0.090730  1.0  -0.0496
  C  C531  1  0.373340  0.153130  0.127580  1.0  -0.1006
  C  C532  1  0.754930  0.611610  0.641180  1.0  0.6759
  C  C533  1  0.708090  0.580200  0.624260  1.0  -0.1206
  C  C534  1  0.678580  0.553330  0.670780  1.0  -0.064
  C  C535  1  0.635030  0.525430  0.654720  1.0  -0.1185
  C  C536  1  0.620070  0.523580  0.594310  1.0  0.0591
  C  C537  1  0.649880  0.550170  0.547640  1.0  -0.1611
  C  C538  1  0.693450  0.578500  0.563700  1.0  -0.0441
  C  C539  1  0.573100  0.495940  0.575940  1.0  -0.0497
  C  C540  1  0.553550  0.513540  0.539090  1.0  -0.1044
  C  C541  1  0.421600  0.944940  0.974510  1.0  0.6757
  C  C542  1  0.374760  0.913530  0.957590  1.0  -0.1209
  C  C543  1  0.345250  0.886660  0.004110  1.0  -0.064
  C  C544  1  0.301700  0.858760  0.988050  1.0  -0.1183
  C  C545  1  0.286740  0.856910  0.927640  1.0  0.0591
  C  C546  1  0.316550  0.883500  0.880970  1.0  -0.1611
  C  C547  1  0.360120  0.911830  0.897030  1.0  -0.0441
  C  C548  1  0.239770  0.829270  0.909270  1.0  -0.0497
  C  C549  1  0.220220  0.846870  0.872420  1.0  -0.1044
  C  C550  1  0.088260  0.278280  0.307850  1.0  0.6759
  C  C551  1  0.041420  0.246870  0.290930  1.0  -0.1206
  C  C552  1  0.011910  0.220000  0.337450  1.0  -0.064
  C  C553  1  0.968360  0.192100  0.321390  1.0  -0.1185
  C  C554  1  0.953400  0.190250  0.260980  1.0  0.0591
  C  C555  1  0.983210  0.216840  0.214310  1.0  -0.1611
  C  C556  1  0.026780  0.245170  0.230370  1.0  -0.0441
  C  C557  1  0.906430  0.162610  0.242610  1.0  -0.0497
  C  C558  1  0.886880  0.180210  0.205760  1.0  -0.1044
  C  C559  1  0.856680  0.245070  0.641180  1.0  0.6758
  C  C560  1  0.872110  0.291910  0.624260  1.0  -0.1208
  C  C561  1  0.874750  0.321420  0.670780  1.0  -0.0642
  C  C562  1  0.890400  0.364970  0.654720  1.0  -0.1202
  C  C563  1  0.903510  0.379930  0.594310  1.0  0.0573
  C  C564  1  0.900290  0.350120  0.547640  1.0  -0.1607
  C  C565  1  0.885050  0.306550  0.563700  1.0  -0.0436
  C  C566  1  0.922840  0.426900  0.575940  1.0  -0.0473
  C  C567  1  0.959990  0.446450  0.539090  1.0  -0.1042
  C  C568  1  0.523350  0.578400  0.974510  1.0  0.6757
  C  C569  1  0.538780  0.625240  0.957590  1.0  -0.1208
  C  C570  1  0.541420  0.654750  0.004110  1.0  -0.0642
  C  C571  1  0.557070  0.698300  0.988050  1.0  -0.1204
  C  C572  1  0.570180  0.713260  0.927640  1.0  0.0573
  C  C573  1  0.566960  0.683450  0.880970  1.0  -0.1607
  C  C574  1  0.551720  0.639880  0.897030  1.0  -0.0436
  C  C575  1  0.589510  0.760230  0.909270  1.0  -0.0473
  C  C576  1  0.626660  0.779780  0.872420  1.0  -0.1066
  C  C577  1  0.190010  0.911740  0.307850  1.0  0.6758
  C  C578  1  0.205440  0.958580  0.290930  1.0  -0.1208
  C  C579  1  0.208080  0.988090  0.337450  1.0  -0.0642
  C  C580  1  0.223730  0.031640  0.321390  1.0  -0.1202
  C  C581  1  0.236840  0.046600  0.260980  1.0  0.0573
  C  C582  1  0.233620  0.016790  0.214310  1.0  -0.1607
  C  C583  1  0.218380  0.973220  0.230370  1.0  -0.0436
  C  C584  1  0.256170  0.093570  0.242610  1.0  -0.0473
  C  C585  1  0.293320  0.113120  0.205760  1.0  -0.1042
  C  C586  1  0.388390  0.143320  0.641180  1.0  0.6756
  C  C587  1  0.419800  0.127890  0.624260  1.0  -0.1209
  C  C588  1  0.446670  0.125250  0.670780  1.0  -0.0648
  C  C589  1  0.474570  0.109600  0.654720  1.0  -0.1182
  C  C590  1  0.476420  0.096490  0.594310  1.0  0.0571
  C  C591  1  0.449830  0.099710  0.547640  1.0  -0.1592
  C  C592  1  0.421500  0.114950  0.563700  1.0  -0.041
  C  C593  1  0.504060  0.077160  0.575940  1.0  -0.0488
  C  C594  1  0.486460  0.040010  0.539090  1.0  -0.1091
  C  C595  1  0.055060  0.476650  0.974510  1.0  0.6757
  C  C596  1  0.086470  0.461220  0.957590  1.0  -0.1208
  C  C597  1  0.113340  0.458580  0.004110  1.0  -0.0647
  C  C598  1  0.141240  0.442930  0.988050  1.0  -0.1182
  C  C599  1  0.143090  0.429820  0.927640  1.0  0.0571
  C  C600  1  0.116500  0.433040  0.880970  1.0  -0.1592
  C  C601  1  0.088170  0.448280  0.897030  1.0  -0.041
  C  C602  1  0.170730  0.410490  0.909270  1.0  -0.0488
  C  C603  1  0.153130  0.373340  0.872420  1.0  -0.1069
  C  C604  1  0.721720  0.809990  0.307850  1.0  0.6756
  C  C605  1  0.753130  0.794560  0.290930  1.0  -0.1209
  C  C606  1  0.780000  0.791920  0.337450  1.0  -0.0648
  C  C607  1  0.807900  0.776270  0.321390  1.0  -0.1182
  C  C608  1  0.809750  0.763160  0.260980  1.0  0.0571
  C  C609  1  0.783160  0.766380  0.214310  1.0  -0.1592
  C  C610  1  0.754830  0.781620  0.230370  1.0  -0.041
  C  C611  1  0.837390  0.743830  0.242610  1.0  -0.0488
  C  C612  1  0.819790  0.706680  0.205760  1.0  -0.1091
  C  C613  1  0.510050  0.489950  0.519700  1.0  -0.021
  C  C614  1  0.548010  0.451990  0.595400  1.0  0.2026
  C  C615  1  0.586910  0.413090  0.597200  1.0  0.1158
  C  C616  1  0.606150  0.393850  0.642000  1.0  -0.3657
  C  C617  1  0.176720  0.823280  0.853030  1.0  -0.021
  C  C618  1  0.214680  0.785320  0.928730  1.0  0.2027
  C  C619  1  0.253580  0.746420  0.930530  1.0  0.1158
  C  C620  1  0.272820  0.727180  0.975330  1.0  -0.3657
  C  C621  1  0.843380  0.156620  0.186370  1.0  -0.021
  C  C622  1  0.881340  0.118660  0.262070  1.0  0.2026
  C  C623  1  0.920240  0.079760  0.263870  1.0  0.1158
  C  C624  1  0.939480  0.060520  0.308670  1.0  -0.3657
  C  C625  1  0.510050  0.020100  0.519700  1.0  -0.0155
  C  C626  1  0.548010  0.096020  0.595400  1.0  0.2082
  C  C627  1  0.586910  0.173820  0.597200  1.0  0.1109
  C  C628  1  0.606150  0.212300  0.642000  1.0  -0.3691
  C  C629  1  0.176720  0.353430  0.853030  1.0  -0.0155
  C  C630  1  0.214680  0.429350  0.928730  1.0  0.2084
  C  C631  1  0.253580  0.507150  0.930530  1.0  0.1109
  C  C632  1  0.272820  0.545630  0.975330  1.0  -0.3691
  C  C633  1  0.843380  0.686770  0.186370  1.0  -0.0155
  C  C634  1  0.881340  0.762690  0.262070  1.0  0.2082
  C  C635  1  0.920240  0.840490  0.263870  1.0  0.1109
  C  C636  1  0.939480  0.878970  0.308670  1.0  -0.369
  C  C637  1  0.979900  0.489950  0.519700  1.0  -0.0197
  C  C638  1  0.903980  0.451990  0.595400  1.0  0.2077
  C  C639  1  0.826180  0.413090  0.597200  1.0  0.1163
  C  C640  1  0.787700  0.393850  0.642000  1.0  -0.3662
  C  C641  1  0.646570  0.823280  0.853030  1.0  -0.0197
  C  C642  1  0.570650  0.785320  0.928730  1.0  0.2079
  C  C643  1  0.492850  0.746420  0.930530  1.0  0.1163
  C  C644  1  0.454370  0.727180  0.975330  1.0  -0.3662
  C  C645  1  0.313230  0.156620  0.186370  1.0  -0.0197
  C  C646  1  0.237310  0.118660  0.262070  1.0  0.2077
  C  C647  1  0.159510  0.079760  0.263870  1.0  0.1163
  C  C648  1  0.121030  0.060520  0.308670  1.0  -0.3662
  C  C649  1  0.489950  0.510050  0.480300  1.0  -0.0219
  C  C650  1  0.451990  0.548010  0.404600  1.0  0.2036
  C  C651  1  0.413090  0.586910  0.402800  1.0  0.1132
  C  C652  1  0.393850  0.606150  0.358000  1.0  -0.3674
  C  C653  1  0.156620  0.843380  0.813630  1.0  -0.0219
  C  C654  1  0.118660  0.881340  0.737930  1.0  0.2036
  C  C655  1  0.079760  0.920240  0.736130  1.0  0.1132
  C  C656  1  0.060520  0.939480  0.691330  1.0  -0.3674
  C  C657  1  0.823280  0.176720  0.146970  1.0  -0.0219
  C  C658  1  0.785320  0.214680  0.071270  1.0  0.2037
  C  C659  1  0.746420  0.253580  0.069470  1.0  0.1132
  C  C660  1  0.727180  0.272820  0.024670  1.0  -0.3674
  C  C661  1  0.020100  0.510050  0.480300  1.0  -0.0193
  C  C662  1  0.096020  0.548010  0.404600  1.0  0.2084
  C  C663  1  0.173820  0.586910  0.402800  1.0  0.1136
  C  C664  1  0.212300  0.606150  0.358000  1.0  -0.3678
  C  C665  1  0.686770  0.843380  0.813630  1.0  -0.0193
  C  C666  1  0.762690  0.881340  0.737930  1.0  0.2084
  C  C667  1  0.840490  0.920240  0.736130  1.0  0.1136
  C  C668  1  0.878970  0.939480  0.691330  1.0  -0.3678
  C  C669  1  0.353430  0.176720  0.146970  1.0  -0.0193
  C  C670  1  0.429350  0.214680  0.071270  1.0  0.2086
  C  C671  1  0.507150  0.253580  0.069470  1.0  0.1136
  C  C672  1  0.545630  0.272820  0.024670  1.0  -0.3678
  C  C673  1  0.489950  0.979900  0.480300  1.0  -0.0153
  C  C674  1  0.451990  0.903980  0.404600  1.0  0.2093
  C  C675  1  0.413090  0.826180  0.402800  1.0  0.1112
  C  C676  1  0.393850  0.787700  0.358000  1.0  -0.367
  C  C677  1  0.156620  0.313230  0.813630  1.0  -0.0153
  C  C678  1  0.118660  0.237310  0.737930  1.0  0.2093
  C  C679  1  0.079760  0.159510  0.736130  1.0  0.1112
  C  C680  1  0.060520  0.121030  0.691330  1.0  -0.367
  C  C681  1  0.823280  0.646570  0.146970  1.0  -0.0153
  C  C682  1  0.785320  0.570650  0.071270  1.0  0.2095
  C  C683  1  0.746420  0.492850  0.069470  1.0  0.1112
  C  C684  1  0.727180  0.454370  0.024670  1.0  -0.367
  O  O685  1  0.363940  0.221100  0.596760  1.0  -0.5688
  O  O686  1  0.388650  0.233530  0.697200  1.0  -0.5573
  O  O687  1  0.030610  0.554430  0.930090  1.0  -0.5688
  O  O688  1  0.055320  0.566860  0.030530  1.0  -0.5573
  O  O689  1  0.697270  0.887770  0.263430  1.0  -0.5676
  O  O690  1  0.721980  0.900200  0.363870  1.0  -0.5547
  O  O691  1  0.778900  0.142840  0.596760  1.0  -0.5674
  O  O692  1  0.766470  0.155120  0.697200  1.0  -0.5553
  O  O693  1  0.445570  0.476170  0.930090  1.0  -0.5674
  O  O694  1  0.433140  0.488450  0.030530  1.0  -0.5551
  O  O695  1  0.112230  0.809510  0.263430  1.0  -0.5674
  O  O696  1  0.099800  0.821790  0.363870  1.0  -0.5553
  O  O697  1  0.857160  0.636060  0.596760  1.0  -0.5684
  O  O698  1  0.844880  0.611350  0.697200  1.0  -0.5557
  O  O699  1  0.523830  0.969390  0.930090  1.0  -0.5684
  O  O700  1  0.511550  0.944680  0.030530  1.0  -0.5558
  O  O701  1  0.190490  0.302730  0.263430  1.0  -0.5692
  O  O702  1  0.178210  0.278020  0.363870  1.0  -0.5582
  O  O703  1  0.221100  0.363940  0.403240  1.0  -0.5684
  O  O704  1  0.233530  0.388650  0.302800  1.0  -0.5587
  O  O705  1  0.887770  0.697270  0.736570  1.0  -0.5676
  O  O706  1  0.900200  0.721980  0.636130  1.0  -0.556
  O  O707  1  0.554430  0.030610  0.069910  1.0  -0.5684
  O  O708  1  0.566860  0.055320  0.969470  1.0  -0.5587
  O  O709  1  0.142840  0.778900  0.403240  1.0  -0.5671
  O  O710  1  0.155120  0.766470  0.302800  1.0  -0.5545
  O  O711  1  0.809510  0.112230  0.736570  1.0  -0.5671
  O  O712  1  0.821790  0.099800  0.636130  1.0  -0.5545
  O  O713  1  0.476170  0.445570  0.069910  1.0  -0.5671
  O  O714  1  0.488450  0.433140  0.969470  1.0  -0.5543
  O  O715  1  0.636060  0.857160  0.403240  1.0  -0.5667
  O  O716  1  0.611350  0.844880  0.302800  1.0  -0.555
  O  O717  1  0.302730  0.190490  0.736570  1.0  -0.5671
  O  O718  1  0.278020  0.178210  0.636130  1.0  -0.5578
  O  O719  1  0.969390  0.523830  0.069910  1.0  -0.5667
  O  O720  1  0.944680  0.511550  0.969470  1.0  -0.5551
  O  O721  1  0.636060  0.778900  0.403240  1.0  -0.5669
  O  O722  1  0.611350  0.766470  0.302800  1.0  -0.5578
  O  O723  1  0.302730  0.112230  0.736570  1.0  -0.5665
  O  O724  1  0.278020  0.099800  0.636130  1.0  -0.5549
  O  O725  1  0.969390  0.445570  0.069910  1.0  -0.567
  O  O726  1  0.944680  0.433140  0.969470  1.0  -0.5578
  O  O727  1  0.221100  0.857160  0.403240  1.0  -0.5668
  O  O728  1  0.233530  0.844880  0.302800  1.0  -0.555
  O  O729  1  0.887770  0.190490  0.736570  1.0  -0.5668
  O  O730  1  0.900200  0.178210  0.636130  1.0  -0.555
  O  O731  1  0.554430  0.523830  0.069910  1.0  -0.5668
  O  O732  1  0.566860  0.511550  0.969470  1.0  -0.5547
  O  O733  1  0.142840  0.363940  0.403240  1.0  -0.5676
  O  O734  1  0.155120  0.388650  0.302800  1.0  -0.5554
  O  O735  1  0.809510  0.697270  0.736570  1.0  -0.5679
  O  O736  1  0.821790  0.721980  0.636130  1.0  -0.558
  O  O737  1  0.476170  0.030610  0.069910  1.0  -0.5676
  O  O738  1  0.488450  0.055320  0.969470  1.0  -0.5554
  O  O739  1  0.778900  0.636060  0.596760  1.0  -0.5694
  O  O740  1  0.766470  0.611350  0.697200  1.0  -0.5581
  O  O741  1  0.445570  0.969390  0.930090  1.0  -0.5695
  O  O742  1  0.433140  0.944680  0.030530  1.0  -0.5581
  O  O743  1  0.112230  0.302730  0.263430  1.0  -0.5685
  O  O744  1  0.099800  0.278020  0.363870  1.0  -0.5551
  O  O745  1  0.857160  0.221100  0.596760  1.0  -0.5676
  O  O746  1  0.844880  0.233530  0.697200  1.0  -0.5552
  O  O747  1  0.523830  0.554430  0.930090  1.0  -0.5676
  O  O748  1  0.511550  0.566860  0.030530  1.0  -0.555
  O  O749  1  0.190490  0.887770  0.263430  1.0  -0.5676
  O  O750  1  0.178210  0.900200  0.363870  1.0  -0.5552
  O  O751  1  0.363940  0.142840  0.596760  1.0  -0.5675
  O  O752  1  0.388650  0.155120  0.697200  1.0  -0.5539
  O  O753  1  0.030610  0.476170  0.930090  1.0  -0.5675
  O  O754  1  0.055320  0.488450  0.030530  1.0  -0.554
  O  O755  1  0.697270  0.809510  0.263430  1.0  -0.5683
  O  O756  1  0.721980  0.821790  0.363870  1.0  -0.5574
  O  O757  1  0.566340  0.433660  0.633140  1.0  -0.2979
  O  O758  1  0.233010  0.766990  0.966470  1.0  -0.2979
  O  O759  1  0.899670  0.100330  0.299810  1.0  -0.2979
  O  O760  1  0.566340  0.132680  0.633140  1.0  -0.2961
  O  O761  1  0.233010  0.466010  0.966470  1.0  -0.2961
  O  O762  1  0.899670  0.799350  0.299810  1.0  -0.2961
  O  O763  1  0.867320  0.433660  0.633140  1.0  -0.2977
  O  O764  1  0.533990  0.766990  0.966470  1.0  -0.2977
  O  O765  1  0.200650  0.100330  0.299810  1.0  -0.2977
  O  O766  1  0.433660  0.566340  0.366860  1.0  -0.2949
  O  O767  1  0.100330  0.899670  0.700190  1.0  -0.2949
  O  O768  1  0.766990  0.233010  0.033530  1.0  -0.2949
  O  O769  1  0.132680  0.566340  0.366860  1.0  -0.2949
  O  O770  1  0.799350  0.899670  0.700190  1.0  -0.2949
  O  O771  1  0.466010  0.233010  0.033530  1.0  -0.2949
  O  O772  1  0.433660  0.867320  0.366860  1.0  -0.2943
  O  O773  1  0.100330  0.200650  0.700190  1.0  -0.2943
  O  O774  1  0.766990  0.533990  0.033530  1.0  -0.2943
