# generated using pymatgen
data_CuH15C22O5
_symmetry_space_group_name_H-M   'P 1'
_cell_length_a   35.12270000
_cell_length_b   35.12270000
_cell_length_c   22.16000000
_cell_angle_alpha   90.00000000
_cell_angle_beta   90.00000000
_cell_angle_gamma   120.00000000
_symmetry_Int_Tables_number   1
_chemical_formula_structural   CuH15C22O5
_chemical_formula_sum   'Cu18 H270 C396 O90'
_cell_volume   23674.24709405
_cell_formula_units_Z   18
loop_
 _symmetry_equiv_pos_site_id
 _symmetry_equiv_pos_as_xyz
  1  'x, y, z'
loop_
 _atom_site_type_symbol
 _atom_site_label
 _atom_site_symmetry_multiplicity
 _atom_site_fract_x
 _atom_site_fract_y
 _atom_site_fract_z
 _atom_site_occupancy
 _atom_site_charge
  Cu  Cu1  1  0.317950  0.158970  0.110970  1.0  0.9067
  Cu  Cu2  1  0.984620  0.492310  0.444300  1.0  0.9068
  Cu  Cu3  1  0.651280  0.825640  0.777640  1.0  0.9067
  Cu  Cu4  1  0.841030  0.158970  0.110970  1.0  0.9068
  Cu  Cu5  1  0.507690  0.492310  0.444300  1.0  0.9068
  Cu  Cu6  1  0.174360  0.825640  0.777640  1.0  0.9068
  Cu  Cu7  1  0.841030  0.682050  0.110970  1.0  0.9074
  Cu  Cu8  1  0.507690  0.015380  0.444300  1.0  0.9075
  Cu  Cu9  1  0.174360  0.348720  0.777640  1.0  0.9074
  Cu  Cu10  1  0.158970  0.317950  0.889030  1.0  0.907
  Cu  Cu11  1  0.825640  0.651280  0.222360  1.0  0.907
  Cu  Cu12  1  0.492310  0.984620  0.555700  1.0  0.9071
  Cu  Cu13  1  0.158970  0.841030  0.889030  1.0  0.9073
  Cu  Cu14  1  0.825640  0.174360  0.222360  1.0  0.9073
  Cu  Cu15  1  0.492310  0.507690  0.555700  1.0  0.9072
  Cu  Cu16  1  0.682050  0.841030  0.889030  1.0  0.907
  Cu  Cu17  1  0.348720  0.174360  0.222360  1.0  0.907
  Cu  Cu18  1  0.015380  0.507690  0.555700  1.0  0.9071
  H  H19  1  0.220000  0.199700  0.128300  1.0  0.1163
  H  H20  1  0.172000  0.223000  0.156400  1.0  0.0952
  H  H21  1  0.217400  0.242400  0.326000  1.0  0.1258
  H  H22  1  0.265000  0.217700  0.297900  1.0  0.1034
  H  H23  1  0.209400  0.305600  0.307800  1.0  0.1069
  H  H24  1  0.056300  0.157500  0.269400  1.0  0.0806
  H  H25  1  0.038700  0.122000  0.175400  1.0  0.1132
  H  H26  1  0.886670  0.533030  0.461630  1.0  0.1163
  H  H27  1  0.838670  0.556330  0.489730  1.0  0.0952
  H  H28  1  0.884070  0.575730  0.659330  1.0  0.1259
  H  H29  1  0.931670  0.551030  0.631230  1.0  0.1034
  H  H30  1  0.876070  0.638930  0.641130  1.0  0.1069
  H  H31  1  0.722970  0.490830  0.602730  1.0  0.0804
  H  H32  1  0.705370  0.455330  0.508730  1.0  0.1132
  H  H33  1  0.553330  0.866370  0.794970  1.0  0.1163
  H  H34  1  0.505330  0.889670  0.823070  1.0  0.0951
  H  H35  1  0.550730  0.909070  0.992670  1.0  0.1259
  H  H36  1  0.598330  0.884370  0.964570  1.0  0.1034
  H  H37  1  0.542730  0.972270  0.974470  1.0  0.1069
  H  H38  1  0.389630  0.824170  0.936070  1.0  0.0837
  H  H39  1  0.372030  0.788670  0.842070  1.0  0.1132
  H  H40  1  0.800300  0.020300  0.128300  1.0  0.1167
  H  H41  1  0.777000  0.949000  0.156400  1.0  0.0948
  H  H42  1  0.757600  0.975000  0.326000  1.0  0.1263
  H  H43  1  0.782300  0.047300  0.297900  1.0  0.1029
  H  H44  1  0.694400  0.903800  0.307800  1.0  0.1067
  H  H45  1  0.842500  0.898800  0.269400  1.0  0.0818
  H  H46  1  0.878000  0.916700  0.175400  1.0  0.1146
  H  H47  1  0.466970  0.353630  0.461630  1.0  0.1166
  H  H48  1  0.443670  0.282330  0.489730  1.0  0.0948
  H  H49  1  0.424270  0.308330  0.659330  1.0  0.1264
  H  H50  1  0.448970  0.380630  0.631230  1.0  0.1028
  H  H51  1  0.361070  0.237130  0.641130  1.0  0.1067
  H  H52  1  0.509170  0.232130  0.602730  1.0  0.0826
  H  H53  1  0.544670  0.250030  0.508730  1.0  0.1146
  H  H54  1  0.133630  0.686970  0.794970  1.0  0.1166
  H  H55  1  0.110330  0.615670  0.823070  1.0  0.0948
  H  H56  1  0.090930  0.641670  0.992670  1.0  0.1264
  H  H57  1  0.115630  0.713970  0.964570  1.0  0.1029
  H  H58  1  0.027730  0.570470  0.974470  1.0  0.1068
  H  H59  1  0.175830  0.565470  0.936070  1.0  0.0853
  H  H60  1  0.211330  0.583370  0.842070  1.0  0.1146
  H  H61  1  0.979700  0.780000  0.128300  1.0  0.117
  H  H62  1  0.051000  0.828000  0.156400  1.0  0.0948
  H  H63  1  0.025000  0.782600  0.326000  1.0  0.1267
  H  H64  1  0.952700  0.735000  0.297900  1.0  0.1033
  H  H65  1  0.096200  0.790600  0.307800  1.0  0.1073
  H  H66  1  0.101200  0.943700  0.269400  1.0  0.0816
  H  H67  1  0.083300  0.961300  0.175400  1.0  0.1136
  H  H68  1  0.646370  0.113330  0.461630  1.0  0.117
  H  H69  1  0.717670  0.161330  0.489730  1.0  0.0948
  H  H70  1  0.691670  0.115930  0.659330  1.0  0.1266
  H  H71  1  0.619370  0.068330  0.631230  1.0  0.1034
  H  H72  1  0.762870  0.123930  0.641130  1.0  0.1073
  H  H73  1  0.767870  0.277030  0.602730  1.0  0.0849
  H  H74  1  0.749970  0.294630  0.508730  1.0  0.1135
  H  H75  1  0.313030  0.446670  0.794970  1.0  0.117
  H  H76  1  0.384330  0.494670  0.823070  1.0  0.0949
  H  H77  1  0.358330  0.449270  0.992670  1.0  0.1266
  H  H78  1  0.286030  0.401670  0.964570  1.0  0.1033
  H  H79  1  0.429530  0.457270  0.974470  1.0  0.1073
  H  H80  1  0.434530  0.610370  0.936070  1.0  0.085
  H  H81  1  0.416630  0.627970  0.842070  1.0  0.1136
  H  H82  1  0.199700  0.220000  0.871700  1.0  0.1171
  H  H83  1  0.223000  0.172000  0.843600  1.0  0.0953
  H  H84  1  0.242400  0.217400  0.674000  1.0  0.1256
  H  H85  1  0.217700  0.265000  0.702100  1.0  0.1023
  H  H86  1  0.305600  0.209400  0.692200  1.0  0.1075
  H  H87  1  0.157500  0.056300  0.730600  1.0  0.0811
  H  H88  1  0.122000  0.038700  0.824600  1.0  0.1143
  H  H89  1  0.866370  0.553330  0.205030  1.0  0.1171
  H  H90  1  0.889670  0.505330  0.176930  1.0  0.0957
  H  H91  1  0.909070  0.550730  0.007330  1.0  0.1257
  H  H92  1  0.884370  0.598330  0.035430  1.0  0.1023
  H  H93  1  0.972270  0.542730  0.025530  1.0  0.1075
  H  H94  1  0.824170  0.389630  0.063930  1.0  0.0848
  H  H95  1  0.788670  0.372030  0.157930  1.0  0.1143
  H  H96  1  0.533030  0.886670  0.538370  1.0  0.1171
  H  H97  1  0.556330  0.838670  0.510270  1.0  0.0953
  H  H98  1  0.575730  0.884070  0.340670  1.0  0.1257
  H  H99  1  0.551030  0.931670  0.368770  1.0  0.1021
  H  H100  1  0.638930  0.876070  0.358870  1.0  0.1075
  H  H101  1  0.490830  0.722970  0.397270  1.0  0.081
  H  H102  1  0.455330  0.705370  0.491270  1.0  0.1142
  H  H103  1  0.020300  0.800300  0.871700  1.0  0.1162
  H  H104  1  0.949000  0.777000  0.843600  1.0  0.0953
  H  H105  1  0.975000  0.757600  0.674000  1.0  0.1263
  H  H106  1  0.047300  0.782300  0.702100  1.0  0.103
  H  H107  1  0.903800  0.694400  0.692200  1.0  0.1072
  H  H108  1  0.898800  0.842500  0.730600  1.0  0.0805
  H  H109  1  0.916700  0.878000  0.824600  1.0  0.1131
  H  H110  1  0.686970  0.133630  0.205030  1.0  0.1162
  H  H111  1  0.615670  0.110330  0.176930  1.0  0.0953
  H  H112  1  0.641670  0.090930  0.007330  1.0  0.1263
  H  H113  1  0.713970  0.115630  0.035430  1.0  0.103
  H  H114  1  0.570470  0.027730  0.025530  1.0  0.1072
  H  H115  1  0.565470  0.175830  0.063930  1.0  0.083
  H  H116  1  0.583370  0.211330  0.157930  1.0  0.113
  H  H117  1  0.353630  0.466970  0.538370  1.0  0.1162
  H  H118  1  0.282330  0.443670  0.510270  1.0  0.0953
  H  H119  1  0.308330  0.424270  0.340670  1.0  0.1263
  H  H120  1  0.380630  0.448970  0.368770  1.0  0.1029
  H  H121  1  0.237130  0.361070  0.358870  1.0  0.1072
  H  H122  1  0.232130  0.509170  0.397270  1.0  0.0812
  H  H123  1  0.250030  0.544670  0.491270  1.0  0.1131
  H  H124  1  0.780000  0.979700  0.871700  1.0  0.1163
  H  H125  1  0.828000  0.051000  0.843600  1.0  0.0958
  H  H126  1  0.782600  0.025000  0.674000  1.0  0.1259
  H  H127  1  0.735000  0.952700  0.702100  1.0  0.1023
  H  H128  1  0.790600  0.096200  0.692200  1.0  0.1069
  H  H129  1  0.943700  0.101200  0.730600  1.0  0.0821
  H  H130  1  0.961300  0.083300  0.824600  1.0  0.1141
  H  H131  1  0.446670  0.313030  0.205030  1.0  0.1163
  H  H132  1  0.494670  0.384330  0.176930  1.0  0.0958
  H  H133  1  0.449270  0.358330  0.007330  1.0  0.1258
  H  H134  1  0.401670  0.286030  0.035430  1.0  0.1023
  H  H135  1  0.457270  0.429530  0.025530  1.0  0.1068
  H  H136  1  0.610370  0.434530  0.063930  1.0  0.0852
  H  H137  1  0.627970  0.416630  0.157930  1.0  0.1141
  H  H138  1  0.113330  0.646370  0.538370  1.0  0.1163
  H  H139  1  0.161330  0.717670  0.510270  1.0  0.0958
  H  H140  1  0.115930  0.691670  0.340670  1.0  0.1259
  H  H141  1  0.068330  0.619370  0.368770  1.0  0.1023
  H  H142  1  0.123930  0.762870  0.358870  1.0  0.1069
  H  H143  1  0.277030  0.767870  0.397270  1.0  0.0852
  H  H144  1  0.294630  0.749970  0.491270  1.0  0.1141
  H  H145  1  0.780000  0.800300  0.871700  1.0  0.1162
  H  H146  1  0.828000  0.777000  0.843600  1.0  0.0959
  H  H147  1  0.782600  0.757600  0.674000  1.0  0.1254
  H  H148  1  0.735000  0.782300  0.702100  1.0  0.1026
  H  H149  1  0.790600  0.694400  0.692200  1.0  0.1073
  H  H150  1  0.943700  0.842500  0.730600  1.0  0.0798
  H  H151  1  0.961300  0.878000  0.824600  1.0  0.1115
  H  H152  1  0.446670  0.133630  0.205030  1.0  0.1162
  H  H153  1  0.494670  0.110330  0.176930  1.0  0.0961
  H  H154  1  0.449270  0.090930  0.007330  1.0  0.1255
  H  H155  1  0.401670  0.115630  0.035430  1.0  0.1025
  H  H156  1  0.457270  0.027730  0.025530  1.0  0.1073
  H  H157  1  0.610370  0.175830  0.063930  1.0  0.0824
  H  H158  1  0.627970  0.211330  0.157930  1.0  0.1115
  H  H159  1  0.113330  0.466970  0.538370  1.0  0.1162
  H  H160  1  0.161330  0.443670  0.510270  1.0  0.0959
  H  H161  1  0.115930  0.424270  0.340670  1.0  0.1255
  H  H162  1  0.068330  0.448970  0.368770  1.0  0.1026
  H  H163  1  0.123930  0.361070  0.358870  1.0  0.1073
  H  H164  1  0.277030  0.509170  0.397270  1.0  0.0798
  H  H165  1  0.294630  0.544670  0.491270  1.0  0.1115
  H  H166  1  0.199700  0.979700  0.871700  1.0  0.1165
  H  H167  1  0.223000  0.051000  0.843600  1.0  0.0951
  H  H168  1  0.242400  0.025000  0.674000  1.0  0.1258
  H  H169  1  0.217700  0.952700  0.702100  1.0  0.1025
  H  H170  1  0.305600  0.096200  0.692200  1.0  0.1066
  H  H171  1  0.157500  0.101200  0.730600  1.0  0.0823
  H  H172  1  0.122000  0.083300  0.824600  1.0  0.1142
  H  H173  1  0.866370  0.313030  0.205030  1.0  0.1164
  H  H174  1  0.889670  0.384330  0.176930  1.0  0.0954
  H  H175  1  0.909070  0.358330  0.007330  1.0  0.1258
  H  H176  1  0.884370  0.286030  0.035430  1.0  0.1025
  H  H177  1  0.972270  0.429530  0.025530  1.0  0.1066
  H  H178  1  0.824170  0.434530  0.063930  1.0  0.0854
  H  H179  1  0.788670  0.416630  0.157930  1.0  0.1142
  H  H180  1  0.533030  0.646370  0.538370  1.0  0.1164
  H  H181  1  0.556330  0.717670  0.510270  1.0  0.0951
  H  H182  1  0.575730  0.691670  0.340670  1.0  0.1258
  H  H183  1  0.551030  0.619370  0.368770  1.0  0.1025
  H  H184  1  0.638930  0.762870  0.358870  1.0  0.1066
  H  H185  1  0.490830  0.767870  0.397270  1.0  0.083
  H  H186  1  0.455330  0.749970  0.491270  1.0  0.1142
  H  H187  1  0.020300  0.220000  0.871700  1.0  0.117
  H  H188  1  0.949000  0.172000  0.843600  1.0  0.0955
  H  H189  1  0.975000  0.217400  0.674000  1.0  0.1258
  H  H190  1  0.047300  0.265000  0.702100  1.0  0.1026
  H  H191  1  0.903800  0.209400  0.692200  1.0  0.1073
  H  H192  1  0.898800  0.056300  0.730600  1.0  0.0816
  H  H193  1  0.916700  0.038700  0.824600  1.0  0.1147
  H  H194  1  0.686970  0.553330  0.205030  1.0  0.117
  H  H195  1  0.615670  0.505330  0.176930  1.0  0.0955
  H  H196  1  0.641670  0.550730  0.007330  1.0  0.1258
  H  H197  1  0.713970  0.598330  0.035430  1.0  0.1026
  H  H198  1  0.570470  0.542730  0.025530  1.0  0.1073
  H  H199  1  0.565470  0.389630  0.063930  1.0  0.085
  H  H200  1  0.583370  0.372030  0.157930  1.0  0.1147
  H  H201  1  0.353630  0.886670  0.538370  1.0  0.117
  H  H202  1  0.282330  0.838670  0.510270  1.0  0.0955
  H  H203  1  0.308330  0.884070  0.340670  1.0  0.1258
  H  H204  1  0.380630  0.931670  0.368770  1.0  0.1027
  H  H205  1  0.237130  0.876070  0.358870  1.0  0.1073
  H  H206  1  0.232130  0.722970  0.397270  1.0  0.0849
  H  H207  1  0.250030  0.705370  0.491270  1.0  0.1147
  H  H208  1  0.800300  0.780000  0.128300  1.0  0.1168
  H  H209  1  0.777000  0.828000  0.156400  1.0  0.0947
  H  H210  1  0.757600  0.782600  0.326000  1.0  0.1259
  H  H211  1  0.782300  0.735000  0.297900  1.0  0.1032
  H  H212  1  0.694400  0.790600  0.307800  1.0  0.1071
  H  H213  1  0.842500  0.943700  0.269400  1.0  0.0815
  H  H214  1  0.878000  0.961300  0.175400  1.0  0.1161
  H  H215  1  0.466970  0.113330  0.461630  1.0  0.1168
  H  H216  1  0.443670  0.161330  0.489730  1.0  0.0947
  H  H217  1  0.424270  0.115930  0.659330  1.0  0.1259
  H  H218  1  0.448970  0.068330  0.631230  1.0  0.1031
  H  H219  1  0.361070  0.123930  0.641130  1.0  0.1071
  H  H220  1  0.509170  0.277030  0.602730  1.0  0.0813
  H  H221  1  0.544670  0.294630  0.508730  1.0  0.1161
  H  H222  1  0.133630  0.446670  0.794970  1.0  0.1168
  H  H223  1  0.110330  0.494670  0.823070  1.0  0.0947
  H  H224  1  0.090930  0.449270  0.992670  1.0  0.1259
  H  H225  1  0.115630  0.401670  0.964570  1.0  0.1032
  H  H226  1  0.027730  0.457270  0.974470  1.0  0.107
  H  H227  1  0.175830  0.610370  0.936070  1.0  0.0848
  H  H228  1  0.211330  0.627970  0.842070  1.0  0.1161
  H  H229  1  0.979700  0.199700  0.128300  1.0  0.1167
  H  H230  1  0.051000  0.223000  0.156400  1.0  0.095
  H  H231  1  0.025000  0.242400  0.326000  1.0  0.1262
  H  H232  1  0.952700  0.217700  0.297900  1.0  0.1033
  H  H233  1  0.096200  0.305600  0.307800  1.0  0.107
  H  H234  1  0.101200  0.157500  0.269400  1.0  0.0795
  H  H235  1  0.083300  0.122000  0.175400  1.0  0.1118
  H  H236  1  0.646370  0.533030  0.461630  1.0  0.1167
  H  H237  1  0.717670  0.556330  0.489730  1.0  0.095
  H  H238  1  0.691670  0.575730  0.659330  1.0  0.1263
  H  H239  1  0.619370  0.551030  0.631230  1.0  0.1032
  H  H240  1  0.762870  0.638930  0.641130  1.0  0.107
  H  H241  1  0.767870  0.490830  0.602730  1.0  0.08
  H  H242  1  0.749970  0.455330  0.508730  1.0  0.1118
  H  H243  1  0.313030  0.866370  0.794970  1.0  0.1167
  H  H244  1  0.384330  0.889670  0.823070  1.0  0.0951
  H  H245  1  0.358330  0.909070  0.992670  1.0  0.1262
  H  H246  1  0.286030  0.884370  0.964570  1.0  0.1033
  H  H247  1  0.429530  0.972270  0.974470  1.0  0.107
  H  H248  1  0.434530  0.824170  0.936070  1.0  0.0826
  H  H249  1  0.416630  0.788670  0.842070  1.0  0.1118
  H  H250  1  0.220000  0.020300  0.128300  1.0  0.1167
  H  H251  1  0.172000  0.949000  0.156400  1.0  0.0947
  H  H252  1  0.217400  0.975000  0.326000  1.0  0.1263
  H  H253  1  0.265000  0.047300  0.297900  1.0  0.1028
  H  H254  1  0.209400  0.903800  0.307800  1.0  0.1064
  H  H255  1  0.056300  0.898800  0.269400  1.0  0.0826
  H  H256  1  0.038700  0.916700  0.175400  1.0  0.114
  H  H257  1  0.886670  0.353630  0.461630  1.0  0.1167
  H  H258  1  0.838670  0.282330  0.489730  1.0  0.0947
  H  H259  1  0.884070  0.308330  0.659330  1.0  0.1263
  H  H260  1  0.931670  0.380630  0.631230  1.0  0.1028
  H  H261  1  0.876070  0.237130  0.641130  1.0  0.1064
  H  H262  1  0.722970  0.232130  0.602730  1.0  0.0859
  H  H263  1  0.705370  0.250030  0.508730  1.0  0.1139
  H  H264  1  0.553330  0.686970  0.794970  1.0  0.1167
  H  H265  1  0.505330  0.615670  0.823070  1.0  0.0947
  H  H266  1  0.550730  0.641670  0.992670  1.0  0.1263
  H  H267  1  0.598330  0.713970  0.964570  1.0  0.1028
  H  H268  1  0.542730  0.570470  0.974470  1.0  0.1064
  H  H269  1  0.389630  0.565470  0.936070  1.0  0.0859
  H  H270  1  0.372030  0.583370  0.842070  1.0  0.114
  H  H271  1  0.046700  0.093400  0.222500  1.0  0.1141
  H  H272  1  0.713370  0.426730  0.555830  1.0  0.1144
  H  H273  1  0.380030  0.760070  0.889170  1.0  0.1134
  H  H274  1  0.906600  0.953300  0.222500  1.0  0.1157
  H  H275  1  0.573270  0.286630  0.555830  1.0  0.1156
  H  H276  1  0.239930  0.619970  0.889170  1.0  0.1153
  H  H277  1  0.046700  0.953300  0.222500  1.0  0.1129
  H  H278  1  0.713370  0.286630  0.555830  1.0  0.1112
  H  H279  1  0.380030  0.619970  0.889170  1.0  0.1121
  H  H280  1  0.093400  0.046700  0.777500  1.0  0.1129
  H  H281  1  0.760070  0.380030  0.110830  1.0  0.1113
  H  H282  1  0.426730  0.713370  0.444170  1.0  0.1119
  H  H283  1  0.953300  0.906600  0.777500  1.0  0.1167
  H  H284  1  0.619970  0.239930  0.110830  1.0  0.1154
  H  H285  1  0.286630  0.573270  0.444170  1.0  0.1169
  H  H286  1  0.953300  0.046700  0.777500  1.0  0.1147
  H  H287  1  0.619970  0.380030  0.110830  1.0  0.1145
  H  H288  1  0.286630  0.713370  0.444170  1.0  0.1127
  C  C289  1  0.278630  0.190400  0.193530  1.0  0.6786
  C  C290  1  0.247530  0.205860  0.211560  1.0  -0.1268
  C  C291  1  0.219500  0.208050  0.168010  1.0  -0.0677
  C  C292  1  0.191230  0.222720  0.184910  1.0  -0.1056
  C  C293  1  0.190550  0.236660  0.241630  1.0  0.0646
  C  C294  1  0.218130  0.234110  0.286280  1.0  -0.1907
  C  C295  1  0.246390  0.218930  0.269160  1.0  -0.0248
  C  C296  1  0.162510  0.255860  0.260470  1.0  -0.0444
  C  C297  1  0.180190  0.293130  0.295830  1.0  -0.1098
  C  C298  1  0.945300  0.523730  0.526860  1.0  0.6785
  C  C299  1  0.914200  0.539190  0.544890  1.0  -0.1265
  C  C300  1  0.886170  0.541380  0.501340  1.0  -0.0677
  C  C301  1  0.857900  0.556050  0.518240  1.0  -0.1056
  C  C302  1  0.857220  0.569990  0.574960  1.0  0.0646
  C  C303  1  0.884800  0.567440  0.619610  1.0  -0.1907
  C  C304  1  0.913060  0.552260  0.602490  1.0  -0.0249
  C  C305  1  0.829180  0.589190  0.593800  1.0  -0.0444
  C  C306  1  0.846860  0.626460  0.629160  1.0  -0.1098
  C  C307  1  0.611960  0.857070  0.860200  1.0  0.6786
  C  C308  1  0.580860  0.872530  0.878230  1.0  -0.1265
  C  C309  1  0.552830  0.874720  0.834680  1.0  -0.0677
  C  C310  1  0.524560  0.889390  0.851580  1.0  -0.1056
  C  C311  1  0.523880  0.903330  0.908300  1.0  0.0646
  C  C312  1  0.551460  0.900780  0.952950  1.0  -0.1907
  C  C313  1  0.579720  0.885600  0.935830  1.0  -0.0249
  C  C314  1  0.495840  0.922530  0.927140  1.0  -0.0351
  C  C315  1  0.513520  0.959800  0.962500  1.0  -0.1045
  C  C316  1  0.809600  0.088230  0.193530  1.0  0.6796
  C  C317  1  0.794140  0.041670  0.211560  1.0  -0.1263
  C  C318  1  0.791950  0.011450  0.168010  1.0  -0.0674
  C  C319  1  0.777280  0.968510  0.184910  1.0  -0.1076
  C  C320  1  0.763340  0.953890  0.241630  1.0  0.0649
  C  C321  1  0.765890  0.984020  0.286280  1.0  -0.1922
  C  C322  1  0.781070  0.027460  0.269160  1.0  -0.0279
  C  C323  1  0.744140  0.906650  0.260470  1.0  -0.0373
  C  C324  1  0.706870  0.887060  0.295830  1.0  -0.1048
  C  C325  1  0.476270  0.421560  0.526860  1.0  0.6796
  C  C326  1  0.460810  0.375000  0.544890  1.0  -0.1267
  C  C327  1  0.458620  0.344780  0.501340  1.0  -0.0674
  C  C328  1  0.443950  0.301840  0.518240  1.0  -0.1076
  C  C329  1  0.430010  0.287220  0.574960  1.0  0.0649
  C  C330  1  0.432560  0.317350  0.619610  1.0  -0.1922
  C  C331  1  0.447740  0.360790  0.602490  1.0  -0.0279
  C  C332  1  0.410810  0.239980  0.593800  1.0  -0.0373
  C  C333  1  0.373540  0.220390  0.629160  1.0  -0.1048
  C  C334  1  0.142930  0.754900  0.860200  1.0  0.6796
  C  C335  1  0.127470  0.708340  0.878230  1.0  -0.1263
  C  C336  1  0.125280  0.678120  0.834680  1.0  -0.0674
  C  C337  1  0.110610  0.635180  0.851580  1.0  -0.1076
  C  C338  1  0.096670  0.620560  0.908300  1.0  0.0649
  C  C339  1  0.099220  0.650690  0.952950  1.0  -0.1923
  C  C340  1  0.114400  0.694130  0.935830  1.0  -0.028
  C  C341  1  0.077470  0.573320  0.927140  1.0  -0.0462
  C  C342  1  0.040200  0.553730  0.962500  1.0  -0.1099
  C  C343  1  0.911770  0.721370  0.193530  1.0  0.679
  C  C344  1  0.958330  0.752470  0.211560  1.0  -0.1268
  C  C345  1  0.988550  0.780500  0.168010  1.0  -0.0664
  C  C346  1  0.031490  0.808770  0.184910  1.0  -0.1069
  C  C347  1  0.046110  0.809450  0.241630  1.0  0.0649
  C  C348  1  0.015980  0.781870  0.286280  1.0  -0.1927
  C  C349  1  0.972540  0.753610  0.269160  1.0  -0.0285
  C  C350  1  0.093350  0.837490  0.260470  1.0  -0.0467
  C  C351  1  0.112940  0.819810  0.295830  1.0  -0.108
  C  C352  1  0.578440  0.054700  0.526860  1.0  0.6792
  C  C353  1  0.625000  0.085800  0.544890  1.0  -0.1272
  C  C354  1  0.655220  0.113830  0.501340  1.0  -0.0664
  C  C355  1  0.698160  0.142100  0.518240  1.0  -0.1069
  C  C356  1  0.712780  0.142780  0.574960  1.0  0.0649
  C  C357  1  0.682650  0.115200  0.619610  1.0  -0.1927
  C  C358  1  0.639210  0.086940  0.602490  1.0  -0.0285
  C  C359  1  0.760020  0.170820  0.593800  1.0  -0.0467
  C  C360  1  0.779610  0.153140  0.629160  1.0  -0.108
  C  C361  1  0.245100  0.388040  0.860200  1.0  0.679
  C  C362  1  0.291660  0.419140  0.878230  1.0  -0.1268
  C  C363  1  0.321880  0.447170  0.834680  1.0  -0.0664
  C  C364  1  0.364820  0.475440  0.851580  1.0  -0.1069
  C  C365  1  0.379440  0.476120  0.908300  1.0  0.0649
  C  C366  1  0.349310  0.448540  0.952950  1.0  -0.1927
  C  C367  1  0.305870  0.420280  0.935830  1.0  -0.0285
  C  C368  1  0.426680  0.504160  0.927140  1.0  -0.0464
  C  C369  1  0.446270  0.486480  0.962500  1.0  -0.1076
  C  C370  1  0.190400  0.278630  0.806470  1.0  0.6793
  C  C371  1  0.205860  0.247530  0.788440  1.0  -0.127
  C  C372  1  0.208050  0.219500  0.831990  1.0  -0.0665
  C  C373  1  0.222720  0.191230  0.815090  1.0  -0.1047
  C  C374  1  0.236660  0.190550  0.758370  1.0  0.065
  C  C375  1  0.234110  0.218130  0.713720  1.0  -0.1909
  C  C376  1  0.218930  0.246390  0.730840  1.0  -0.0285
  C  C377  1  0.255860  0.162510  0.739530  1.0  -0.0458
  C  C378  1  0.293130  0.180190  0.704170  1.0  -0.1092
  C  C379  1  0.857070  0.611960  0.139800  1.0  0.6793
  C  C380  1  0.872530  0.580860  0.121770  1.0  -0.1267
  C  C381  1  0.874720  0.552830  0.165320  1.0  -0.0666
  C  C382  1  0.889390  0.524560  0.148420  1.0  -0.1047
  C  C383  1  0.903330  0.523880  0.091700  1.0  0.065
  C  C384  1  0.900780  0.551460  0.047050  1.0  -0.1909
  C  C385  1  0.885600  0.579720  0.064170  1.0  -0.0286
  C  C386  1  0.922530  0.495840  0.072860  1.0  -0.0368
  C  C387  1  0.959800  0.513520  0.037500  1.0  -0.1029
  C  C388  1  0.523730  0.945300  0.473140  1.0  0.6793
  C  C389  1  0.539190  0.914200  0.455110  1.0  -0.1267
  C  C390  1  0.541380  0.886170  0.498660  1.0  -0.0665
  C  C391  1  0.556050  0.857900  0.481760  1.0  -0.1047
  C  C392  1  0.569990  0.857220  0.425040  1.0  0.065
  C  C393  1  0.567440  0.884800  0.380390  1.0  -0.1909
  C  C394  1  0.552260  0.913060  0.397510  1.0  -0.0286
  C  C395  1  0.589190  0.829180  0.406200  1.0  -0.0458
  C  C396  1  0.626460  0.846860  0.370840  1.0  -0.1092
  C  C397  1  0.088230  0.809600  0.806470  1.0  0.6789
  C  C398  1  0.041670  0.794140  0.788440  1.0  -0.1269
  C  C399  1  0.011450  0.791950  0.831990  1.0  -0.0658
  C  C400  1  0.968510  0.777280  0.815090  1.0  -0.1059
  C  C401  1  0.953890  0.763340  0.758370  1.0  0.0634
  C  C402  1  0.984020  0.765890  0.713720  1.0  -0.1872
  C  C403  1  0.027460  0.781070  0.730840  1.0  -0.0256
  C  C404  1  0.906650  0.744140  0.739530  1.0  -0.0361
  C  C405  1  0.887060  0.706870  0.704170  1.0  -0.1059
  C  C406  1  0.754900  0.142930  0.139800  1.0  0.6789
  C  C407  1  0.708340  0.127470  0.121770  1.0  -0.1269
  C  C408  1  0.678120  0.125280  0.165320  1.0  -0.0658
  C  C409  1  0.635180  0.110610  0.148420  1.0  -0.1059
  C  C410  1  0.620560  0.096670  0.091700  1.0  0.0634
  C  C411  1  0.650690  0.099220  0.047050  1.0  -0.1872
  C  C412  1  0.694130  0.114400  0.064170  1.0  -0.0257
  C  C413  1  0.573320  0.077470  0.072860  1.0  -0.0445
  C  C414  1  0.553730  0.040200  0.037500  1.0  -0.1104
  C  C415  1  0.421560  0.476270  0.473140  1.0  0.6789
  C  C416  1  0.375000  0.460810  0.455110  1.0  -0.1273
  C  C417  1  0.344780  0.458620  0.498660  1.0  -0.0658
  C  C418  1  0.301840  0.443950  0.481760  1.0  -0.1059
  C  C419  1  0.287220  0.430010  0.425040  1.0  0.0634
  C  C420  1  0.317350  0.432560  0.380390  1.0  -0.1872
  C  C421  1  0.360790  0.447740  0.397510  1.0  -0.0256
  C  C422  1  0.239980  0.410810  0.406200  1.0  -0.0361
  C  C423  1  0.220390  0.373540  0.370840  1.0  -0.1059
  C  C424  1  0.721370  0.911770  0.806470  1.0  0.6793
  C  C425  1  0.752470  0.958330  0.788440  1.0  -0.1268
  C  C426  1  0.780500  0.988550  0.831990  1.0  -0.0655
  C  C427  1  0.808770  0.031490  0.815090  1.0  -0.1068
  C  C428  1  0.809450  0.046110  0.758370  1.0  0.064
  C  C429  1  0.781870  0.015980  0.713720  1.0  -0.1896
  C  C430  1  0.753610  0.972540  0.730840  1.0  -0.0266
  C  C431  1  0.837490  0.093350  0.739530  1.0  -0.0463
  C  C432  1  0.819810  0.112940  0.704170  1.0  -0.1107
  C  C433  1  0.388040  0.245100  0.139800  1.0  0.6793
  C  C434  1  0.419140  0.291660  0.121770  1.0  -0.1268
  C  C435  1  0.447170  0.321880  0.165320  1.0  -0.0655
  C  C436  1  0.475440  0.364820  0.148420  1.0  -0.1067
  C  C437  1  0.476120  0.379440  0.091700  1.0  0.0641
  C  C438  1  0.448540  0.349310  0.047050  1.0  -0.1896
  C  C439  1  0.420280  0.305870  0.064170  1.0  -0.0266
  C  C440  1  0.504160  0.426680  0.072860  1.0  -0.0461
  C  C441  1  0.486480  0.446270  0.037500  1.0  -0.1103
  C  C442  1  0.054700  0.578440  0.473140  1.0  0.6796
  C  C443  1  0.085800  0.625000  0.455110  1.0  -0.1271
  C  C444  1  0.113830  0.655220  0.498660  1.0  -0.0655
  C  C445  1  0.142100  0.698160  0.481760  1.0  -0.1068
  C  C446  1  0.142780  0.712780  0.425040  1.0  0.064
  C  C447  1  0.115200  0.682650  0.380390  1.0  -0.1896
  C  C448  1  0.086940  0.639210  0.397510  1.0  -0.0266
  C  C449  1  0.170820  0.760020  0.406200  1.0  -0.0463
  C  C450  1  0.153140  0.779610  0.370840  1.0  -0.1107
  C  C451  1  0.721370  0.809600  0.806470  1.0  0.6791
  C  C452  1  0.752470  0.794140  0.788440  1.0  -0.1274
  C  C453  1  0.780500  0.791950  0.831990  1.0  -0.066
  C  C454  1  0.808770  0.777280  0.815090  1.0  -0.106
  C  C455  1  0.809450  0.763340  0.758370  1.0  0.0633
  C  C456  1  0.781870  0.765890  0.713720  1.0  -0.1874
  C  C457  1  0.753610  0.781070  0.730840  1.0  -0.0249
  C  C458  1  0.837490  0.744140  0.739530  1.0  -0.0458
  C  C459  1  0.819810  0.706870  0.704170  1.0  -0.1119
  C  C460  1  0.388040  0.142930  0.139800  1.0  0.6791
  C  C461  1  0.419140  0.127470  0.121770  1.0  -0.1271
  C  C462  1  0.447170  0.125280  0.165320  1.0  -0.066
  C  C463  1  0.475440  0.110610  0.148420  1.0  -0.106
  C  C464  1  0.476120  0.096670  0.091700  1.0  0.0633
  C  C465  1  0.448540  0.099220  0.047050  1.0  -0.1874
  C  C466  1  0.420280  0.114400  0.064170  1.0  -0.025
  C  C467  1  0.504160  0.077470  0.072860  1.0  -0.0368
  C  C468  1  0.486480  0.040200  0.037500  1.0  -0.1058
  C  C469  1  0.054700  0.476270  0.473140  1.0  0.679
  C  C470  1  0.085800  0.460810  0.455110  1.0  -0.1271
  C  C471  1  0.113830  0.458620  0.498660  1.0  -0.066
  C  C472  1  0.142100  0.443950  0.481760  1.0  -0.106
  C  C473  1  0.142780  0.430010  0.425040  1.0  0.0633
  C  C474  1  0.115200  0.432560  0.380390  1.0  -0.1874
  C  C475  1  0.086940  0.447740  0.397510  1.0  -0.025
  C  C476  1  0.170820  0.410810  0.406200  1.0  -0.0458
  C  C477  1  0.153140  0.373540  0.370840  1.0  -0.1119
  C  C478  1  0.190400  0.911770  0.806470  1.0  0.6792
  C  C479  1  0.205860  0.958330  0.788440  1.0  -0.1273
  C  C480  1  0.208050  0.988550  0.831990  1.0  -0.0659
  C  C481  1  0.222720  0.031490  0.815090  1.0  -0.1066
  C  C482  1  0.236660  0.046110  0.758370  1.0  0.0639
  C  C483  1  0.234110  0.015980  0.713720  1.0  -0.1899
  C  C484  1  0.218930  0.972540  0.730840  1.0  -0.0283
  C  C485  1  0.255860  0.093350  0.739530  1.0  -0.0366
  C  C486  1  0.293130  0.112940  0.704170  1.0  -0.1048
  C  C487  1  0.857070  0.245100  0.139800  1.0  0.6792
  C  C488  1  0.872530  0.291660  0.121770  1.0  -0.1273
  C  C489  1  0.874720  0.321880  0.165320  1.0  -0.0659
  C  C490  1  0.889390  0.364820  0.148420  1.0  -0.1066
  C  C491  1  0.903330  0.379440  0.091700  1.0  0.0639
  C  C492  1  0.900780  0.349310  0.047050  1.0  -0.1899
  C  C493  1  0.885600  0.305870  0.064170  1.0  -0.0283
  C  C494  1  0.922530  0.426680  0.072860  1.0  -0.0447
  C  C495  1  0.959800  0.446270  0.037500  1.0  -0.1095
  C  C496  1  0.523730  0.578440  0.473140  1.0  0.6792
  C  C497  1  0.539190  0.625000  0.455110  1.0  -0.1277
  C  C498  1  0.541380  0.655220  0.498660  1.0  -0.0659
  C  C499  1  0.556050  0.698160  0.481760  1.0  -0.1066
  C  C500  1  0.569990  0.712780  0.425040  1.0  0.0639
  C  C501  1  0.567440  0.682650  0.380390  1.0  -0.1899
  C  C502  1  0.552260  0.639210  0.397510  1.0  -0.0283
  C  C503  1  0.589190  0.760020  0.406200  1.0  -0.0366
  C  C504  1  0.626460  0.779610  0.370840  1.0  -0.1048
  C  C505  1  0.088230  0.278630  0.806470  1.0  0.6791
  C  C506  1  0.041670  0.247530  0.788440  1.0  -0.1271
  C  C507  1  0.011450  0.219500  0.831990  1.0  -0.0661
  C  C508  1  0.968510  0.191230  0.815090  1.0  -0.1053
  C  C509  1  0.953890  0.190550  0.758370  1.0  0.0655
  C  C510  1  0.984020  0.218130  0.713720  1.0  -0.1908
  C  C511  1  0.027460  0.246390  0.730840  1.0  -0.0293
  C  C512  1  0.906650  0.162510  0.739530  1.0  -0.0461
  C  C513  1  0.887060  0.180190  0.704170  1.0  -0.1073
  C  C514  1  0.754900  0.611960  0.139800  1.0  0.6791
  C  C515  1  0.708340  0.580860  0.121770  1.0  -0.1271
  C  C516  1  0.678120  0.552830  0.165320  1.0  -0.0661
  C  C517  1  0.635180  0.524560  0.148420  1.0  -0.1053
  C  C518  1  0.620560  0.523880  0.091700  1.0  0.0655
  C  C519  1  0.650690  0.551460  0.047050  1.0  -0.1908
  C  C520  1  0.694130  0.579720  0.064170  1.0  -0.0293
  C  C521  1  0.573320  0.495840  0.072860  1.0  -0.0459
  C  C522  1  0.553730  0.513520  0.037500  1.0  -0.1069
  C  C523  1  0.421560  0.945300  0.473140  1.0  0.6794
  C  C524  1  0.375000  0.914200  0.455110  1.0  -0.1274
  C  C525  1  0.344780  0.886170  0.498660  1.0  -0.0661
  C  C526  1  0.301840  0.857900  0.481760  1.0  -0.1053
  C  C527  1  0.287220  0.857220  0.425040  1.0  0.0655
  C  C528  1  0.317350  0.884800  0.380390  1.0  -0.1908
  C  C529  1  0.360790  0.913060  0.397510  1.0  -0.0293
  C  C530  1  0.239980  0.829180  0.406200  1.0  -0.0461
  C  C531  1  0.220390  0.846860  0.370840  1.0  -0.1073
  C  C532  1  0.809600  0.721370  0.193530  1.0  0.6788
  C  C533  1  0.794140  0.752470  0.211560  1.0  -0.1272
  C  C534  1  0.791950  0.780500  0.168010  1.0  -0.0675
  C  C535  1  0.777280  0.808770  0.184910  1.0  -0.1068
  C  C536  1  0.763340  0.809450  0.241630  1.0  0.0652
  C  C537  1  0.765890  0.781870  0.286280  1.0  -0.1933
  C  C538  1  0.781070  0.753610  0.269160  1.0  -0.0276
  C  C539  1  0.744140  0.837490  0.260470  1.0  -0.047
  C  C540  1  0.706870  0.819810  0.295830  1.0  -0.107
  C  C541  1  0.476270  0.054700  0.526860  1.0  0.6787
  C  C542  1  0.460810  0.085800  0.544890  1.0  -0.1268
  C  C543  1  0.458620  0.113830  0.501340  1.0  -0.0675
  C  C544  1  0.443950  0.142100  0.518240  1.0  -0.1068
  C  C545  1  0.430010  0.142780  0.574960  1.0  0.0651
  C  C546  1  0.432560  0.115200  0.619610  1.0  -0.1933
  C  C547  1  0.447740  0.086940  0.602490  1.0  -0.0277
  C  C548  1  0.410810  0.170820  0.593800  1.0  -0.0467
  C  C549  1  0.373540  0.153140  0.629160  1.0  -0.107
  C  C550  1  0.142930  0.388040  0.860200  1.0  0.6788
  C  C551  1  0.127470  0.419140  0.878230  1.0  -0.1268
  C  C552  1  0.125280  0.447170  0.834680  1.0  -0.0675
  C  C553  1  0.110610  0.475440  0.851580  1.0  -0.1068
  C  C554  1  0.096670  0.476120  0.908300  1.0  0.0652
  C  C555  1  0.099220  0.448540  0.952950  1.0  -0.1933
  C  C556  1  0.114400  0.420280  0.935830  1.0  -0.0277
  C  C557  1  0.077470  0.504160  0.927140  1.0  -0.0377
  C  C558  1  0.040200  0.486480  0.962500  1.0  -0.1001
  C  C559  1  0.911770  0.190400  0.193530  1.0  0.6787
  C  C560  1  0.958330  0.205860  0.211560  1.0  -0.1271
  C  C561  1  0.988550  0.208050  0.168010  1.0  -0.0664
  C  C562  1  0.031490  0.222720  0.184910  1.0  -0.1055
  C  C563  1  0.046110  0.236660  0.241630  1.0  0.0645
  C  C564  1  0.015980  0.234110  0.286280  1.0  -0.1897
  C  C565  1  0.972540  0.218930  0.269160  1.0  -0.025
  C  C566  1  0.093350  0.255860  0.260470  1.0  -0.0366
  C  C567  1  0.112940  0.293130  0.295830  1.0  -0.1064
  C  C568  1  0.578440  0.523730  0.526860  1.0  0.6787
  C  C569  1  0.625000  0.539190  0.544890  1.0  -0.1275
  C  C570  1  0.655220  0.541380  0.501340  1.0  -0.0664
  C  C571  1  0.698160  0.556050  0.518240  1.0  -0.1055
  C  C572  1  0.712780  0.569990  0.574960  1.0  0.0645
  C  C573  1  0.682650  0.567440  0.619610  1.0  -0.1897
  C  C574  1  0.639210  0.552260  0.602490  1.0  -0.025
  C  C575  1  0.760020  0.589190  0.593800  1.0  -0.0366
  C  C576  1  0.779610  0.626460  0.629160  1.0  -0.1064
  C  C577  1  0.245100  0.857070  0.860200  1.0  0.6787
  C  C578  1  0.291660  0.872530  0.878230  1.0  -0.1271
  C  C579  1  0.321880  0.874720  0.834680  1.0  -0.0664
  C  C580  1  0.364820  0.889390  0.851580  1.0  -0.1055
  C  C581  1  0.379440  0.903330  0.908300  1.0  0.0645
  C  C582  1  0.349310  0.900780  0.952950  1.0  -0.1897
  C  C583  1  0.305870  0.885600  0.935830  1.0  -0.0251
  C  C584  1  0.426680  0.922530  0.927140  1.0  -0.0456
  C  C585  1  0.446270  0.959800  0.962500  1.0  -0.1115
  C  C586  1  0.278630  0.088230  0.193530  1.0  0.6794
  C  C587  1  0.247530  0.041670  0.211560  1.0  -0.1267
  C  C588  1  0.219500  0.011450  0.168010  1.0  -0.0666
  C  C589  1  0.191230  0.968510  0.184910  1.0  -0.1074
  C  C590  1  0.190550  0.953890  0.241630  1.0  0.0645
  C  C591  1  0.218130  0.984020  0.286280  1.0  -0.1921
  C  C592  1  0.246390  0.027460  0.269160  1.0  -0.0268
  C  C593  1  0.162510  0.906650  0.260470  1.0  -0.0444
  C  C594  1  0.180190  0.887060  0.295830  1.0  -0.1093
  C  C595  1  0.945300  0.421560  0.526860  1.0  0.6797
  C  C596  1  0.914200  0.375000  0.544890  1.0  -0.1271
  C  C597  1  0.886170  0.344780  0.501340  1.0  -0.0666
  C  C598  1  0.857900  0.301840  0.518240  1.0  -0.1074
  C  C599  1  0.857220  0.287220  0.574960  1.0  0.0645
  C  C600  1  0.884800  0.317350  0.619610  1.0  -0.1921
  C  C601  1  0.913060  0.360790  0.602490  1.0  -0.0268
  C  C602  1  0.829180  0.239980  0.593800  1.0  -0.0444
  C  C603  1  0.846860  0.220390  0.629160  1.0  -0.1093
  C  C604  1  0.611960  0.754900  0.860200  1.0  0.6794
  C  C605  1  0.580860  0.708340  0.878230  1.0  -0.1267
  C  C606  1  0.552830  0.678120  0.834680  1.0  -0.0666
  C  C607  1  0.524560  0.635180  0.851580  1.0  -0.1074
  C  C608  1  0.523880  0.620560  0.908300  1.0  0.0646
  C  C609  1  0.551460  0.650690  0.952950  1.0  -0.1921
  C  C610  1  0.579720  0.694130  0.935830  1.0  -0.0268
  C  C611  1  0.495840  0.573320  0.927140  1.0  -0.0441
  C  C612  1  0.513520  0.553730  0.962500  1.0  -0.1089
  C  C613  1  0.156490  0.312990  0.314500  1.0  -0.0136
  C  C614  1  0.118320  0.236650  0.243000  1.0  0.1938
  C  C615  1  0.079330  0.158650  0.243900  1.0  0.12
  C  C616  1  0.060300  0.120600  0.200300  1.0  -0.3719
  C  C617  1  0.823160  0.646320  0.647830  1.0  -0.0136
  C  C618  1  0.784990  0.569980  0.576330  1.0  0.1938
  C  C619  1  0.745990  0.491980  0.577230  1.0  0.1199
  C  C620  1  0.726970  0.453930  0.533630  1.0  -0.3719
  C  C621  1  0.489830  0.979660  0.981170  1.0  -0.0134
  C  C622  1  0.451660  0.903320  0.909670  1.0  0.1937
  C  C623  1  0.412660  0.825320  0.910570  1.0  0.1199
  C  C624  1  0.393630  0.787270  0.866970  1.0  -0.3719
  C  C625  1  0.687010  0.843510  0.314500  1.0  -0.0177
  C  C626  1  0.763350  0.881670  0.243000  1.0  0.1936
  C  C627  1  0.841350  0.920670  0.243900  1.0  0.1221
  C  C628  1  0.879400  0.939700  0.200300  1.0  -0.3732
  C  C629  1  0.353680  0.176840  0.647830  1.0  -0.0177
  C  C630  1  0.430020  0.215010  0.576330  1.0  0.1936
  C  C631  1  0.508020  0.254010  0.577230  1.0  0.122
  C  C632  1  0.546070  0.273030  0.533630  1.0  -0.3732
  C  C633  1  0.020340  0.510170  0.981170  1.0  -0.0175
  C  C634  1  0.096680  0.548340  0.909670  1.0  0.1935
  C  C635  1  0.174680  0.587340  0.910570  1.0  0.122
  C  C636  1  0.212730  0.606370  0.866970  1.0  -0.3732
  C  C637  1  0.156490  0.843510  0.314500  1.0  -0.0239
  C  C638  1  0.118320  0.881680  0.243000  1.0  0.1954
  C  C639  1  0.079330  0.920670  0.243900  1.0  0.1199
  C  C640  1  0.060300  0.939700  0.200300  1.0  -0.3726
  C  C641  1  0.823160  0.176840  0.647830  1.0  -0.0239
  C  C642  1  0.784990  0.215010  0.576330  1.0  0.1954
  C  C643  1  0.745990  0.254010  0.577230  1.0  0.1228
  C  C644  1  0.726970  0.273030  0.533630  1.0  -0.3726
  C  C645  1  0.489830  0.510170  0.981170  1.0  -0.026
  C  C646  1  0.451660  0.548340  0.909670  1.0  0.1937
  C  C647  1  0.412660  0.587340  0.910570  1.0  0.1191
  C  C648  1  0.393630  0.606370  0.866970  1.0  -0.3727
  C  C649  1  0.312990  0.156490  0.685500  1.0  -0.0178
  C  C650  1  0.236650  0.118320  0.757000  1.0  0.1924
  C  C651  1  0.158650  0.079330  0.756100  1.0  0.124
  C  C652  1  0.120600  0.060300  0.799700  1.0  -0.3714
  C  C653  1  0.979660  0.489830  0.018830  1.0  -0.0176
  C  C654  1  0.903320  0.451660  0.090330  1.0  0.1922
  C  C655  1  0.825320  0.412660  0.089430  1.0  0.1239
  C  C656  1  0.787270  0.393630  0.133030  1.0  -0.3714
  C  C657  1  0.646320  0.823160  0.352170  1.0  -0.0178
  C  C658  1  0.569980  0.784990  0.423670  1.0  0.1924
  C  C659  1  0.491980  0.745990  0.422770  1.0  0.1239
  C  C660  1  0.453930  0.726970  0.466370  1.0  -0.3714
  C  C661  1  0.843510  0.687010  0.685500  1.0  -0.0138
  C  C662  1  0.881680  0.763350  0.757000  1.0  0.1929
  C  C663  1  0.920680  0.841350  0.756100  1.0  0.1188
  C  C664  1  0.939700  0.879400  0.799700  1.0  -0.3738
  C  C665  1  0.510170  0.020340  0.018830  1.0  -0.0135
  C  C666  1  0.548340  0.096680  0.090330  1.0  0.1927
  C  C667  1  0.587340  0.174680  0.089430  1.0  0.1189
  C  C668  1  0.606370  0.212730  0.133030  1.0  -0.3738
  C  C669  1  0.176840  0.353680  0.352170  1.0  -0.0138
  C  C670  1  0.215010  0.430020  0.423670  1.0  0.1929
  C  C671  1  0.254010  0.508020  0.422770  1.0  0.1188
  C  C672  1  0.273030  0.546070  0.466370  1.0  -0.3738
  C  C673  1  0.843510  0.156490  0.685500  1.0  -0.0228
  C  C674  1  0.881680  0.118320  0.757000  1.0  0.1963
  C  C675  1  0.920680  0.079330  0.756100  1.0  0.1245
  C  C676  1  0.939700  0.060300  0.799700  1.0  -0.3708
  C  C677  1  0.510170  0.489830  0.018830  1.0  -0.0248
  C  C678  1  0.548340  0.451660  0.090330  1.0  0.1948
  C  C679  1  0.587340  0.412660  0.089430  1.0  0.1214
  C  C680  1  0.606370  0.393630  0.133030  1.0  -0.3708
  C  C681  1  0.176840  0.823160  0.352170  1.0  -0.0228
  C  C682  1  0.215010  0.784990  0.423670  1.0  0.1963
  C  C683  1  0.254010  0.745990  0.422770  1.0  0.125
  C  C684  1  0.273030  0.726970  0.466370  1.0  -0.3708
  O  O685  1  0.304180  0.191380  0.235050  1.0  -0.5793
  O  O686  1  0.277480  0.177940  0.140590  1.0  -0.5676
  O  O687  1  0.970850  0.524710  0.568380  1.0  -0.5764
  O  O688  1  0.944150  0.511270  0.473920  1.0  -0.5676
  O  O689  1  0.637510  0.858050  0.901720  1.0  -0.5793
  O  O690  1  0.610810  0.844610  0.807260  1.0  -0.5676
  O  O691  1  0.808620  0.112800  0.235050  1.0  -0.5798
  O  O692  1  0.822060  0.099540  0.140590  1.0  -0.5669
  O  O693  1  0.475290  0.446130  0.568380  1.0  -0.5799
  O  O694  1  0.488730  0.432870  0.473920  1.0  -0.5669
  O  O695  1  0.141950  0.779470  0.901720  1.0  -0.5798
  O  O696  1  0.155390  0.766210  0.807260  1.0  -0.5669
  O  O697  1  0.887200  0.695820  0.235050  1.0  -0.5767
  O  O698  1  0.900460  0.722520  0.140590  1.0  -0.568
  O  O699  1  0.553870  0.029150  0.568380  1.0  -0.5794
  O  O700  1  0.567130  0.055850  0.473920  1.0  -0.5679
  O  O701  1  0.220530  0.362490  0.901720  1.0  -0.5767
  O  O702  1  0.233790  0.389190  0.807260  1.0  -0.568
  O  O703  1  0.191380  0.304180  0.764950  1.0  -0.5803
  O  O704  1  0.177940  0.277480  0.859410  1.0  -0.5676
  O  O705  1  0.858050  0.637510  0.098280  1.0  -0.5803
  O  O706  1  0.844610  0.610810  0.192740  1.0  -0.5676
  O  O707  1  0.524710  0.970850  0.431620  1.0  -0.5781
  O  O708  1  0.511270  0.944150  0.526080  1.0  -0.5675
  O  O709  1  0.112800  0.808620  0.764950  1.0  -0.58
  O  O710  1  0.099540  0.822060  0.859410  1.0  -0.5679
  O  O711  1  0.779470  0.141950  0.098280  1.0  -0.58
  O  O712  1  0.766210  0.155390  0.192740  1.0  -0.5679
  O  O713  1  0.446130  0.475290  0.431620  1.0  -0.5801
  O  O714  1  0.432870  0.488730  0.526080  1.0  -0.5679
  O  O715  1  0.695820  0.887200  0.764950  1.0  -0.5777
  O  O716  1  0.722520  0.900460  0.859410  1.0  -0.5662
  O  O717  1  0.362490  0.220530  0.098280  1.0  -0.5777
  O  O718  1  0.389190  0.233790  0.192740  1.0  -0.5662
  O  O719  1  0.029150  0.553870  0.431620  1.0  -0.5804
  O  O720  1  0.055850  0.567130  0.526080  1.0  -0.5661
  O  O721  1  0.695820  0.808620  0.764950  1.0  -0.5795
  O  O722  1  0.722520  0.822060  0.859410  1.0  -0.5671
  O  O723  1  0.362490  0.141950  0.098280  1.0  -0.5795
  O  O724  1  0.389190  0.155390  0.192740  1.0  -0.5671
  O  O725  1  0.029150  0.475290  0.431620  1.0  -0.5774
  O  O726  1  0.055850  0.488730  0.526080  1.0  -0.5671
  O  O727  1  0.191380  0.887200  0.764950  1.0  -0.5796
  O  O728  1  0.177940  0.900460  0.859410  1.0  -0.5673
  O  O729  1  0.858050  0.220530  0.098280  1.0  -0.5796
  O  O730  1  0.844610  0.233790  0.192740  1.0  -0.5673
  O  O731  1  0.524710  0.553870  0.431620  1.0  -0.5797
  O  O732  1  0.511270  0.567130  0.526080  1.0  -0.5673
  O  O733  1  0.112800  0.304180  0.764950  1.0  -0.5771
  O  O734  1  0.099540  0.277480  0.859410  1.0  -0.5674
  O  O735  1  0.779470  0.637510  0.098280  1.0  -0.5771
  O  O736  1  0.766210  0.610810  0.192740  1.0  -0.5674
  O  O737  1  0.446130  0.970850  0.431620  1.0  -0.5797
  O  O738  1  0.432870  0.944150  0.526080  1.0  -0.5673
  O  O739  1  0.808620  0.695820  0.235050  1.0  -0.5794
  O  O740  1  0.822060  0.722520  0.140590  1.0  -0.5678
  O  O741  1  0.475290  0.029150  0.568380  1.0  -0.5771
  O  O742  1  0.488730  0.055850  0.473920  1.0  -0.5678
  O  O743  1  0.141950  0.362490  0.901720  1.0  -0.5794
  O  O744  1  0.155390  0.389190  0.807260  1.0  -0.5678
  O  O745  1  0.887200  0.191380  0.235050  1.0  -0.5789
  O  O746  1  0.900460  0.177940  0.140590  1.0  -0.5675
  O  O747  1  0.553870  0.524710  0.568380  1.0  -0.579
  O  O748  1  0.567130  0.511270  0.473920  1.0  -0.5675
  O  O749  1  0.220530  0.858050  0.901720  1.0  -0.5789
  O  O750  1  0.233790  0.844610  0.807260  1.0  -0.5675
  O  O751  1  0.304180  0.112800  0.235050  1.0  -0.5759
  O  O752  1  0.277480  0.099540  0.140590  1.0  -0.5672
  O  O753  1  0.970850  0.446130  0.568380  1.0  -0.5787
  O  O754  1  0.944150  0.432870  0.473920  1.0  -0.5671
  O  O755  1  0.637510  0.779470  0.901720  1.0  -0.5759
  O  O756  1  0.610810  0.766210  0.807260  1.0  -0.5672
  O  O757  1  0.099410  0.198830  0.208210  1.0  -0.2919
  O  O758  1  0.766080  0.532160  0.541540  1.0  -0.2919
  O  O759  1  0.432750  0.865500  0.874880  1.0  -0.2919
  O  O760  1  0.801170  0.900590  0.208210  1.0  -0.2923
  O  O761  1  0.467840  0.233920  0.541540  1.0  -0.2923
  O  O762  1  0.134500  0.567250  0.874880  1.0  -0.2923
  O  O763  1  0.099410  0.900590  0.208210  1.0  -0.2918
  O  O764  1  0.766080  0.233920  0.541540  1.0  -0.2918
  O  O765  1  0.432750  0.567250  0.874880  1.0  -0.2919
  O  O766  1  0.198830  0.099410  0.791790  1.0  -0.2954
  O  O767  1  0.865500  0.432750  0.125120  1.0  -0.2954
  O  O768  1  0.532160  0.766080  0.458460  1.0  -0.2954
  O  O769  1  0.900590  0.801170  0.791790  1.0  -0.2946
  O  O770  1  0.567250  0.134500  0.125120  1.0  -0.2946
  O  O771  1  0.233920  0.467840  0.458460  1.0  -0.2946
  O  O772  1  0.900590  0.099410  0.791790  1.0  -0.2959
  O  O773  1  0.567250  0.432750  0.125120  1.0  -0.296
  O  O774  1  0.233920  0.766080  0.458460  1.0  -0.2959
