# generated using pymatgen
data_CuH15C22O5
_symmetry_space_group_name_H-M   'P 1'
_cell_length_a   34.60840000
_cell_length_b   34.60840000
_cell_length_c   25.71810000
_cell_angle_alpha   90.00000000
_cell_angle_beta   90.00000000
_cell_angle_gamma   120.00000000
_symmetry_Int_Tables_number   1
_chemical_formula_structural   CuH15C22O5
_chemical_formula_sum   'Cu18 H270 C396 O90'
_cell_volume   26676.72769173
_cell_formula_units_Z   18
loop_
 _symmetry_equiv_pos_site_id
 _symmetry_equiv_pos_as_xyz
  1  'x, y, z'
loop_
 _atom_site_type_symbol
 _atom_site_label
 _atom_site_symmetry_multiplicity
 _atom_site_fract_x
 _atom_site_fract_y
 _atom_site_fract_z
 _atom_site_occupancy
 _atom_site_charge
  Cu  Cu1  1  0.647360  0.823680  0.287500  1.0  0.901
  Cu  Cu2  1  0.314030  0.157010  0.620830  1.0  0.9008
  Cu  Cu3  1  0.980690  0.490350  0.954170  1.0  0.901
  Cu  Cu4  1  0.176320  0.823680  0.287500  1.0  0.8931
  Cu  Cu5  1  0.842990  0.157010  0.620830  1.0  0.8932
  Cu  Cu6  1  0.509650  0.490350  0.954170  1.0  0.8929
  Cu  Cu7  1  0.176320  0.352640  0.287500  1.0  0.9012
  Cu  Cu8  1  0.842990  0.685970  0.620830  1.0  0.9011
  Cu  Cu9  1  0.509650  0.019310  0.954170  1.0  0.9012
  Cu  Cu10  1  0.823680  0.647360  0.712500  1.0  0.901
  Cu  Cu11  1  0.490350  0.980690  0.045830  1.0  0.901
  Cu  Cu12  1  0.157010  0.314030  0.379170  1.0  0.9008
  Cu  Cu13  1  0.823680  0.176320  0.712500  1.0  0.8928
  Cu  Cu14  1  0.490350  0.509650  0.045830  1.0  0.8925
  Cu  Cu15  1  0.157010  0.842990  0.379170  1.0  0.8929
  Cu  Cu16  1  0.352640  0.176320  0.712500  1.0  0.9008
  Cu  Cu17  1  0.019310  0.509650  0.045830  1.0  0.9008
  Cu  Cu18  1  0.685970  0.842990  0.379170  1.0  0.9006
  H  H19  1  0.554000  0.684300  0.311400  1.0  0.1113
  H  H20  1  0.507600  0.610900  0.337900  1.0  0.1098
  H  H21  1  0.556200  0.644200  0.483400  1.0  0.114
  H  H22  1  0.603600  0.717100  0.456200  1.0  0.1114
  H  H23  1  0.545000  0.571400  0.475400  1.0  0.1084
  H  H24  1  0.435900  0.610700  0.431200  1.0  0.0864
  H  H25  1  0.375600  0.578200  0.345900  1.0  0.1127
  H  H26  1  0.220670  0.017630  0.644730  1.0  0.1115
  H  H27  1  0.174270  0.944230  0.671230  1.0  0.1098
  H  H28  1  0.222870  0.977530  0.816730  1.0  0.1144
  H  H29  1  0.270270  0.050430  0.789530  1.0  0.11
  H  H30  1  0.211670  0.904730  0.808730  1.0  0.1084
  H  H31  1  0.102570  0.944030  0.764530  1.0  0.0874
  H  H32  1  0.042270  0.911530  0.679230  1.0  0.1146
  H  H33  1  0.887330  0.350970  0.978070  1.0  0.1113
  H  H34  1  0.840930  0.277570  0.004570  1.0  0.1098
  H  H35  1  0.889530  0.310870  0.150070  1.0  0.114
  H  H36  1  0.936930  0.383770  0.122870  1.0  0.1114
  H  H37  1  0.878330  0.238070  0.142070  1.0  0.1084
  H  H38  1  0.769230  0.277370  0.097870  1.0  0.0864
  H  H39  1  0.708930  0.244870  0.012570  1.0  0.1127
  H  H40  1  0.315700  0.869700  0.311400  1.0  0.1119
  H  H41  1  0.389100  0.896700  0.337900  1.0  0.1091
  H  H42  1  0.355800  0.912000  0.483400  1.0  0.1141
  H  H43  1  0.282900  0.886500  0.456200  1.0  0.1103
  H  H44  1  0.428600  0.973600  0.475400  1.0  0.108
  H  H45  1  0.389300  0.825200  0.431200  1.0  0.0867
  H  H46  1  0.421800  0.797400  0.345900  1.0  0.1108
  H  H47  1  0.982370  0.203030  0.644730  1.0  0.1119
  H  H48  1  0.055770  0.230030  0.671230  1.0  0.1091
  H  H49  1  0.022470  0.245330  0.816730  1.0  0.1146
  H  H50  1  0.949570  0.219830  0.789530  1.0  0.1103
  H  H51  1  0.095270  0.306930  0.808730  1.0  0.108
  H  H52  1  0.055970  0.158530  0.764530  1.0  0.0855
  H  H53  1  0.088470  0.130730  0.679230  1.0  0.1109
  H  H54  1  0.649030  0.536370  0.978070  1.0  0.1118
  H  H55  1  0.722430  0.563370  0.004570  1.0  0.1106
  H  H56  1  0.689130  0.578670  0.150070  1.0  0.1141
  H  H57  1  0.616230  0.553170  0.122870  1.0  0.1103
  H  H58  1  0.761930  0.640270  0.142070  1.0  0.108
  H  H59  1  0.722630  0.491870  0.097870  1.0  0.0867
  H  H60  1  0.755130  0.464070  0.012570  1.0  0.1108
  H  H61  1  0.130300  0.446000  0.311400  1.0  0.112
  H  H62  1  0.103300  0.492400  0.337900  1.0  0.1099
  H  H63  1  0.088000  0.443800  0.483400  1.0  0.1138
  H  H64  1  0.113500  0.396400  0.456200  1.0  0.1104
  H  H65  1  0.026400  0.455000  0.475400  1.0  0.1091
  H  H66  1  0.174800  0.564100  0.431200  1.0  0.0895
  H  H67  1  0.202600  0.624400  0.345900  1.0  0.1163
  H  H68  1  0.796970  0.779330  0.644730  1.0  0.112
  H  H69  1  0.769970  0.825730  0.671230  1.0  0.1099
  H  H70  1  0.754670  0.777130  0.816730  1.0  0.1136
  H  H71  1  0.780170  0.729730  0.789530  1.0  0.1111
  H  H72  1  0.693070  0.788330  0.808730  1.0  0.1091
  H  H73  1  0.841470  0.897430  0.764530  1.0  0.0901
  H  H74  1  0.869270  0.957730  0.679230  1.0  0.1165
  H  H75  1  0.463630  0.112670  0.978070  1.0  0.112
  H  H76  1  0.436630  0.159070  0.004570  1.0  0.1088
  H  H77  1  0.421330  0.110470  0.150070  1.0  0.1138
  H  H78  1  0.446830  0.063070  0.122870  1.0  0.1104
  H  H79  1  0.359730  0.121670  0.142070  1.0  0.1091
  H  H80  1  0.508130  0.230770  0.097870  1.0  0.0895
  H  H81  1  0.535930  0.291070  0.012570  1.0  0.1163
  H  H82  1  0.684300  0.554000  0.688600  1.0  0.112
  H  H83  1  0.610900  0.507600  0.662100  1.0  0.1102
  H  H84  1  0.644200  0.556200  0.516600  1.0  0.1145
  H  H85  1  0.717100  0.603600  0.543800  1.0  0.1115
  H  H86  1  0.571400  0.545000  0.524600  1.0  0.1093
  H  H87  1  0.610700  0.435900  0.568800  1.0  0.0871
  H  H88  1  0.578200  0.375600  0.654100  1.0  0.1129
  H  H89  1  0.350970  0.887330  0.021930  1.0  0.112
  H  H90  1  0.277570  0.840930  0.995430  1.0  0.1102
  H  H91  1  0.310870  0.889530  0.849930  1.0  0.1145
  H  H92  1  0.383770  0.936930  0.877130  1.0  0.1115
  H  H93  1  0.238070  0.878330  0.857930  1.0  0.1093
  H  H94  1  0.277370  0.769230  0.902130  1.0  0.0871
  H  H95  1  0.244870  0.708930  0.987430  1.0  0.1129
  H  H96  1  0.017630  0.220670  0.355270  1.0  0.1122
  H  H97  1  0.944230  0.174270  0.328770  1.0  0.1102
  H  H98  1  0.977530  0.222870  0.183270  1.0  0.1152
  H  H99  1  0.050430  0.270270  0.210470  1.0  0.11
  H  H100  1  0.904730  0.211670  0.191270  1.0  0.1093
  H  H101  1  0.944030  0.102570  0.235470  1.0  0.0885
  H  H102  1  0.911530  0.042270  0.320770  1.0  0.1148
  H  H103  1  0.869700  0.315700  0.688600  1.0  0.1116
  H  H104  1  0.896700  0.389100  0.662100  1.0  0.1085
  H  H105  1  0.912000  0.355800  0.516600  1.0  0.1142
  H  H106  1  0.886500  0.282900  0.543800  1.0  0.1102
  H  H107  1  0.973600  0.428600  0.524600  1.0  0.1081
  H  H108  1  0.825200  0.389300  0.568800  1.0  0.0871
  H  H109  1  0.797400  0.421800  0.654100  1.0  0.1132
  H  H110  1  0.536370  0.649030  0.021930  1.0  0.1116
  H  H111  1  0.563370  0.722430  0.995430  1.0  0.1097
  H  H112  1  0.578670  0.689130  0.849930  1.0  0.1142
  H  H113  1  0.553170  0.616230  0.877130  1.0  0.1102
  H  H114  1  0.640270  0.761930  0.857930  1.0  0.1081
  H  H115  1  0.491870  0.722630  0.902130  1.0  0.0871
  H  H116  1  0.464070  0.755130  0.987430  1.0  0.1132
  H  H117  1  0.203030  0.982370  0.355270  1.0  0.1116
  H  H118  1  0.230030  0.055770  0.328770  1.0  0.1085
  H  H119  1  0.245330  0.022470  0.183270  1.0  0.1147
  H  H120  1  0.219830  0.949570  0.210470  1.0  0.1095
  H  H121  1  0.306930  0.095270  0.191270  1.0  0.1081
  H  H122  1  0.158530  0.055970  0.235470  1.0  0.0859
  H  H123  1  0.130730  0.088470  0.320770  1.0  0.1139
  H  H124  1  0.446000  0.130300  0.688600  1.0  0.1116
  H  H125  1  0.492400  0.103300  0.662100  1.0  0.1111
  H  H126  1  0.443800  0.088000  0.516600  1.0  0.1131
  H  H127  1  0.396400  0.113500  0.543800  1.0  0.1104
  H  H128  1  0.455000  0.026400  0.524600  1.0  0.1078
  H  H129  1  0.564100  0.174800  0.568800  1.0  0.0867
  H  H130  1  0.624400  0.202600  0.654100  1.0  0.1122
  H  H131  1  0.112670  0.463630  0.021930  1.0  0.1116
  H  H132  1  0.159070  0.436630  0.995430  1.0  0.1101
  H  H133  1  0.110470  0.421330  0.849930  1.0  0.1131
  H  H134  1  0.063070  0.446830  0.877130  1.0  0.1104
  H  H135  1  0.121670  0.359730  0.857930  1.0  0.1078
  H  H136  1  0.230770  0.508130  0.902130  1.0  0.0867
  H  H137  1  0.291070  0.535930  0.987430  1.0  0.1122
  H  H138  1  0.779330  0.796970  0.355270  1.0  0.1117
  H  H139  1  0.825730  0.769970  0.328770  1.0  0.1111
  H  H140  1  0.777130  0.754670  0.183270  1.0  0.1128
  H  H141  1  0.729730  0.780170  0.210470  1.0  0.1109
  H  H142  1  0.788330  0.693070  0.191270  1.0  0.1078
  H  H143  1  0.897430  0.841470  0.235470  1.0  0.087
  H  H144  1  0.957730  0.869270  0.320770  1.0  0.1125
  H  H145  1  0.446000  0.315700  0.688600  1.0  0.1117
  H  H146  1  0.492400  0.389100  0.662100  1.0  0.1099
  H  H147  1  0.443800  0.355800  0.516600  1.0  0.1138
  H  H148  1  0.396400  0.282900  0.543800  1.0  0.111
  H  H149  1  0.455000  0.428600  0.524600  1.0  0.1072
  H  H150  1  0.564100  0.389300  0.568800  1.0  0.0865
  H  H151  1  0.624400  0.421800  0.654100  1.0  0.1131
  H  H152  1  0.112670  0.649030  0.021930  1.0  0.1117
  H  H153  1  0.159070  0.722430  0.995430  1.0  0.1099
  H  H154  1  0.110470  0.689130  0.849930  1.0  0.1138
  H  H155  1  0.063070  0.616230  0.877130  1.0  0.111
  H  H156  1  0.121670  0.761930  0.857930  1.0  0.1072
  H  H157  1  0.230770  0.722630  0.902130  1.0  0.0865
  H  H158  1  0.291070  0.755130  0.987430  1.0  0.1131
  H  H159  1  0.779330  0.982370  0.355270  1.0  0.1119
  H  H160  1  0.825730  0.055770  0.328770  1.0  0.1099
  H  H161  1  0.777130  0.022470  0.183270  1.0  0.1145
  H  H162  1  0.729730  0.949570  0.210470  1.0  0.1092
  H  H163  1  0.788330  0.095270  0.191270  1.0  0.1072
  H  H164  1  0.897430  0.055970  0.235470  1.0  0.0878
  H  H165  1  0.957730  0.088470  0.320770  1.0  0.1157
  H  H166  1  0.684300  0.130300  0.688600  1.0  0.1119
  H  H167  1  0.610900  0.103300  0.662100  1.0  0.1092
  H  H168  1  0.644200  0.088000  0.516600  1.0  0.1139
  H  H169  1  0.717100  0.113500  0.543800  1.0  0.1111
  H  H170  1  0.571400  0.026400  0.524600  1.0  0.1085
  H  H171  1  0.610700  0.174800  0.568800  1.0  0.0875
  H  H172  1  0.578200  0.202600  0.654100  1.0  0.1109
  H  H173  1  0.350970  0.463630  0.021930  1.0  0.1119
  H  H174  1  0.277570  0.436630  0.995430  1.0  0.1105
  H  H175  1  0.310870  0.421330  0.849930  1.0  0.1139
  H  H176  1  0.383770  0.446830  0.877130  1.0  0.1111
  H  H177  1  0.238070  0.359730  0.857930  1.0  0.1085
  H  H178  1  0.277370  0.508130  0.902130  1.0  0.0875
  H  H179  1  0.244870  0.535930  0.987430  1.0  0.1109
  H  H180  1  0.017630  0.796970  0.355270  1.0  0.1119
  H  H181  1  0.944230  0.769970  0.328770  1.0  0.1092
  H  H182  1  0.977530  0.754670  0.183270  1.0  0.1147
  H  H183  1  0.050430  0.780170  0.210470  1.0  0.1105
  H  H184  1  0.904730  0.693070  0.191270  1.0  0.1085
  H  H185  1  0.944030  0.841470  0.235470  1.0  0.087
  H  H186  1  0.911530  0.869270  0.320770  1.0  0.1112
  H  H187  1  0.869700  0.554000  0.688600  1.0  0.112
  H  H188  1  0.896700  0.507600  0.662100  1.0  0.1102
  H  H189  1  0.912000  0.556200  0.516600  1.0  0.1138
  H  H190  1  0.886500  0.603600  0.543800  1.0  0.1103
  H  H191  1  0.973600  0.545000  0.524600  1.0  0.1093
  H  H192  1  0.825200  0.435900  0.568800  1.0  0.0882
  H  H193  1  0.797400  0.375600  0.654100  1.0  0.1152
  H  H194  1  0.536370  0.887330  0.021930  1.0  0.1121
  H  H195  1  0.563370  0.840930  0.995430  1.0  0.1095
  H  H196  1  0.578670  0.889530  0.849930  1.0  0.1138
  H  H197  1  0.553170  0.936930  0.877130  1.0  0.1103
  H  H198  1  0.640270  0.878330  0.857930  1.0  0.1093
  H  H199  1  0.491870  0.769230  0.902130  1.0  0.0882
  H  H200  1  0.464070  0.708930  0.987430  1.0  0.1152
  H  H201  1  0.203030  0.220670  0.355270  1.0  0.112
  H  H202  1  0.230030  0.174270  0.328770  1.0  0.1102
  H  H203  1  0.245330  0.222870  0.183270  1.0  0.1135
  H  H204  1  0.219830  0.270270  0.210470  1.0  0.1105
  H  H205  1  0.306930  0.211670  0.191270  1.0  0.1093
  H  H206  1  0.158530  0.102570  0.235470  1.0  0.0888
  H  H207  1  0.130730  0.042270  0.320770  1.0  0.1153
  H  H208  1  0.315700  0.446000  0.311400  1.0  0.1119
  H  H209  1  0.389100  0.492400  0.337900  1.0  0.11
  H  H210  1  0.355800  0.443800  0.483400  1.0  0.1144
  H  H211  1  0.282900  0.396400  0.456200  1.0  0.1114
  H  H212  1  0.428600  0.455000  0.475400  1.0  0.1091
  H  H213  1  0.389300  0.564100  0.431200  1.0  0.0885
  H  H214  1  0.421800  0.624400  0.345900  1.0  0.1128
  H  H215  1  0.982370  0.779330  0.644730  1.0  0.112
  H  H216  1  0.055770  0.825730  0.671230  1.0  0.11
  H  H217  1  0.022470  0.777130  0.816730  1.0  0.115
  H  H218  1  0.949570  0.729730  0.789530  1.0  0.11
  H  H219  1  0.095270  0.788330  0.808730  1.0  0.1091
  H  H220  1  0.055970  0.897430  0.764530  1.0  0.0898
  H  H221  1  0.088470  0.957730  0.679230  1.0  0.1145
  H  H222  1  0.649030  0.112670  0.978070  1.0  0.1119
  H  H223  1  0.722430  0.159070  0.004570  1.0  0.11
  H  H224  1  0.689130  0.110470  0.150070  1.0  0.1144
  H  H225  1  0.616230  0.063070  0.122870  1.0  0.1114
  H  H226  1  0.761930  0.121670  0.142070  1.0  0.1091
  H  H227  1  0.722630  0.230770  0.097870  1.0  0.0885
  H  H228  1  0.755130  0.291070  0.012570  1.0  0.1128
  H  H229  1  0.130300  0.684300  0.311400  1.0  0.1119
  H  H230  1  0.103300  0.610900  0.337900  1.0  0.1079
  H  H231  1  0.088000  0.644200  0.483400  1.0  0.1138
  H  H232  1  0.113500  0.717100  0.456200  1.0  0.1097
  H  H233  1  0.026400  0.571400  0.475400  1.0  0.1075
  H  H234  1  0.174800  0.610700  0.431200  1.0  0.0878
  H  H235  1  0.202600  0.578200  0.345900  1.0  0.1133
  H  H236  1  0.796970  0.017630  0.644730  1.0  0.1119
  H  H237  1  0.769970  0.944230  0.671230  1.0  0.1079
  H  H238  1  0.754670  0.977530  0.816730  1.0  0.1143
  H  H239  1  0.780170  0.050430  0.789530  1.0  0.1098
  H  H240  1  0.693070  0.904730  0.808730  1.0  0.1075
  H  H241  1  0.841470  0.944030  0.764530  1.0  0.0871
  H  H242  1  0.869270  0.911530  0.679230  1.0  0.1136
  H  H243  1  0.463630  0.350970  0.978070  1.0  0.1119
  H  H244  1  0.436630  0.277570  0.004570  1.0  0.1094
  H  H245  1  0.421330  0.310870  0.150070  1.0  0.1138
  H  H246  1  0.446830  0.383770  0.122870  1.0  0.1097
  H  H247  1  0.359730  0.238070  0.142070  1.0  0.1075
  H  H248  1  0.508130  0.277370  0.097870  1.0  0.0878
  H  H249  1  0.535930  0.244870  0.012570  1.0  0.1133
  H  H250  1  0.554000  0.869700  0.311400  1.0  0.1119
  H  H251  1  0.507600  0.896700  0.337900  1.0  0.1109
  H  H252  1  0.556200  0.912000  0.483400  1.0  0.1132
  H  H253  1  0.603600  0.886500  0.456200  1.0  0.1108
  H  H254  1  0.545000  0.973600  0.475400  1.0  0.1083
  H  H255  1  0.435900  0.825200  0.431200  1.0  0.0874
  H  H256  1  0.375600  0.797400  0.345900  1.0  0.1127
  H  H257  1  0.220670  0.203030  0.644730  1.0  0.1118
  H  H258  1  0.174270  0.230030  0.671230  1.0  0.1109
  H  H259  1  0.222870  0.245330  0.816730  1.0  0.1129
  H  H260  1  0.270270  0.219830  0.789530  1.0  0.1114
  H  H261  1  0.211670  0.306930  0.808730  1.0  0.1083
  H  H262  1  0.102570  0.158530  0.764530  1.0  0.0874
  H  H263  1  0.042270  0.130730  0.679230  1.0  0.1121
  H  H264  1  0.887330  0.536370  0.978070  1.0  0.112
  H  H265  1  0.840930  0.563370  0.004570  1.0  0.1098
  H  H266  1  0.889530  0.578670  0.150070  1.0  0.1132
  H  H267  1  0.936930  0.553170  0.122870  1.0  0.1107
  H  H268  1  0.878330  0.640270  0.142070  1.0  0.1083
  H  H269  1  0.769230  0.491870  0.097870  1.0  0.0874
  H  H270  1  0.708930  0.464070  0.012570  1.0  0.1127
  H  H271  1  0.382000  0.618000  0.383200  1.0  0.1217
  H  H272  1  0.048670  0.951330  0.716530  1.0  0.1217
  H  H273  1  0.715330  0.284670  0.049870  1.0  0.1217
  H  H274  1  0.382000  0.764000  0.383200  1.0  0.1242
  H  H275  1  0.048670  0.097330  0.716530  1.0  0.1242
  H  H276  1  0.715330  0.430670  0.049870  1.0  0.1242
  H  H277  1  0.236000  0.618000  0.383200  1.0  0.126
  H  H278  1  0.902670  0.951330  0.716530  1.0  0.126
  H  H279  1  0.569330  0.284670  0.049870  1.0  0.126
  H  H280  1  0.618000  0.382000  0.616800  1.0  0.1268
  H  H281  1  0.284670  0.715330  0.950130  1.0  0.1268
  H  H282  1  0.951330  0.048670  0.283470  1.0  0.1268
  H  H283  1  0.764000  0.382000  0.616800  1.0  0.1238
  H  H284  1  0.430670  0.715330  0.950130  1.0  0.1238
  H  H285  1  0.097330  0.048670  0.283470  1.0  0.1238
  H  H286  1  0.618000  0.236000  0.616800  1.0  0.1269
  H  H287  1  0.284670  0.569330  0.950130  1.0  0.1269
  H  H288  1  0.951330  0.902670  0.283470  1.0  0.1269
  C  C289  1  0.613700  0.754940  0.363790  1.0  0.6895
  C  C290  1  0.583200  0.707900  0.381730  1.0  -0.1184
  C  C291  1  0.554560  0.676160  0.346540  1.0  -0.0444
  C  C292  1  0.526740  0.632500  0.362510  1.0  -0.1376
  C  C293  1  0.526410  0.619780  0.414130  1.0  0.0441
  C  C294  1  0.555480  0.651960  0.448160  1.0  -0.1652
  C  C295  1  0.583750  0.695620  0.432010  1.0  -0.0493
  C  C296  1  0.497720  0.572730  0.431590  1.0  -0.0394
  C  C297  1  0.514960  0.553850  0.464210  1.0  -0.1213
  C  C298  1  0.280370  0.088270  0.697120  1.0  0.6895
  C  C299  1  0.249870  0.041230  0.715060  1.0  -0.1184
  C  C300  1  0.221230  0.009490  0.679870  1.0  -0.0444
  C  C301  1  0.193410  0.965830  0.695840  1.0  -0.1376
  C  C302  1  0.193080  0.953110  0.747460  1.0  0.0441
  C  C303  1  0.222150  0.985290  0.781490  1.0  -0.1652
  C  C304  1  0.250420  0.028950  0.765340  1.0  -0.0493
  C  C305  1  0.164390  0.906060  0.764920  1.0  -0.0394
  C  C306  1  0.181630  0.887180  0.797540  1.0  -0.1213
  C  C307  1  0.947030  0.421610  0.030460  1.0  0.6893
  C  C308  1  0.916530  0.374570  0.048400  1.0  -0.1185
  C  C309  1  0.887890  0.342830  0.013210  1.0  -0.0445
  C  C310  1  0.860070  0.299170  0.029180  1.0  -0.1374
  C  C311  1  0.859740  0.286450  0.080800  1.0  0.0441
  C  C312  1  0.888810  0.318630  0.114830  1.0  -0.1652
  C  C313  1  0.917080  0.362290  0.098680  1.0  -0.0493
  C  C314  1  0.831050  0.239400  0.098260  1.0  -0.0394
  C  C315  1  0.848290  0.220520  0.130880  1.0  -0.1213
  C  C316  1  0.245060  0.858760  0.363790  1.0  0.6897
  C  C317  1  0.292100  0.875300  0.381730  1.0  -0.1189
  C  C318  1  0.323840  0.878400  0.346540  1.0  -0.0437
  C  C319  1  0.367500  0.894240  0.362510  1.0  -0.1362
  C  C320  1  0.380220  0.906630  0.414130  1.0  0.0422
  C  C321  1  0.348040  0.903520  0.448160  1.0  -0.1644
  C  C322  1  0.304380  0.888130  0.432010  1.0  -0.0485
  C  C323  1  0.427270  0.924990  0.431590  1.0  -0.0405
  C  C324  1  0.446150  0.961110  0.464210  1.0  -0.1218
  C  C325  1  0.911730  0.192090  0.697120  1.0  0.6897
  C  C326  1  0.958770  0.208630  0.715060  1.0  -0.1189
  C  C327  1  0.990510  0.211730  0.679870  1.0  -0.0437
  C  C328  1  0.034170  0.227570  0.695840  1.0  -0.1362
  C  C329  1  0.046890  0.239960  0.747460  1.0  0.0422
  C  C330  1  0.014710  0.236850  0.781490  1.0  -0.1644
  C  C331  1  0.971050  0.221460  0.765340  1.0  -0.0485
  C  C332  1  0.093940  0.258320  0.764920  1.0  -0.0405
  C  C333  1  0.112820  0.294440  0.797540  1.0  -0.1218
  C  C334  1  0.578390  0.525430  0.030460  1.0  0.6897
  C  C335  1  0.625430  0.541970  0.048400  1.0  -0.119
  C  C336  1  0.657170  0.545070  0.013210  1.0  -0.0438
  C  C337  1  0.700830  0.560910  0.029180  1.0  -0.1361
  C  C338  1  0.713550  0.573300  0.080800  1.0  0.0422
  C  C339  1  0.681370  0.570190  0.114830  1.0  -0.1644
  C  C340  1  0.637710  0.554800  0.098680  1.0  -0.0485
  C  C341  1  0.760600  0.591660  0.098260  1.0  -0.0405
  C  C342  1  0.779480  0.627780  0.130880  1.0  -0.1218
  C  C343  1  0.141240  0.386300  0.363790  1.0  0.689
  C  C344  1  0.124700  0.416800  0.381730  1.0  -0.1196
  C  C345  1  0.121600  0.445440  0.346540  1.0  -0.0437
  C  C346  1  0.105760  0.473260  0.362510  1.0  -0.1365
  C  C347  1  0.093370  0.473590  0.414130  1.0  0.0431
  C  C348  1  0.096480  0.444520  0.448160  1.0  -0.167
  C  C349  1  0.111870  0.416250  0.432010  1.0  -0.0494
  C  C350  1  0.075010  0.502280  0.431590  1.0  -0.0408
  C  C351  1  0.038890  0.485040  0.464210  1.0  -0.1193
  C  C352  1  0.807910  0.719630  0.697120  1.0  0.689
  C  C353  1  0.791370  0.750130  0.715060  1.0  -0.1196
  C  C354  1  0.788270  0.778770  0.679870  1.0  -0.0437
  C  C355  1  0.772430  0.806590  0.695840  1.0  -0.1365
  C  C356  1  0.760040  0.806920  0.747460  1.0  0.0431
  C  C357  1  0.763150  0.777850  0.781490  1.0  -0.167
  C  C358  1  0.778540  0.749580  0.765340  1.0  -0.0494
  C  C359  1  0.741680  0.835610  0.764920  1.0  -0.0408
  C  C360  1  0.705560  0.818370  0.797540  1.0  -0.1193
  C  C361  1  0.474570  0.052970  0.030460  1.0  0.6886
  C  C362  1  0.458030  0.083470  0.048400  1.0  -0.1194
  C  C363  1  0.454930  0.112110  0.013210  1.0  -0.0436
  C  C364  1  0.439090  0.139930  0.029180  1.0  -0.1366
  C  C365  1  0.426700  0.140260  0.080800  1.0  0.0431
  C  C366  1  0.429810  0.111190  0.114830  1.0  -0.167
  C  C367  1  0.445200  0.082920  0.098680  1.0  -0.0494
  C  C368  1  0.408340  0.168950  0.098260  1.0  -0.0408
  C  C369  1  0.372220  0.151710  0.130880  1.0  -0.1193
  C  C370  1  0.754940  0.613700  0.636210  1.0  0.6892
  C  C371  1  0.707900  0.583200  0.618270  1.0  -0.1199
  C  C372  1  0.676160  0.554560  0.653460  1.0  -0.0432
  C  C373  1  0.632500  0.526740  0.637490  1.0  -0.1368
  C  C374  1  0.619780  0.526410  0.585870  1.0  0.0434
  C  C375  1  0.651960  0.555480  0.551840  1.0  -0.1662
  C  C376  1  0.695620  0.583750  0.567990  1.0  -0.0495
  C  C377  1  0.572730  0.497720  0.568410  1.0  -0.0406
  C  C378  1  0.553850  0.514960  0.535790  1.0  -0.1193
  C  C379  1  0.421610  0.947030  0.969540  1.0  0.689
  C  C380  1  0.374570  0.916530  0.951600  1.0  -0.12
  C  C381  1  0.342830  0.887890  0.986790  1.0  -0.0432
  C  C382  1  0.299170  0.860070  0.970820  1.0  -0.1367
  C  C383  1  0.286450  0.859740  0.919200  1.0  0.0434
  C  C384  1  0.318630  0.888810  0.885170  1.0  -0.1662
  C  C385  1  0.362290  0.917080  0.901320  1.0  -0.0495
  C  C386  1  0.239400  0.831050  0.901740  1.0  -0.0406
  C  C387  1  0.220520  0.848290  0.869120  1.0  -0.1194
  C  C388  1  0.088270  0.280370  0.302880  1.0  0.6892
  C  C389  1  0.041230  0.249870  0.284940  1.0  -0.1199
  C  C390  1  0.009490  0.221230  0.320130  1.0  -0.0432
  C  C391  1  0.965830  0.193410  0.304160  1.0  -0.1368
  C  C392  1  0.953110  0.193080  0.252540  1.0  0.0434
  C  C393  1  0.985290  0.222150  0.218510  1.0  -0.1662
  C  C394  1  0.028950  0.250420  0.234660  1.0  -0.0495
  C  C395  1  0.906060  0.164390  0.235080  1.0  -0.0406
  C  C396  1  0.887180  0.181630  0.202460  1.0  -0.1193
  C  C397  1  0.858760  0.245060  0.636210  1.0  0.6895
  C  C398  1  0.875300  0.292100  0.618270  1.0  -0.1187
  C  C399  1  0.878400  0.323840  0.653460  1.0  -0.0437
  C  C400  1  0.894240  0.367500  0.637490  1.0  -0.1373
  C  C401  1  0.906630  0.380220  0.585870  1.0  0.0437
  C  C402  1  0.903520  0.348040  0.551840  1.0  -0.166
  C  C403  1  0.888130  0.304380  0.567990  1.0  -0.0496
  C  C404  1  0.924990  0.427270  0.568410  1.0  -0.0393
  C  C405  1  0.961110  0.446150  0.535790  1.0  -0.1216
  C  C406  1  0.525430  0.578390  0.969540  1.0  0.6895
  C  C407  1  0.541970  0.625430  0.951600  1.0  -0.1188
  C  C408  1  0.545070  0.657170  0.986790  1.0  -0.044
  C  C409  1  0.560910  0.700830  0.970820  1.0  -0.1373
  C  C410  1  0.573300  0.713550  0.919200  1.0  0.0437
  C  C411  1  0.570190  0.681370  0.885170  1.0  -0.166
  C  C412  1  0.554800  0.637710  0.901320  1.0  -0.0496
  C  C413  1  0.591660  0.760600  0.901740  1.0  -0.0393
  C  C414  1  0.627780  0.779480  0.869120  1.0  -0.1216
  C  C415  1  0.192090  0.911730  0.302880  1.0  0.6895
  C  C416  1  0.208630  0.958770  0.284940  1.0  -0.1187
  C  C417  1  0.211730  0.990510  0.320130  1.0  -0.0437
  C  C418  1  0.227570  0.034170  0.304160  1.0  -0.1373
  C  C419  1  0.239960  0.046890  0.252540  1.0  0.0437
  C  C420  1  0.236850  0.014710  0.218510  1.0  -0.166
  C  C421  1  0.221460  0.971050  0.234660  1.0  -0.0496
  C  C422  1  0.258320  0.093940  0.235080  1.0  -0.0393
  C  C423  1  0.294440  0.112820  0.202460  1.0  -0.1216
  C  C424  1  0.386300  0.141240  0.636210  1.0  0.6898
  C  C425  1  0.416800  0.124700  0.618270  1.0  -0.1187
  C  C426  1  0.445440  0.121600  0.653460  1.0  -0.0444
  C  C427  1  0.473260  0.105760  0.637490  1.0  -0.1359
  C  C428  1  0.473590  0.093370  0.585870  1.0  0.0424
  C  C429  1  0.444520  0.096480  0.551840  1.0  -0.1638
  C  C430  1  0.416250  0.111870  0.567990  1.0  -0.0475
  C  C431  1  0.502280  0.075010  0.568410  1.0  -0.0402
  C  C432  1  0.485040  0.038890  0.535790  1.0  -0.1214
  C  C433  1  0.052970  0.474570  0.969540  1.0  0.6894
  C  C434  1  0.083470  0.458030  0.951600  1.0  -0.1185
  C  C435  1  0.112110  0.454930  0.986790  1.0  -0.0444
  C  C436  1  0.139930  0.439090  0.970820  1.0  -0.1359
  C  C437  1  0.140260  0.426700  0.919200  1.0  0.0424
  C  C438  1  0.111190  0.429810  0.885170  1.0  -0.1638
  C  C439  1  0.082920  0.445200  0.901320  1.0  -0.0475
  C  C440  1  0.168950  0.408340  0.901740  1.0  -0.0402
  C  C441  1  0.151710  0.372220  0.869120  1.0  -0.1215
  C  C442  1  0.719630  0.807910  0.302880  1.0  0.6898
  C  C443  1  0.750130  0.791370  0.284940  1.0  -0.1187
  C  C444  1  0.778770  0.788270  0.320130  1.0  -0.0444
  C  C445  1  0.806590  0.772430  0.304160  1.0  -0.1359
  C  C446  1  0.806920  0.760040  0.252540  1.0  0.0424
  C  C447  1  0.777850  0.763150  0.218510  1.0  -0.1638
  C  C448  1  0.749580  0.778540  0.234660  1.0  -0.0475
  C  C449  1  0.835610  0.741680  0.235080  1.0  -0.0402
  C  C450  1  0.818370  0.705560  0.202460  1.0  -0.1214
  C  C451  1  0.386300  0.245060  0.636210  1.0  0.6897
  C  C452  1  0.416800  0.292100  0.618270  1.0  -0.1183
  C  C453  1  0.445440  0.323840  0.653460  1.0  -0.0437
  C  C454  1  0.473260  0.367500  0.637490  1.0  -0.1382
  C  C455  1  0.473590  0.380220  0.585870  1.0  0.0435
  C  C456  1  0.444520  0.348040  0.551840  1.0  -0.1661
  C  C457  1  0.416250  0.304380  0.567990  1.0  -0.049
  C  C458  1  0.502280  0.427270  0.568410  1.0  -0.0402
  C  C459  1  0.485040  0.446150  0.535790  1.0  -0.1211
  C  C460  1  0.052970  0.578390  0.969540  1.0  0.6895
  C  C461  1  0.083470  0.625430  0.951600  1.0  -0.1184
  C  C462  1  0.112110  0.657170  0.986790  1.0  -0.0436
  C  C463  1  0.139930  0.700830  0.970820  1.0  -0.138
  C  C464  1  0.140260  0.713550  0.919200  1.0  0.0435
  C  C465  1  0.111190  0.681370  0.885170  1.0  -0.1661
  C  C466  1  0.082920  0.637710  0.901320  1.0  -0.049
  C  C467  1  0.168950  0.760600  0.901740  1.0  -0.0402
  C  C468  1  0.151710  0.779480  0.869120  1.0  -0.1212
  C  C469  1  0.719630  0.911730  0.302880  1.0  0.6897
  C  C470  1  0.750130  0.958770  0.284940  1.0  -0.1183
  C  C471  1  0.778770  0.990510  0.320130  1.0  -0.0437
  C  C472  1  0.806590  0.034170  0.304160  1.0  -0.1382
  C  C473  1  0.806920  0.046890  0.252540  1.0  0.0435
  C  C474  1  0.777850  0.014710  0.218510  1.0  -0.1661
  C  C475  1  0.749580  0.971050  0.234660  1.0  -0.049
  C  C476  1  0.835610  0.093940  0.235080  1.0  -0.0402
  C  C477  1  0.818370  0.112820  0.202460  1.0  -0.1211
  C  C478  1  0.754940  0.141240  0.636210  1.0  0.6893
  C  C479  1  0.707900  0.124700  0.618270  1.0  -0.1201
  C  C480  1  0.676160  0.121600  0.653460  1.0  -0.0432
  C  C481  1  0.632500  0.105760  0.637490  1.0  -0.1357
  C  C482  1  0.619780  0.093370  0.585870  1.0  0.0431
  C  C483  1  0.651960  0.096480  0.551840  1.0  -0.1636
  C  C484  1  0.695620  0.111870  0.567990  1.0  -0.0482
  C  C485  1  0.572730  0.075010  0.568410  1.0  -0.0388
  C  C486  1  0.553850  0.038890  0.535790  1.0  -0.1216
  C  C487  1  0.421610  0.474570  0.969540  1.0  0.6893
  C  C488  1  0.374570  0.458030  0.951600  1.0  -0.1202
  C  C489  1  0.342830  0.454930  0.986790  1.0  -0.0433
  C  C490  1  0.299170  0.439090  0.970820  1.0  -0.1357
  C  C491  1  0.286450  0.426700  0.919200  1.0  0.0431
  C  C492  1  0.318630  0.429810  0.885170  1.0  -0.1636
  C  C493  1  0.362290  0.445200  0.901320  1.0  -0.0482
  C  C494  1  0.239400  0.408340  0.901740  1.0  -0.0388
  C  C495  1  0.220520  0.372220  0.869120  1.0  -0.1217
  C  C496  1  0.088270  0.807910  0.302880  1.0  0.6893
  C  C497  1  0.041230  0.791370  0.284940  1.0  -0.1201
  C  C498  1  0.009490  0.788270  0.320130  1.0  -0.0432
  C  C499  1  0.965830  0.772430  0.304160  1.0  -0.1357
  C  C500  1  0.953110  0.760040  0.252540  1.0  0.0431
  C  C501  1  0.985290  0.763150  0.218510  1.0  -0.1636
  C  C502  1  0.028950  0.778540  0.234660  1.0  -0.0482
  C  C503  1  0.906060  0.741680  0.235080  1.0  -0.0388
  C  C504  1  0.887180  0.705560  0.202460  1.0  -0.1216
  C  C505  1  0.858760  0.613700  0.636210  1.0  0.689
  C  C506  1  0.875300  0.583200  0.618270  1.0  -0.119
  C  C507  1  0.878400  0.554560  0.653460  1.0  -0.0435
  C  C508  1  0.894240  0.526740  0.637490  1.0  -0.1363
  C  C509  1  0.906630  0.526410  0.585870  1.0  0.0433
  C  C510  1  0.903520  0.555480  0.551840  1.0  -0.1659
  C  C511  1  0.888130  0.583750  0.567990  1.0  -0.0489
  C  C512  1  0.924990  0.497720  0.568410  1.0  -0.0404
  C  C513  1  0.961110  0.514960  0.535790  1.0  -0.1199
  C  C514  1  0.525430  0.947030  0.969540  1.0  0.6885
  C  C515  1  0.541970  0.916530  0.951600  1.0  -0.1187
  C  C516  1  0.545070  0.887890  0.986790  1.0  -0.0435
  C  C517  1  0.560910  0.860070  0.970820  1.0  -0.1364
  C  C518  1  0.573300  0.859740  0.919200  1.0  0.0433
  C  C519  1  0.570190  0.888810  0.885170  1.0  -0.1659
  C  C520  1  0.554800  0.917080  0.901320  1.0  -0.0489
  C  C521  1  0.591660  0.831050  0.901740  1.0  -0.0404
  C  C522  1  0.627780  0.848290  0.869120  1.0  -0.1199
  C  C523  1  0.192090  0.280370  0.302880  1.0  0.689
  C  C524  1  0.208630  0.249870  0.284940  1.0  -0.119
  C  C525  1  0.211730  0.221230  0.320130  1.0  -0.0435
  C  C526  1  0.227570  0.193410  0.304160  1.0  -0.1363
  C  C527  1  0.239960  0.193080  0.252540  1.0  0.0433
  C  C528  1  0.236850  0.222150  0.218510  1.0  -0.1659
  C  C529  1  0.221460  0.250420  0.234660  1.0  -0.0489
  C  C530  1  0.258320  0.164390  0.235080  1.0  -0.0404
  C  C531  1  0.294440  0.181630  0.202460  1.0  -0.1199
  C  C532  1  0.245060  0.386300  0.363790  1.0  0.6887
  C  C533  1  0.292100  0.416800  0.381730  1.0  -0.119
  C  C534  1  0.323840  0.445440  0.346540  1.0  -0.043
  C  C535  1  0.367500  0.473260  0.362510  1.0  -0.1375
  C  C536  1  0.380220  0.473590  0.414130  1.0  0.043
  C  C537  1  0.348040  0.444520  0.448160  1.0  -0.1663
  C  C538  1  0.304380  0.416250  0.432010  1.0  -0.0497
  C  C539  1  0.427270  0.502280  0.431590  1.0  -0.0408
  C  C540  1  0.446150  0.485040  0.464210  1.0  -0.1194
  C  C541  1  0.911730  0.719630  0.697120  1.0  0.6887
  C  C542  1  0.958770  0.750130  0.715060  1.0  -0.119
  C  C543  1  0.990510  0.778770  0.679870  1.0  -0.043
  C  C544  1  0.034170  0.806590  0.695840  1.0  -0.1375
  C  C545  1  0.046890  0.806920  0.747460  1.0  0.043
  C  C546  1  0.014710  0.777850  0.781490  1.0  -0.1663
  C  C547  1  0.971050  0.749580  0.765340  1.0  -0.0497
  C  C548  1  0.093940  0.835610  0.764920  1.0  -0.0408
  C  C549  1  0.112820  0.818370  0.797540  1.0  -0.1194
  C  C550  1  0.578390  0.052970  0.030460  1.0  0.6885
  C  C551  1  0.625430  0.083470  0.048400  1.0  -0.1191
  C  C552  1  0.657170  0.112110  0.013210  1.0  -0.0431
  C  C553  1  0.700830  0.139930  0.029180  1.0  -0.1374
  C  C554  1  0.713550  0.140260  0.080800  1.0  0.043
  C  C555  1  0.681370  0.111190  0.114830  1.0  -0.1663
  C  C556  1  0.637710  0.082920  0.098680  1.0  -0.0497
  C  C557  1  0.760600  0.168950  0.098260  1.0  -0.0408
  C  C558  1  0.779480  0.151710  0.130880  1.0  -0.1194
  C  C559  1  0.141240  0.754940  0.363790  1.0  0.6898
  C  C560  1  0.124700  0.707900  0.381730  1.0  -0.1182
  C  C561  1  0.121600  0.676160  0.346540  1.0  -0.0441
  C  C562  1  0.105760  0.632500  0.362510  1.0  -0.1386
  C  C563  1  0.093370  0.619780  0.414130  1.0  0.0436
  C  C564  1  0.096480  0.651960  0.448160  1.0  -0.166
  C  C565  1  0.111870  0.695620  0.432010  1.0  -0.0509
  C  C566  1  0.075010  0.572730  0.431590  1.0  -0.0403
  C  C567  1  0.038890  0.553850  0.464210  1.0  -0.1212
  C  C568  1  0.807910  0.088270  0.697120  1.0  0.6898
  C  C569  1  0.791370  0.041230  0.715060  1.0  -0.1182
  C  C570  1  0.788270  0.009490  0.679870  1.0  -0.0441
  C  C571  1  0.772430  0.965830  0.695840  1.0  -0.1386
  C  C572  1  0.760040  0.953110  0.747460  1.0  0.0436
  C  C573  1  0.763150  0.985290  0.781490  1.0  -0.166
  C  C574  1  0.778540  0.028950  0.765340  1.0  -0.0509
  C  C575  1  0.741680  0.906060  0.764920  1.0  -0.0403
  C  C576  1  0.705560  0.887180  0.797540  1.0  -0.1212
  C  C577  1  0.474570  0.421610  0.030460  1.0  0.6898
  C  C578  1  0.458030  0.374570  0.048400  1.0  -0.1183
  C  C579  1  0.454930  0.342830  0.013210  1.0  -0.0442
  C  C580  1  0.439090  0.299170  0.029180  1.0  -0.1385
  C  C581  1  0.426700  0.286450  0.080800  1.0  0.0436
  C  C582  1  0.429810  0.318630  0.114830  1.0  -0.166
  C  C583  1  0.445200  0.362290  0.098680  1.0  -0.0508
  C  C584  1  0.408340  0.239400  0.098260  1.0  -0.0403
  C  C585  1  0.372220  0.220520  0.130880  1.0  -0.1212
  C  C586  1  0.613700  0.858760  0.363790  1.0  0.6891
  C  C587  1  0.583200  0.875300  0.381730  1.0  -0.1198
  C  C588  1  0.554560  0.878400  0.346540  1.0  -0.0438
  C  C589  1  0.526740  0.894240  0.362510  1.0  -0.1365
  C  C590  1  0.526410  0.906630  0.414130  1.0  0.0432
  C  C591  1  0.555480  0.903520  0.448160  1.0  -0.1646
  C  C592  1  0.583750  0.888130  0.432010  1.0  -0.0485
  C  C593  1  0.497720  0.924990  0.431590  1.0  -0.0391
  C  C594  1  0.514960  0.961110  0.464210  1.0  -0.1218
  C  C595  1  0.280370  0.192090  0.697120  1.0  0.6891
  C  C596  1  0.249870  0.208630  0.715060  1.0  -0.1198
  C  C597  1  0.221230  0.211730  0.679870  1.0  -0.0438
  C  C598  1  0.193410  0.227570  0.695840  1.0  -0.1365
  C  C599  1  0.193080  0.239960  0.747460  1.0  0.0432
  C  C600  1  0.222150  0.236850  0.781490  1.0  -0.1646
  C  C601  1  0.250420  0.221460  0.765340  1.0  -0.0485
  C  C602  1  0.164390  0.258320  0.764920  1.0  -0.0391
  C  C603  1  0.181630  0.294440  0.797540  1.0  -0.1218
  C  C604  1  0.947030  0.525430  0.030460  1.0  0.6886
  C  C605  1  0.916530  0.541970  0.048400  1.0  -0.1196
  C  C606  1  0.887890  0.545070  0.013210  1.0  -0.0437
  C  C607  1  0.860070  0.560910  0.029180  1.0  -0.1365
  C  C608  1  0.859740  0.573300  0.080800  1.0  0.0432
  C  C609  1  0.888810  0.570190  0.114830  1.0  -0.1646
  C  C610  1  0.917080  0.554800  0.098680  1.0  -0.0485
  C  C611  1  0.831050  0.591660  0.098260  1.0  -0.0391
  C  C612  1  0.848290  0.627780  0.130880  1.0  -0.1218
  C  C613  1  0.490210  0.509790  0.481720  1.0  0.0589
  C  C614  1  0.453040  0.546960  0.415760  1.0  0.1586
  C  C615  1  0.414020  0.585980  0.409100  1.0  0.1078
  C  C616  1  0.396920  0.603080  0.367500  1.0  -0.3552
  C  C617  1  0.156880  0.843120  0.815050  1.0  0.0589
  C  C618  1  0.119710  0.880290  0.749090  1.0  0.1586
  C  C619  1  0.080690  0.919310  0.742430  1.0  0.1078
  C  C620  1  0.063590  0.936410  0.700830  1.0  -0.3552
  C  C621  1  0.823540  0.176460  0.148390  1.0  0.0589
  C  C622  1  0.786370  0.213630  0.082430  1.0  0.1586
  C  C623  1  0.747350  0.252650  0.075770  1.0  0.1078
  C  C624  1  0.730250  0.269750  0.034170  1.0  -0.3552
  C  C625  1  0.490210  0.980420  0.481720  1.0  0.0634
  C  C626  1  0.453040  0.906080  0.415760  1.0  0.1583
  C  C627  1  0.414020  0.828040  0.409100  1.0  0.1082
  C  C628  1  0.396920  0.793840  0.367500  1.0  -0.3556
  C  C629  1  0.156880  0.313750  0.815050  1.0  0.0634
  C  C630  1  0.119710  0.239410  0.749090  1.0  0.1583
  C  C631  1  0.080690  0.161370  0.742430  1.0  0.1082
  C  C632  1  0.063590  0.127170  0.700830  1.0  -0.3556
  C  C633  1  0.823540  0.647090  0.148390  1.0  0.0634
  C  C634  1  0.786370  0.572750  0.082430  1.0  0.1583
  C  C635  1  0.747350  0.494710  0.075770  1.0  0.1082
  C  C636  1  0.730250  0.460510  0.034170  1.0  -0.3556
  C  C637  1  0.019580  0.509790  0.481720  1.0  0.0581
  C  C638  1  0.093920  0.546960  0.415760  1.0  0.1591
  C  C639  1  0.171960  0.585980  0.409100  1.0  0.1079
  C  C640  1  0.206160  0.603080  0.367500  1.0  -0.3546
  C  C641  1  0.686250  0.843120  0.815050  1.0  0.0581
  C  C642  1  0.760590  0.880290  0.749090  1.0  0.1591
  C  C643  1  0.838630  0.919310  0.742430  1.0  0.1079
  C  C644  1  0.872830  0.936410  0.700830  1.0  -0.3546
  C  C645  1  0.352910  0.176460  0.148390  1.0  0.0581
  C  C646  1  0.427250  0.213630  0.082430  1.0  0.1591
  C  C647  1  0.505290  0.252650  0.075770  1.0  0.1079
  C  C648  1  0.539490  0.269750  0.034170  1.0  -0.3546
  C  C649  1  0.509790  0.490210  0.518280  1.0  0.0594
  C  C650  1  0.546960  0.453040  0.584240  1.0  0.1594
  C  C651  1  0.585980  0.414020  0.590900  1.0  0.1083
  C  C652  1  0.603080  0.396920  0.632500  1.0  -0.3556
  C  C653  1  0.176460  0.823540  0.851610  1.0  0.0594
  C  C654  1  0.213630  0.786370  0.917570  1.0  0.1594
  C  C655  1  0.252650  0.747350  0.924230  1.0  0.1083
  C  C656  1  0.269750  0.730250  0.965830  1.0  -0.3556
  C  C657  1  0.843120  0.156880  0.184950  1.0  0.0594
  C  C658  1  0.880290  0.119710  0.250910  1.0  0.1594
  C  C659  1  0.919310  0.080690  0.257570  1.0  0.1083
  C  C660  1  0.936410  0.063590  0.299170  1.0  -0.3556
  C  C661  1  0.980420  0.490210  0.518280  1.0  0.0575
  C  C662  1  0.906080  0.453040  0.584240  1.0  0.1588
  C  C663  1  0.828040  0.414020  0.590900  1.0  0.1095
  C  C664  1  0.793840  0.396920  0.632500  1.0  -0.3579
  C  C665  1  0.647090  0.823540  0.851610  1.0  0.0575
  C  C666  1  0.572750  0.786370  0.917570  1.0  0.1588
  C  C667  1  0.494710  0.747350  0.924230  1.0  0.1095
  C  C668  1  0.460510  0.730250  0.965830  1.0  -0.3579
  C  C669  1  0.313750  0.156880  0.184950  1.0  0.0575
  C  C670  1  0.239410  0.119710  0.250910  1.0  0.1588
  C  C671  1  0.161370  0.080690  0.257570  1.0  0.1095
  C  C672  1  0.127170  0.063590  0.299170  1.0  -0.3579
  C  C673  1  0.509790  0.019580  0.518280  1.0  0.0629
  C  C674  1  0.546960  0.093920  0.584240  1.0  0.157
  C  C675  1  0.585980  0.171960  0.590900  1.0  0.1062
  C  C676  1  0.603080  0.206160  0.632500  1.0  -0.3574
  C  C677  1  0.176460  0.352910  0.851610  1.0  0.0629
  C  C678  1  0.213630  0.427250  0.917570  1.0  0.157
  C  C679  1  0.252650  0.505290  0.924230  1.0  0.1062
  C  C680  1  0.269750  0.539490  0.965830  1.0  -0.3574
  C  C681  1  0.843120  0.686250  0.184950  1.0  0.0629
  C  C682  1  0.880290  0.760590  0.250910  1.0  0.157
  C  C683  1  0.919310  0.838630  0.257570  1.0  0.1062
  C  C684  1  0.936410  0.872830  0.299170  1.0  -0.3574
  O  O685  1  0.641490  0.780840  0.397240  1.0  -0.5771
  O  O686  1  0.609390  0.764360  0.318320  1.0  -0.5717
  O  O687  1  0.308160  0.114170  0.730570  1.0  -0.5758
  O  O688  1  0.276060  0.097690  0.651650  1.0  -0.5686
  O  O689  1  0.974820  0.447510  0.063910  1.0  -0.5771
  O  O690  1  0.942720  0.431030  0.984990  1.0  -0.5717
  O  O691  1  0.219160  0.860650  0.397240  1.0  -0.5764
  O  O692  1  0.235640  0.845030  0.318320  1.0  -0.5687
  O  O693  1  0.885830  0.193980  0.730570  1.0  -0.5764
  O  O694  1  0.902310  0.178360  0.651650  1.0  -0.5687
  O  O695  1  0.552490  0.527320  0.063910  1.0  -0.5763
  O  O696  1  0.568970  0.511700  0.984990  1.0  -0.5687
  O  O697  1  0.139350  0.358510  0.397240  1.0  -0.5769
  O  O698  1  0.154970  0.390610  0.318320  1.0  -0.5693
  O  O699  1  0.806020  0.691840  0.730570  1.0  -0.5779
  O  O700  1  0.821640  0.723940  0.651650  1.0  -0.5731
  O  O701  1  0.472680  0.025180  0.063910  1.0  -0.5769
  O  O702  1  0.488300  0.057280  0.984990  1.0  -0.5692
  O  O703  1  0.780840  0.641490  0.602760  1.0  -0.5789
  O  O704  1  0.764360  0.609390  0.681680  1.0  -0.5716
  O  O705  1  0.447510  0.974820  0.936090  1.0  -0.5789
  O  O706  1  0.431030  0.942720  0.015010  1.0  -0.5716
  O  O707  1  0.114170  0.308160  0.269430  1.0  -0.5776
  O  O708  1  0.097690  0.276060  0.348350  1.0  -0.5691
  O  O709  1  0.860650  0.219160  0.602760  1.0  -0.5773
  O  O710  1  0.845030  0.235640  0.681680  1.0  -0.5682
  O  O711  1  0.527320  0.552490  0.936090  1.0  -0.5772
  O  O712  1  0.511700  0.568970  0.015010  1.0  -0.5682
  O  O713  1  0.193980  0.885830  0.269430  1.0  -0.5773
  O  O714  1  0.178360  0.902310  0.348350  1.0  -0.5682
  O  O715  1  0.358510  0.139350  0.602760  1.0  -0.5777
  O  O716  1  0.390610  0.154970  0.681680  1.0  -0.5683
  O  O717  1  0.025180  0.472680  0.936090  1.0  -0.5777
  O  O718  1  0.057280  0.488300  0.015010  1.0  -0.5682
  O  O719  1  0.691840  0.806020  0.269430  1.0  -0.5782
  O  O720  1  0.723940  0.821640  0.348350  1.0  -0.5714
  O  O721  1  0.358510  0.219160  0.602760  1.0  -0.5794
  O  O722  1  0.390610  0.235640  0.681680  1.0  -0.5706
  O  O723  1  0.025180  0.552490  0.936090  1.0  -0.5793
  O  O724  1  0.057280  0.568970  0.015010  1.0  -0.5707
  O  O725  1  0.691840  0.885830  0.269430  1.0  -0.5781
  O  O726  1  0.723940  0.902310  0.348350  1.0  -0.568
  O  O727  1  0.780840  0.139350  0.602760  1.0  -0.5775
  O  O728  1  0.764360  0.154970  0.681680  1.0  -0.5689
  O  O729  1  0.447510  0.472680  0.936090  1.0  -0.5774
  O  O730  1  0.431030  0.488300  0.015010  1.0  -0.569
  O  O731  1  0.114170  0.806020  0.269430  1.0  -0.5775
  O  O732  1  0.097690  0.821640  0.348350  1.0  -0.5689
  O  O733  1  0.860650  0.641490  0.602760  1.0  -0.5778
  O  O734  1  0.845030  0.609390  0.681680  1.0  -0.5691
  O  O735  1  0.527320  0.974820  0.936090  1.0  -0.5778
  O  O736  1  0.511700  0.942720  0.015010  1.0  -0.569
  O  O737  1  0.193980  0.308160  0.269430  1.0  -0.5787
  O  O738  1  0.178360  0.276060  0.348350  1.0  -0.572
  O  O739  1  0.219160  0.358510  0.397240  1.0  -0.5788
  O  O740  1  0.235640  0.390610  0.318320  1.0  -0.5735
  O  O741  1  0.885830  0.691840  0.730570  1.0  -0.5776
  O  O742  1  0.902310  0.723940  0.651650  1.0  -0.57
  O  O743  1  0.552490  0.025180  0.063910  1.0  -0.5788
  O  O744  1  0.568970  0.057280  0.984990  1.0  -0.5735
  O  O745  1  0.139350  0.780840  0.397240  1.0  -0.5768
  O  O746  1  0.154970  0.764360  0.318320  1.0  -0.5691
  O  O747  1  0.806020  0.114170  0.730570  1.0  -0.5768
  O  O748  1  0.821640  0.097690  0.651650  1.0  -0.5691
  O  O749  1  0.472680  0.447510  0.063910  1.0  -0.5768
  O  O750  1  0.488300  0.431030  0.984990  1.0  -0.5692
  O  O751  1  0.641490  0.860650  0.397240  1.0  -0.5759
  O  O752  1  0.609390  0.845030  0.318320  1.0  -0.5691
  O  O753  1  0.308160  0.193980  0.730570  1.0  -0.5767
  O  O754  1  0.276060  0.178360  0.651650  1.0  -0.5724
  O  O755  1  0.974820  0.527320  0.063910  1.0  -0.5758
  O  O756  1  0.942720  0.511700  0.984990  1.0  -0.5691
  O  O757  1  0.434770  0.565230  0.382190  1.0  -0.3235
  O  O758  1  0.101440  0.898560  0.715520  1.0  -0.3235
  O  O759  1  0.768100  0.231900  0.048860  1.0  -0.3235
  O  O760  1  0.434770  0.869540  0.382190  1.0  -0.3222
  O  O761  1  0.101440  0.202870  0.715520  1.0  -0.3222
  O  O762  1  0.768100  0.536210  0.048860  1.0  -0.3222
  O  O763  1  0.130460  0.565230  0.382190  1.0  -0.3238
  O  O764  1  0.797130  0.898560  0.715520  1.0  -0.3238
  O  O765  1  0.463790  0.231900  0.048860  1.0  -0.3238
  O  O766  1  0.565230  0.434770  0.617810  1.0  -0.3266
  O  O767  1  0.231900  0.768100  0.951140  1.0  -0.3266
  O  O768  1  0.898560  0.101440  0.284480  1.0  -0.3266
  O  O769  1  0.869540  0.434770  0.617810  1.0  -0.3265
  O  O770  1  0.536210  0.768100  0.951140  1.0  -0.3265
  O  O771  1  0.202870  0.101440  0.284480  1.0  -0.3265
  O  O772  1  0.565230  0.130460  0.617810  1.0  -0.3246
  O  O773  1  0.231900  0.463790  0.951140  1.0  -0.3246
  O  O774  1  0.898560  0.797130  0.284480  1.0  -0.3246
