# generated using pymatgen
data_CuH15C22O5
_symmetry_space_group_name_H-M   'P 1'
_cell_length_a   35.06590000
_cell_length_b   35.06590000
_cell_length_c   22.26600000
_cell_angle_alpha   90.00000000
_cell_angle_beta   90.00000000
_cell_angle_gamma   120.00000000
_symmetry_Int_Tables_number   1
_chemical_formula_structural   CuH15C22O5
_chemical_formula_sum   'Cu18 H270 C396 O90'
_cell_volume   23710.61486941
_cell_formula_units_Z   18
loop_
 _symmetry_equiv_pos_site_id
 _symmetry_equiv_pos_as_xyz
  1  'x, y, z'
loop_
 _atom_site_type_symbol
 _atom_site_label
 _atom_site_symmetry_multiplicity
 _atom_site_fract_x
 _atom_site_fract_y
 _atom_site_fract_z
 _atom_site_occupancy
 _atom_site_charge
  Cu  Cu1  1  0.491960  0.508040  0.553470  1.0  0.9238
  Cu  Cu2  1  0.158630  0.841370  0.886800  1.0  0.9238
  Cu  Cu3  1  0.825290  0.174710  0.220140  1.0  0.9238
  Cu  Cu4  1  0.491960  0.983920  0.553470  1.0  0.9243
  Cu  Cu5  1  0.158630  0.317250  0.886800  1.0  0.9243
  Cu  Cu6  1  0.825290  0.650590  0.220140  1.0  0.9243
  Cu  Cu7  1  0.016080  0.508040  0.553470  1.0  0.9236
  Cu  Cu8  1  0.682750  0.841370  0.886800  1.0  0.9236
  Cu  Cu9  1  0.349410  0.174710  0.220140  1.0  0.9236
  Cu  Cu10  1  0.508040  0.491960  0.446530  1.0  0.9235
  Cu  Cu11  1  0.174710  0.825290  0.779860  1.0  0.9235
  Cu  Cu12  1  0.841370  0.158630  0.113200  1.0  0.9235
  Cu  Cu13  1  0.983920  0.491960  0.446530  1.0  0.9232
  Cu  Cu14  1  0.650590  0.825290  0.779860  1.0  0.9232
  Cu  Cu15  1  0.317250  0.158630  0.113200  1.0  0.9232
  Cu  Cu16  1  0.508040  0.016080  0.446530  1.0  0.9242
  Cu  Cu17  1  0.174710  0.349410  0.779860  1.0  0.9242
  Cu  Cu18  1  0.841370  0.682750  0.113200  1.0  0.9242
  H  H19  1  0.532100  0.646000  0.535600  1.0  0.1135
  H  H20  1  0.558700  0.719100  0.509000  1.0  0.1105
  H  H21  1  0.576100  0.691400  0.340400  1.0  0.1212
  H  H22  1  0.551700  0.618300  0.368400  1.0  0.1168
  H  H23  1  0.638300  0.762100  0.355400  1.0  0.1023
  H  H24  1  0.489500  0.767600  0.392800  1.0  0.0764
  H  H25  1  0.454900  0.704600  0.481900  1.0  0.1226
  H  H26  1  0.198770  0.979330  0.868930  1.0  0.1135
  H  H27  1  0.225370  0.052430  0.842330  1.0  0.1099
  H  H28  1  0.242770  0.024730  0.673730  1.0  0.1192
  H  H29  1  0.218370  0.951630  0.701730  1.0  0.1168
  H  H30  1  0.304970  0.095430  0.688730  1.0  0.1023
  H  H31  1  0.156170  0.100930  0.726130  1.0  0.0769
  H  H32  1  0.121570  0.037930  0.815230  1.0  0.1188
  H  H33  1  0.865430  0.312670  0.202270  1.0  0.1135
  H  H34  1  0.892030  0.385770  0.175670  1.0  0.1105
  H  H35  1  0.909430  0.358070  0.007070  1.0  0.1213
  H  H36  1  0.885030  0.284970  0.035070  1.0  0.1168
  H  H37  1  0.971630  0.428770  0.022070  1.0  0.1024
  H  H38  1  0.822830  0.434270  0.059470  1.0  0.0774
  H  H39  1  0.788230  0.371270  0.148570  1.0  0.1225
  H  H40  1  0.354000  0.886100  0.535600  1.0  0.1135
  H  H41  1  0.280900  0.839600  0.509000  1.0  0.1102
  H  H42  1  0.308600  0.884700  0.340400  1.0  0.1187
  H  H43  1  0.381700  0.933400  0.368400  1.0  0.1167
  H  H44  1  0.237900  0.876200  0.355400  1.0  0.1023
  H  H45  1  0.232400  0.721900  0.392800  1.0  0.0789
  H  H46  1  0.295400  0.750300  0.481900  1.0  0.1201
  H  H47  1  0.020670  0.219430  0.868930  1.0  0.1124
  H  H48  1  0.947570  0.172930  0.842330  1.0  0.1102
  H  H49  1  0.975270  0.218030  0.673730  1.0  0.1187
  H  H50  1  0.048370  0.266730  0.701730  1.0  0.1171
  H  H51  1  0.904570  0.209530  0.688730  1.0  0.1023
  H  H52  1  0.899070  0.055230  0.726130  1.0  0.0768
  H  H53  1  0.962070  0.083630  0.815230  1.0  0.1214
  H  H54  1  0.687330  0.552770  0.202270  1.0  0.1135
  H  H55  1  0.614230  0.506270  0.175670  1.0  0.1102
  H  H56  1  0.641930  0.551370  0.007070  1.0  0.1187
  H  H57  1  0.715030  0.600070  0.035070  1.0  0.117
  H  H58  1  0.571230  0.542870  0.022070  1.0  0.1019
  H  H59  1  0.565730  0.388570  0.059470  1.0  0.0796
  H  H60  1  0.628730  0.416970  0.148570  1.0  0.1201
  H  H61  1  0.113900  0.467900  0.535600  1.0  0.1121
  H  H62  1  0.160400  0.441300  0.509000  1.0  0.1109
  H  H63  1  0.115300  0.423900  0.340400  1.0  0.1181
  H  H64  1  0.066600  0.448300  0.368400  1.0  0.1169
  H  H65  1  0.123800  0.361700  0.355400  1.0  0.1028
  H  H66  1  0.278100  0.510500  0.392800  1.0  0.0713
  H  H67  1  0.249700  0.545100  0.481900  1.0  0.1183
  H  H68  1  0.780570  0.801230  0.868930  1.0  0.113
  H  H69  1  0.827070  0.774630  0.842330  1.0  0.1114
  H  H70  1  0.781970  0.757230  0.673730  1.0  0.1201
  H  H71  1  0.733270  0.781630  0.701730  1.0  0.1169
  H  H72  1  0.790470  0.695030  0.688730  1.0  0.1028
  H  H73  1  0.944770  0.843830  0.726130  1.0  0.0721
  H  H74  1  0.916370  0.878430  0.815230  1.0  0.1181
  H  H75  1  0.447230  0.134570  0.202270  1.0  0.1121
  H  H76  1  0.493730  0.107970  0.175670  1.0  0.1109
  H  H77  1  0.448630  0.090570  0.007070  1.0  0.1181
  H  H78  1  0.399930  0.114970  0.035070  1.0  0.1169
  H  H79  1  0.457130  0.028370  0.022070  1.0  0.1031
  H  H80  1  0.611430  0.177170  0.059470  1.0  0.0706
  H  H81  1  0.583030  0.211770  0.148570  1.0  0.1183
  H  H82  1  0.646000  0.532100  0.464400  1.0  0.1132
  H  H83  1  0.719100  0.558700  0.491000  1.0  0.1104
  H  H84  1  0.691400  0.576100  0.659600  1.0  0.121
  H  H85  1  0.618300  0.551700  0.631600  1.0  0.1174
  H  H86  1  0.762100  0.638300  0.644600  1.0  0.1023
  H  H87  1  0.767600  0.489500  0.607200  1.0  0.0731
  H  H88  1  0.704600  0.454900  0.518100  1.0  0.1191
  H  H89  1  0.312670  0.865430  0.797730  1.0  0.1132
  H  H90  1  0.385770  0.892030  0.824330  1.0  0.1104
  H  H91  1  0.358070  0.909430  0.992930  1.0  0.121
  H  H92  1  0.284970  0.885030  0.964930  1.0  0.1174
  H  H93  1  0.428770  0.971630  0.977930  1.0  0.1024
  H  H94  1  0.434270  0.822830  0.940530  1.0  0.0731
  H  H95  1  0.371270  0.788230  0.851430  1.0  0.119
  H  H96  1  0.979330  0.198770  0.131070  1.0  0.1132
  H  H97  1  0.052430  0.225370  0.157670  1.0  0.1109
  H  H98  1  0.024730  0.242770  0.326270  1.0  0.1184
  H  H99  1  0.951630  0.218370  0.298270  1.0  0.1174
  H  H100  1  0.095430  0.304970  0.311270  1.0  0.1023
  H  H101  1  0.100930  0.156170  0.273870  1.0  0.0733
  H  H102  1  0.037930  0.121570  0.184770  1.0  0.1157
  H  H103  1  0.886100  0.354000  0.464400  1.0  0.1128
  H  H104  1  0.839600  0.280900  0.491000  1.0  0.1102
  H  H105  1  0.884700  0.308600  0.659600  1.0  0.1197
  H  H106  1  0.933400  0.381700  0.631600  1.0  0.1167
  H  H107  1  0.876200  0.237900  0.644600  1.0  0.1022
  H  H108  1  0.721900  0.232400  0.607200  1.0  0.0787
  H  H109  1  0.750300  0.295400  0.518100  1.0  0.1176
  H  H110  1  0.552770  0.687330  0.797730  1.0  0.1128
  H  H111  1  0.506270  0.614230  0.824330  1.0  0.1102
  H  H112  1  0.551370  0.641930  0.992930  1.0  0.1197
  H  H113  1  0.600070  0.715030  0.964930  1.0  0.1169
  H  H114  1  0.542870  0.571230  0.977930  1.0  0.1021
  H  H115  1  0.388570  0.565730  0.940530  1.0  0.0793
  H  H116  1  0.416970  0.628730  0.851430  1.0  0.1176
  H  H117  1  0.219430  0.020670  0.131070  1.0  0.1118
  H  H118  1  0.172930  0.947570  0.157670  1.0  0.1102
  H  H119  1  0.218030  0.975270  0.326270  1.0  0.1197
  H  H120  1  0.266730  0.048370  0.298270  1.0  0.117
  H  H121  1  0.209530  0.904570  0.311270  1.0  0.1022
  H  H122  1  0.055230  0.899070  0.273870  1.0  0.0771
  H  H123  1  0.083630  0.962070  0.184770  1.0  0.1188
  H  H124  1  0.467900  0.113900  0.464400  1.0  0.1121
  H  H125  1  0.441300  0.160400  0.491000  1.0  0.1103
  H  H126  1  0.423900  0.115300  0.659600  1.0  0.1189
  H  H127  1  0.448300  0.066600  0.631600  1.0  0.1173
  H  H128  1  0.361700  0.123800  0.644600  1.0  0.1011
  H  H129  1  0.510500  0.278100  0.607200  1.0  0.0769
  H  H130  1  0.545100  0.249700  0.518100  1.0  0.1206
  H  H131  1  0.134570  0.447230  0.797730  1.0  0.1121
  H  H132  1  0.107970  0.493730  0.824330  1.0  0.1103
  H  H133  1  0.090570  0.448630  0.992930  1.0  0.1189
  H  H134  1  0.114970  0.399930  0.964930  1.0  0.1174
  H  H135  1  0.028370  0.457130  0.977930  1.0  0.1015
  H  H136  1  0.177170  0.611430  0.940530  1.0  0.0769
  H  H137  1  0.211770  0.583030  0.851430  1.0  0.1206
  H  H138  1  0.801230  0.780570  0.131070  1.0  0.1133
  H  H139  1  0.774630  0.827070  0.157670  1.0  0.11
  H  H140  1  0.757230  0.781970  0.326270  1.0  0.1211
  H  H141  1  0.781630  0.733270  0.298270  1.0  0.1173
  H  H142  1  0.695030  0.790470  0.311270  1.0  0.1011
  H  H143  1  0.843830  0.944770  0.273870  1.0  0.0776
  H  H144  1  0.878430  0.916370  0.184770  1.0  0.1199
  H  H145  1  0.467900  0.354000  0.464400  1.0  0.1133
  H  H146  1  0.441300  0.280900  0.491000  1.0  0.1097
  H  H147  1  0.423900  0.308600  0.659600  1.0  0.1214
  H  H148  1  0.448300  0.381700  0.631600  1.0  0.1169
  H  H149  1  0.361700  0.237900  0.644600  1.0  0.101
  H  H150  1  0.510500  0.232400  0.607200  1.0  0.077
  H  H151  1  0.545100  0.295400  0.518100  1.0  0.124
  H  H152  1  0.134570  0.687330  0.797730  1.0  0.1133
  H  H153  1  0.107970  0.614230  0.824330  1.0  0.1097
  H  H154  1  0.090570  0.641930  0.992930  1.0  0.1214
  H  H155  1  0.114970  0.715030  0.964930  1.0  0.1169
  H  H156  1  0.028370  0.571230  0.977930  1.0  0.1011
  H  H157  1  0.177170  0.565730  0.940530  1.0  0.0775
  H  H158  1  0.211770  0.628730  0.851430  1.0  0.1239
  H  H159  1  0.801230  0.020670  0.131070  1.0  0.1133
  H  H160  1  0.774630  0.947570  0.157670  1.0  0.1103
  H  H161  1  0.757230  0.975270  0.326270  1.0  0.1191
  H  H162  1  0.781630  0.048370  0.298270  1.0  0.1169
  H  H163  1  0.695030  0.904570  0.311270  1.0  0.101
  H  H164  1  0.843830  0.899070  0.273870  1.0  0.0779
  H  H165  1  0.878430  0.962070  0.184770  1.0  0.12
  H  H166  1  0.646000  0.113900  0.464400  1.0  0.1132
  H  H167  1  0.719100  0.160400  0.491000  1.0  0.1106
  H  H168  1  0.691400  0.115300  0.659600  1.0  0.1191
  H  H169  1  0.618300  0.066600  0.631600  1.0  0.1169
  H  H170  1  0.762100  0.123800  0.644600  1.0  0.101
  H  H171  1  0.767600  0.278100  0.607200  1.0  0.0781
  H  H172  1  0.704600  0.249700  0.518100  1.0  0.1183
  H  H173  1  0.312670  0.447230  0.797730  1.0  0.1132
  H  H174  1  0.385770  0.493730  0.824330  1.0  0.1106
  H  H175  1  0.358070  0.448630  0.992930  1.0  0.1191
  H  H176  1  0.284970  0.399930  0.964930  1.0  0.1171
  H  H177  1  0.428770  0.457130  0.977930  1.0  0.1009
  H  H178  1  0.434270  0.611430  0.940530  1.0  0.0787
  H  H179  1  0.371270  0.583030  0.851430  1.0  0.1183
  H  H180  1  0.979330  0.780570  0.131070  1.0  0.1122
  H  H181  1  0.052430  0.827070  0.157670  1.0  0.1106
  H  H182  1  0.024730  0.781970  0.326270  1.0  0.1191
  H  H183  1  0.951630  0.733270  0.298270  1.0  0.1173
  H  H184  1  0.095430  0.790470  0.311270  1.0  0.101
  H  H185  1  0.100930  0.944770  0.273870  1.0  0.0767
  H  H186  1  0.037930  0.916370  0.184770  1.0  0.12
  H  H187  1  0.886100  0.532100  0.464400  1.0  0.1118
  H  H188  1  0.839600  0.558700  0.491000  1.0  0.111
  H  H189  1  0.884700  0.576100  0.659600  1.0  0.1185
  H  H190  1  0.933400  0.551700  0.631600  1.0  0.1175
  H  H191  1  0.876200  0.638300  0.644600  1.0  0.1023
  H  H192  1  0.721900  0.489500  0.607200  1.0  0.0735
  H  H193  1  0.750300  0.454900  0.518100  1.0  0.118
  H  H194  1  0.552770  0.865430  0.797730  1.0  0.1118
  H  H195  1  0.506270  0.892030  0.824330  1.0  0.111
  H  H196  1  0.551370  0.909430  0.992930  1.0  0.1185
  H  H197  1  0.600070  0.885030  0.964930  1.0  0.1175
  H  H198  1  0.542870  0.971630  0.977930  1.0  0.1026
  H  H199  1  0.388570  0.822830  0.940530  1.0  0.0734
  H  H200  1  0.416970  0.788230  0.851430  1.0  0.118
  H  H201  1  0.219430  0.198770  0.131070  1.0  0.1132
  H  H202  1  0.172930  0.225370  0.157670  1.0  0.1106
  H  H203  1  0.218030  0.242770  0.326270  1.0  0.1209
  H  H204  1  0.266730  0.218370  0.298270  1.0  0.1173
  H  H205  1  0.209530  0.304970  0.311270  1.0  0.1023
  H  H206  1  0.055230  0.156170  0.273870  1.0  0.0747
  H  H207  1  0.083630  0.121570  0.184770  1.0  0.1171
  H  H208  1  0.354000  0.467900  0.535600  1.0  0.1131
  H  H209  1  0.280900  0.441300  0.509000  1.0  0.1108
  H  H210  1  0.308600  0.423900  0.340400  1.0  0.1208
  H  H211  1  0.381700  0.448300  0.368400  1.0  0.1175
  H  H212  1  0.237900  0.361700  0.355400  1.0  0.1031
  H  H213  1  0.232400  0.510500  0.392800  1.0  0.0711
  H  H214  1  0.295400  0.545100  0.481900  1.0  0.1214
  H  H215  1  0.020670  0.801230  0.868930  1.0  0.1131
  H  H216  1  0.947570  0.774630  0.842330  1.0  0.1103
  H  H217  1  0.975270  0.757230  0.673730  1.0  0.1188
  H  H218  1  0.048370  0.781630  0.701730  1.0  0.1175
  H  H219  1  0.904570  0.695030  0.688730  1.0  0.1031
  H  H220  1  0.899070  0.843830  0.726130  1.0  0.0718
  H  H221  1  0.962070  0.878430  0.815230  1.0  0.1172
  H  H222  1  0.687330  0.134570  0.202270  1.0  0.1131
  H  H223  1  0.614230  0.107970  0.175670  1.0  0.1108
  H  H224  1  0.641930  0.090570  0.007070  1.0  0.1208
  H  H225  1  0.715030  0.114970  0.035070  1.0  0.1175
  H  H226  1  0.571230  0.028370  0.022070  1.0  0.1033
  H  H227  1  0.565730  0.177170  0.059470  1.0  0.0721
  H  H228  1  0.628730  0.211770  0.148570  1.0  0.1214
  H  H229  1  0.113900  0.646000  0.535600  1.0  0.1135
  H  H230  1  0.160400  0.719100  0.509000  1.0  0.1101
  H  H231  1  0.115300  0.691400  0.340400  1.0  0.1186
  H  H232  1  0.066600  0.618300  0.368400  1.0  0.1162
  H  H233  1  0.123800  0.762100  0.355400  1.0  0.1014
  H  H234  1  0.278100  0.767600  0.392800  1.0  0.0786
  H  H235  1  0.249700  0.704600  0.481900  1.0  0.1196
  H  H236  1  0.780570  0.979330  0.868930  1.0  0.1123
  H  H237  1  0.827070  0.052430  0.842330  1.0  0.1101
  H  H238  1  0.781970  0.024730  0.673730  1.0  0.1186
  H  H239  1  0.733270  0.951630  0.701730  1.0  0.1166
  H  H240  1  0.790470  0.095430  0.688730  1.0  0.1014
  H  H241  1  0.944770  0.100930  0.726130  1.0  0.0764
  H  H242  1  0.916370  0.037930  0.815230  1.0  0.121
  H  H243  1  0.447230  0.312670  0.202270  1.0  0.1135
  H  H244  1  0.493730  0.385770  0.175670  1.0  0.1101
  H  H245  1  0.448630  0.358070  0.007070  1.0  0.1186
  H  H246  1  0.399930  0.284970  0.035070  1.0  0.1165
  H  H247  1  0.457130  0.428770  0.022070  1.0  0.1013
  H  H248  1  0.611430  0.434270  0.059470  1.0  0.0793
  H  H249  1  0.583030  0.371270  0.148570  1.0  0.1196
  H  H250  1  0.532100  0.886100  0.535600  1.0  0.1124
  H  H251  1  0.558700  0.839600  0.509000  1.0  0.1101
  H  H252  1  0.576100  0.884700  0.340400  1.0  0.1185
  H  H253  1  0.551700  0.933400  0.368400  1.0  0.1167
  H  H254  1  0.638300  0.876200  0.355400  1.0  0.1023
  H  H255  1  0.489500  0.721900  0.392800  1.0  0.076
  H  H256  1  0.454900  0.750300  0.481900  1.0  0.1221
  H  H257  1  0.198770  0.219430  0.868930  1.0  0.1133
  H  H258  1  0.225370  0.172930  0.842330  1.0  0.111
  H  H259  1  0.242770  0.218030  0.673730  1.0  0.1206
  H  H260  1  0.218370  0.266730  0.701730  1.0  0.1167
  H  H261  1  0.304970  0.209530  0.688730  1.0  0.1023
  H  H262  1  0.156170  0.055230  0.726130  1.0  0.077
  H  H263  1  0.121570  0.083630  0.815230  1.0  0.1213
  H  H264  1  0.865430  0.552770  0.202270  1.0  0.1124
  H  H265  1  0.892030  0.506270  0.175670  1.0  0.1101
  H  H266  1  0.909430  0.551370  0.007070  1.0  0.1185
  H  H267  1  0.885030  0.600070  0.035070  1.0  0.1167
  H  H268  1  0.971630  0.542870  0.022070  1.0  0.1025
  H  H269  1  0.822830  0.388570  0.059470  1.0  0.076
  H  H270  1  0.788230  0.416970  0.148570  1.0  0.1222
  H  H271  1  0.427200  0.713600  0.432400  1.0  0.1067
  H  H272  1  0.093870  0.046930  0.765730  1.0  0.1077
  H  H273  1  0.760530  0.380270  0.099070  1.0  0.1069
  H  H274  1  0.286400  0.713600  0.432400  1.0  0.1078
  H  H275  1  0.953070  0.046930  0.765730  1.0  0.106
  H  H276  1  0.619730  0.380270  0.099070  1.0  0.109
  H  H277  1  0.286400  0.572800  0.432400  1.0  0.1119
  H  H278  1  0.953070  0.906130  0.765730  1.0  0.114
  H  H279  1  0.619730  0.239470  0.099070  1.0  0.1122
  H  H280  1  0.713600  0.427200  0.567600  1.0  0.1084
  H  H281  1  0.380270  0.760530  0.900930  1.0  0.1089
  H  H282  1  0.046930  0.093870  0.234270  1.0  0.1102
  H  H283  1  0.713600  0.286400  0.567600  1.0  0.106
  H  H284  1  0.380270  0.619730  0.900930  1.0  0.1067
  H  H285  1  0.046930  0.953070  0.234270  1.0  0.1058
  H  H286  1  0.572800  0.286400  0.567600  1.0  0.1087
  H  H287  1  0.239470  0.619730  0.900930  1.0  0.1096
  H  H288  1  0.906130  0.953070  0.234270  1.0  0.1106
  C  C289  1  0.523540  0.577610  0.472000  1.0  0.7177
  C  C290  1  0.539010  0.625200  0.453760  1.0  -0.1339
  C  C291  1  0.541290  0.655200  0.495450  1.0  -0.0703
  C  C292  1  0.556960  0.698800  0.479400  1.0  -0.155
  C  C293  1  0.569630  0.712800  0.423000  1.0  0.0862
  C  C294  1  0.567400  0.682390  0.380700  1.0  -0.1642
  C  C295  1  0.552400  0.638570  0.397300  1.0  -0.0647
  C  C296  1  0.588590  0.759690  0.403300  1.0  -0.0347
  C  C297  1  0.626080  0.779390  0.368900  1.0  -0.1455
  C  C298  1  0.190210  0.910940  0.805330  1.0  0.7177
  C  C299  1  0.205680  0.958530  0.787090  1.0  -0.1339
  C  C300  1  0.207960  0.988530  0.828780  1.0  -0.0703
  C  C301  1  0.223630  0.032130  0.812730  1.0  -0.155
  C  C302  1  0.236300  0.046130  0.756330  1.0  0.0862
  C  C303  1  0.234070  0.015720  0.714030  1.0  -0.1642
  C  C304  1  0.219070  0.971900  0.730630  1.0  -0.0647
  C  C305  1  0.255260  0.093020  0.736630  1.0  -0.0347
  C  C306  1  0.292750  0.112720  0.702230  1.0  -0.1455
  C  C307  1  0.856870  0.244280  0.138670  1.0  0.7177
  C  C308  1  0.872340  0.291870  0.120430  1.0  -0.1339
  C  C309  1  0.874620  0.321870  0.162120  1.0  -0.0703
  C  C310  1  0.890290  0.365470  0.146070  1.0  -0.155
  C  C311  1  0.902960  0.379470  0.089670  1.0  0.0862
  C  C312  1  0.900730  0.349060  0.047370  1.0  -0.1642
  C  C313  1  0.885730  0.305240  0.063970  1.0  -0.0647
  C  C314  1  0.921920  0.426360  0.069970  1.0  -0.0346
  C  C315  1  0.959410  0.446060  0.035570  1.0  -0.1456
  C  C316  1  0.422390  0.945930  0.472000  1.0  0.7171
  C  C317  1  0.374800  0.913810  0.453760  1.0  -0.1339
  C  C318  1  0.344800  0.886090  0.495450  1.0  -0.0695
  C  C319  1  0.301200  0.858160  0.479400  1.0  -0.1532
  C  C320  1  0.287200  0.856830  0.423000  1.0  0.0848
  C  C321  1  0.317610  0.885010  0.380700  1.0  -0.1637
  C  C322  1  0.361430  0.913830  0.397300  1.0  -0.0645
  C  C323  1  0.240310  0.828900  0.403300  1.0  -0.036
  C  C324  1  0.220610  0.846690  0.368900  1.0  -0.1421
  C  C325  1  0.089060  0.279260  0.805330  1.0  0.7171
  C  C326  1  0.041470  0.247140  0.787090  1.0  -0.1341
  C  C327  1  0.011470  0.219420  0.828780  1.0  -0.0695
  C  C328  1  0.967870  0.191490  0.812730  1.0  -0.1532
  C  C329  1  0.953870  0.190160  0.756330  1.0  0.0848
  C  C330  1  0.984280  0.218340  0.714030  1.0  -0.1637
  C  C331  1  0.028100  0.247160  0.730630  1.0  -0.0645
  C  C332  1  0.906980  0.162230  0.736630  1.0  -0.036
  C  C333  1  0.887280  0.180020  0.702230  1.0  -0.1421
  C  C334  1  0.755720  0.612600  0.138670  1.0  0.7171
  C  C335  1  0.708130  0.580480  0.120430  1.0  -0.1339
  C  C336  1  0.678130  0.552760  0.162120  1.0  -0.0695
  C  C337  1  0.634530  0.524830  0.146070  1.0  -0.1532
  C  C338  1  0.620530  0.523500  0.089670  1.0  0.0848
  C  C339  1  0.650940  0.551680  0.047370  1.0  -0.1637
  C  C340  1  0.694760  0.580500  0.063970  1.0  -0.0646
  C  C341  1  0.573640  0.495570  0.069970  1.0  -0.036
  C  C342  1  0.553940  0.513360  0.035570  1.0  -0.1421
  C  C343  1  0.054070  0.476460  0.472000  1.0  0.7169
  C  C344  1  0.086190  0.460990  0.453760  1.0  -0.1343
  C  C345  1  0.113910  0.458710  0.495450  1.0  -0.071
  C  C346  1  0.141840  0.443040  0.479400  1.0  -0.153
  C  C347  1  0.143170  0.430370  0.423000  1.0  0.0855
  C  C348  1  0.114990  0.432600  0.380700  1.0  -0.1625
  C  C349  1  0.086170  0.447600  0.397300  1.0  -0.0636
  C  C350  1  0.171100  0.411410  0.403300  1.0  -0.0346
  C  C351  1  0.153310  0.373920  0.368900  1.0  -0.1457
  C  C352  1  0.720740  0.809790  0.805330  1.0  0.7169
  C  C353  1  0.752860  0.794320  0.787090  1.0  -0.1343
  C  C354  1  0.780580  0.792040  0.828780  1.0  -0.071
  C  C355  1  0.808510  0.776370  0.812730  1.0  -0.153
  C  C356  1  0.809840  0.763700  0.756330  1.0  0.0855
  C  C357  1  0.781660  0.765930  0.714030  1.0  -0.1625
  C  C358  1  0.752840  0.780930  0.730630  1.0  -0.0636
  C  C359  1  0.837770  0.744740  0.736630  1.0  -0.0346
  C  C360  1  0.819980  0.707250  0.702230  1.0  -0.1457
  C  C361  1  0.387400  0.143130  0.138670  1.0  0.7169
  C  C362  1  0.419520  0.127660  0.120430  1.0  -0.1343
  C  C363  1  0.447240  0.125380  0.162120  1.0  -0.071
  C  C364  1  0.475170  0.109710  0.146070  1.0  -0.153
  C  C365  1  0.476500  0.097040  0.089670  1.0  0.0855
  C  C366  1  0.448320  0.099270  0.047370  1.0  -0.1625
  C  C367  1  0.419500  0.114270  0.063970  1.0  -0.0636
  C  C368  1  0.504430  0.078080  0.069970  1.0  -0.0347
  C  C369  1  0.486640  0.040590  0.035570  1.0  -0.1456
  C  C370  1  0.577610  0.523540  0.528000  1.0  0.7167
  C  C371  1  0.625200  0.539010  0.546240  1.0  -0.1342
  C  C372  1  0.655200  0.541290  0.504550  1.0  -0.0684
  C  C373  1  0.698800  0.556960  0.520600  1.0  -0.1534
  C  C374  1  0.712800  0.569630  0.577000  1.0  0.0855
  C  C375  1  0.682390  0.567400  0.619300  1.0  -0.165
  C  C376  1  0.638570  0.552400  0.602700  1.0  -0.063
  C  C377  1  0.759690  0.588590  0.596700  1.0  -0.0342
  C  C378  1  0.779390  0.626080  0.631100  1.0  -0.1455
  C  C379  1  0.244280  0.856870  0.861330  1.0  0.7167
  C  C380  1  0.291870  0.872340  0.879570  1.0  -0.1342
  C  C381  1  0.321870  0.874620  0.837880  1.0  -0.0684
  C  C382  1  0.365470  0.890290  0.853930  1.0  -0.1534
  C  C383  1  0.379470  0.902960  0.910330  1.0  0.0855
  C  C384  1  0.349060  0.900730  0.952630  1.0  -0.165
  C  C385  1  0.305240  0.885730  0.936030  1.0  -0.063
  C  C386  1  0.426360  0.921920  0.930030  1.0  -0.0342
  C  C387  1  0.446060  0.959410  0.964430  1.0  -0.1457
  C  C388  1  0.910940  0.190210  0.194670  1.0  0.7167
  C  C389  1  0.958530  0.205680  0.212910  1.0  -0.1342
  C  C390  1  0.988530  0.207960  0.171220  1.0  -0.0684
  C  C391  1  0.032130  0.223630  0.187270  1.0  -0.1534
  C  C392  1  0.046130  0.236300  0.243670  1.0  0.0855
  C  C393  1  0.015720  0.234070  0.285970  1.0  -0.165
  C  C394  1  0.971900  0.219070  0.269370  1.0  -0.063
  C  C395  1  0.093020  0.255260  0.263370  1.0  -0.0342
  C  C396  1  0.112720  0.292750  0.297770  1.0  -0.1455
  C  C397  1  0.945930  0.422390  0.528000  1.0  0.7177
  C  C398  1  0.913810  0.374800  0.546240  1.0  -0.1336
  C  C399  1  0.886090  0.344800  0.504550  1.0  -0.068
  C  C400  1  0.858160  0.301200  0.520600  1.0  -0.1549
  C  C401  1  0.856830  0.287200  0.577000  1.0  0.0865
  C  C402  1  0.885010  0.317610  0.619300  1.0  -0.166
  C  C403  1  0.913830  0.361430  0.602700  1.0  -0.0619
  C  C404  1  0.828900  0.240310  0.596700  1.0  -0.034
  C  C405  1  0.846690  0.220610  0.631100  1.0  -0.1456
  C  C406  1  0.612600  0.755720  0.861330  1.0  0.7177
  C  C407  1  0.580480  0.708130  0.879570  1.0  -0.1336
  C  C408  1  0.552760  0.678130  0.837880  1.0  -0.068
  C  C409  1  0.524830  0.634530  0.853930  1.0  -0.1549
  C  C410  1  0.523500  0.620530  0.910330  1.0  0.0865
  C  C411  1  0.551680  0.650940  0.952630  1.0  -0.166
  C  C412  1  0.580500  0.694760  0.936030  1.0  -0.062
  C  C413  1  0.495570  0.573640  0.930030  1.0  -0.034
  C  C414  1  0.513360  0.553940  0.964430  1.0  -0.1456
  C  C415  1  0.279260  0.089060  0.194670  1.0  0.7177
  C  C416  1  0.247140  0.041470  0.212910  1.0  -0.1337
  C  C417  1  0.219420  0.011470  0.171220  1.0  -0.068
  C  C418  1  0.191490  0.967870  0.187270  1.0  -0.1549
  C  C419  1  0.190160  0.953870  0.243670  1.0  0.0865
  C  C420  1  0.218340  0.984280  0.285970  1.0  -0.166
  C  C421  1  0.247160  0.028100  0.269370  1.0  -0.0619
  C  C422  1  0.162230  0.906980  0.263370  1.0  -0.034
  C  C423  1  0.180020  0.887280  0.297770  1.0  -0.1456
  C  C424  1  0.476460  0.054070  0.528000  1.0  0.7169
  C  C425  1  0.460990  0.086190  0.546240  1.0  -0.1334
  C  C426  1  0.458710  0.113910  0.504550  1.0  -0.0679
  C  C427  1  0.443040  0.141840  0.520600  1.0  -0.153
  C  C428  1  0.430370  0.143170  0.577000  1.0  0.0849
  C  C429  1  0.432600  0.114990  0.619300  1.0  -0.1673
  C  C430  1  0.447600  0.086170  0.602700  1.0  -0.0634
  C  C431  1  0.411410  0.171100  0.596700  1.0  -0.0355
  C  C432  1  0.373920  0.153310  0.631100  1.0  -0.1434
  C  C433  1  0.143130  0.387400  0.861330  1.0  0.7169
  C  C434  1  0.127660  0.419520  0.879570  1.0  -0.1332
  C  C435  1  0.125380  0.447240  0.837880  1.0  -0.0679
  C  C436  1  0.109710  0.475170  0.853930  1.0  -0.153
  C  C437  1  0.097040  0.476500  0.910330  1.0  0.0849
  C  C438  1  0.099270  0.448320  0.952630  1.0  -0.1673
  C  C439  1  0.114270  0.419500  0.936030  1.0  -0.0634
  C  C440  1  0.078080  0.504430  0.930030  1.0  -0.0355
  C  C441  1  0.040590  0.486640  0.964430  1.0  -0.1434
  C  C442  1  0.809790  0.720740  0.194670  1.0  0.7169
  C  C443  1  0.794320  0.752860  0.212910  1.0  -0.1334
  C  C444  1  0.792040  0.780580  0.171220  1.0  -0.0679
  C  C445  1  0.776370  0.808510  0.187270  1.0  -0.153
  C  C446  1  0.763700  0.809840  0.243670  1.0  0.0849
  C  C447  1  0.765930  0.781660  0.285970  1.0  -0.1673
  C  C448  1  0.780930  0.752840  0.269370  1.0  -0.0634
  C  C449  1  0.744740  0.837770  0.263370  1.0  -0.0355
  C  C450  1  0.707250  0.819980  0.297770  1.0  -0.1434
  C  C451  1  0.476460  0.422390  0.528000  1.0  0.7177
  C  C452  1  0.460990  0.374800  0.546240  1.0  -0.1336
  C  C453  1  0.458710  0.344800  0.504550  1.0  -0.0688
  C  C454  1  0.443040  0.301200  0.520600  1.0  -0.1555
  C  C455  1  0.430370  0.287200  0.577000  1.0  0.0863
  C  C456  1  0.432600  0.317610  0.619300  1.0  -0.1664
  C  C457  1  0.447600  0.361430  0.602700  1.0  -0.0653
  C  C458  1  0.411410  0.240310  0.596700  1.0  -0.0352
  C  C459  1  0.373920  0.220610  0.631100  1.0  -0.1449
  C  C460  1  0.143130  0.755720  0.861330  1.0  0.7177
  C  C461  1  0.127660  0.708130  0.879570  1.0  -0.1336
  C  C462  1  0.125380  0.678130  0.837880  1.0  -0.0688
  C  C463  1  0.109710  0.634530  0.853930  1.0  -0.1555
  C  C464  1  0.097040  0.620530  0.910330  1.0  0.0863
  C  C465  1  0.099270  0.650940  0.952630  1.0  -0.1664
  C  C466  1  0.114270  0.694760  0.936030  1.0  -0.0653
  C  C467  1  0.078080  0.573640  0.930030  1.0  -0.0352
  C  C468  1  0.040590  0.553940  0.964430  1.0  -0.1451
  C  C469  1  0.809790  0.089060  0.194670  1.0  0.7177
  C  C470  1  0.794320  0.041470  0.212910  1.0  -0.1336
  C  C471  1  0.792040  0.011470  0.171220  1.0  -0.0688
  C  C472  1  0.776370  0.967870  0.187270  1.0  -0.1555
  C  C473  1  0.763700  0.953870  0.243670  1.0  0.0863
  C  C474  1  0.765930  0.984280  0.285970  1.0  -0.1664
  C  C475  1  0.780930  0.028100  0.269370  1.0  -0.0653
  C  C476  1  0.744740  0.906980  0.263370  1.0  -0.0352
  C  C477  1  0.707250  0.887280  0.297770  1.0  -0.1449
  C  C478  1  0.577610  0.054070  0.528000  1.0  0.7169
  C  C479  1  0.625200  0.086190  0.546240  1.0  -0.1342
  C  C480  1  0.655200  0.113910  0.504550  1.0  -0.0682
  C  C481  1  0.698800  0.141840  0.520600  1.0  -0.1524
  C  C482  1  0.712800  0.143170  0.577000  1.0  0.0852
  C  C483  1  0.682390  0.114990  0.619300  1.0  -0.1669
  C  C484  1  0.638570  0.086170  0.602700  1.0  -0.0643
  C  C485  1  0.759690  0.171100  0.596700  1.0  -0.035
  C  C486  1  0.779390  0.153310  0.631100  1.0  -0.1429
  C  C487  1  0.244280  0.387400  0.861330  1.0  0.7169
  C  C488  1  0.291870  0.419520  0.879570  1.0  -0.1342
  C  C489  1  0.321870  0.447240  0.837880  1.0  -0.0682
  C  C490  1  0.365470  0.475170  0.853930  1.0  -0.1524
  C  C491  1  0.379470  0.476500  0.910330  1.0  0.0852
  C  C492  1  0.349060  0.448320  0.952630  1.0  -0.1669
  C  C493  1  0.305240  0.419500  0.936030  1.0  -0.0643
  C  C494  1  0.426360  0.504430  0.930030  1.0  -0.035
  C  C495  1  0.446060  0.486640  0.964430  1.0  -0.1429
  C  C496  1  0.910940  0.720740  0.194670  1.0  0.7169
  C  C497  1  0.958530  0.752860  0.212910  1.0  -0.1342
  C  C498  1  0.988530  0.780580  0.171220  1.0  -0.0682
  C  C499  1  0.032130  0.808510  0.187270  1.0  -0.1524
  C  C500  1  0.046130  0.809840  0.243670  1.0  0.0852
  C  C501  1  0.015720  0.781660  0.285970  1.0  -0.1669
  C  C502  1  0.971900  0.752840  0.269370  1.0  -0.0643
  C  C503  1  0.093020  0.837770  0.263370  1.0  -0.035
  C  C504  1  0.112720  0.819980  0.297770  1.0  -0.1429
  C  C505  1  0.945930  0.523540  0.528000  1.0  0.7165
  C  C506  1  0.913810  0.539010  0.546240  1.0  -0.134
  C  C507  1  0.886090  0.541290  0.504550  1.0  -0.0682
  C  C508  1  0.858160  0.556960  0.520600  1.0  -0.153
  C  C509  1  0.856830  0.569630  0.577000  1.0  0.0858
  C  C510  1  0.885010  0.567400  0.619300  1.0  -0.165
  C  C511  1  0.913830  0.552400  0.602700  1.0  -0.0611
  C  C512  1  0.828900  0.588590  0.596700  1.0  -0.0329
  C  C513  1  0.846690  0.626080  0.631100  1.0  -0.1454
  C  C514  1  0.612600  0.856870  0.861330  1.0  0.7165
  C  C515  1  0.580480  0.872340  0.879570  1.0  -0.1339
  C  C516  1  0.552760  0.874620  0.837880  1.0  -0.0682
  C  C517  1  0.524830  0.890290  0.853930  1.0  -0.153
  C  C518  1  0.523500  0.902960  0.910330  1.0  0.0858
  C  C519  1  0.551680  0.900730  0.952630  1.0  -0.165
  C  C520  1  0.580500  0.885730  0.936030  1.0  -0.0611
  C  C521  1  0.495570  0.921920  0.930030  1.0  -0.033
  C  C522  1  0.513360  0.959410  0.964430  1.0  -0.1454
  C  C523  1  0.279260  0.190210  0.194670  1.0  0.7165
  C  C524  1  0.247140  0.205680  0.212910  1.0  -0.134
  C  C525  1  0.219420  0.207960  0.171220  1.0  -0.0682
  C  C526  1  0.191490  0.223630  0.187270  1.0  -0.153
  C  C527  1  0.190160  0.236300  0.243670  1.0  0.0858
  C  C528  1  0.218340  0.234070  0.285970  1.0  -0.165
  C  C529  1  0.247160  0.219070  0.269370  1.0  -0.0611
  C  C530  1  0.162230  0.255260  0.263370  1.0  -0.0329
  C  C531  1  0.180020  0.292750  0.297770  1.0  -0.1454
  C  C532  1  0.422390  0.476460  0.472000  1.0  0.7167
  C  C533  1  0.374800  0.460990  0.453760  1.0  -0.1345
  C  C534  1  0.344800  0.458710  0.495450  1.0  -0.0702
  C  C535  1  0.301200  0.443040  0.479400  1.0  -0.1529
  C  C536  1  0.287200  0.430370  0.423000  1.0  0.0857
  C  C537  1  0.317610  0.432600  0.380700  1.0  -0.1621
  C  C538  1  0.361430  0.447600  0.397300  1.0  -0.0628
  C  C539  1  0.240310  0.411410  0.403300  1.0  -0.0334
  C  C540  1  0.220610  0.373920  0.368900  1.0  -0.1451
  C  C541  1  0.089060  0.809790  0.805330  1.0  0.7167
  C  C542  1  0.041470  0.794320  0.787090  1.0  -0.1345
  C  C543  1  0.011470  0.792040  0.828780  1.0  -0.0702
  C  C544  1  0.967870  0.776370  0.812730  1.0  -0.1529
  C  C545  1  0.953870  0.763700  0.756330  1.0  0.0857
  C  C546  1  0.984280  0.765930  0.714030  1.0  -0.1621
  C  C547  1  0.028100  0.780930  0.730630  1.0  -0.0628
  C  C548  1  0.906980  0.744740  0.736630  1.0  -0.0334
  C  C549  1  0.887280  0.707250  0.702230  1.0  -0.1451
  C  C550  1  0.755720  0.143130  0.138670  1.0  0.7167
  C  C551  1  0.708130  0.127660  0.120430  1.0  -0.1345
  C  C552  1  0.678130  0.125380  0.162120  1.0  -0.0702
  C  C553  1  0.634530  0.109710  0.146070  1.0  -0.1529
  C  C554  1  0.620530  0.097040  0.089670  1.0  0.0857
  C  C555  1  0.650940  0.099270  0.047370  1.0  -0.1621
  C  C556  1  0.694760  0.114270  0.063970  1.0  -0.0627
  C  C557  1  0.573640  0.078080  0.069970  1.0  -0.0334
  C  C558  1  0.553940  0.040590  0.035570  1.0  -0.1454
  C  C559  1  0.054070  0.577610  0.472000  1.0  0.7177
  C  C560  1  0.086190  0.625200  0.453760  1.0  -0.1334
  C  C561  1  0.113910  0.655200  0.495450  1.0  -0.0697
  C  C562  1  0.141840  0.698800  0.479400  1.0  -0.1548
  C  C563  1  0.143170  0.712800  0.423000  1.0  0.086
  C  C564  1  0.114990  0.682390  0.380700  1.0  -0.1636
  C  C565  1  0.086170  0.638570  0.397300  1.0  -0.065
  C  C566  1  0.171100  0.759690  0.403300  1.0  -0.0359
  C  C567  1  0.153310  0.779390  0.368900  1.0  -0.1453
  C  C568  1  0.720740  0.910940  0.805330  1.0  0.7177
  C  C569  1  0.752860  0.958530  0.787090  1.0  -0.1335
  C  C570  1  0.780580  0.988530  0.828780  1.0  -0.0697
  C  C571  1  0.808510  0.032130  0.812730  1.0  -0.1548
  C  C572  1  0.809840  0.046130  0.756330  1.0  0.086
  C  C573  1  0.781660  0.015720  0.714030  1.0  -0.1636
  C  C574  1  0.752840  0.971900  0.730630  1.0  -0.065
  C  C575  1  0.837770  0.093020  0.736630  1.0  -0.0359
  C  C576  1  0.819980  0.112720  0.702230  1.0  -0.1453
  C  C577  1  0.387400  0.244280  0.138670  1.0  0.7177
  C  C578  1  0.419520  0.291870  0.120430  1.0  -0.1334
  C  C579  1  0.447240  0.321870  0.162120  1.0  -0.0697
  C  C580  1  0.475170  0.365470  0.146070  1.0  -0.1548
  C  C581  1  0.476500  0.379470  0.089670  1.0  0.086
  C  C582  1  0.448320  0.349060  0.047370  1.0  -0.1636
  C  C583  1  0.419500  0.305240  0.063970  1.0  -0.065
  C  C584  1  0.504430  0.426360  0.069970  1.0  -0.0359
  C  C585  1  0.486640  0.446060  0.035570  1.0  -0.1454
  C  C586  1  0.523540  0.945930  0.472000  1.0  0.7168
  C  C587  1  0.539010  0.913810  0.453760  1.0  -0.1344
  C  C588  1  0.541290  0.886090  0.495450  1.0  -0.0703
  C  C589  1  0.556960  0.858160  0.479400  1.0  -0.1523
  C  C590  1  0.569630  0.856830  0.423000  1.0  0.0852
  C  C591  1  0.567400  0.885010  0.380700  1.0  -0.1638
  C  C592  1  0.552400  0.913830  0.397300  1.0  -0.0647
  C  C593  1  0.588590  0.828900  0.403300  1.0  -0.0346
  C  C594  1  0.626080  0.846690  0.368900  1.0  -0.142
  C  C595  1  0.190210  0.279260  0.805330  1.0  0.7168
  C  C596  1  0.205680  0.247140  0.787090  1.0  -0.1344
  C  C597  1  0.207960  0.219420  0.828780  1.0  -0.0703
  C  C598  1  0.223630  0.191490  0.812730  1.0  -0.1523
  C  C599  1  0.236300  0.190160  0.756330  1.0  0.0852
  C  C600  1  0.234070  0.218340  0.714030  1.0  -0.1638
  C  C601  1  0.219070  0.247160  0.730630  1.0  -0.0647
  C  C602  1  0.255260  0.162230  0.736630  1.0  -0.0346
  C  C603  1  0.292750  0.180020  0.702230  1.0  -0.142
  C  C604  1  0.856870  0.612600  0.138670  1.0  0.7168
  C  C605  1  0.872340  0.580480  0.120430  1.0  -0.1343
  C  C606  1  0.874620  0.552760  0.162120  1.0  -0.0703
  C  C607  1  0.890290  0.524830  0.146070  1.0  -0.1523
  C  C608  1  0.902960  0.523500  0.089670  1.0  0.0851
  C  C609  1  0.900730  0.551680  0.047370  1.0  -0.1638
  C  C610  1  0.885730  0.580500  0.063970  1.0  -0.0647
  C  C611  1  0.921920  0.495570  0.069970  1.0  -0.0347
  C  C612  1  0.959410  0.513360  0.035570  1.0  -0.1421
  C  C613  1  0.646650  0.823330  0.353200  1.0  0.0108
  C  C614  1  0.569220  0.784610  0.421400  1.0  0.1842
  C  C615  1  0.490300  0.745150  0.418800  1.0  0.125
  C  C616  1  0.454200  0.727100  0.456500  1.0  -0.3872
  C  C617  1  0.313320  0.156660  0.686530  1.0  0.0108
  C  C618  1  0.235890  0.117940  0.754730  1.0  0.1842
  C  C619  1  0.156970  0.078480  0.752130  1.0  0.125
  C  C620  1  0.120870  0.060430  0.789830  1.0  -0.3872
  C  C621  1  0.979980  0.489990  0.019870  1.0  0.0113
  C  C622  1  0.902550  0.451280  0.088070  1.0  0.1842
  C  C623  1  0.823630  0.411820  0.085470  1.0  0.125
  C  C624  1  0.787530  0.393770  0.123170  1.0  -0.3872
  C  C625  1  0.176670  0.823330  0.353200  1.0  0.0086
  C  C626  1  0.215390  0.784610  0.421400  1.0  0.1841
  C  C627  1  0.254850  0.745150  0.418800  1.0  0.126
  C  C628  1  0.272900  0.727100  0.456500  1.0  -0.384
  C  C629  1  0.843340  0.156660  0.686530  1.0  0.0086
  C  C630  1  0.882060  0.117940  0.754730  1.0  0.1841
  C  C631  1  0.921520  0.078480  0.752130  1.0  0.126
  C  C632  1  0.939570  0.060430  0.789830  1.0  -0.384
  C  C633  1  0.510010  0.489990  0.019870  1.0  0.0105
  C  C634  1  0.548720  0.451280  0.088070  1.0  0.1834
  C  C635  1  0.588180  0.411820  0.085470  1.0  0.1257
  C  C636  1  0.606230  0.393770  0.123170  1.0  -0.3841
  C  C637  1  0.176670  0.353350  0.353200  1.0  0.0137
  C  C638  1  0.215390  0.430780  0.421400  1.0  0.1838
  C  C639  1  0.254850  0.509700  0.418800  1.0  0.1206
  C  C640  1  0.272900  0.545800  0.456500  1.0  -0.3849
  C  C641  1  0.843340  0.686680  0.686530  1.0  0.0137
  C  C642  1  0.882060  0.764110  0.754730  1.0  0.1838
  C  C643  1  0.921520  0.843030  0.752130  1.0  0.1206
  C  C644  1  0.939570  0.879130  0.789830  1.0  -0.3849
  C  C645  1  0.510010  0.020020  0.019870  1.0  0.0141
  C  C646  1  0.548720  0.097450  0.088070  1.0  0.1838
  C  C647  1  0.588180  0.176370  0.085470  1.0  0.1206
  C  C648  1  0.606230  0.212470  0.123170  1.0  -0.3849
  C  C649  1  0.823330  0.646650  0.646800  1.0  0.0138
  C  C650  1  0.784610  0.569220  0.578600  1.0  0.1831
  C  C651  1  0.745150  0.490300  0.581200  1.0  0.1238
  C  C652  1  0.727100  0.454200  0.543500  1.0  -0.3841
  C  C653  1  0.489990  0.979980  0.980130  1.0  0.0143
  C  C654  1  0.451280  0.902550  0.911930  1.0  0.1831
  C  C655  1  0.411820  0.823630  0.914530  1.0  0.1238
  C  C656  1  0.393770  0.787530  0.876830  1.0  -0.3841
  C  C657  1  0.156660  0.313320  0.313470  1.0  0.0138
  C  C658  1  0.117940  0.235890  0.245270  1.0  0.1831
  C  C659  1  0.078480  0.156970  0.247870  1.0  0.1238
  C  C660  1  0.060430  0.120870  0.210170  1.0  -0.3841
  C  C661  1  0.823330  0.176670  0.646800  1.0  0.0084
  C  C662  1  0.784610  0.215390  0.578600  1.0  0.1834
  C  C663  1  0.745150  0.254850  0.581200  1.0  0.125
  C  C664  1  0.727100  0.272900  0.543500  1.0  -0.3866
  C  C665  1  0.489990  0.510010  0.980130  1.0  0.0105
  C  C666  1  0.451280  0.548720  0.911930  1.0  0.1828
  C  C667  1  0.411820  0.588180  0.914530  1.0  0.1248
  C  C668  1  0.393770  0.606230  0.876830  1.0  -0.3867
  C  C669  1  0.156660  0.843340  0.313470  1.0  0.0084
  C  C670  1  0.117940  0.882060  0.245270  1.0  0.1834
  C  C671  1  0.078480  0.921520  0.247870  1.0  0.125
  C  C672  1  0.060430  0.939570  0.210170  1.0  -0.3866
  C  C673  1  0.353350  0.176670  0.646800  1.0  0.0114
  C  C674  1  0.430780  0.215390  0.578600  1.0  0.1829
  C  C675  1  0.509700  0.254850  0.581200  1.0  0.1272
  C  C676  1  0.545800  0.272900  0.543500  1.0  -0.3844
  C  C677  1  0.020020  0.510010  0.980130  1.0  0.0119
  C  C678  1  0.097450  0.548720  0.911930  1.0  0.1829
  C  C679  1  0.176370  0.588180  0.914530  1.0  0.1272
  C  C680  1  0.212470  0.606230  0.876830  1.0  -0.3844
  C  C681  1  0.686680  0.843340  0.313470  1.0  0.0114
  C  C682  1  0.764110  0.882060  0.245270  1.0  0.1829
  C  C683  1  0.843030  0.921520  0.247870  1.0  0.1272
  C  C684  1  0.879130  0.939570  0.210170  1.0  -0.3844
  O  O685  1  0.525240  0.553540  0.432710  1.0  -0.5768
  O  O686  1  0.510860  0.567090  0.522770  1.0  -0.5556
  O  O687  1  0.191910  0.886870  0.766040  1.0  -0.5768
  O  O688  1  0.177530  0.900420  0.856100  1.0  -0.5556
  O  O689  1  0.858570  0.220210  0.099380  1.0  -0.5768
  O  O690  1  0.844190  0.233760  0.189440  1.0  -0.5556
  O  O691  1  0.446460  0.971700  0.432710  1.0  -0.5749
  O  O692  1  0.432910  0.943770  0.522770  1.0  -0.5564
  O  O693  1  0.113130  0.305030  0.766040  1.0  -0.5749
  O  O694  1  0.099580  0.277100  0.856100  1.0  -0.5569
  O  O695  1  0.779790  0.638370  0.099380  1.0  -0.5771
  O  O696  1  0.766240  0.610440  0.189440  1.0  -0.5564
  O  O697  1  0.028300  0.474760  0.432710  1.0  -0.5764
  O  O698  1  0.056230  0.489140  0.522770  1.0  -0.5563
  O  O699  1  0.694970  0.808090  0.766040  1.0  -0.5764
  O  O700  1  0.722900  0.822470  0.856100  1.0  -0.5558
  O  O701  1  0.361630  0.141430  0.099380  1.0  -0.5747
  O  O702  1  0.389560  0.155810  0.189440  1.0  -0.5563
  O  O703  1  0.553540  0.525240  0.567290  1.0  -0.5753
  O  O704  1  0.567090  0.510860  0.477230  1.0  -0.5565
  O  O705  1  0.220210  0.858570  0.900620  1.0  -0.5753
  O  O706  1  0.233760  0.844190  0.810560  1.0  -0.5565
  O  O707  1  0.886870  0.191910  0.233960  1.0  -0.5753
  O  O708  1  0.900420  0.177530  0.143900  1.0  -0.5565
  O  O709  1  0.971700  0.446460  0.567290  1.0  -0.5732
  O  O710  1  0.943770  0.432910  0.477230  1.0  -0.5559
  O  O711  1  0.638370  0.779790  0.900620  1.0  -0.5759
  O  O712  1  0.610440  0.766240  0.810560  1.0  -0.5559
  O  O713  1  0.305030  0.113130  0.233960  1.0  -0.5732
  O  O714  1  0.277100  0.099580  0.143900  1.0  -0.5558
  O  O715  1  0.474760  0.028300  0.567290  1.0  -0.5765
  O  O716  1  0.489140  0.056230  0.477230  1.0  -0.5577
  O  O717  1  0.141430  0.361630  0.900620  1.0  -0.574
  O  O718  1  0.155810  0.389560  0.810560  1.0  -0.5577
  O  O719  1  0.808090  0.694970  0.233960  1.0  -0.5765
  O  O720  1  0.822470  0.722900  0.143900  1.0  -0.5574
  O  O721  1  0.474760  0.446460  0.567290  1.0  -0.5762
  O  O722  1  0.489140  0.432910  0.477230  1.0  -0.5565
  O  O723  1  0.141430  0.779790  0.900620  1.0  -0.5762
  O  O724  1  0.155810  0.766240  0.810560  1.0  -0.5565
  O  O725  1  0.808090  0.113130  0.233960  1.0  -0.5762
  O  O726  1  0.822470  0.099580  0.143900  1.0  -0.5565
  O  O727  1  0.553540  0.028300  0.567290  1.0  -0.5735
  O  O728  1  0.567090  0.056230  0.477230  1.0  -0.5574
  O  O729  1  0.220210  0.361630  0.900620  1.0  -0.5765
  O  O730  1  0.233760  0.389560  0.810560  1.0  -0.5574
  O  O731  1  0.886870  0.694970  0.233960  1.0  -0.5735
  O  O732  1  0.900420  0.722900  0.143900  1.0  -0.5577
  O  O733  1  0.971700  0.525240  0.567290  1.0  -0.5755
  O  O734  1  0.943770  0.510860  0.477230  1.0  -0.5559
  O  O735  1  0.638370  0.858570  0.900620  1.0  -0.573
  O  O736  1  0.610440  0.844190  0.810560  1.0  -0.5559
  O  O737  1  0.305030  0.191910  0.233960  1.0  -0.5755
  O  O738  1  0.277100  0.177530  0.143900  1.0  -0.556
  O  O739  1  0.446460  0.474760  0.432710  1.0  -0.5766
  O  O740  1  0.432910  0.489140  0.522770  1.0  -0.556
  O  O741  1  0.113130  0.808090  0.766040  1.0  -0.5766
  O  O742  1  0.099580  0.822470  0.856100  1.0  -0.556
  O  O743  1  0.779790  0.141430  0.099380  1.0  -0.5766
  O  O744  1  0.766240  0.155810  0.189440  1.0  -0.556
  O  O745  1  0.028300  0.553540  0.432710  1.0  -0.5752
  O  O746  1  0.056230  0.567090  0.522770  1.0  -0.5553
  O  O747  1  0.694970  0.886870  0.766040  1.0  -0.5752
  O  O748  1  0.722900  0.900420  0.856100  1.0  -0.5557
  O  O749  1  0.361630  0.220210  0.099380  1.0  -0.5772
  O  O750  1  0.389560  0.233760  0.189440  1.0  -0.5553
  O  O751  1  0.525240  0.971700  0.432710  1.0  -0.5777
  O  O752  1  0.510860  0.943770  0.522770  1.0  -0.5569
  O  O753  1  0.191910  0.305030  0.766040  1.0  -0.5777
  O  O754  1  0.177530  0.277100  0.856100  1.0  -0.5563
  O  O755  1  0.858570  0.638370  0.099380  1.0  -0.5759
  O  O756  1  0.844190  0.610440  0.189440  1.0  -0.5569
  O  O757  1  0.531670  0.765840  0.455200  1.0  -0.2957
  O  O758  1  0.198340  0.099170  0.788530  1.0  -0.2957
  O  O759  1  0.865000  0.432500  0.121870  1.0  -0.2957
  O  O760  1  0.234160  0.765840  0.455200  1.0  -0.2964
  O  O761  1  0.900830  0.099170  0.788530  1.0  -0.2964
  O  O762  1  0.567500  0.432500  0.121870  1.0  -0.2983
  O  O763  1  0.234160  0.468330  0.455200  1.0  -0.2962
  O  O764  1  0.900830  0.801660  0.788530  1.0  -0.2962
  O  O765  1  0.567500  0.135000  0.121870  1.0  -0.2962
  O  O766  1  0.765840  0.531670  0.544800  1.0  -0.2928
  O  O767  1  0.432500  0.865000  0.878130  1.0  -0.2928
  O  O768  1  0.099170  0.198340  0.211470  1.0  -0.2928
  O  O769  1  0.765840  0.234160  0.544800  1.0  -0.2924
  O  O770  1  0.432500  0.567500  0.878130  1.0  -0.2943
  O  O771  1  0.099170  0.900830  0.211470  1.0  -0.2924
  O  O772  1  0.468330  0.234160  0.544800  1.0  -0.2934
  O  O773  1  0.135000  0.567500  0.878130  1.0  -0.2934
  O  O774  1  0.801660  0.900830  0.211470  1.0  -0.2934
