# generated using pymatgen
data_CuH15C22O5
_symmetry_space_group_name_H-M   'P 1'
_cell_length_a   35.34030000
_cell_length_b   35.34030000
_cell_length_c   20.29100000
_cell_angle_alpha   90.00000000
_cell_angle_beta   90.00000000
_cell_angle_gamma   120.00000000
_symmetry_Int_Tables_number   1
_chemical_formula_structural   CuH15C22O5
_chemical_formula_sum   'Cu18 H270 C396 O90'
_cell_volume   21946.96880228
_cell_formula_units_Z   18
loop_
 _symmetry_equiv_pos_site_id
 _symmetry_equiv_pos_as_xyz
  1  'x, y, z'
loop_
 _atom_site_type_symbol
 _atom_site_label
 _atom_site_symmetry_multiplicity
 _atom_site_fract_x
 _atom_site_fract_y
 _atom_site_fract_z
 _atom_site_occupancy
 _atom_site_charge
  Cu  Cu1  1  0.840860  0.681730  0.606380  1.0  0.9389
  Cu  Cu2  1  0.507530  0.015060  0.939710  1.0  0.9413
  Cu  Cu3  1  0.174200  0.348400  0.273050  1.0  0.9389
  Cu  Cu4  1  0.318270  0.159140  0.606380  1.0  0.9393
  Cu  Cu5  1  0.984940  0.492470  0.939710  1.0  0.9421
  Cu  Cu6  1  0.651600  0.825800  0.273050  1.0  0.9393
  Cu  Cu7  1  0.840860  0.159140  0.606380  1.0  0.9415
  Cu  Cu8  1  0.507530  0.492470  0.939710  1.0  0.9393
  Cu  Cu9  1  0.174200  0.825800  0.273050  1.0  0.9395
  Cu  Cu10  1  0.681730  0.840860  0.393620  1.0  0.9388
  Cu  Cu11  1  0.348400  0.174200  0.726950  1.0  0.9388
  Cu  Cu12  1  0.015060  0.507530  0.060290  1.0  0.9416
  Cu  Cu13  1  0.159140  0.318270  0.393620  1.0  0.9388
  Cu  Cu14  1  0.825800  0.651600  0.726950  1.0  0.9388
  Cu  Cu15  1  0.492470  0.984940  0.060290  1.0  0.9409
  Cu  Cu16  1  0.159140  0.840870  0.393620  1.0  0.9392
  Cu  Cu17  1  0.825800  0.174200  0.726950  1.0  0.9394
  Cu  Cu18  1  0.492470  0.507530  0.060290  1.0  0.9392
  H  H19  1  0.690300  0.549900  0.709700  1.0  0.1299
  H  H20  1  0.617600  0.500800  0.678900  1.0  0.1109
  H  H21  1  0.641800  0.550800  0.492100  1.0  0.1345
  H  H22  1  0.714200  0.599000  0.523600  1.0  0.11
  H  H23  1  0.571500  0.542000  0.520500  1.0  0.1173
  H  H24  1  0.613500  0.432200  0.543900  1.0  0.1179
  H  H25  1  0.586200  0.368500  0.653000  1.0  0.1386
  H  H26  1  0.356970  0.883230  0.043030  1.0  0.1299
  H  H27  1  0.284270  0.834130  0.012230  1.0  0.1109
  H  H28  1  0.308470  0.884130  0.825430  1.0  0.1345
  H  H29  1  0.380870  0.932330  0.856930  1.0  0.11
  H  H30  1  0.238170  0.875330  0.853830  1.0  0.1173
  H  H31  1  0.280170  0.765530  0.877230  1.0  0.1179
  H  H32  1  0.252870  0.701830  0.986330  1.0  0.1386
  H  H33  1  0.023630  0.216570  0.376370  1.0  0.1283
  H  H34  1  0.950930  0.167470  0.345570  1.0  0.1109
  H  H35  1  0.975130  0.217470  0.158770  1.0  0.1346
  H  H36  1  0.047530  0.265670  0.190270  1.0  0.1111
  H  H37  1  0.904830  0.208670  0.187170  1.0  0.1173
  H  H38  1  0.946830  0.098870  0.210570  1.0  0.1176
  H  H39  1  0.919530  0.035170  0.319670  1.0  0.1351
  H  H40  1  0.450100  0.140400  0.709700  1.0  0.1277
  H  H41  1  0.499200  0.116800  0.678900  1.0  0.1123
  H  H42  1  0.449200  0.091000  0.492100  1.0  0.1346
  H  H43  1  0.401000  0.115200  0.523600  1.0  0.1108
  H  H44  1  0.458000  0.029500  0.520500  1.0  0.1176
  H  H45  1  0.567800  0.181300  0.543900  1.0  0.1157
  H  H46  1  0.631500  0.217700  0.653000  1.0  0.13
  H  H47  1  0.116770  0.473730  0.043030  1.0  0.1277
  H  H48  1  0.165870  0.450130  0.012230  1.0  0.1117
  H  H49  1  0.115870  0.424330  0.825430  1.0  0.1346
  H  H50  1  0.067670  0.448530  0.856930  1.0  0.1108
  H  H51  1  0.124670  0.362830  0.853830  1.0  0.1176
  H  H52  1  0.234470  0.514630  0.877230  1.0  0.1157
  H  H53  1  0.298170  0.551030  0.986330  1.0  0.13
  H  H54  1  0.783430  0.807070  0.376370  1.0  0.1295
  H  H55  1  0.832530  0.783470  0.345570  1.0  0.111
  H  H56  1  0.782530  0.757670  0.158770  1.0  0.1336
  H  H57  1  0.734330  0.781870  0.190270  1.0  0.1096
  H  H58  1  0.791330  0.696170  0.187170  1.0  0.1176
  H  H59  1  0.901130  0.847970  0.210570  1.0  0.1154
  H  H60  1  0.964830  0.884370  0.319670  1.0  0.1341
  H  H61  1  0.859600  0.309700  0.709700  1.0  0.1285
  H  H62  1  0.883200  0.382400  0.678900  1.0  0.1118
  H  H63  1  0.909000  0.358200  0.492100  1.0  0.1339
  H  H64  1  0.884800  0.285800  0.523600  1.0  0.1105
  H  H65  1  0.970500  0.428500  0.520500  1.0  0.1169
  H  H66  1  0.818700  0.386500  0.543900  1.0  0.1181
  H  H67  1  0.782300  0.413800  0.653000  1.0  0.1376
  H  H68  1  0.526270  0.643030  0.043030  1.0  0.1285
  H  H69  1  0.549870  0.715730  0.012230  1.0  0.1111
  H  H70  1  0.575670  0.691530  0.825430  1.0  0.1339
  H  H71  1  0.551470  0.619130  0.856930  1.0  0.1105
  H  H72  1  0.637170  0.761830  0.853830  1.0  0.1169
  H  H73  1  0.485370  0.719830  0.877230  1.0  0.1181
  H  H74  1  0.448970  0.747130  0.986330  1.0  0.1376
  H  H75  1  0.192930  0.976370  0.376370  1.0  0.1285
  H  H76  1  0.216530  0.049070  0.345570  1.0  0.1118
  H  H77  1  0.242330  0.024870  0.158770  1.0  0.1351
  H  H78  1  0.218130  0.952470  0.190270  1.0  0.1105
  H  H79  1  0.303830  0.095170  0.187170  1.0  0.1169
  H  H80  1  0.152030  0.053170  0.210570  1.0  0.1173
  H  H81  1  0.115630  0.080470  0.319670  1.0  0.1356
  H  H82  1  0.549900  0.690300  0.290300  1.0  0.1299
  H  H83  1  0.500800  0.617600  0.321100  1.0  0.1113
  H  H84  1  0.550800  0.641800  0.507900  1.0  0.1333
  H  H85  1  0.599000  0.714200  0.476400  1.0  0.1096
  H  H86  1  0.542000  0.571500  0.479500  1.0  0.1165
  H  H87  1  0.432200  0.613500  0.456100  1.0  0.1185
  H  H88  1  0.368500  0.586200  0.347000  1.0  0.137
  H  H89  1  0.216570  0.023630  0.623630  1.0  0.1288
  H  H90  1  0.167470  0.950930  0.654430  1.0  0.1113
  H  H91  1  0.217470  0.975130  0.841230  1.0  0.1334
  H  H92  1  0.265670  0.047530  0.809730  1.0  0.1106
  H  H93  1  0.208670  0.904830  0.812830  1.0  0.1165
  H  H94  1  0.098870  0.946830  0.789430  1.0  0.1181
  H  H95  1  0.035170  0.919530  0.680330  1.0  0.1334
  H  H96  1  0.883230  0.356970  0.956970  1.0  0.1299
  H  H97  1  0.834130  0.284270  0.987770  1.0  0.1113
  H  H98  1  0.884130  0.308470  0.174570  1.0  0.1333
  H  H99  1  0.932330  0.380870  0.143070  1.0  0.1096
  H  H100  1  0.875330  0.238170  0.146170  1.0  0.1165
  H  H101  1  0.765530  0.280170  0.122770  1.0  0.1185
  H  H102  1  0.701830  0.252870  0.013670  1.0  0.137
  H  H103  1  0.140400  0.450100  0.290300  1.0  0.1286
  H  H104  1  0.116800  0.499200  0.321100  1.0  0.1118
  H  H105  1  0.091000  0.449200  0.507900  1.0  0.1355
  H  H106  1  0.115200  0.401000  0.476400  1.0  0.1106
  H  H107  1  0.029500  0.458000  0.479500  1.0  0.1169
  H  H108  1  0.181300  0.567800  0.456100  1.0  0.12
  H  H109  1  0.217700  0.631500  0.347000  1.0  0.135
  H  H110  1  0.807070  0.783430  0.623630  1.0  0.1297
  H  H111  1  0.783470  0.832530  0.654430  1.0  0.1113
  H  H112  1  0.757670  0.782530  0.841230  1.0  0.1334
  H  H113  1  0.781870  0.734330  0.809730  1.0  0.1098
  H  H114  1  0.696170  0.791330  0.812830  1.0  0.1169
  H  H115  1  0.847970  0.901130  0.789430  1.0  0.1192
  H  H116  1  0.884370  0.964830  0.680330  1.0  0.1397
  H  H117  1  0.473730  0.116770  0.956970  1.0  0.1286
  H  H118  1  0.450130  0.165870  0.987770  1.0  0.1113
  H  H119  1  0.424330  0.115870  0.174570  1.0  0.1355
  H  H120  1  0.448530  0.067670  0.143070  1.0  0.1106
  H  H121  1  0.362830  0.124670  0.146170  1.0  0.1169
  H  H122  1  0.514630  0.234470  0.122770  1.0  0.12
  H  H123  1  0.551030  0.298170  0.013670  1.0  0.135
  H  H124  1  0.309700  0.859600  0.290300  1.0  0.1284
  H  H125  1  0.382400  0.883200  0.321100  1.0  0.1114
  H  H126  1  0.358200  0.909000  0.507900  1.0  0.1336
  H  H127  1  0.285800  0.884800  0.476400  1.0  0.1108
  H  H128  1  0.428500  0.970500  0.479500  1.0  0.117
  H  H129  1  0.386500  0.818700  0.456100  1.0  0.1164
  H  H130  1  0.413800  0.782300  0.347000  1.0  0.1348
  H  H131  1  0.976370  0.192930  0.623630  1.0  0.1284
  H  H132  1  0.049070  0.216530  0.654430  1.0  0.1112
  H  H133  1  0.024870  0.242330  0.841230  1.0  0.1351
  H  H134  1  0.952470  0.218130  0.809730  1.0  0.1108
  H  H135  1  0.095170  0.303830  0.812830  1.0  0.117
  H  H136  1  0.053170  0.152030  0.789430  1.0  0.1162
  H  H137  1  0.080470  0.115630  0.680330  1.0  0.1323
  H  H138  1  0.643030  0.526270  0.956970  1.0  0.1284
  H  H139  1  0.715730  0.549870  0.987770  1.0  0.1108
  H  H140  1  0.691530  0.575670  0.174570  1.0  0.1336
  H  H141  1  0.619130  0.551470  0.143070  1.0  0.1108
  H  H142  1  0.761830  0.637170  0.146170  1.0  0.117
  H  H143  1  0.719830  0.485370  0.122770  1.0  0.1164
  H  H144  1  0.747130  0.448970  0.013670  1.0  0.1348
  H  H145  1  0.309700  0.450100  0.290300  1.0  0.1297
  H  H146  1  0.382400  0.499200  0.321100  1.0  0.1112
  H  H147  1  0.358200  0.449200  0.507900  1.0  0.1339
  H  H148  1  0.285800  0.401000  0.476400  1.0  0.1098
  H  H149  1  0.428500  0.458000  0.479500  1.0  0.1177
  H  H150  1  0.386500  0.567800  0.456100  1.0  0.1195
  H  H151  1  0.413800  0.631500  0.347000  1.0  0.1369
  H  H152  1  0.976370  0.783430  0.623630  1.0  0.1285
  H  H153  1  0.049070  0.832530  0.654430  1.0  0.1112
  H  H154  1  0.024870  0.782530  0.841230  1.0  0.134
  H  H155  1  0.952470  0.734330  0.809730  1.0  0.1106
  H  H156  1  0.095170  0.791330  0.812830  1.0  0.1177
  H  H157  1  0.053170  0.901130  0.789430  1.0  0.1194
  H  H158  1  0.080470  0.964830  0.680330  1.0  0.1328
  H  H159  1  0.643030  0.116770  0.956970  1.0  0.1297
  H  H160  1  0.715730  0.165870  0.987770  1.0  0.1112
  H  H161  1  0.691530  0.115870  0.174570  1.0  0.1339
  H  H162  1  0.619130  0.067670  0.143070  1.0  0.1098
  H  H163  1  0.761830  0.124670  0.146170  1.0  0.1178
  H  H164  1  0.719830  0.234470  0.122770  1.0  0.1195
  H  H165  1  0.747130  0.298170  0.013670  1.0  0.1369
  H  H166  1  0.549900  0.859600  0.290300  1.0  0.128
  H  H167  1  0.500800  0.883200  0.321100  1.0  0.1116
  H  H168  1  0.550800  0.909000  0.507900  1.0  0.1349
  H  H169  1  0.599000  0.884800  0.476400  1.0  0.1107
  H  H170  1  0.542000  0.970500  0.479500  1.0  0.1171
  H  H171  1  0.432200  0.818700  0.456100  1.0  0.1195
  H  H172  1  0.368500  0.782300  0.347000  1.0  0.131
  H  H173  1  0.216570  0.192930  0.623630  1.0  0.1291
  H  H174  1  0.167470  0.216530  0.654430  1.0  0.1112
  H  H175  1  0.217470  0.242330  0.841230  1.0  0.1332
  H  H176  1  0.265670  0.218130  0.809730  1.0  0.1098
  H  H177  1  0.208670  0.303830  0.812830  1.0  0.1171
  H  H178  1  0.098870  0.152030  0.789430  1.0  0.1186
  H  H179  1  0.035170  0.115630  0.680330  1.0  0.1343
  H  H180  1  0.883230  0.526270  0.956970  1.0  0.128
  H  H181  1  0.834130  0.549870  0.987770  1.0  0.1111
  H  H182  1  0.884130  0.575670  0.174570  1.0  0.1349
  H  H183  1  0.932330  0.551470  0.143070  1.0  0.1107
  H  H184  1  0.875330  0.637170  0.146170  1.0  0.1171
  H  H185  1  0.765530  0.485370  0.122770  1.0  0.1195
  H  H186  1  0.701830  0.448970  0.013670  1.0  0.131
  H  H187  1  0.140400  0.690300  0.290300  1.0  0.1286
  H  H188  1  0.116800  0.617600  0.321100  1.0  0.1116
  H  H189  1  0.091000  0.641800  0.507900  1.0  0.1334
  H  H190  1  0.115200  0.714200  0.476400  1.0  0.1105
  H  H191  1  0.029500  0.571500  0.479500  1.0  0.1168
  H  H192  1  0.181300  0.613500  0.456100  1.0  0.1187
  H  H193  1  0.217700  0.586200  0.347000  1.0  0.1381
  H  H194  1  0.807070  0.023630  0.623630  1.0  0.1286
  H  H195  1  0.783470  0.950930  0.654430  1.0  0.1115
  H  H196  1  0.757670  0.975130  0.841230  1.0  0.1353
  H  H197  1  0.781870  0.047530  0.809730  1.0  0.1105
  H  H198  1  0.696170  0.904830  0.812830  1.0  0.1168
  H  H199  1  0.847970  0.946830  0.789430  1.0  0.1183
  H  H200  1  0.884370  0.919530  0.680330  1.0  0.1364
  H  H201  1  0.473730  0.356970  0.956970  1.0  0.1286
  H  H202  1  0.450130  0.284270  0.987770  1.0  0.1111
  H  H203  1  0.424330  0.308470  0.174570  1.0  0.1334
  H  H204  1  0.448530  0.380870  0.143070  1.0  0.1105
  H  H205  1  0.362830  0.238170  0.146170  1.0  0.1168
  H  H206  1  0.514630  0.280170  0.122770  1.0  0.1187
  H  H207  1  0.551030  0.252870  0.013670  1.0  0.1381
  H  H208  1  0.450100  0.309700  0.709700  1.0  0.1297
  H  H209  1  0.499200  0.382400  0.678900  1.0  0.111
  H  H210  1  0.449200  0.358200  0.492100  1.0  0.1339
  H  H211  1  0.401000  0.285800  0.523600  1.0  0.1094
  H  H212  1  0.458000  0.428500  0.520500  1.0  0.1166
  H  H213  1  0.567800  0.386500  0.543900  1.0  0.1176
  H  H214  1  0.631500  0.413800  0.653000  1.0  0.1373
  H  H215  1  0.116770  0.643030  0.043030  1.0  0.1297
  H  H216  1  0.165870  0.715730  0.012230  1.0  0.111
  H  H217  1  0.115870  0.691530  0.825430  1.0  0.1339
  H  H218  1  0.067670  0.619130  0.856930  1.0  0.1094
  H  H219  1  0.124670  0.761830  0.853830  1.0  0.1166
  H  H220  1  0.234470  0.719830  0.877230  1.0  0.1176
  H  H221  1  0.298170  0.747130  0.986330  1.0  0.1373
  H  H222  1  0.783430  0.976370  0.376370  1.0  0.1281
  H  H223  1  0.832530  0.049070  0.345570  1.0  0.111
  H  H224  1  0.782530  0.024870  0.158770  1.0  0.134
  H  H225  1  0.734330  0.952470  0.190270  1.0  0.1103
  H  H226  1  0.791330  0.095170  0.187170  1.0  0.1166
  H  H227  1  0.901130  0.053170  0.210570  1.0  0.1186
  H  H228  1  0.964830  0.080470  0.319670  1.0  0.1342
  H  H229  1  0.859600  0.549900  0.709700  1.0  0.1285
  H  H230  1  0.883200  0.500800  0.678900  1.0  0.1124
  H  H231  1  0.909000  0.550800  0.492100  1.0  0.1352
  H  H232  1  0.884800  0.599000  0.523600  1.0  0.1108
  H  H233  1  0.970500  0.542000  0.520500  1.0  0.1177
  H  H234  1  0.818700  0.432200  0.543900  1.0  0.118
  H  H235  1  0.782300  0.368500  0.653000  1.0  0.135
  H  H236  1  0.526270  0.883230  0.043030  1.0  0.1285
  H  H237  1  0.549870  0.834130  0.012230  1.0  0.1116
  H  H238  1  0.575670  0.884130  0.825430  1.0  0.1352
  H  H239  1  0.551470  0.932330  0.856930  1.0  0.1108
  H  H240  1  0.637170  0.875330  0.853830  1.0  0.1177
  H  H241  1  0.485370  0.765530  0.877230  1.0  0.118
  H  H242  1  0.448970  0.701830  0.986330  1.0  0.135
  H  H243  1  0.192930  0.216570  0.376370  1.0  0.1301
  H  H244  1  0.216530  0.167470  0.345570  1.0  0.1108
  H  H245  1  0.242330  0.217470  0.158770  1.0  0.1343
  H  H246  1  0.218130  0.265670  0.190270  1.0  0.1096
  H  H247  1  0.303830  0.208670  0.187170  1.0  0.1177
  H  H248  1  0.152030  0.098870  0.210570  1.0  0.118
  H  H249  1  0.115630  0.035170  0.319670  1.0  0.1376
  H  H250  1  0.690300  0.140400  0.709700  1.0  0.1274
  H  H251  1  0.617600  0.116800  0.678900  1.0  0.1116
  H  H252  1  0.641800  0.091000  0.492100  1.0  0.1342
  H  H253  1  0.714200  0.115200  0.523600  1.0  0.1113
  H  H254  1  0.571500  0.029500  0.520500  1.0  0.1174
  H  H255  1  0.613500  0.181300  0.543900  1.0  0.1185
  H  H256  1  0.586200  0.217700  0.653000  1.0  0.1351
  H  H257  1  0.356970  0.473730  0.043030  1.0  0.1274
  H  H258  1  0.284270  0.450130  0.012230  1.0  0.1109
  H  H259  1  0.308470  0.424330  0.825430  1.0  0.1342
  H  H260  1  0.380870  0.448530  0.856930  1.0  0.1113
  H  H261  1  0.238170  0.362830  0.853830  1.0  0.1174
  H  H262  1  0.280170  0.514630  0.877230  1.0  0.1185
  H  H263  1  0.252870  0.551030  0.986330  1.0  0.1351
  H  H264  1  0.023630  0.807070  0.376370  1.0  0.1274
  H  H265  1  0.950930  0.783470  0.345570  1.0  0.1118
  H  H266  1  0.975130  0.757670  0.158770  1.0  0.1354
  H  H267  1  0.047530  0.781870  0.190270  1.0  0.1113
  H  H268  1  0.904830  0.696170  0.187170  1.0  0.1174
  H  H269  1  0.946830  0.847970  0.210570  1.0  0.1176
  H  H270  1  0.919530  0.884370  0.319670  1.0  0.134
  H  H271  1  0.624000  0.376000  0.602100  1.0  0.1425
  H  H272  1  0.290670  0.709330  0.935430  1.0  0.1425
  H  H273  1  0.957330  0.042670  0.268770  1.0  0.1418
  H  H274  1  0.624000  0.248000  0.602100  1.0  0.1436
  H  H275  1  0.290670  0.581330  0.935430  1.0  0.1436
  H  H276  1  0.957330  0.914670  0.268770  1.0  0.1467
  H  H277  1  0.752000  0.376000  0.602100  1.0  0.1406
  H  H278  1  0.418670  0.709330  0.935430  1.0  0.1406
  H  H279  1  0.085330  0.042670  0.268770  1.0  0.1442
  H  H280  1  0.376000  0.624000  0.397900  1.0  0.1399
  H  H281  1  0.042670  0.957330  0.731230  1.0  0.1394
  H  H282  1  0.709330  0.290670  0.064570  1.0  0.1399
  H  H283  1  0.248000  0.624000  0.397900  1.0  0.1424
  H  H284  1  0.914670  0.957330  0.731230  1.0  0.1465
  H  H285  1  0.581330  0.290670  0.064570  1.0  0.1424
  H  H286  1  0.376000  0.752000  0.397900  1.0  0.1411
  H  H287  1  0.042670  0.085330  0.731230  1.0  0.1445
  H  H288  1  0.709330  0.418670  0.064570  1.0  0.1411
  C  C289  1  0.756030  0.612390  0.638080  1.0  0.6685
  C  C290  1  0.709210  0.579630  0.617830  1.0  -0.1039
  C  C291  1  0.680470  0.550040  0.666190  1.0  -0.0524
  C  C292  1  0.637180  0.521090  0.647600  1.0  -0.17
  C  C293  1  0.622240  0.521430  0.584300  1.0  0.0332
  C  C294  1  0.651330  0.550690  0.535840  1.0  -0.1802
  C  C295  1  0.694330  0.579150  0.555140  1.0  -0.0509
  C  C296  1  0.575190  0.493690  0.567400  1.0  -0.0269
  C  C297  1  0.554680  0.512180  0.532930  1.0  -0.1416
  C  C298  1  0.422700  0.945720  0.971410  1.0  0.6675
  C  C299  1  0.375880  0.912960  0.951160  1.0  -0.1039
  C  C300  1  0.347140  0.883370  0.999520  1.0  -0.0525
  C  C301  1  0.303850  0.854420  0.980930  1.0  -0.1702
  C  C302  1  0.288910  0.854760  0.917630  1.0  0.0332
  C  C303  1  0.318000  0.884020  0.869170  1.0  -0.1802
  C  C304  1  0.361000  0.912480  0.888470  1.0  -0.0509
  C  C305  1  0.241860  0.827020  0.900730  1.0  -0.0269
  C  C306  1  0.221350  0.845510  0.866260  1.0  -0.1416
  C  C307  1  0.089360  0.279060  0.304750  1.0  0.6672
  C  C308  1  0.042540  0.246300  0.284500  1.0  -0.1039
  C  C309  1  0.013800  0.216710  0.332860  1.0  -0.0524
  C  C310  1  0.970510  0.187760  0.314270  1.0  -0.17
  C  C311  1  0.955570  0.188100  0.250970  1.0  0.0332
  C  C312  1  0.984660  0.217360  0.202510  1.0  -0.1802
  C  C313  1  0.027660  0.245820  0.221810  1.0  -0.0509
  C  C314  1  0.908520  0.160360  0.234070  1.0  -0.0269
  C  C315  1  0.888010  0.178850  0.199600  1.0  -0.1416
  C  C316  1  0.387610  0.143640  0.638080  1.0  0.6669
  C  C317  1  0.420370  0.129580  0.617830  1.0  -0.1049
  C  C318  1  0.449960  0.130430  0.666190  1.0  -0.0523
  C  C319  1  0.478910  0.116090  0.647600  1.0  -0.1691
  C  C320  1  0.478570  0.100810  0.584300  1.0  0.0315
  C  C321  1  0.449310  0.100640  0.535840  1.0  -0.176
  C  C322  1  0.420850  0.115180  0.555140  1.0  -0.0475
  C  C323  1  0.506310  0.081500  0.567400  1.0  -0.0264
  C  C324  1  0.487820  0.042500  0.532930  1.0  -0.145
  C  C325  1  0.054280  0.476970  0.971410  1.0  0.6666
  C  C326  1  0.087040  0.462910  0.951160  1.0  -0.1049
  C  C327  1  0.116630  0.463760  0.999520  1.0  -0.0523
  C  C328  1  0.145580  0.449420  0.980930  1.0  -0.1691
  C  C329  1  0.145240  0.434140  0.917630  1.0  0.0315
  C  C330  1  0.115980  0.433970  0.869170  1.0  -0.176
  C  C331  1  0.087520  0.448510  0.888470  1.0  -0.0475
  C  C332  1  0.172980  0.414830  0.900730  1.0  -0.0171
  C  C333  1  0.154490  0.375830  0.866260  1.0  -0.1386
  C  C334  1  0.720940  0.810310  0.304750  1.0  0.6669
  C  C335  1  0.753700  0.796250  0.284500  1.0  -0.1049
  C  C336  1  0.783290  0.797100  0.332860  1.0  -0.0523
  C  C337  1  0.812240  0.782760  0.314270  1.0  -0.1691
  C  C338  1  0.811900  0.767480  0.250970  1.0  0.0315
  C  C339  1  0.782640  0.767310  0.202510  1.0  -0.176
  C  C340  1  0.754180  0.781850  0.221810  1.0  -0.047
  C  C341  1  0.839640  0.748170  0.234070  1.0  -0.0264
  C  C342  1  0.821150  0.709170  0.199600  1.0  -0.145
  C  C343  1  0.856360  0.243970  0.638080  1.0  0.6683
  C  C344  1  0.870420  0.290790  0.617830  1.0  -0.1039
  C  C345  1  0.869570  0.319530  0.666190  1.0  -0.0532
  C  C346  1  0.883910  0.362820  0.647600  1.0  -0.1704
  C  C347  1  0.899190  0.377760  0.584300  1.0  0.0309
  C  C348  1  0.899360  0.348670  0.535840  1.0  -0.1792
  C  C349  1  0.884820  0.305670  0.555140  1.0  -0.05
  C  C350  1  0.918500  0.424810  0.567400  1.0  -0.017
  C  C351  1  0.957500  0.445320  0.532930  1.0  -0.1387
  C  C352  1  0.523030  0.577300  0.971410  1.0  0.6683
  C  C353  1  0.537090  0.624120  0.951160  1.0  -0.1041
  C  C354  1  0.536240  0.652860  0.999520  1.0  -0.0532
  C  C355  1  0.550580  0.696150  0.980930  1.0  -0.1704
  C  C356  1  0.565860  0.711090  0.917630  1.0  0.0309
  C  C357  1  0.566030  0.682000  0.869170  1.0  -0.1792
  C  C358  1  0.551490  0.639000  0.888470  1.0  -0.0495
  C  C359  1  0.585170  0.758140  0.900730  1.0  -0.0256
  C  C360  1  0.624170  0.778650  0.866260  1.0  -0.1448
  C  C361  1  0.189690  0.910640  0.304750  1.0  0.6671
  C  C362  1  0.203750  0.957460  0.284500  1.0  -0.1039
  C  C363  1  0.202900  0.986200  0.332860  1.0  -0.0532
  C  C364  1  0.217240  0.029490  0.314270  1.0  -0.1704
  C  C365  1  0.232520  0.044430  0.250970  1.0  0.0309
  C  C366  1  0.232690  0.015340  0.202510  1.0  -0.1792
  C  C367  1  0.218150  0.972340  0.221810  1.0  -0.05
  C  C368  1  0.251830  0.091480  0.234070  1.0  -0.017
  C  C369  1  0.290830  0.111990  0.199600  1.0  -0.1387
  C  C370  1  0.612390  0.756030  0.361920  1.0  0.6684
  C  C371  1  0.579630  0.709210  0.382170  1.0  -0.1031
  C  C372  1  0.550040  0.680470  0.333810  1.0  -0.0515
  C  C373  1  0.521090  0.637180  0.352400  1.0  -0.1702
  C  C374  1  0.521430  0.622240  0.415700  1.0  0.0309
  C  C375  1  0.550690  0.651330  0.464160  1.0  -0.1819
  C  C376  1  0.579150  0.694330  0.444860  1.0  -0.0476
  C  C377  1  0.493690  0.575190  0.432600  1.0  -0.0251
  C  C378  1  0.512180  0.554680  0.467070  1.0  -0.1447
  C  C379  1  0.279060  0.089360  0.695250  1.0  0.6672
  C  C380  1  0.246300  0.042540  0.715500  1.0  -0.1031
  C  C381  1  0.216710  0.013800  0.667140  1.0  -0.0515
  C  C382  1  0.187760  0.970510  0.685730  1.0  -0.1702
  C  C383  1  0.188100  0.955570  0.749030  1.0  0.0309
  C  C384  1  0.217360  0.984660  0.797490  1.0  -0.1819
  C  C385  1  0.245820  0.027660  0.778190  1.0  -0.0476
  C  C386  1  0.160360  0.908520  0.765930  1.0  -0.0251
  C  C387  1  0.178850  0.888010  0.800400  1.0  -0.1447
  C  C388  1  0.945720  0.422700  0.028590  1.0  0.6675
  C  C389  1  0.912960  0.375880  0.048840  1.0  -0.1031
  C  C390  1  0.883370  0.347140  0.000480  1.0  -0.0516
  C  C391  1  0.854420  0.303850  0.019070  1.0  -0.1704
  C  C392  1  0.854760  0.288910  0.082370  1.0  0.0309
  C  C393  1  0.884020  0.318000  0.130830  1.0  -0.1819
  C  C394  1  0.912480  0.361000  0.111530  1.0  -0.0476
  C  C395  1  0.827020  0.241860  0.099270  1.0  -0.0251
  C  C396  1  0.845510  0.221350  0.133740  1.0  -0.1447
  C  C397  1  0.143640  0.387610  0.361920  1.0  0.6672
  C  C398  1  0.129580  0.420370  0.382170  1.0  -0.104
  C  C399  1  0.130430  0.449960  0.333810  1.0  -0.0523
  C  C400  1  0.116090  0.478910  0.352400  1.0  -0.1691
  C  C401  1  0.100810  0.478570  0.415700  1.0  0.0329
  C  C402  1  0.100640  0.449310  0.464160  1.0  -0.1833
  C  C403  1  0.115180  0.420850  0.444860  1.0  -0.0492
  C  C404  1  0.081500  0.506310  0.432600  1.0  -0.0269
  C  C405  1  0.042500  0.487820  0.467070  1.0  -0.143
  C  C406  1  0.810310  0.720940  0.695250  1.0  0.6672
  C  C407  1  0.796250  0.753700  0.715500  1.0  -0.104
  C  C408  1  0.797100  0.783290  0.667140  1.0  -0.0523
  C  C409  1  0.782760  0.812240  0.685730  1.0  -0.1691
  C  C410  1  0.767480  0.811900  0.749030  1.0  0.0329
  C  C411  1  0.767310  0.782640  0.797490  1.0  -0.1833
  C  C412  1  0.781850  0.754180  0.778190  1.0  -0.0488
  C  C413  1  0.748170  0.839640  0.765930  1.0  -0.0269
  C  C414  1  0.709170  0.821150  0.800400  1.0  -0.143
  C  C415  1  0.476970  0.054280  0.028590  1.0  0.6669
  C  C416  1  0.462910  0.087040  0.048840  1.0  -0.104
  C  C417  1  0.463760  0.116630  0.000480  1.0  -0.0523
  C  C418  1  0.449420  0.145580  0.019070  1.0  -0.1691
  C  C419  1  0.434140  0.145240  0.082370  1.0  0.0329
  C  C420  1  0.433970  0.115980  0.130830  1.0  -0.1833
  C  C421  1  0.448510  0.087520  0.111530  1.0  -0.0492
  C  C422  1  0.414830  0.172980  0.099270  1.0  -0.0176
  C  C423  1  0.375830  0.154490  0.133740  1.0  -0.1366
  C  C424  1  0.243970  0.856360  0.361920  1.0  0.6677
  C  C425  1  0.290790  0.870420  0.382170  1.0  -0.1054
  C  C426  1  0.319530  0.869570  0.333810  1.0  -0.0508
  C  C427  1  0.362820  0.883910  0.352400  1.0  -0.1687
  C  C428  1  0.377760  0.899190  0.415700  1.0  0.0315
  C  C429  1  0.348670  0.899360  0.464160  1.0  -0.1796
  C  C430  1  0.305670  0.884820  0.444860  1.0  -0.0478
  C  C431  1  0.424810  0.918500  0.432600  1.0  -0.0164
  C  C432  1  0.445320  0.957500  0.467070  1.0  -0.1384
  C  C433  1  0.910640  0.189690  0.695250  1.0  0.6665
  C  C434  1  0.957460  0.203750  0.715500  1.0  -0.1054
  C  C435  1  0.986200  0.202900  0.667140  1.0  -0.0508
  C  C436  1  0.029490  0.217240  0.685730  1.0  -0.1687
  C  C437  1  0.044430  0.232520  0.749030  1.0  0.0315
  C  C438  1  0.015340  0.232690  0.797490  1.0  -0.1796
  C  C439  1  0.972340  0.218150  0.778190  1.0  -0.0478
  C  C440  1  0.091480  0.251830  0.765930  1.0  -0.0164
  C  C441  1  0.111990  0.290830  0.800400  1.0  -0.1384
  C  C442  1  0.577300  0.523030  0.028590  1.0  0.6677
  C  C443  1  0.624120  0.537090  0.048840  1.0  -0.1054
  C  C444  1  0.652860  0.536240  0.000480  1.0  -0.0508
  C  C445  1  0.696150  0.550580  0.019070  1.0  -0.1687
  C  C446  1  0.711090  0.565860  0.082370  1.0  0.0315
  C  C447  1  0.682000  0.566030  0.130830  1.0  -0.1796
  C  C448  1  0.639000  0.551490  0.111530  1.0  -0.0474
  C  C449  1  0.758140  0.585170  0.099270  1.0  -0.0257
  C  C450  1  0.778650  0.624170  0.133740  1.0  -0.1456
  C  C451  1  0.243970  0.387610  0.361920  1.0  0.6683
  C  C452  1  0.290790  0.420370  0.382170  1.0  -0.1045
  C  C453  1  0.319530  0.449960  0.333810  1.0  -0.0506
  C  C454  1  0.362820  0.478910  0.352400  1.0  -0.1685
  C  C455  1  0.377760  0.478570  0.415700  1.0  0.033
  C  C456  1  0.348670  0.449310  0.464160  1.0  -0.1819
  C  C457  1  0.305670  0.420850  0.444860  1.0  -0.0499
  C  C458  1  0.424810  0.506310  0.432600  1.0  -0.0272
  C  C459  1  0.445320  0.487820  0.467070  1.0  -0.1419
  C  C460  1  0.910640  0.720940  0.695250  1.0  0.6671
  C  C461  1  0.957460  0.753700  0.715500  1.0  -0.1045
  C  C462  1  0.986200  0.783290  0.667140  1.0  -0.0506
  C  C463  1  0.029490  0.812240  0.685730  1.0  -0.1685
  C  C464  1  0.044430  0.811900  0.749030  1.0  0.033
  C  C465  1  0.015340  0.782640  0.797490  1.0  -0.1819
  C  C466  1  0.972340  0.754180  0.778190  1.0  -0.0499
  C  C467  1  0.091480  0.839640  0.765930  1.0  -0.0272
  C  C468  1  0.111990  0.821150  0.800400  1.0  -0.1419
  C  C469  1  0.577300  0.054280  0.028590  1.0  0.6674
  C  C470  1  0.624120  0.087040  0.048840  1.0  -0.1045
  C  C471  1  0.652860  0.116630  0.000480  1.0  -0.0507
  C  C472  1  0.696150  0.145580  0.019070  1.0  -0.1687
  C  C473  1  0.711090  0.145240  0.082370  1.0  0.033
  C  C474  1  0.682000  0.115980  0.130830  1.0  -0.1819
  C  C475  1  0.639000  0.087520  0.111530  1.0  -0.0499
  C  C476  1  0.758140  0.172980  0.099270  1.0  -0.0272
  C  C477  1  0.778650  0.154490  0.133740  1.0  -0.1419
  C  C478  1  0.612390  0.856360  0.361920  1.0  0.6662
  C  C479  1  0.579630  0.870420  0.382170  1.0  -0.1049
  C  C480  1  0.550040  0.869570  0.333810  1.0  -0.0521
  C  C481  1  0.521090  0.883910  0.352400  1.0  -0.1692
  C  C482  1  0.521430  0.899190  0.415700  1.0  0.0316
  C  C483  1  0.550690  0.899360  0.464160  1.0  -0.18
  C  C484  1  0.579150  0.884820  0.444860  1.0  -0.0461
  C  C485  1  0.493690  0.918500  0.432600  1.0  -0.0245
  C  C486  1  0.512180  0.957500  0.467070  1.0  -0.1449
  C  C487  1  0.279060  0.189690  0.695250  1.0  0.6663
  C  C488  1  0.246300  0.203750  0.715500  1.0  -0.1049
  C  C489  1  0.216710  0.202900  0.667140  1.0  -0.0521
  C  C490  1  0.187760  0.217240  0.685730  1.0  -0.1692
  C  C491  1  0.188100  0.232520  0.749030  1.0  0.0316
  C  C492  1  0.217360  0.232690  0.797490  1.0  -0.18
  C  C493  1  0.245820  0.218150  0.778190  1.0  -0.0457
  C  C494  1  0.160360  0.251830  0.765930  1.0  -0.0245
  C  C495  1  0.178850  0.290830  0.800400  1.0  -0.1449
  C  C496  1  0.945720  0.523030  0.028590  1.0  0.666
  C  C497  1  0.912960  0.537090  0.048840  1.0  -0.1049
  C  C498  1  0.883370  0.536240  0.000480  1.0  -0.0521
  C  C499  1  0.854420  0.550580  0.019070  1.0  -0.1692
  C  C500  1  0.854760  0.565860  0.082370  1.0  0.0316
  C  C501  1  0.884020  0.566030  0.130830  1.0  -0.18
  C  C502  1  0.912480  0.551490  0.111530  1.0  -0.0461
  C  C503  1  0.827020  0.585170  0.099270  1.0  -0.0155
  C  C504  1  0.845510  0.624170  0.133740  1.0  -0.1378
  C  C505  1  0.143640  0.756030  0.361920  1.0  0.6685
  C  C506  1  0.129580  0.709210  0.382170  1.0  -0.1029
  C  C507  1  0.130430  0.680470  0.333810  1.0  -0.0518
  C  C508  1  0.116090  0.637180  0.352400  1.0  -0.1709
  C  C509  1  0.100810  0.622240  0.415700  1.0  0.031
  C  C510  1  0.100640  0.651330  0.464160  1.0  -0.1829
  C  C511  1  0.115180  0.694330  0.444860  1.0  -0.0496
  C  C512  1  0.081500  0.575190  0.432600  1.0  -0.0171
  C  C513  1  0.042500  0.554680  0.467070  1.0  -0.1376
  C  C514  1  0.810310  0.089360  0.695250  1.0  0.6672
  C  C515  1  0.796250  0.042540  0.715500  1.0  -0.1029
  C  C516  1  0.797100  0.013800  0.667140  1.0  -0.0518
  C  C517  1  0.782760  0.970510  0.685730  1.0  -0.1709
  C  C518  1  0.767480  0.955570  0.749030  1.0  0.031
  C  C519  1  0.767310  0.984660  0.797490  1.0  -0.1829
  C  C520  1  0.781850  0.027660  0.778190  1.0  -0.0496
  C  C521  1  0.748170  0.908520  0.765930  1.0  -0.0171
  C  C522  1  0.709170  0.888010  0.800400  1.0  -0.1376
  C  C523  1  0.476970  0.422700  0.028590  1.0  0.6685
  C  C524  1  0.462910  0.375880  0.048840  1.0  -0.1029
  C  C525  1  0.463760  0.347140  0.000480  1.0  -0.0518
  C  C526  1  0.449420  0.303850  0.019070  1.0  -0.1709
  C  C527  1  0.434140  0.288910  0.082370  1.0  0.031
  C  C528  1  0.433970  0.318000  0.130830  1.0  -0.1829
  C  C529  1  0.448510  0.361000  0.111530  1.0  -0.0492
  C  C530  1  0.414830  0.241860  0.099270  1.0  -0.0262
  C  C531  1  0.375830  0.221350  0.133740  1.0  -0.1446
  C  C532  1  0.387610  0.243970  0.638080  1.0  0.6683
  C  C533  1  0.420370  0.290790  0.617830  1.0  -0.1038
  C  C534  1  0.449960  0.319530  0.666190  1.0  -0.0522
  C  C535  1  0.478910  0.362820  0.647600  1.0  -0.1708
  C  C536  1  0.478570  0.377760  0.584300  1.0  0.0308
  C  C537  1  0.449310  0.348670  0.535840  1.0  -0.1782
  C  C538  1  0.420850  0.305670  0.555140  1.0  -0.0487
  C  C539  1  0.506310  0.424810  0.567400  1.0  -0.0269
  C  C540  1  0.487820  0.445320  0.532930  1.0  -0.1449
  C  C541  1  0.054280  0.577300  0.971410  1.0  0.6674
  C  C542  1  0.087040  0.624120  0.951160  1.0  -0.1038
  C  C543  1  0.116630  0.652860  0.999520  1.0  -0.0523
  C  C544  1  0.145580  0.696150  0.980930  1.0  -0.171
  C  C545  1  0.145240  0.711090  0.917630  1.0  0.0308
  C  C546  1  0.115980  0.682000  0.869170  1.0  -0.1782
  C  C547  1  0.087520  0.639000  0.888470  1.0  -0.0487
  C  C548  1  0.172980  0.758140  0.900730  1.0  -0.0269
  C  C549  1  0.154490  0.778650  0.866260  1.0  -0.1449
  C  C550  1  0.720940  0.910640  0.304750  1.0  0.667
  C  C551  1  0.753700  0.957460  0.284500  1.0  -0.1038
  C  C552  1  0.783290  0.986200  0.332860  1.0  -0.0522
  C  C553  1  0.812240  0.029490  0.314270  1.0  -0.1708
  C  C554  1  0.811900  0.044430  0.250970  1.0  0.0308
  C  C555  1  0.782640  0.015340  0.202510  1.0  -0.1782
  C  C556  1  0.754180  0.972340  0.221810  1.0  -0.0487
  C  C557  1  0.839640  0.091480  0.234070  1.0  -0.0269
  C  C558  1  0.821150  0.111990  0.199600  1.0  -0.1449
  C  C559  1  0.856360  0.612390  0.638080  1.0  0.6676
  C  C560  1  0.870420  0.579630  0.617830  1.0  -0.1041
  C  C561  1  0.869570  0.550040  0.666190  1.0  -0.0528
  C  C562  1  0.883910  0.521090  0.647600  1.0  -0.1683
  C  C563  1  0.899190  0.521430  0.584300  1.0  0.0332
  C  C564  1  0.899360  0.550690  0.535840  1.0  -0.179
  C  C565  1  0.884820  0.579150  0.555140  1.0  -0.0499
  C  C566  1  0.918500  0.493690  0.567400  1.0  -0.0268
  C  C567  1  0.957500  0.512180  0.532930  1.0  -0.1411
  C  C568  1  0.523030  0.945720  0.971410  1.0  0.6673
  C  C569  1  0.537090  0.912960  0.951160  1.0  -0.1041
  C  C570  1  0.536240  0.883370  0.999520  1.0  -0.0529
  C  C571  1  0.550580  0.854420  0.980930  1.0  -0.1683
  C  C572  1  0.565860  0.854760  0.917630  1.0  0.0332
  C  C573  1  0.566030  0.884020  0.869170  1.0  -0.179
  C  C574  1  0.551490  0.912480  0.888470  1.0  -0.0499
  C  C575  1  0.585170  0.827020  0.900730  1.0  -0.0175
  C  C576  1  0.624170  0.845510  0.866260  1.0  -0.1336
  C  C577  1  0.189690  0.279060  0.304750  1.0  0.6676
  C  C578  1  0.203750  0.246300  0.284500  1.0  -0.1041
  C  C579  1  0.202900  0.216710  0.332860  1.0  -0.0528
  C  C580  1  0.217240  0.187760  0.314270  1.0  -0.1683
  C  C581  1  0.232520  0.188100  0.250970  1.0  0.0332
  C  C582  1  0.232690  0.217360  0.202510  1.0  -0.179
  C  C583  1  0.218150  0.245820  0.221810  1.0  -0.0494
  C  C584  1  0.251830  0.160360  0.234070  1.0  -0.0268
  C  C585  1  0.290830  0.178850  0.199600  1.0  -0.1411
  C  C586  1  0.756030  0.143640  0.638080  1.0  0.6674
  C  C587  1  0.709210  0.129580  0.617830  1.0  -0.1049
  C  C588  1  0.680470  0.130430  0.666190  1.0  -0.0524
  C  C589  1  0.637180  0.116090  0.647600  1.0  -0.17
  C  C590  1  0.622240  0.100810  0.584300  1.0  0.0318
  C  C591  1  0.651330  0.100640  0.535840  1.0  -0.1762
  C  C592  1  0.694330  0.115180  0.555140  1.0  -0.0483
  C  C593  1  0.575190  0.081500  0.567400  1.0  -0.0166
  C  C594  1  0.554680  0.042500  0.532930  1.0  -0.1382
  C  C595  1  0.422700  0.476970  0.971410  1.0  0.6674
  C  C596  1  0.375880  0.462910  0.951160  1.0  -0.1048
  C  C597  1  0.347140  0.463760  0.999520  1.0  -0.0524
  C  C598  1  0.303850  0.449420  0.980930  1.0  -0.17
  C  C599  1  0.288910  0.434140  0.917630  1.0  0.0318
  C  C600  1  0.318000  0.433970  0.869170  1.0  -0.1762
  C  C601  1  0.361000  0.448510  0.888470  1.0  -0.0479
  C  C602  1  0.241860  0.414830  0.900730  1.0  -0.0249
  C  C603  1  0.221350  0.375830  0.866260  1.0  -0.1449
  C  C604  1  0.089360  0.810310  0.304750  1.0  0.6662
  C  C605  1  0.042540  0.796250  0.284500  1.0  -0.1049
  C  C606  1  0.013800  0.797100  0.332860  1.0  -0.0524
  C  C607  1  0.970510  0.782760  0.314270  1.0  -0.17
  C  C608  1  0.955570  0.767480  0.250970  1.0  0.0318
  C  C609  1  0.984660  0.767310  0.202510  1.0  -0.1762
  C  C610  1  0.027660  0.781850  0.221810  1.0  -0.0483
  C  C611  1  0.908520  0.748170  0.234070  1.0  -0.0166
  C  C612  1  0.888010  0.709170  0.199600  1.0  -0.1382
  C  C613  1  0.510730  0.489270  0.515500  1.0  -0.0216
  C  C614  1  0.550660  0.449340  0.583900  1.0  0.1702
  C  C615  1  0.590310  0.409690  0.572100  1.0  -0.0194
  C  C616  1  0.609940  0.390060  0.625300  1.0  -0.3516
  C  C617  1  0.177400  0.822600  0.848830  1.0  -0.0216
  C  C618  1  0.217330  0.782670  0.917230  1.0  0.1699
  C  C619  1  0.256980  0.743020  0.905430  1.0  -0.0194
  C  C620  1  0.276610  0.723390  0.958630  1.0  -0.3516
  C  C621  1  0.844060  0.155940  0.182170  1.0  -0.0216
  C  C622  1  0.883990  0.116010  0.250570  1.0  0.1702
  C  C623  1  0.923640  0.076360  0.238770  1.0  -0.0194
  C  C624  1  0.943270  0.056730  0.291970  1.0  -0.3516
  C  C625  1  0.510730  0.021460  0.515500  1.0  -0.0196
  C  C626  1  0.550660  0.101320  0.583900  1.0  0.1693
  C  C627  1  0.590310  0.180620  0.572100  1.0  -0.0229
  C  C628  1  0.609940  0.219880  0.625300  1.0  -0.3527
  C  C629  1  0.177400  0.354790  0.848830  1.0  -0.0196
  C  C630  1  0.217330  0.434650  0.917230  1.0  0.1689
  C  C631  1  0.256980  0.513950  0.905430  1.0  -0.0229
  C  C632  1  0.276610  0.553210  0.958630  1.0  -0.3527
  C  C633  1  0.844060  0.688130  0.182170  1.0  -0.0196
  C  C634  1  0.883990  0.767990  0.250570  1.0  0.1693
  C  C635  1  0.923640  0.847290  0.238770  1.0  -0.0229
  C  C636  1  0.943270  0.886550  0.291970  1.0  -0.3527
  C  C637  1  0.978540  0.489270  0.515500  1.0  -0.0207
  C  C638  1  0.898680  0.449340  0.583900  1.0  0.1691
  C  C639  1  0.819380  0.409690  0.572100  1.0  -0.0175
  C  C640  1  0.780120  0.390060  0.625300  1.0  -0.3505
  C  C641  1  0.645210  0.822600  0.848830  1.0  -0.0207
  C  C642  1  0.565350  0.782670  0.917230  1.0  0.1688
  C  C643  1  0.486050  0.743020  0.905430  1.0  -0.0175
  C  C644  1  0.446790  0.723390  0.958630  1.0  -0.3505
  C  C645  1  0.311870  0.155940  0.182170  1.0  -0.0207
  C  C646  1  0.232010  0.116010  0.250570  1.0  0.1691
  C  C647  1  0.152710  0.076360  0.238770  1.0  -0.0175
  C  C648  1  0.113450  0.056730  0.291970  1.0  -0.3505
  C  C649  1  0.489270  0.510730  0.484500  1.0  -0.0224
  C  C650  1  0.449340  0.550660  0.416100  1.0  0.1705
  C  C651  1  0.409690  0.590310  0.427900  1.0  -0.0173
  C  C652  1  0.390060  0.609940  0.374700  1.0  -0.3512
  C  C653  1  0.155940  0.844060  0.817830  1.0  -0.0224
  C  C654  1  0.116010  0.883990  0.749430  1.0  0.1705
  C  C655  1  0.076360  0.923640  0.761230  1.0  -0.0173
  C  C656  1  0.056730  0.943270  0.708030  1.0  -0.3512
  C  C657  1  0.822600  0.177400  0.151170  1.0  -0.0224
  C  C658  1  0.782670  0.217330  0.082770  1.0  0.1703
  C  C659  1  0.743020  0.256980  0.094570  1.0  -0.0173
  C  C660  1  0.723390  0.276610  0.041370  1.0  -0.3512
  C  C661  1  0.021460  0.510730  0.484500  1.0  -0.0211
  C  C662  1  0.101320  0.550660  0.416100  1.0  0.1698
  C  C663  1  0.180620  0.590310  0.427900  1.0  -0.0174
  C  C664  1  0.219880  0.609940  0.374700  1.0  -0.3542
  C  C665  1  0.688130  0.844060  0.817830  1.0  -0.0211
  C  C666  1  0.767990  0.883990  0.749430  1.0  0.1698
  C  C667  1  0.847290  0.923640  0.761230  1.0  -0.0174
  C  C668  1  0.886550  0.943270  0.708030  1.0  -0.3542
  C  C669  1  0.354790  0.177400  0.151170  1.0  -0.0211
  C  C670  1  0.434650  0.217330  0.082770  1.0  0.1695
  C  C671  1  0.513950  0.256980  0.094570  1.0  -0.0174
  C  C672  1  0.553210  0.276610  0.041370  1.0  -0.3542
  C  C673  1  0.489270  0.978540  0.484500  1.0  -0.0196
  C  C674  1  0.449340  0.898680  0.416100  1.0  0.1698
  C  C675  1  0.409690  0.819380  0.427900  1.0  -0.0199
  C  C676  1  0.390060  0.780120  0.374700  1.0  -0.3521
  C  C677  1  0.155940  0.311870  0.817830  1.0  -0.0196
  C  C678  1  0.116010  0.232010  0.749430  1.0  0.1698
  C  C679  1  0.076360  0.152710  0.761230  1.0  -0.0199
  C  C680  1  0.056730  0.113450  0.708030  1.0  -0.3521
  C  C681  1  0.822600  0.645210  0.151170  1.0  -0.0196
  C  C682  1  0.782670  0.565350  0.082770  1.0  0.1695
  C  C683  1  0.743020  0.486050  0.094570  1.0  -0.0199
  C  C684  1  0.723390  0.446790  0.041370  1.0  -0.3521
  O  O685  1  0.780130  0.637810  0.591780  1.0  -0.571
  O  O686  1  0.766720  0.611290  0.697520  1.0  -0.5496
  O  O687  1  0.446800  0.971140  0.925110  1.0  -0.5711
  O  O688  1  0.433390  0.944620  0.030850  1.0  -0.5496
  O  O689  1  0.113460  0.304480  0.258450  1.0  -0.5722
  O  O690  1  0.100050  0.277960  0.364190  1.0  -0.5496
  O  O691  1  0.362190  0.142320  0.591780  1.0  -0.5706
  O  O692  1  0.388710  0.155430  0.697520  1.0  -0.5492
  O  O693  1  0.028860  0.475650  0.925110  1.0  -0.5708
  O  O694  1  0.055380  0.488760  0.030850  1.0  -0.5493
  O  O695  1  0.695520  0.808990  0.258450  1.0  -0.5694
  O  O696  1  0.722040  0.822100  0.364190  1.0  -0.5497
  O  O697  1  0.857680  0.219870  0.591780  1.0  -0.5712
  O  O698  1  0.844570  0.233280  0.697520  1.0  -0.55
  O  O699  1  0.524350  0.553200  0.925110  1.0  -0.5711
  O  O700  1  0.511240  0.566610  0.030850  1.0  -0.5501
  O  O701  1  0.191010  0.886540  0.258450  1.0  -0.5712
  O  O702  1  0.177900  0.899950  0.364190  1.0  -0.55
  O  O703  1  0.637810  0.780130  0.408220  1.0  -0.5686
  O  O704  1  0.611290  0.766720  0.302480  1.0  -0.5494
  O  O705  1  0.304480  0.113460  0.741550  1.0  -0.5707
  O  O706  1  0.277960  0.100050  0.635810  1.0  -0.5493
  O  O707  1  0.971140  0.446800  0.074890  1.0  -0.5686
  O  O708  1  0.944620  0.433390  0.969150  1.0  -0.5494
  O  O709  1  0.142320  0.362190  0.408220  1.0  -0.5716
  O  O710  1  0.155430  0.388710  0.302480  1.0  -0.5498
  O  O711  1  0.808990  0.695520  0.741550  1.0  -0.5703
  O  O712  1  0.822100  0.722040  0.635810  1.0  -0.5505
  O  O713  1  0.475650  0.028860  0.074890  1.0  -0.5717
  O  O714  1  0.488760  0.055380  0.969150  1.0  -0.5499
  O  O715  1  0.219870  0.857680  0.408220  1.0  -0.5704
  O  O716  1  0.233280  0.844570  0.302480  1.0  -0.55
  O  O717  1  0.886540  0.191010  0.741550  1.0  -0.5704
  O  O718  1  0.899950  0.177900  0.635810  1.0  -0.55
  O  O719  1  0.553200  0.524350  0.074890  1.0  -0.5704
  O  O720  1  0.566610  0.511240  0.969150  1.0  -0.55
  O  O721  1  0.219870  0.362190  0.408220  1.0  -0.5705
  O  O722  1  0.233280  0.388710  0.302480  1.0  -0.5499
  O  O723  1  0.886540  0.695520  0.741550  1.0  -0.5722
  O  O724  1  0.899950  0.722040  0.635810  1.0  -0.5502
  O  O725  1  0.553200  0.028860  0.074890  1.0  -0.5705
  O  O726  1  0.566610  0.055380  0.969150  1.0  -0.5499
  O  O727  1  0.637810  0.857680  0.408220  1.0  -0.5707
  O  O728  1  0.611290  0.844570  0.302480  1.0  -0.5503
  O  O729  1  0.304480  0.191010  0.741550  1.0  -0.5694
  O  O730  1  0.277960  0.177900  0.635810  1.0  -0.5509
  O  O731  1  0.971140  0.524350  0.074890  1.0  -0.5708
  O  O732  1  0.944620  0.511240  0.969150  1.0  -0.5503
  O  O733  1  0.142320  0.780130  0.408220  1.0  -0.5724
  O  O734  1  0.155430  0.766720  0.302480  1.0  -0.5489
  O  O735  1  0.808990  0.113460  0.741550  1.0  -0.5724
  O  O736  1  0.822100  0.100050  0.635810  1.0  -0.549
  O  O737  1  0.475650  0.446800  0.074890  1.0  -0.5724
  O  O738  1  0.488760  0.433390  0.969150  1.0  -0.5489
  O  O739  1  0.362190  0.219870  0.591780  1.0  -0.5696
  O  O740  1  0.388710  0.233280  0.697520  1.0  -0.5485
  O  O741  1  0.028860  0.553200  0.925110  1.0  -0.5697
  O  O742  1  0.055380  0.566610  0.030850  1.0  -0.5485
  O  O743  1  0.695520  0.886540  0.258450  1.0  -0.5717
  O  O744  1  0.722040  0.899950  0.364190  1.0  -0.5486
  O  O745  1  0.857680  0.637810  0.591780  1.0  -0.5726
  O  O746  1  0.844570  0.611290  0.697520  1.0  -0.5499
  O  O747  1  0.524350  0.971140  0.925110  1.0  -0.5727
  O  O748  1  0.511240  0.944620  0.030850  1.0  -0.5499
  O  O749  1  0.191010  0.304480  0.258450  1.0  -0.5709
  O  O750  1  0.177900  0.277960  0.364190  1.0  -0.5502
  O  O751  1  0.780130  0.142320  0.591780  1.0  -0.5708
  O  O752  1  0.766720  0.155430  0.697520  1.0  -0.5501
  O  O753  1  0.446800  0.475650  0.925110  1.0  -0.5707
  O  O754  1  0.433390  0.488760  0.030850  1.0  -0.5502
  O  O755  1  0.113460  0.808990  0.258450  1.0  -0.5708
  O  O756  1  0.100050  0.822100  0.364190  1.0  -0.5502
  O  O757  1  0.570920  0.429080  0.617000  1.0  -0.2902
  O  O758  1  0.237590  0.762410  0.950330  1.0  -0.2902
  O  O759  1  0.904250  0.095750  0.283670  1.0  -0.2902
  O  O760  1  0.570920  0.141840  0.617000  1.0  -0.2913
  O  O761  1  0.237590  0.475170  0.950330  1.0  -0.2913
  O  O762  1  0.904250  0.808510  0.283670  1.0  -0.2913
  O  O763  1  0.858160  0.429080  0.617000  1.0  -0.2903
  O  O764  1  0.524830  0.762410  0.950330  1.0  -0.2903
  O  O765  1  0.191490  0.095750  0.283670  1.0  -0.2903
  O  O766  1  0.429080  0.570920  0.383000  1.0  -0.2876
  O  O767  1  0.095750  0.904250  0.716330  1.0  -0.2876
  O  O768  1  0.762410  0.237590  0.049670  1.0  -0.2876
  O  O769  1  0.141840  0.570920  0.383000  1.0  -0.2877
  O  O770  1  0.808510  0.904250  0.716330  1.0  -0.2877
  O  O771  1  0.475170  0.237590  0.049670  1.0  -0.2877
  O  O772  1  0.429080  0.858160  0.383000  1.0  -0.2884
  O  O773  1  0.095750  0.191490  0.716330  1.0  -0.2883
  O  O774  1  0.762410  0.524830  0.049670  1.0  -0.2884
