# generated using pymatgen
data_CuH12C21O5
_symmetry_space_group_name_H-M   'P 1'
_cell_length_a   35.71920000
_cell_length_b   35.71920000
_cell_length_c   17.10930000
_cell_angle_alpha   90.00000000
_cell_angle_beta   90.00000000
_cell_angle_gamma   120.00000000
_symmetry_Int_Tables_number   1
_chemical_formula_structural   CuH12C21O5
_chemical_formula_sum   'Cu18 H216 C378 O90'
_cell_volume   18904.54895950
_cell_formula_units_Z   18
loop_
 _symmetry_equiv_pos_site_id
 _symmetry_equiv_pos_as_xyz
  1  'x, y, z'
loop_
 _atom_site_type_symbol
 _atom_site_label
 _atom_site_symmetry_multiplicity
 _atom_site_fract_x
 _atom_site_fract_y
 _atom_site_fract_z
 _atom_site_occupancy
 _atom_site_charge
  Cu  Cu1  1  0.838920  0.161080  0.092330  1.0  0.8826
  Cu  Cu2  1  0.505590  0.494410  0.425660  1.0  0.8821
  Cu  Cu3  1  0.172250  0.827750  0.759000  1.0  0.8826
  Cu  Cu4  1  0.838920  0.677840  0.092330  1.0  0.8835
  Cu  Cu5  1  0.505590  0.011170  0.425660  1.0  0.8845
  Cu  Cu6  1  0.172250  0.344510  0.759000  1.0  0.8835
  Cu  Cu7  1  0.322160  0.161080  0.092330  1.0  0.883
  Cu  Cu8  1  0.988830  0.494410  0.425660  1.0  0.8838
  Cu  Cu9  1  0.655490  0.827750  0.759000  1.0  0.883
  Cu  Cu10  1  0.161080  0.838920  0.907670  1.0  0.8828
  Cu  Cu11  1  0.827750  0.172250  0.241000  1.0  0.8828
  Cu  Cu12  1  0.494410  0.505590  0.574340  1.0  0.8822
  Cu  Cu13  1  0.677840  0.838920  0.907670  1.0  0.8823
  Cu  Cu14  1  0.344510  0.172250  0.241000  1.0  0.8823
  Cu  Cu15  1  0.011170  0.505590  0.574340  1.0  0.8831
  Cu  Cu16  1  0.161080  0.322160  0.907670  1.0  0.883
  Cu  Cu17  1  0.827750  0.655490  0.241000  1.0  0.883
  Cu  Cu18  1  0.494410  0.988830  0.574340  1.0  0.8838
  H  H19  1  0.974900  0.196600  0.096900  1.0  0.103
  H  H20  1  0.954300  0.211200  0.323500  1.0  0.1024
  H  H21  1  0.047100  0.219600  0.126000  1.0  0.0957
  H  H22  1  0.027200  0.235900  0.351100  1.0  0.112
  H  H23  1  0.096100  0.304600  0.306600  1.0  0.1017
  H  H24  1  0.054300  0.153800  0.288800  1.0  0.1302
  H  H25  1  0.641570  0.529930  0.430230  1.0  0.103
  H  H26  1  0.620970  0.544530  0.656830  1.0  0.1024
  H  H27  1  0.713770  0.552930  0.459330  1.0  0.0957
  H  H28  1  0.693870  0.569230  0.684430  1.0  0.112
  H  H29  1  0.762770  0.637930  0.639930  1.0  0.1017
  H  H30  1  0.720970  0.487130  0.622130  1.0  0.1302
  H  H31  1  0.308230  0.863270  0.763570  1.0  0.103
  H  H32  1  0.287630  0.877870  0.990170  1.0  0.1024
  H  H33  1  0.380430  0.886270  0.792670  1.0  0.0957
  H  H34  1  0.360530  0.902570  0.017770  1.0  0.112
  H  H35  1  0.429430  0.971270  0.973270  1.0  0.1019
  H  H36  1  0.387630  0.820470  0.955470  1.0  0.1302
  H  H37  1  0.803400  0.778300  0.096900  1.0  0.1027
  H  H38  1  0.788800  0.743100  0.323500  1.0  0.1021
  H  H39  1  0.780400  0.827500  0.126000  1.0  0.0956
  H  H40  1  0.764100  0.791300  0.351100  1.0  0.1115
  H  H41  1  0.695400  0.791500  0.306600  1.0  0.1014
  H  H42  1  0.846200  0.900500  0.288800  1.0  0.1319
  H  H43  1  0.470070  0.111630  0.430230  1.0  0.1026
  H  H44  1  0.455470  0.076430  0.656830  1.0  0.1021
  H  H45  1  0.447070  0.160830  0.459330  1.0  0.0956
  H  H46  1  0.430770  0.124630  0.684430  1.0  0.1115
  H  H47  1  0.362070  0.124830  0.639930  1.0  0.1014
  H  H48  1  0.512870  0.233830  0.622130  1.0  0.1319
  H  H49  1  0.136730  0.444970  0.763570  1.0  0.1027
  H  H50  1  0.122130  0.409770  0.990170  1.0  0.1021
  H  H51  1  0.113730  0.494170  0.792670  1.0  0.0956
  H  H52  1  0.097430  0.457970  0.017770  1.0  0.1115
  H  H53  1  0.028730  0.458170  0.973270  1.0  0.1014
  H  H54  1  0.179530  0.567170  0.955470  1.0  0.1319
  H  H55  1  0.221700  0.025100  0.096900  1.0  0.1025
  H  H56  1  0.256900  0.045700  0.323500  1.0  0.102
  H  H57  1  0.172500  0.952900  0.126000  1.0  0.0953
  H  H58  1  0.208700  0.972800  0.351100  1.0  0.1107
  H  H59  1  0.208500  0.903900  0.306600  1.0  0.101
  H  H60  1  0.099500  0.945700  0.288800  1.0  0.1301
  H  H61  1  0.888370  0.358430  0.430230  1.0  0.1026
  H  H62  1  0.923570  0.379030  0.656830  1.0  0.1019
  H  H63  1  0.839170  0.286230  0.459330  1.0  0.0953
  H  H64  1  0.875370  0.306130  0.684430  1.0  0.1106
  H  H65  1  0.875170  0.237230  0.639930  1.0  0.101
  H  H66  1  0.766170  0.279030  0.622130  1.0  0.1301
  H  H67  1  0.555030  0.691770  0.763570  1.0  0.1025
  H  H68  1  0.590230  0.712370  0.990170  1.0  0.1019
  H  H69  1  0.505830  0.619570  0.792670  1.0  0.0953
  H  H70  1  0.542030  0.639470  0.017770  1.0  0.1107
  H  H71  1  0.541830  0.570570  0.973270  1.0  0.101
  H  H72  1  0.432830  0.612370  0.955470  1.0  0.1301
  H  H73  1  0.196600  0.974900  0.903100  1.0  0.1034
  H  H74  1  0.211200  0.954300  0.676500  1.0  0.1014
  H  H75  1  0.219600  0.047100  0.874000  1.0  0.0964
  H  H76  1  0.235900  0.027200  0.648900  1.0  0.1116
  H  H77  1  0.304600  0.096100  0.693400  1.0  0.1013
  H  H78  1  0.153800  0.054300  0.711200  1.0  0.1315
  H  H79  1  0.863270  0.308230  0.236430  1.0  0.1034
  H  H80  1  0.877870  0.287630  0.009830  1.0  0.1014
  H  H81  1  0.886270  0.380430  0.207330  1.0  0.0964
  H  H82  1  0.902570  0.360530  0.982230  1.0  0.1116
  H  H83  1  0.971270  0.429430  0.026730  1.0  0.1013
  H  H84  1  0.820470  0.387630  0.044530  1.0  0.1315
  H  H85  1  0.529930  0.641570  0.569770  1.0  0.1034
  H  H86  1  0.544530  0.620970  0.343170  1.0  0.1014
  H  H87  1  0.552930  0.713770  0.540670  1.0  0.0964
  H  H88  1  0.569230  0.693870  0.315570  1.0  0.1116
  H  H89  1  0.637930  0.762770  0.360070  1.0  0.1013
  H  H90  1  0.487130  0.720970  0.377870  1.0  0.1315
  H  H91  1  0.778300  0.803400  0.903100  1.0  0.1035
  H  H92  1  0.743100  0.788800  0.676500  1.0  0.102
  H  H93  1  0.827500  0.780400  0.874000  1.0  0.0964
  H  H94  1  0.791300  0.764100  0.648900  1.0  0.1125
  H  H95  1  0.791500  0.695400  0.693400  1.0  0.1019
  H  H96  1  0.900500  0.846200  0.711200  1.0  0.1302
  H  H97  1  0.444970  0.136730  0.236430  1.0  0.1035
  H  H98  1  0.409770  0.122130  0.009830  1.0  0.1021
  H  H99  1  0.494170  0.113730  0.207330  1.0  0.0964
  H  H100  1  0.457970  0.097430  0.982230  1.0  0.1125
  H  H101  1  0.458170  0.028730  0.026730  1.0  0.102
  H  H102  1  0.567170  0.179530  0.044530  1.0  0.1302
  H  H103  1  0.111630  0.470070  0.569770  1.0  0.1034
  H  H104  1  0.076430  0.455470  0.343170  1.0  0.102
  H  H105  1  0.160830  0.447070  0.540670  1.0  0.0964
  H  H106  1  0.124630  0.430770  0.315570  1.0  0.1125
  H  H107  1  0.124830  0.362070  0.360070  1.0  0.1019
  H  H108  1  0.233830  0.512870  0.377870  1.0  0.1302
  H  H109  1  0.025100  0.221700  0.903100  1.0  0.1033
  H  H110  1  0.045700  0.256900  0.676500  1.0  0.1018
  H  H111  1  0.952900  0.172500  0.874000  1.0  0.0959
  H  H112  1  0.972800  0.208700  0.648900  1.0  0.1122
  H  H113  1  0.903900  0.208500  0.693400  1.0  0.1033
  H  H114  1  0.945700  0.099500  0.711200  1.0  0.1304
  H  H115  1  0.691770  0.555030  0.236430  1.0  0.1033
  H  H116  1  0.712370  0.590230  0.009830  1.0  0.1018
  H  H117  1  0.619570  0.505830  0.207330  1.0  0.0959
  H  H118  1  0.639470  0.542030  0.982230  1.0  0.1122
  H  H119  1  0.570570  0.541830  0.026730  1.0  0.1032
  H  H120  1  0.612370  0.432830  0.044530  1.0  0.1304
  H  H121  1  0.358430  0.888370  0.569770  1.0  0.1034
  H  H122  1  0.379030  0.923570  0.343170  1.0  0.1018
  H  H123  1  0.286230  0.839170  0.540670  1.0  0.0959
  H  H124  1  0.306130  0.875370  0.315570  1.0  0.1122
  H  H125  1  0.237230  0.875170  0.360070  1.0  0.1033
  H  H126  1  0.279030  0.766170  0.377870  1.0  0.1304
  H  H127  1  0.025100  0.803400  0.903100  1.0  0.1034
  H  H128  1  0.045700  0.788800  0.676500  1.0  0.102
  H  H129  1  0.952900  0.780400  0.874000  1.0  0.0964
  H  H130  1  0.972800  0.764100  0.648900  1.0  0.1124
  H  H131  1  0.903900  0.695400  0.693400  1.0  0.1038
  H  H132  1  0.945700  0.846200  0.711200  1.0  0.1311
  H  H133  1  0.691770  0.136730  0.236430  1.0  0.1034
  H  H134  1  0.712370  0.122130  0.009830  1.0  0.102
  H  H135  1  0.619570  0.113730  0.207330  1.0  0.0964
  H  H136  1  0.639470  0.097430  0.982230  1.0  0.1124
  H  H137  1  0.570570  0.028730  0.026730  1.0  0.102
  H  H138  1  0.612370  0.179530  0.044530  1.0  0.1311
  H  H139  1  0.358430  0.470070  0.569770  1.0  0.1034
  H  H140  1  0.379030  0.455470  0.343170  1.0  0.102
  H  H141  1  0.286230  0.447070  0.540670  1.0  0.0964
  H  H142  1  0.306130  0.430770  0.315570  1.0  0.1124
  H  H143  1  0.237230  0.362070  0.360070  1.0  0.1038
  H  H144  1  0.279030  0.512870  0.377870  1.0  0.1311
  H  H145  1  0.196600  0.221700  0.903100  1.0  0.1035
  H  H146  1  0.211200  0.256900  0.676500  1.0  0.1016
  H  H147  1  0.219600  0.172500  0.874000  1.0  0.0963
  H  H148  1  0.235900  0.208700  0.648900  1.0  0.1124
  H  H149  1  0.304600  0.208500  0.693400  1.0  0.1021
  H  H150  1  0.153800  0.099500  0.711200  1.0  0.1302
  H  H151  1  0.863270  0.555030  0.236430  1.0  0.1035
  H  H152  1  0.877870  0.590230  0.009830  1.0  0.1016
  H  H153  1  0.886270  0.505830  0.207330  1.0  0.0963
  H  H154  1  0.902570  0.542030  0.982230  1.0  0.1124
  H  H155  1  0.971270  0.541830  0.026730  1.0  0.1022
  H  H156  1  0.820470  0.432830  0.044530  1.0  0.1302
  H  H157  1  0.529930  0.888370  0.569770  1.0  0.1034
  H  H158  1  0.544530  0.923570  0.343170  1.0  0.1016
  H  H159  1  0.552930  0.839170  0.540670  1.0  0.0963
  H  H160  1  0.569230  0.875370  0.315570  1.0  0.1124
  H  H161  1  0.637930  0.875170  0.360070  1.0  0.1021
  H  H162  1  0.487130  0.766170  0.377870  1.0  0.1302
  H  H163  1  0.778300  0.974900  0.903100  1.0  0.103
  H  H164  1  0.743100  0.954300  0.676500  1.0  0.1015
  H  H165  1  0.827500  0.047100  0.874000  1.0  0.0962
  H  H166  1  0.791300  0.027200  0.648900  1.0  0.1122
  H  H167  1  0.791500  0.096100  0.693400  1.0  0.1019
  H  H168  1  0.900500  0.054300  0.711200  1.0  0.1304
  H  H169  1  0.444970  0.308230  0.236430  1.0  0.103
  H  H170  1  0.409770  0.287630  0.009830  1.0  0.1014
  H  H171  1  0.494170  0.380430  0.207330  1.0  0.0962
  H  H172  1  0.457970  0.360530  0.982230  1.0  0.1122
  H  H173  1  0.458170  0.429430  0.026730  1.0  0.1018
  H  H174  1  0.567170  0.387630  0.044530  1.0  0.1304
  H  H175  1  0.111630  0.641570  0.569770  1.0  0.1032
  H  H176  1  0.076430  0.620970  0.343170  1.0  0.1014
  H  H177  1  0.160830  0.713770  0.540670  1.0  0.0962
  H  H178  1  0.124630  0.693870  0.315570  1.0  0.1121
  H  H179  1  0.124830  0.762770  0.360070  1.0  0.1019
  H  H180  1  0.233830  0.720970  0.377870  1.0  0.1304
  H  H181  1  0.803400  0.025100  0.096900  1.0  0.1026
  H  H182  1  0.788800  0.045700  0.323500  1.0  0.1017
  H  H183  1  0.780400  0.952900  0.126000  1.0  0.0953
  H  H184  1  0.764100  0.972800  0.351100  1.0  0.111
  H  H185  1  0.695400  0.903900  0.306600  1.0  0.1013
  H  H186  1  0.846200  0.945700  0.288800  1.0  0.1287
  H  H187  1  0.470070  0.358430  0.430230  1.0  0.1026
  H  H188  1  0.455470  0.379030  0.656830  1.0  0.1018
  H  H189  1  0.447070  0.286230  0.459330  1.0  0.0953
  H  H190  1  0.430770  0.306130  0.684430  1.0  0.111
  H  H191  1  0.362070  0.237230  0.639930  1.0  0.1013
  H  H192  1  0.512870  0.279030  0.622130  1.0  0.1287
  H  H193  1  0.136730  0.691770  0.763570  1.0  0.1026
  H  H194  1  0.122130  0.712370  0.990170  1.0  0.1017
  H  H195  1  0.113730  0.619570  0.792670  1.0  0.0953
  H  H196  1  0.097430  0.639470  0.017770  1.0  0.111
  H  H197  1  0.028730  0.570570  0.973270  1.0  0.1013
  H  H198  1  0.179530  0.612370  0.955470  1.0  0.1287
  H  H199  1  0.221700  0.196600  0.096900  1.0  0.1025
  H  H200  1  0.256900  0.211200  0.323500  1.0  0.1025
  H  H201  1  0.172500  0.219600  0.126000  1.0  0.0959
  H  H202  1  0.208700  0.235900  0.351100  1.0  0.1114
  H  H203  1  0.208500  0.304600  0.306600  1.0  0.1017
  H  H204  1  0.099500  0.153800  0.288800  1.0  0.1312
  H  H205  1  0.888370  0.529930  0.430230  1.0  0.1025
  H  H206  1  0.923570  0.544530  0.656830  1.0  0.1025
  H  H207  1  0.839170  0.552930  0.459330  1.0  0.0959
  H  H208  1  0.875370  0.569230  0.684430  1.0  0.1114
  H  H209  1  0.875170  0.637930  0.639930  1.0  0.1017
  H  H210  1  0.766170  0.487130  0.622130  1.0  0.1312
  H  H211  1  0.555030  0.863270  0.763570  1.0  0.1025
  H  H212  1  0.590230  0.877870  0.990170  1.0  0.1025
  H  H213  1  0.505830  0.886270  0.792670  1.0  0.0959
  H  H214  1  0.542030  0.902570  0.017770  1.0  0.1115
  H  H215  1  0.541830  0.971270  0.973270  1.0  0.1018
  H  H216  1  0.432830  0.820470  0.955470  1.0  0.1312
  H  H217  1  0.974900  0.778300  0.096900  1.0  0.1024
  H  H218  1  0.954300  0.743100  0.323500  1.0  0.1021
  H  H219  1  0.047100  0.827500  0.126000  1.0  0.0954
  H  H220  1  0.027200  0.791300  0.351100  1.0  0.1121
  H  H221  1  0.096100  0.791500  0.306600  1.0  0.1008
  H  H222  1  0.054300  0.900500  0.288800  1.0  0.1325
  H  H223  1  0.641570  0.111630  0.430230  1.0  0.1025
  H  H224  1  0.620970  0.076430  0.656830  1.0  0.102
  H  H225  1  0.713770  0.160830  0.459330  1.0  0.0954
  H  H226  1  0.693870  0.124630  0.684430  1.0  0.112
  H  H227  1  0.762770  0.124830  0.639930  1.0  0.1008
  H  H228  1  0.720970  0.233830  0.622130  1.0  0.1325
  H  H229  1  0.308230  0.444970  0.763570  1.0  0.1024
  H  H230  1  0.287630  0.409770  0.990170  1.0  0.102
  H  H231  1  0.380430  0.494170  0.792670  1.0  0.0954
  H  H232  1  0.360530  0.457970  0.017770  1.0  0.1121
  H  H233  1  0.429430  0.458170  0.973270  1.0  0.1007
  H  H234  1  0.387630  0.567170  0.955470  1.0  0.1325
  C  C235  1  0.911260  0.188530  0.189700  1.0  0.6684
  C  C236  1  0.957540  0.202070  0.207600  1.0  -0.1413
  C  C237  1  0.985260  0.204540  0.148900  1.0  -0.0884
  C  C238  1  0.973270  0.213430  0.282600  1.0  -0.0266
  C  C239  1  0.028510  0.218850  0.166400  1.0  -0.1502
  C  C240  1  0.016620  0.228200  0.299100  1.0  -0.1753
  C  C241  1  0.044690  0.231600  0.238300  1.0  0.0779
  C  C242  1  0.091670  0.250870  0.257200  1.0  -0.0456
  C  C243  1  0.112360  0.290900  0.294500  1.0  -0.1436
  C  C244  1  0.577930  0.521860  0.523030  1.0  0.6685
  C  C245  1  0.624210  0.535400  0.540930  1.0  -0.1413
  C  C246  1  0.651930  0.537870  0.482230  1.0  -0.0884
  C  C247  1  0.639940  0.546760  0.615930  1.0  -0.0266
  C  C248  1  0.695180  0.552180  0.499730  1.0  -0.1502
  C  C249  1  0.683290  0.561530  0.632430  1.0  -0.1753
  C  C250  1  0.711360  0.564930  0.571630  1.0  0.0779
  C  C251  1  0.758340  0.584200  0.590530  1.0  -0.0456
  C  C252  1  0.779030  0.624230  0.627830  1.0  -0.1436
  C  C253  1  0.244590  0.855200  0.856370  1.0  0.6684
  C  C254  1  0.290870  0.868740  0.874270  1.0  -0.1414
  C  C255  1  0.318590  0.871210  0.815570  1.0  -0.0884
  C  C256  1  0.306600  0.880100  0.949270  1.0  -0.0266
  C  C257  1  0.361840  0.885520  0.833070  1.0  -0.1502
  C  C258  1  0.349950  0.894870  0.965770  1.0  -0.1753
  C  C259  1  0.378020  0.898270  0.904970  1.0  0.0779
  C  C260  1  0.425000  0.917540  0.923870  1.0  -0.0456
  C  C261  1  0.445690  0.957570  0.961170  1.0  -0.1438
  C  C262  1  0.811470  0.722730  0.189700  1.0  0.6684
  C  C263  1  0.797930  0.755470  0.207600  1.0  -0.1408
  C  C264  1  0.795460  0.780720  0.148900  1.0  -0.0872
  C  C265  1  0.786570  0.759840  0.282600  1.0  -0.0264
  C  C266  1  0.781150  0.809660  0.166400  1.0  -0.1525
  C  C267  1  0.771800  0.788420  0.299100  1.0  -0.1775
  C  C268  1  0.768400  0.813090  0.238300  1.0  0.0784
  C  C269  1  0.749130  0.840800  0.257200  1.0  -0.0447
  C  C270  1  0.709100  0.821460  0.294500  1.0  -0.143
  C  C271  1  0.478140  0.056060  0.523030  1.0  0.6683
  C  C272  1  0.464600  0.088800  0.540930  1.0  -0.1407
  C  C273  1  0.462130  0.114050  0.482230  1.0  -0.0872
  C  C274  1  0.453240  0.093170  0.615930  1.0  -0.0264
  C  C275  1  0.447820  0.142990  0.499730  1.0  -0.1525
  C  C276  1  0.438470  0.121750  0.632430  1.0  -0.1774
  C  C277  1  0.435070  0.146420  0.571630  1.0  0.0784
  C  C278  1  0.415800  0.174130  0.590530  1.0  -0.0447
  C  C279  1  0.375770  0.154790  0.627830  1.0  -0.143
  C  C280  1  0.144800  0.389400  0.856370  1.0  0.6684
  C  C281  1  0.131260  0.422140  0.874270  1.0  -0.1408
  C  C282  1  0.128790  0.447390  0.815570  1.0  -0.0872
  C  C283  1  0.119900  0.426510  0.949270  1.0  -0.0265
  C  C284  1  0.114480  0.476330  0.833070  1.0  -0.1525
  C  C285  1  0.105130  0.455090  0.965770  1.0  -0.1774
  C  C286  1  0.101730  0.479760  0.904970  1.0  0.0784
  C  C287  1  0.082460  0.507470  0.923870  1.0  -0.0448
  C  C288  1  0.042430  0.488130  0.961170  1.0  -0.1437
  C  C289  1  0.277270  0.088740  0.189700  1.0  0.6697
  C  C290  1  0.244530  0.042460  0.207600  1.0  -0.1373
  C  C291  1  0.219280  0.014740  0.148900  1.0  -0.087
  C  C292  1  0.240160  0.026730  0.282600  1.0  -0.0265
  C  C293  1  0.190340  0.971490  0.166400  1.0  -0.1518
  C  C294  1  0.211580  0.983380  0.299100  1.0  -0.1751
  C  C295  1  0.186910  0.955310  0.238300  1.0  0.0778
  C  C296  1  0.159200  0.908330  0.257200  1.0  -0.0455
  C  C297  1  0.178540  0.887640  0.294500  1.0  -0.1439
  C  C298  1  0.943940  0.422070  0.523030  1.0  0.6698
  C  C299  1  0.911200  0.375790  0.540930  1.0  -0.1373
  C  C300  1  0.885950  0.348070  0.482230  1.0  -0.087
  C  C301  1  0.906830  0.360060  0.615930  1.0  -0.0265
  C  C302  1  0.857010  0.304820  0.499730  1.0  -0.1512
  C  C303  1  0.878250  0.316710  0.632430  1.0  -0.1751
  C  C304  1  0.853580  0.288640  0.571630  1.0  0.0778
  C  C305  1  0.825870  0.241660  0.590530  1.0  -0.0455
  C  C306  1  0.845210  0.220970  0.627830  1.0  -0.1439
  C  C307  1  0.610600  0.755410  0.856370  1.0  0.6697
  C  C308  1  0.577860  0.709130  0.874270  1.0  -0.1372
  C  C309  1  0.552610  0.681410  0.815570  1.0  -0.0871
  C  C310  1  0.573490  0.693400  0.949270  1.0  -0.0265
  C  C311  1  0.523670  0.638160  0.833070  1.0  -0.1511
  C  C312  1  0.544910  0.650050  0.965770  1.0  -0.1752
  C  C313  1  0.520240  0.621980  0.904970  1.0  0.0778
  C  C314  1  0.492530  0.575000  0.923870  1.0  -0.0455
  C  C315  1  0.511870  0.554310  0.961170  1.0  -0.1437
  C  C316  1  0.188530  0.911260  0.810300  1.0  0.6692
  C  C317  1  0.202070  0.957540  0.792400  1.0  -0.1392
  C  C318  1  0.204540  0.985260  0.851100  1.0  -0.0881
  C  C319  1  0.213430  0.973270  0.717400  1.0  -0.0266
  C  C320  1  0.218850  0.028510  0.833600  1.0  -0.1504
  C  C321  1  0.228200  0.016620  0.700900  1.0  -0.1745
  C  C322  1  0.231600  0.044690  0.761700  1.0  0.0778
  C  C323  1  0.250870  0.091670  0.742800  1.0  -0.0455
  C  C324  1  0.290900  0.112360  0.705500  1.0  -0.143
  C  C325  1  0.855200  0.244590  0.143630  1.0  0.6692
  C  C326  1  0.868740  0.290870  0.125730  1.0  -0.1393
  C  C327  1  0.871210  0.318590  0.184430  1.0  -0.0881
  C  C328  1  0.880100  0.306600  0.050730  1.0  -0.0266
  C  C329  1  0.885520  0.361840  0.166930  1.0  -0.1504
  C  C330  1  0.894870  0.349950  0.034230  1.0  -0.1745
  C  C331  1  0.898270  0.378020  0.095030  1.0  0.0778
  C  C332  1  0.917540  0.425000  0.076130  1.0  -0.0455
  C  C333  1  0.957570  0.445690  0.038830  1.0  -0.1432
  C  C334  1  0.521860  0.577930  0.476970  1.0  0.6693
  C  C335  1  0.535400  0.624210  0.459070  1.0  -0.1392
  C  C336  1  0.537870  0.651930  0.517770  1.0  -0.0881
  C  C337  1  0.546760  0.639940  0.384070  1.0  -0.0266
  C  C338  1  0.552180  0.695180  0.500270  1.0  -0.1504
  C  C339  1  0.561530  0.683290  0.367570  1.0  -0.1745
  C  C340  1  0.564930  0.711360  0.428370  1.0  0.0778
  C  C341  1  0.584200  0.758340  0.409470  1.0  -0.0455
  C  C342  1  0.624230  0.779030  0.372170  1.0  -0.143
  C  C343  1  0.722730  0.811470  0.810300  1.0  0.6685
  C  C344  1  0.755470  0.797930  0.792400  1.0  -0.1412
  C  C345  1  0.780720  0.795460  0.851100  1.0  -0.0824
  C  C346  1  0.759840  0.786570  0.717400  1.0  -0.0256
  C  C347  1  0.809660  0.781150  0.833600  1.0  -0.1506
  C  C348  1  0.788420  0.771800  0.700900  1.0  -0.1742
  C  C349  1  0.813090  0.768400  0.761700  1.0  0.0773
  C  C350  1  0.840800  0.749130  0.742800  1.0  -0.0449
  C  C351  1  0.821460  0.709100  0.705500  1.0  -0.1425
  C  C352  1  0.389400  0.144800  0.143630  1.0  0.6685
  C  C353  1  0.422140  0.131260  0.125730  1.0  -0.1411
  C  C354  1  0.447390  0.128790  0.184430  1.0  -0.0824
  C  C355  1  0.426510  0.119900  0.050730  1.0  -0.0256
  C  C356  1  0.476330  0.114480  0.166930  1.0  -0.1506
  C  C357  1  0.455090  0.105130  0.034230  1.0  -0.1742
  C  C358  1  0.479760  0.101730  0.095030  1.0  0.0773
  C  C359  1  0.507470  0.082460  0.076130  1.0  -0.0449
  C  C360  1  0.488130  0.042430  0.038830  1.0  -0.1426
  C  C361  1  0.056060  0.478140  0.476970  1.0  0.6683
  C  C362  1  0.088800  0.464600  0.459070  1.0  -0.1411
  C  C363  1  0.114050  0.462130  0.517770  1.0  -0.0824
  C  C364  1  0.093170  0.453240  0.384070  1.0  -0.0256
  C  C365  1  0.142990  0.447820  0.500270  1.0  -0.1506
  C  C366  1  0.121750  0.438470  0.367570  1.0  -0.1742
  C  C367  1  0.146420  0.435070  0.428370  1.0  0.0773
  C  C368  1  0.174130  0.415800  0.409470  1.0  -0.0449
  C  C369  1  0.154790  0.375770  0.372170  1.0  -0.1425
  C  C370  1  0.088740  0.277270  0.810300  1.0  0.6686
  C  C371  1  0.042460  0.244530  0.792400  1.0  -0.1407
  C  C372  1  0.014740  0.219280  0.851100  1.0  -0.0879
  C  C373  1  0.026730  0.240160  0.717400  1.0  -0.0276
  C  C374  1  0.971490  0.190340  0.833600  1.0  -0.1524
  C  C375  1  0.983380  0.211580  0.700900  1.0  -0.1767
  C  C376  1  0.955310  0.186910  0.761700  1.0  0.0778
  C  C377  1  0.908330  0.159200  0.742800  1.0  -0.0449
  C  C378  1  0.887640  0.178540  0.705500  1.0  -0.1424
  C  C379  1  0.755410  0.610600  0.143630  1.0  0.6686
  C  C380  1  0.709130  0.577860  0.125730  1.0  -0.1407
  C  C381  1  0.681410  0.552610  0.184430  1.0  -0.088
  C  C382  1  0.693400  0.573490  0.050730  1.0  -0.0275
  C  C383  1  0.638160  0.523670  0.166930  1.0  -0.1527
  C  C384  1  0.650050  0.544910  0.034230  1.0  -0.1767
  C  C385  1  0.621980  0.520240  0.095030  1.0  0.0778
  C  C386  1  0.575000  0.492530  0.076130  1.0  -0.0449
  C  C387  1  0.554310  0.511870  0.038830  1.0  -0.1422
  C  C388  1  0.422070  0.943940  0.476970  1.0  0.6687
  C  C389  1  0.375790  0.911200  0.459070  1.0  -0.1407
  C  C390  1  0.348070  0.885950  0.517770  1.0  -0.0879
  C  C391  1  0.360060  0.906830  0.384070  1.0  -0.0276
  C  C392  1  0.304820  0.857010  0.500270  1.0  -0.1528
  C  C393  1  0.316710  0.878250  0.367570  1.0  -0.1767
  C  C394  1  0.288640  0.853580  0.428370  1.0  0.0778
  C  C395  1  0.241660  0.825870  0.409470  1.0  -0.0449
  C  C396  1  0.220970  0.845210  0.372170  1.0  -0.1424
  C  C397  1  0.088740  0.811470  0.810300  1.0  0.6678
  C  C398  1  0.042460  0.797930  0.792400  1.0  -0.1408
  C  C399  1  0.014740  0.795460  0.851100  1.0  -0.0876
  C  C400  1  0.026730  0.786570  0.717400  1.0  -0.0251
  C  C401  1  0.971490  0.781150  0.833600  1.0  -0.1515
  C  C402  1  0.983380  0.771800  0.700900  1.0  -0.1763
  C  C403  1  0.955310  0.768400  0.761700  1.0  0.0776
  C  C404  1  0.908330  0.749130  0.742800  1.0  -0.0449
  C  C405  1  0.887640  0.709100  0.705500  1.0  -0.1431
  C  C406  1  0.755410  0.144800  0.143630  1.0  0.6678
  C  C407  1  0.709130  0.131260  0.125730  1.0  -0.1408
  C  C408  1  0.681410  0.128790  0.184430  1.0  -0.0876
  C  C409  1  0.693400  0.119900  0.050730  1.0  -0.0252
  C  C410  1  0.638160  0.114480  0.166930  1.0  -0.1515
  C  C411  1  0.650050  0.105130  0.034230  1.0  -0.1763
  C  C412  1  0.621980  0.101730  0.095030  1.0  0.0776
  C  C413  1  0.575000  0.082460  0.076130  1.0  -0.0449
  C  C414  1  0.554310  0.042430  0.038830  1.0  -0.1431
  C  C415  1  0.422070  0.478140  0.476970  1.0  0.6678
  C  C416  1  0.375790  0.464600  0.459070  1.0  -0.1408
  C  C417  1  0.348070  0.462130  0.517770  1.0  -0.0876
  C  C418  1  0.360060  0.453240  0.384070  1.0  -0.0251
  C  C419  1  0.304820  0.447820  0.500270  1.0  -0.1515
  C  C420  1  0.316710  0.438470  0.367570  1.0  -0.1763
  C  C421  1  0.288640  0.435070  0.428370  1.0  0.0776
  C  C422  1  0.241660  0.415800  0.409470  1.0  -0.0449
  C  C423  1  0.220970  0.375770  0.372170  1.0  -0.1431
  C  C424  1  0.188530  0.277270  0.810300  1.0  0.669
  C  C425  1  0.202070  0.244530  0.792400  1.0  -0.1407
  C  C426  1  0.204540  0.219280  0.851100  1.0  -0.0819
  C  C427  1  0.213430  0.240160  0.717400  1.0  -0.0268
  C  C428  1  0.218850  0.190340  0.833600  1.0  -0.1514
  C  C429  1  0.228200  0.211580  0.700900  1.0  -0.1746
  C  C430  1  0.231600  0.186910  0.761700  1.0  0.0782
  C  C431  1  0.250870  0.159200  0.742800  1.0  -0.044
  C  C432  1  0.290900  0.178540  0.705500  1.0  -0.1417
  C  C433  1  0.855200  0.610600  0.143630  1.0  0.669
  C  C434  1  0.868740  0.577860  0.125730  1.0  -0.1406
  C  C435  1  0.871210  0.552610  0.184430  1.0  -0.0819
  C  C436  1  0.880100  0.573490  0.050730  1.0  -0.0268
  C  C437  1  0.885520  0.523670  0.166930  1.0  -0.1514
  C  C438  1  0.894870  0.544910  0.034230  1.0  -0.1746
  C  C439  1  0.898270  0.520240  0.095030  1.0  0.0782
  C  C440  1  0.917540  0.492530  0.076130  1.0  -0.044
  C  C441  1  0.957570  0.511870  0.038830  1.0  -0.1422
  C  C442  1  0.521860  0.943940  0.476970  1.0  0.6689
  C  C443  1  0.535400  0.911200  0.459070  1.0  -0.1406
  C  C444  1  0.537870  0.885950  0.517770  1.0  -0.0819
  C  C445  1  0.546760  0.906830  0.384070  1.0  -0.0268
  C  C446  1  0.552180  0.857010  0.500270  1.0  -0.1514
  C  C447  1  0.561530  0.878250  0.367570  1.0  -0.1746
  C  C448  1  0.564930  0.853580  0.428370  1.0  0.0782
  C  C449  1  0.584200  0.825870  0.409470  1.0  -0.044
  C  C450  1  0.624230  0.845210  0.372170  1.0  -0.1417
  C  C451  1  0.722730  0.911260  0.810300  1.0  0.6692
  C  C452  1  0.755470  0.957540  0.792400  1.0  -0.1393
  C  C453  1  0.780720  0.985260  0.851100  1.0  -0.0877
  C  C454  1  0.759840  0.973270  0.717400  1.0  -0.0259
  C  C455  1  0.809660  0.028510  0.833600  1.0  -0.1496
  C  C456  1  0.788420  0.016620  0.700900  1.0  -0.1741
  C  C457  1  0.813090  0.044690  0.761700  1.0  0.0779
  C  C458  1  0.840800  0.091670  0.742800  1.0  -0.0465
  C  C459  1  0.821460  0.112360  0.705500  1.0  -0.1432
  C  C460  1  0.389400  0.244590  0.143630  1.0  0.6692
  C  C461  1  0.422140  0.290870  0.125730  1.0  -0.1393
  C  C462  1  0.447390  0.318590  0.184430  1.0  -0.0878
  C  C463  1  0.426510  0.306600  0.050730  1.0  -0.0258
  C  C464  1  0.476330  0.361840  0.166930  1.0  -0.1495
  C  C465  1  0.455090  0.349950  0.034230  1.0  -0.1741
  C  C466  1  0.479760  0.378020  0.095030  1.0  0.0779
  C  C467  1  0.507470  0.425000  0.076130  1.0  -0.0465
  C  C468  1  0.488130  0.445690  0.038830  1.0  -0.143
  C  C469  1  0.056060  0.577930  0.476970  1.0  0.6692
  C  C470  1  0.088800  0.624210  0.459070  1.0  -0.1394
  C  C471  1  0.114050  0.651930  0.517770  1.0  -0.0877
  C  C472  1  0.093170  0.639940  0.384070  1.0  -0.0259
  C  C473  1  0.142990  0.695180  0.500270  1.0  -0.1496
  C  C474  1  0.121750  0.683290  0.367570  1.0  -0.1741
  C  C475  1  0.146420  0.711360  0.428370  1.0  0.0779
  C  C476  1  0.174130  0.758340  0.409470  1.0  -0.0465
  C  C477  1  0.154790  0.779030  0.372170  1.0  -0.1432
  C  C478  1  0.811470  0.088740  0.189700  1.0  0.6699
  C  C479  1  0.797930  0.042460  0.207600  1.0  -0.1373
  C  C480  1  0.795460  0.014740  0.148900  1.0  -0.0873
  C  C481  1  0.786570  0.026730  0.282600  1.0  -0.0279
  C  C482  1  0.781150  0.971490  0.166400  1.0  -0.151
  C  C483  1  0.771800  0.983380  0.299100  1.0  -0.1753
  C  C484  1  0.768400  0.955310  0.238300  1.0  0.0779
  C  C485  1  0.749130  0.908330  0.257200  1.0  -0.0463
  C  C486  1  0.709100  0.887640  0.294500  1.0  -0.1431
  C  C487  1  0.478140  0.422070  0.523030  1.0  0.6699
  C  C488  1  0.464600  0.375790  0.540930  1.0  -0.1374
  C  C489  1  0.462130  0.348070  0.482230  1.0  -0.0873
  C  C490  1  0.453240  0.360060  0.615930  1.0  -0.0279
  C  C491  1  0.447820  0.304820  0.499730  1.0  -0.1515
  C  C492  1  0.438470  0.316710  0.632430  1.0  -0.1753
  C  C493  1  0.435070  0.288640  0.571630  1.0  0.0779
  C  C494  1  0.415800  0.241660  0.590530  1.0  -0.0463
  C  C495  1  0.375770  0.220970  0.627830  1.0  -0.1431
  C  C496  1  0.144800  0.755410  0.856370  1.0  0.6699
  C  C497  1  0.131260  0.709130  0.874270  1.0  -0.1374
  C  C498  1  0.128790  0.681410  0.815570  1.0  -0.0873
  C  C499  1  0.119900  0.693400  0.949270  1.0  -0.0279
  C  C500  1  0.114480  0.638160  0.833070  1.0  -0.1515
  C  C501  1  0.105130  0.650050  0.965770  1.0  -0.1753
  C  C502  1  0.101730  0.621980  0.904970  1.0  0.0779
  C  C503  1  0.082460  0.575000  0.923870  1.0  -0.0463
  C  C504  1  0.042430  0.554310  0.961170  1.0  -0.1433
  C  C505  1  0.277270  0.188530  0.189700  1.0  0.6677
  C  C506  1  0.244530  0.202070  0.207600  1.0  -0.1407
  C  C507  1  0.219280  0.204540  0.148900  1.0  -0.0866
  C  C508  1  0.240160  0.213430  0.282600  1.0  -0.0255
  C  C509  1  0.190340  0.218850  0.166400  1.0  -0.1521
  C  C510  1  0.211580  0.228200  0.299100  1.0  -0.1771
  C  C511  1  0.186910  0.231600  0.238300  1.0  0.0783
  C  C512  1  0.159200  0.250870  0.257200  1.0  -0.0456
  C  C513  1  0.178540  0.290900  0.294500  1.0  -0.144
  C  C514  1  0.943940  0.521860  0.523030  1.0  0.6675
  C  C515  1  0.911200  0.535400  0.540930  1.0  -0.1407
  C  C516  1  0.885950  0.537870  0.482230  1.0  -0.0866
  C  C517  1  0.906830  0.546760  0.615930  1.0  -0.0255
  C  C518  1  0.857010  0.552180  0.499730  1.0  -0.1521
  C  C519  1  0.878250  0.561530  0.632430  1.0  -0.177
  C  C520  1  0.853580  0.564930  0.571630  1.0  0.0783
  C  C521  1  0.825870  0.584200  0.590530  1.0  -0.0456
  C  C522  1  0.845210  0.624230  0.627830  1.0  -0.144
  C  C523  1  0.610600  0.855200  0.856370  1.0  0.6677
  C  C524  1  0.577860  0.868740  0.874270  1.0  -0.1407
  C  C525  1  0.552610  0.871210  0.815570  1.0  -0.0866
  C  C526  1  0.573490  0.880100  0.949270  1.0  -0.0256
  C  C527  1  0.523670  0.885520  0.833070  1.0  -0.1521
  C  C528  1  0.544910  0.894870  0.965770  1.0  -0.177
  C  C529  1  0.520240  0.898270  0.904970  1.0  0.0783
  C  C530  1  0.492530  0.917540  0.923870  1.0  -0.0456
  C  C531  1  0.511870  0.957570  0.961170  1.0  -0.1436
  C  C532  1  0.911260  0.722730  0.189700  1.0  0.6688
  C  C533  1  0.957540  0.755470  0.207600  1.0  -0.1412
  C  C534  1  0.985260  0.780720  0.148900  1.0  -0.0873
  C  C535  1  0.973270  0.759840  0.282600  1.0  -0.0272
  C  C536  1  0.028510  0.809660  0.166400  1.0  -0.1518
  C  C537  1  0.016620  0.788420  0.299100  1.0  -0.1749
  C  C538  1  0.044690  0.813090  0.238300  1.0  0.0787
  C  C539  1  0.091670  0.840800  0.257200  1.0  -0.0442
  C  C540  1  0.112360  0.821460  0.294500  1.0  -0.1421
  C  C541  1  0.577930  0.056060  0.523030  1.0  0.6688
  C  C542  1  0.624210  0.088800  0.540930  1.0  -0.1412
  C  C543  1  0.651930  0.114050  0.482230  1.0  -0.0873
  C  C544  1  0.639940  0.093170  0.615930  1.0  -0.0272
  C  C545  1  0.695180  0.142990  0.499730  1.0  -0.1518
  C  C546  1  0.683290  0.121750  0.632430  1.0  -0.1749
  C  C547  1  0.711360  0.146420  0.571630  1.0  0.0787
  C  C548  1  0.758340  0.174130  0.590530  1.0  -0.0442
  C  C549  1  0.779030  0.154790  0.627830  1.0  -0.1421
  C  C550  1  0.244590  0.389400  0.856370  1.0  0.6688
  C  C551  1  0.290870  0.422140  0.874270  1.0  -0.1412
  C  C552  1  0.318590  0.447390  0.815570  1.0  -0.0874
  C  C553  1  0.306600  0.426510  0.949270  1.0  -0.0272
  C  C554  1  0.361840  0.476330  0.833070  1.0  -0.1516
  C  C555  1  0.349950  0.455090  0.965770  1.0  -0.1751
  C  C556  1  0.378020  0.479760  0.904970  1.0  0.0787
  C  C557  1  0.425000  0.507470  0.923870  1.0  -0.0441
  C  C558  1  0.445690  0.488130  0.961170  1.0  -0.1419
  C  C559  1  0.115430  0.230860  0.238900  1.0  0.2114
  C  C560  1  0.155780  0.311560  0.314700  1.0  -0.0016
  C  C561  1  0.076950  0.153900  0.255300  1.0  0.2819
  C  C562  1  0.782100  0.564190  0.572230  1.0  0.2114
  C  C563  1  0.822450  0.644890  0.648030  1.0  -0.0016
  C  C564  1  0.743620  0.487230  0.588630  1.0  0.282
  C  C565  1  0.448760  0.897530  0.905570  1.0  0.2107
  C  C566  1  0.489110  0.978230  0.981370  1.0  -0.0017
  C  C567  1  0.410280  0.820570  0.921970  1.0  0.282
  C  C568  1  0.769140  0.884570  0.238900  1.0  0.2121
  C  C569  1  0.688440  0.844220  0.314700  1.0  -0.0041
  C  C570  1  0.846100  0.923050  0.255300  1.0  0.2755
  C  C571  1  0.435810  0.217900  0.572230  1.0  0.2121
  C  C572  1  0.355110  0.177550  0.648030  1.0  -0.0041
  C  C573  1  0.512770  0.256380  0.588630  1.0  0.2756
  C  C574  1  0.102470  0.551240  0.905570  1.0  0.2121
  C  C575  1  0.021770  0.510890  0.981370  1.0  -0.0042
  C  C576  1  0.179430  0.589720  0.921970  1.0  0.2755
  C  C577  1  0.115430  0.884570  0.238900  1.0  0.2128
  C  C578  1  0.155780  0.844220  0.314700  1.0  -0.0041
  C  C579  1  0.076950  0.923050  0.255300  1.0  0.2771
  C  C580  1  0.782100  0.217900  0.572230  1.0  0.2128
  C  C581  1  0.822450  0.177550  0.648030  1.0  -0.0041
  C  C582  1  0.743620  0.256380  0.588630  1.0  0.2771
  C  C583  1  0.448760  0.551240  0.905570  1.0  0.2118
  C  C584  1  0.489110  0.510890  0.981370  1.0  -0.0039
  C  C585  1  0.410280  0.589720  0.921970  1.0  0.2768
  C  C586  1  0.230860  0.115430  0.761100  1.0  0.2119
  C  C587  1  0.311560  0.155780  0.685300  1.0  -0.0038
  C  C588  1  0.153900  0.076950  0.744700  1.0  0.2762
  C  C589  1  0.897530  0.448760  0.094430  1.0  0.2119
  C  C590  1  0.978230  0.489110  0.018630  1.0  -0.004
  C  C591  1  0.820570  0.410280  0.078030  1.0  0.2762
  C  C592  1  0.564190  0.782100  0.427770  1.0  0.2119
  C  C593  1  0.644890  0.822450  0.351970  1.0  -0.0038
  C  C594  1  0.487230  0.743620  0.411370  1.0  0.2762
  C  C595  1  0.884570  0.769140  0.761100  1.0  0.213
  C  C596  1  0.844220  0.688440  0.685300  1.0  -0.0015
  C  C597  1  0.923050  0.846100  0.744700  1.0  0.2819
  C  C598  1  0.551240  0.102470  0.094430  1.0  0.213
  C  C599  1  0.510890  0.021770  0.018630  1.0  -0.0016
  C  C600  1  0.589720  0.179430  0.078030  1.0  0.2819
  C  C601  1  0.217900  0.435810  0.427770  1.0  0.2115
  C  C602  1  0.177550  0.355110  0.351970  1.0  -0.0015
  C  C603  1  0.256380  0.512770  0.411370  1.0  0.282
  C  C604  1  0.884570  0.115430  0.761100  1.0  0.2146
  C  C605  1  0.844220  0.155780  0.685300  1.0  -0.004
  C  C606  1  0.923050  0.076950  0.744700  1.0  0.2787
  C  C607  1  0.551240  0.448760  0.094430  1.0  0.2135
  C  C608  1  0.510890  0.489110  0.018630  1.0  -0.0038
  C  C609  1  0.589720  0.410280  0.078030  1.0  0.2783
  C  C610  1  0.217900  0.782100  0.427770  1.0  0.2146
  C  C611  1  0.177550  0.822450  0.351970  1.0  -0.004
  C  C612  1  0.256380  0.743620  0.411370  1.0  0.2787
  O  O613  1  0.898620  0.178420  0.121480  1.0  -0.5545
  O  O614  1  0.888870  0.188330  0.248100  1.0  -0.5653
  O  O615  1  0.565290  0.511750  0.454810  1.0  -0.5547
  O  O616  1  0.555540  0.521660  0.581430  1.0  -0.5655
  O  O617  1  0.231950  0.845090  0.788150  1.0  -0.5545
  O  O618  1  0.222200  0.855000  0.914770  1.0  -0.5653
  O  O619  1  0.821580  0.720200  0.121480  1.0  -0.5537
  O  O620  1  0.811670  0.700540  0.248100  1.0  -0.5665
  O  O621  1  0.488250  0.053530  0.454810  1.0  -0.5538
  O  O622  1  0.478340  0.033870  0.581430  1.0  -0.5658
  O  O623  1  0.154910  0.386870  0.788150  1.0  -0.5537
  O  O624  1  0.145000  0.367210  0.914770  1.0  -0.5665
  O  O625  1  0.279800  0.101380  0.121480  1.0  -0.5535
  O  O626  1  0.299460  0.111130  0.248100  1.0  -0.5655
  O  O627  1  0.946470  0.434710  0.454810  1.0  -0.5535
  O  O628  1  0.966130  0.444460  0.581430  1.0  -0.566
  O  O629  1  0.613130  0.768050  0.788150  1.0  -0.5535
  O  O630  1  0.632790  0.777800  0.914770  1.0  -0.5655
  O  O631  1  0.178420  0.898620  0.878520  1.0  -0.5548
  O  O632  1  0.188330  0.888870  0.751900  1.0  -0.5666
  O  O633  1  0.845090  0.231950  0.211850  1.0  -0.5548
  O  O634  1  0.855000  0.222200  0.085230  1.0  -0.5666
  O  O635  1  0.511750  0.565290  0.545190  1.0  -0.5549
  O  O636  1  0.521660  0.555540  0.418570  1.0  -0.5667
  O  O637  1  0.720200  0.821580  0.878520  1.0  -0.5554
  O  O638  1  0.700540  0.811670  0.751900  1.0  -0.5657
  O  O639  1  0.386870  0.154910  0.211850  1.0  -0.5554
  O  O640  1  0.367210  0.145000  0.085230  1.0  -0.5657
  O  O641  1  0.053530  0.488250  0.545190  1.0  -0.5555
  O  O642  1  0.033870  0.478340  0.418570  1.0  -0.5651
  O  O643  1  0.101380  0.279800  0.878520  1.0  -0.5551
  O  O644  1  0.111130  0.299460  0.751900  1.0  -0.5664
  O  O645  1  0.768050  0.613130  0.211850  1.0  -0.5551
  O  O646  1  0.777800  0.632790  0.085230  1.0  -0.5664
  O  O647  1  0.434710  0.946470  0.545190  1.0  -0.5551
  O  O648  1  0.444460  0.966130  0.418570  1.0  -0.5668
  O  O649  1  0.101380  0.821580  0.878520  1.0  -0.5555
  O  O650  1  0.111130  0.811670  0.751900  1.0  -0.5663
  O  O651  1  0.768050  0.154910  0.211850  1.0  -0.5555
  O  O652  1  0.777800  0.145000  0.085230  1.0  -0.5663
  O  O653  1  0.434710  0.488250  0.545190  1.0  -0.5557
  O  O654  1  0.444460  0.478340  0.418570  1.0  -0.5663
  O  O655  1  0.178420  0.279800  0.878520  1.0  -0.555
  O  O656  1  0.188330  0.299460  0.751900  1.0  -0.5663
  O  O657  1  0.845090  0.613130  0.211850  1.0  -0.555
  O  O658  1  0.855000  0.632790  0.085230  1.0  -0.5663
  O  O659  1  0.511750  0.946470  0.545190  1.0  -0.555
  O  O660  1  0.521660  0.966130  0.418570  1.0  -0.5659
  O  O661  1  0.720200  0.898620  0.878520  1.0  -0.5551
  O  O662  1  0.700540  0.888870  0.751900  1.0  -0.566
  O  O663  1  0.386870  0.231950  0.211850  1.0  -0.5551
  O  O664  1  0.367210  0.222200  0.085230  1.0  -0.566
  O  O665  1  0.053530  0.565290  0.545190  1.0  -0.5551
  O  O666  1  0.033870  0.555540  0.418570  1.0  -0.5664
  O  O667  1  0.821580  0.101380  0.121480  1.0  -0.554
  O  O668  1  0.811670  0.111130  0.248100  1.0  -0.5657
  O  O669  1  0.488250  0.434710  0.454810  1.0  -0.5541
  O  O670  1  0.478340  0.444460  0.581430  1.0  -0.5659
  O  O671  1  0.154910  0.768050  0.788150  1.0  -0.554
  O  O672  1  0.145000  0.777800  0.914770  1.0  -0.5657
  O  O673  1  0.279800  0.178420  0.121480  1.0  -0.5543
  O  O674  1  0.299460  0.188330  0.248100  1.0  -0.5654
  O  O675  1  0.946470  0.511750  0.454810  1.0  -0.5543
  O  O676  1  0.966130  0.521660  0.581430  1.0  -0.5647
  O  O677  1  0.613130  0.845090  0.788150  1.0  -0.5543
  O  O678  1  0.632790  0.855000  0.914770  1.0  -0.5654
  O  O679  1  0.898620  0.720200  0.121480  1.0  -0.5541
  O  O680  1  0.888870  0.700540  0.248100  1.0  -0.5663
  O  O681  1  0.565290  0.053530  0.454810  1.0  -0.5541
  O  O682  1  0.555540  0.033870  0.581430  1.0  -0.5667
  O  O683  1  0.231950  0.386870  0.788150  1.0  -0.5541
  O  O684  1  0.222200  0.367210  0.914770  1.0  -0.5663
  O  O685  1  0.095960  0.191930  0.201200  1.0  -0.3762
  O  O686  1  0.762630  0.525260  0.534530  1.0  -0.3762
  O  O687  1  0.429300  0.858600  0.867870  1.0  -0.3759
  O  O688  1  0.808070  0.904040  0.201200  1.0  -0.3771
  O  O689  1  0.474740  0.237370  0.534530  1.0  -0.3771
  O  O690  1  0.141400  0.570700  0.867870  1.0  -0.3771
  O  O691  1  0.095960  0.904040  0.201200  1.0  -0.3749
  O  O692  1  0.762630  0.237370  0.534530  1.0  -0.3749
  O  O693  1  0.429300  0.570700  0.867870  1.0  -0.3747
  O  O694  1  0.191930  0.095960  0.798800  1.0  -0.377
  O  O695  1  0.858600  0.429300  0.132130  1.0  -0.377
  O  O696  1  0.525260  0.762630  0.465470  1.0  -0.377
  O  O697  1  0.904030  0.808070  0.798800  1.0  -0.3798
  O  O698  1  0.570700  0.141400  0.132130  1.0  -0.3798
  O  O699  1  0.237370  0.474740  0.465470  1.0  -0.3798
  O  O700  1  0.904040  0.095960  0.798800  1.0  -0.3775
  O  O701  1  0.570700  0.429300  0.132130  1.0  -0.3773
  O  O702  1  0.237370  0.762630  0.465470  1.0  -0.3775
