# generated using pymatgen
data_CuH15C22O5
_symmetry_space_group_name_H-M   'P 1'
_cell_length_a   35.15110000
_cell_length_b   35.15110000
_cell_length_c   22.18910000
_cell_angle_alpha   90.00000000
_cell_angle_beta   90.00000000
_cell_angle_gamma   120.00000000
_symmetry_Int_Tables_number   1
_chemical_formula_structural   CuH15C22O5
_chemical_formula_sum   'Cu18 H270 C396 O90'
_cell_volume   23743.68704563
_cell_formula_units_Z   18
loop_
 _symmetry_equiv_pos_site_id
 _symmetry_equiv_pos_as_xyz
  1  'x, y, z'
loop_
 _atom_site_type_symbol
 _atom_site_label
 _atom_site_symmetry_multiplicity
 _atom_site_fract_x
 _atom_site_fract_y
 _atom_site_fract_z
 _atom_site_occupancy
 _atom_site_charge
  Cu  Cu1  1  0.507960  0.492040  0.444920  1.0  0.9106
  Cu  Cu2  1  0.174630  0.825370  0.778250  1.0  0.9106
  Cu  Cu3  1  0.841290  0.158710  0.111590  1.0  0.9103
  Cu  Cu4  1  0.507960  0.015920  0.444920  1.0  0.9106
  Cu  Cu5  1  0.174630  0.349250  0.778250  1.0  0.9106
  Cu  Cu6  1  0.841290  0.682590  0.111590  1.0  0.9138
  Cu  Cu7  1  0.984080  0.492040  0.444920  1.0  0.9098
  Cu  Cu8  1  0.650750  0.825370  0.778250  1.0  0.9098
  Cu  Cu9  1  0.317410  0.158710  0.111590  1.0  0.9136
  Cu  Cu10  1  0.492040  0.507960  0.555080  1.0  0.9106
  Cu  Cu11  1  0.158710  0.841290  0.888410  1.0  0.9099
  Cu  Cu12  1  0.825370  0.174630  0.221750  1.0  0.9106
  Cu  Cu13  1  0.015920  0.507960  0.555080  1.0  0.9102
  Cu  Cu14  1  0.682590  0.841290  0.888410  1.0  0.914
  Cu  Cu15  1  0.349250  0.174630  0.221750  1.0  0.9102
  Cu  Cu16  1  0.492040  0.984080  0.555080  1.0  0.9104
  Cu  Cu17  1  0.158710  0.317410  0.888410  1.0  0.9146
  Cu  Cu18  1  0.825370  0.650750  0.221750  1.0  0.9104
  H  H19  1  0.530000  0.645400  0.534800  1.0  0.1066
  H  H20  1  0.554400  0.717100  0.508100  1.0  0.1054
  H  H21  1  0.577300  0.691400  0.340700  1.0  0.1101
  H  H22  1  0.552800  0.619600  0.367800  1.0  0.1071
  H  H23  1  0.638900  0.762700  0.358900  1.0  0.1108
  H  H24  1  0.489200  0.722200  0.395900  1.0  0.0737
  H  H25  1  0.457300  0.750900  0.490600  1.0  0.1135
  H  H26  1  0.196670  0.978730  0.868130  1.0  0.1066
  H  H27  1  0.221070  0.050430  0.841430  1.0  0.107
  H  H28  1  0.243970  0.024730  0.674030  1.0  0.1109
  H  H29  1  0.219470  0.952930  0.701130  1.0  0.1071
  H  H30  1  0.305570  0.096030  0.692230  1.0  0.1109
  H  H31  1  0.155870  0.055530  0.729230  1.0  0.0731
  H  H32  1  0.123970  0.084230  0.823930  1.0  0.1136
  H  H33  1  0.863330  0.312070  0.201470  1.0  0.1066
  H  H34  1  0.887730  0.383770  0.174770  1.0  0.1054
  H  H35  1  0.910630  0.358070  0.007370  1.0  0.1101
  H  H36  1  0.886130  0.286270  0.034470  1.0  0.1071
  H  H37  1  0.972230  0.429370  0.025570  1.0  0.111
  H  H38  1  0.822530  0.388870  0.062570  1.0  0.0747
  H  H39  1  0.790630  0.417570  0.157270  1.0  0.1135
  H  H40  1  0.354600  0.884600  0.534800  1.0  0.1066
  H  H41  1  0.282900  0.837300  0.508100  1.0  0.1074
  H  H42  1  0.308600  0.885900  0.340700  1.0  0.1114
  H  H43  1  0.380400  0.933200  0.367800  1.0  0.1071
  H  H44  1  0.237300  0.876200  0.358900  1.0  0.1115
  H  H45  1  0.277800  0.767000  0.395900  1.0  0.0765
  H  H46  1  0.249100  0.706400  0.490600  1.0  0.1149
  H  H47  1  0.021270  0.217930  0.868130  1.0  0.1071
  H  H48  1  0.949570  0.170630  0.841430  1.0  0.1074
  H  H49  1  0.975270  0.219230  0.674030  1.0  0.1114
  H  H50  1  0.047070  0.266530  0.701130  1.0  0.1066
  H  H51  1  0.903970  0.209530  0.692230  1.0  0.1116
  H  H52  1  0.944470  0.100330  0.729230  1.0  0.0739
  H  H53  1  0.915770  0.039730  0.823930  1.0  0.1125
  H  H54  1  0.687930  0.551270  0.201470  1.0  0.1066
  H  H55  1  0.616230  0.503970  0.174770  1.0  0.1074
  H  H56  1  0.641930  0.552570  0.007370  1.0  0.1114
  H  H57  1  0.713730  0.599870  0.034470  1.0  0.1076
  H  H58  1  0.570630  0.542870  0.025570  1.0  0.1115
  H  H59  1  0.611130  0.433670  0.062570  1.0  0.0765
  H  H60  1  0.582430  0.373070  0.157270  1.0  0.1149
  H  H61  1  0.115400  0.470000  0.534800  1.0  0.1064
  H  H62  1  0.162700  0.445600  0.508100  1.0  0.108
  H  H63  1  0.114100  0.422700  0.340700  1.0  0.1109
  H  H64  1  0.066800  0.447200  0.367800  1.0  0.1067
  H  H65  1  0.123800  0.361100  0.358900  1.0  0.1115
  H  H66  1  0.233000  0.510800  0.395900  1.0  0.0702
  H  H67  1  0.293600  0.542700  0.490600  1.0  0.1042
  H  H68  1  0.782070  0.803330  0.868130  1.0  0.1061
  H  H69  1  0.829370  0.778930  0.841430  1.0  0.1065
  H  H70  1  0.780770  0.756030  0.674030  1.0  0.1101
  H  H71  1  0.733470  0.780530  0.701130  1.0  0.1073
  H  H72  1  0.790470  0.694430  0.692230  1.0  0.1115
  H  H73  1  0.899670  0.844130  0.729230  1.0  0.0721
  H  H74  1  0.960270  0.876030  0.823930  1.0  0.1047
  H  H75  1  0.448730  0.136670  0.201470  1.0  0.1064
  H  H76  1  0.496030  0.112270  0.174770  1.0  0.108
  H  H77  1  0.447430  0.089370  0.007370  1.0  0.1109
  H  H78  1  0.400130  0.113870  0.034470  1.0  0.1064
  H  H79  1  0.457130  0.027770  0.025570  1.0  0.1114
  H  H80  1  0.566330  0.177470  0.062570  1.0  0.0711
  H  H81  1  0.626930  0.209370  0.157270  1.0  0.1042
  H  H82  1  0.645400  0.530000  0.465200  1.0  0.1061
  H  H83  1  0.717100  0.554400  0.491900  1.0  0.1054
  H  H84  1  0.691400  0.577300  0.659300  1.0  0.1103
  H  H85  1  0.619600  0.552800  0.632200  1.0  0.1074
  H  H86  1  0.762700  0.638900  0.641100  1.0  0.111
  H  H87  1  0.722200  0.489200  0.604100  1.0  0.0721
  H  H88  1  0.750900  0.457300  0.509400  1.0  0.1025
  H  H89  1  0.312070  0.863330  0.798530  1.0  0.1061
  H  H90  1  0.383770  0.887730  0.825230  1.0  0.1054
  H  H91  1  0.358070  0.910630  0.992630  1.0  0.1103
  H  H92  1  0.286270  0.886130  0.965530  1.0  0.1074
  H  H93  1  0.429370  0.972230  0.974430  1.0  0.1113
  H  H94  1  0.388870  0.822530  0.937430  1.0  0.0726
  H  H95  1  0.417570  0.790630  0.842730  1.0  0.1025
  H  H96  1  0.978730  0.196670  0.131870  1.0  0.1061
  H  H97  1  0.050430  0.221070  0.158570  1.0  0.1069
  H  H98  1  0.024730  0.243970  0.325970  1.0  0.111
  H  H99  1  0.952930  0.219470  0.298870  1.0  0.1074
  H  H100  1  0.096030  0.305570  0.307770  1.0  0.1111
  H  H101  1  0.055530  0.155870  0.270770  1.0  0.0715
  H  H102  1  0.084230  0.123970  0.176070  1.0  0.1026
  H  H103  1  0.884600  0.354600  0.465200  1.0  0.1066
  H  H104  1  0.837300  0.282900  0.491900  1.0  0.1068
  H  H105  1  0.885900  0.308600  0.659300  1.0  0.1105
  H  H106  1  0.933200  0.380400  0.632200  1.0  0.1067
  H  H107  1  0.876200  0.237300  0.641100  1.0  0.1104
  H  H108  1  0.767000  0.277800  0.604100  1.0  0.0749
  H  H109  1  0.706400  0.249100  0.509400  1.0  0.1134
  H  H110  1  0.551270  0.687930  0.798530  1.0  0.1066
  H  H111  1  0.503970  0.616230  0.825230  1.0  0.1068
  H  H112  1  0.552570  0.641930  0.992630  1.0  0.1106
  H  H113  1  0.599870  0.713730  0.965530  1.0  0.1072
  H  H114  1  0.542870  0.570630  0.974430  1.0  0.1104
  H  H115  1  0.433670  0.611130  0.937430  1.0  0.0749
  H  H116  1  0.373070  0.582430  0.842730  1.0  0.1134
  H  H117  1  0.217930  0.021270  0.131870  1.0  0.1068
  H  H118  1  0.170630  0.949570  0.158570  1.0  0.1068
  H  H119  1  0.219230  0.975270  0.325970  1.0  0.1105
  H  H120  1  0.266530  0.047070  0.298870  1.0  0.1064
  H  H121  1  0.209530  0.903970  0.307770  1.0  0.1104
  H  H122  1  0.100330  0.944470  0.270770  1.0  0.0729
  H  H123  1  0.039730  0.915770  0.176070  1.0  0.1114
  H  H124  1  0.470000  0.115400  0.465200  1.0  0.1068
  H  H125  1  0.445600  0.162700  0.491900  1.0  0.1064
  H  H126  1  0.422700  0.114100  0.659300  1.0  0.1107
  H  H127  1  0.447200  0.066800  0.632200  1.0  0.1069
  H  H128  1  0.361100  0.123800  0.641100  1.0  0.1114
  H  H129  1  0.510800  0.233000  0.604100  1.0  0.0741
  H  H130  1  0.542700  0.293600  0.509400  1.0  0.1146
  H  H131  1  0.136670  0.448730  0.798530  1.0  0.1068
  H  H132  1  0.112270  0.496030  0.825230  1.0  0.1064
  H  H133  1  0.089370  0.447430  0.992630  1.0  0.1107
  H  H134  1  0.113870  0.400130  0.965530  1.0  0.1067
  H  H135  1  0.027770  0.457130  0.974430  1.0  0.1113
  H  H136  1  0.177470  0.566330  0.937430  1.0  0.0756
  H  H137  1  0.209370  0.626930  0.842730  1.0  0.1146
  H  H138  1  0.803330  0.782070  0.131870  1.0  0.1066
  H  H139  1  0.778930  0.829370  0.158570  1.0  0.1055
  H  H140  1  0.756030  0.780770  0.325970  1.0  0.1104
  H  H141  1  0.780530  0.733470  0.298870  1.0  0.1074
  H  H142  1  0.694430  0.790470  0.307770  1.0  0.1114
  H  H143  1  0.844130  0.899670  0.270770  1.0  0.0761
  H  H144  1  0.876030  0.960270  0.176070  1.0  0.1149
  H  H145  1  0.470000  0.354600  0.465200  1.0  0.1065
  H  H146  1  0.445600  0.282900  0.491900  1.0  0.1055
  H  H147  1  0.422700  0.308600  0.659300  1.0  0.1104
  H  H148  1  0.447200  0.380400  0.632200  1.0  0.1071
  H  H149  1  0.361100  0.237300  0.641100  1.0  0.1108
  H  H150  1  0.510800  0.277800  0.604100  1.0  0.0741
  H  H151  1  0.542700  0.249100  0.509400  1.0  0.1125
  H  H152  1  0.136670  0.687930  0.798530  1.0  0.1065
  H  H153  1  0.112270  0.616230  0.825230  1.0  0.1055
  H  H154  1  0.089370  0.641930  0.992630  1.0  0.1104
  H  H155  1  0.113870  0.713730  0.965530  1.0  0.1071
  H  H156  1  0.027770  0.570630  0.974430  1.0  0.1111
  H  H157  1  0.177470  0.611130  0.937430  1.0  0.0748
  H  H158  1  0.209370  0.582430  0.842730  1.0  0.1125
  H  H159  1  0.803330  0.021270  0.131870  1.0  0.1065
  H  H160  1  0.778930  0.949570  0.158570  1.0  0.107
  H  H161  1  0.756030  0.975270  0.325970  1.0  0.111
  H  H162  1  0.780530  0.047070  0.298870  1.0  0.1071
  H  H163  1  0.694430  0.903970  0.307770  1.0  0.1109
  H  H164  1  0.844130  0.944470  0.270770  1.0  0.0738
  H  H165  1  0.876030  0.915770  0.176070  1.0  0.1128
  H  H166  1  0.645400  0.115400  0.465200  1.0  0.1067
  H  H167  1  0.717100  0.162700  0.491900  1.0  0.1069
  H  H168  1  0.691400  0.114100  0.659300  1.0  0.1113
  H  H169  1  0.619600  0.066800  0.632200  1.0  0.1068
  H  H170  1  0.762700  0.123800  0.641100  1.0  0.1115
  H  H171  1  0.722200  0.233000  0.604100  1.0  0.0768
  H  H172  1  0.750900  0.293600  0.509400  1.0  0.1133
  H  H173  1  0.312070  0.448730  0.798530  1.0  0.1067
  H  H174  1  0.383770  0.496030  0.825230  1.0  0.1069
  H  H175  1  0.358070  0.447430  0.992630  1.0  0.1113
  H  H176  1  0.286270  0.400130  0.965530  1.0  0.1074
  H  H177  1  0.429370  0.457130  0.974430  1.0  0.1115
  H  H178  1  0.388870  0.566330  0.937430  1.0  0.0768
  H  H179  1  0.417570  0.626930  0.842730  1.0  0.1133
  H  H180  1  0.978730  0.782070  0.131870  1.0  0.107
  H  H181  1  0.050430  0.829370  0.158570  1.0  0.1069
  H  H182  1  0.024730  0.780770  0.325970  1.0  0.1113
  H  H183  1  0.952930  0.733470  0.298870  1.0  0.1066
  H  H184  1  0.096030  0.790470  0.307770  1.0  0.1115
  H  H185  1  0.055530  0.899670  0.270770  1.0  0.0751
  H  H186  1  0.084230  0.960270  0.176070  1.0  0.1114
  H  H187  1  0.884600  0.530000  0.465200  1.0  0.106
  H  H188  1  0.837300  0.554400  0.491900  1.0  0.1072
  H  H189  1  0.885900  0.577300  0.659300  1.0  0.1104
  H  H190  1  0.933200  0.552800  0.632200  1.0  0.1072
  H  H191  1  0.876200  0.638900  0.641100  1.0  0.111
  H  H192  1  0.767000  0.489200  0.604100  1.0  0.0696
  H  H193  1  0.706400  0.457300  0.509400  1.0  0.1105
  H  H194  1  0.551270  0.863330  0.798530  1.0  0.106
  H  H195  1  0.503970  0.887730  0.825230  1.0  0.1072
  H  H196  1  0.552570  0.910630  0.992630  1.0  0.1105
  H  H197  1  0.599870  0.886130  0.965530  1.0  0.1071
  H  H198  1  0.542870  0.972230  0.974430  1.0  0.1109
  H  H199  1  0.433670  0.822530  0.937430  1.0  0.0711
  H  H200  1  0.373070  0.790630  0.842730  1.0  0.1105
  H  H201  1  0.217930  0.196670  0.131870  1.0  0.106
  H  H202  1  0.170630  0.221070  0.158570  1.0  0.1061
  H  H203  1  0.219230  0.243970  0.325970  1.0  0.11
  H  H204  1  0.266530  0.219470  0.298870  1.0  0.1077
  H  H205  1  0.209530  0.305570  0.307770  1.0  0.111
  H  H206  1  0.100330  0.155870  0.270770  1.0  0.0717
  H  H207  1  0.039730  0.123970  0.176070  1.0  0.1092
  H  H208  1  0.354600  0.470000  0.534800  1.0  0.1063
  H  H209  1  0.282900  0.445600  0.508100  1.0  0.1058
  H  H210  1  0.308600  0.422700  0.340700  1.0  0.1106
  H  H211  1  0.380400  0.447200  0.367800  1.0  0.108
  H  H212  1  0.237300  0.361100  0.358900  1.0  0.1115
  H  H213  1  0.277800  0.510800  0.395900  1.0  0.0709
  H  H214  1  0.249100  0.542700  0.490600  1.0  0.1098
  H  H215  1  0.021270  0.803330  0.868130  1.0  0.1063
  H  H216  1  0.949570  0.778930  0.841430  1.0  0.1074
  H  H217  1  0.975270  0.756030  0.674030  1.0  0.1113
  H  H218  1  0.047070  0.780530  0.701130  1.0  0.108
  H  H219  1  0.903970  0.694430  0.692230  1.0  0.1116
  H  H220  1  0.944470  0.844130  0.729230  1.0  0.0709
  H  H221  1  0.915770  0.876030  0.823930  1.0  0.1103
  H  H222  1  0.687930  0.136670  0.201470  1.0  0.1063
  H  H223  1  0.616230  0.112270  0.174770  1.0  0.1058
  H  H224  1  0.641930  0.089370  0.007370  1.0  0.1106
  H  H225  1  0.713730  0.113870  0.034470  1.0  0.108
  H  H226  1  0.570630  0.027770  0.025570  1.0  0.1117
  H  H227  1  0.611130  0.177470  0.062570  1.0  0.0718
  H  H228  1  0.582430  0.209370  0.157270  1.0  0.1098
  H  H229  1  0.115400  0.645400  0.534800  1.0  0.1064
  H  H230  1  0.162700  0.717100  0.508100  1.0  0.1076
  H  H231  1  0.114100  0.691400  0.340700  1.0  0.1112
  H  H232  1  0.066800  0.619600  0.367800  1.0  0.1064
  H  H233  1  0.123800  0.762700  0.358900  1.0  0.1109
  H  H234  1  0.233000  0.722200  0.395900  1.0  0.0755
  H  H235  1  0.293600  0.750900  0.490600  1.0  0.1148
  H  H236  1  0.782070  0.978730  0.868130  1.0  0.1067
  H  H237  1  0.829370  0.050430  0.841430  1.0  0.1076
  H  H238  1  0.780770  0.024730  0.674030  1.0  0.1113
  H  H239  1  0.733470  0.952930  0.701130  1.0  0.106
  H  H240  1  0.790470  0.096030  0.692230  1.0  0.1109
  H  H241  1  0.899670  0.055530  0.729230  1.0  0.0727
  H  H242  1  0.960270  0.084230  0.823930  1.0  0.1129
  H  H243  1  0.448730  0.312070  0.201470  1.0  0.1064
  H  H244  1  0.496030  0.383770  0.174770  1.0  0.1076
  H  H245  1  0.447430  0.358070  0.007370  1.0  0.1113
  H  H246  1  0.400130  0.286270  0.034470  1.0  0.107
  H  H247  1  0.457130  0.429370  0.025570  1.0  0.1109
  H  H248  1  0.566330  0.388870  0.062570  1.0  0.0755
  H  H249  1  0.626930  0.417570  0.157270  1.0  0.1148
  H  H250  1  0.530000  0.884600  0.534800  1.0  0.107
  H  H251  1  0.554400  0.837300  0.508100  1.0  0.1076
  H  H252  1  0.577300  0.885900  0.340700  1.0  0.1113
  H  H253  1  0.552800  0.933200  0.367800  1.0  0.1066
  H  H254  1  0.638900  0.876200  0.358900  1.0  0.1116
  H  H255  1  0.489200  0.767000  0.395900  1.0  0.0742
  H  H256  1  0.457300  0.706400  0.490600  1.0  0.114
  H  H257  1  0.196670  0.217930  0.868130  1.0  0.1068
  H  H258  1  0.221070  0.170630  0.841430  1.0  0.1061
  H  H259  1  0.243970  0.219230  0.674030  1.0  0.1106
  H  H260  1  0.219470  0.266530  0.701130  1.0  0.1073
  H  H261  1  0.305570  0.209530  0.692230  1.0  0.1116
  H  H262  1  0.155870  0.100330  0.729230  1.0  0.0758
  H  H263  1  0.123970  0.039730  0.823930  1.0  0.1151
  H  H264  1  0.863330  0.551270  0.201470  1.0  0.107
  H  H265  1  0.887730  0.503970  0.174770  1.0  0.1076
  H  H266  1  0.910630  0.552570  0.007370  1.0  0.1113
  H  H267  1  0.886130  0.599870  0.034470  1.0  0.1063
  H  H268  1  0.972230  0.542870  0.025570  1.0  0.1115
  H  H269  1  0.822530  0.433670  0.062570  1.0  0.0757
  H  H270  1  0.790630  0.373070  0.157270  1.0  0.114
  H  H271  1  0.427300  0.713650  0.445200  1.0  0.1056
  H  H272  1  0.093970  0.046980  0.778530  1.0  0.1041
  H  H273  1  0.760630  0.380320  0.111870  1.0  0.1072
  H  H274  1  0.286350  0.713650  0.445200  1.0  0.1071
  H  H275  1  0.953020  0.046980  0.778530  1.0  0.1081
  H  H276  1  0.619680  0.380320  0.111870  1.0  0.11
  H  H277  1  0.286350  0.572700  0.445200  1.0  0.1098
  H  H278  1  0.953020  0.906030  0.778530  1.0  0.1088
  H  H279  1  0.619680  0.239370  0.111870  1.0  0.1114
  H  H280  1  0.713650  0.427300  0.554800  1.0  0.1073
  H  H281  1  0.380320  0.760630  0.888130  1.0  0.109
  H  H282  1  0.046980  0.093970  0.221470  1.0  0.1063
  H  H283  1  0.713650  0.286350  0.554800  1.0  0.1047
  H  H284  1  0.380320  0.619680  0.888130  1.0  0.1069
  H  H285  1  0.046980  0.953020  0.221470  1.0  0.1064
  H  H286  1  0.572700  0.286350  0.554800  1.0  0.1101
  H  H287  1  0.239370  0.619680  0.888130  1.0  0.1116
  H  H288  1  0.906030  0.953020  0.221470  1.0  0.1087
  C  C289  1  0.523850  0.578270  0.471880  1.0  0.6684
  C  C290  1  0.539010  0.624850  0.454040  1.0  -0.1422
  C  C291  1  0.539600  0.654580  0.495600  1.0  -0.0429
  C  C292  1  0.554300  0.697610  0.479610  1.0  -0.1351
  C  C293  1  0.569060  0.712400  0.421150  1.0  0.0374
  C  C294  1  0.567970  0.682460  0.380000  1.0  -0.1682
  C  C295  1  0.553170  0.639210  0.396280  1.0  -0.0463
  C  C296  1  0.587940  0.759210  0.404240  1.0  0.0495
  C  C297  1  0.626010  0.779240  0.370000  1.0  -0.1173
  C  C298  1  0.190520  0.911600  0.805210  1.0  0.6684
  C  C299  1  0.205680  0.958180  0.787370  1.0  -0.1422
  C  C300  1  0.206270  0.987910  0.828930  1.0  -0.0429
  C  C301  1  0.220970  0.030940  0.812940  1.0  -0.1351
  C  C302  1  0.235730  0.045730  0.754480  1.0  0.0374
  C  C303  1  0.234640  0.015790  0.713330  1.0  -0.168
  C  C304  1  0.219840  0.972540  0.729610  1.0  -0.0463
  C  C305  1  0.254610  0.092540  0.737570  1.0  0.0495
  C  C306  1  0.292680  0.112570  0.703330  1.0  -0.1147
  C  C307  1  0.857180  0.244940  0.138550  1.0  0.6684
  C  C308  1  0.872340  0.291520  0.120710  1.0  -0.1422
  C  C309  1  0.872930  0.321250  0.162270  1.0  -0.0429
  C  C310  1  0.887630  0.364280  0.146280  1.0  -0.1351
  C  C311  1  0.902390  0.379070  0.087820  1.0  0.0374
  C  C312  1  0.901300  0.349130  0.046670  1.0  -0.168
  C  C313  1  0.886500  0.305880  0.062950  1.0  -0.0463
  C  C314  1  0.921270  0.425880  0.070910  1.0  0.0495
  C  C315  1  0.959340  0.445910  0.036670  1.0  -0.117
  C  C316  1  0.421730  0.945580  0.471880  1.0  0.6678
  C  C317  1  0.375150  0.914160  0.454040  1.0  -0.1417
  C  C318  1  0.345420  0.885020  0.495600  1.0  -0.0416
  C  C319  1  0.302390  0.856690  0.479610  1.0  -0.1343
  C  C320  1  0.287600  0.856660  0.421150  1.0  0.0371
  C  C321  1  0.317540  0.885510  0.380000  1.0  -0.1682
  C  C322  1  0.360790  0.913960  0.396280  1.0  -0.0471
  C  C323  1  0.240790  0.828730  0.404240  1.0  0.0502
  C  C324  1  0.220760  0.846770  0.370000  1.0  -0.1099
  C  C325  1  0.088400  0.278910  0.805210  1.0  0.6678
  C  C326  1  0.041820  0.247490  0.787370  1.0  -0.1417
  C  C327  1  0.012090  0.218350  0.828930  1.0  -0.0416
  C  C328  1  0.969060  0.190020  0.812940  1.0  -0.1343
  C  C329  1  0.954270  0.189990  0.754480  1.0  0.0371
  C  C330  1  0.984210  0.218840  0.713330  1.0  -0.1682
  C  C331  1  0.027460  0.247290  0.729610  1.0  -0.0471
  C  C332  1  0.907460  0.162060  0.737570  1.0  0.0502
  C  C333  1  0.887430  0.180100  0.703330  1.0  -0.1114
  C  C334  1  0.755060  0.612250  0.138550  1.0  0.6678
  C  C335  1  0.708480  0.580830  0.120710  1.0  -0.1417
  C  C336  1  0.678750  0.551690  0.162270  1.0  -0.0416
  C  C337  1  0.635720  0.523360  0.146280  1.0  -0.1343
  C  C338  1  0.620930  0.523330  0.087820  1.0  0.0371
  C  C339  1  0.650870  0.552180  0.046670  1.0  -0.1684
  C  C340  1  0.694120  0.580630  0.062950  1.0  -0.0471
  C  C341  1  0.574120  0.495400  0.070910  1.0  0.0502
  C  C342  1  0.554090  0.513440  0.036670  1.0  -0.11
  C  C343  1  0.054420  0.476150  0.471880  1.0  0.6673
  C  C344  1  0.085840  0.460990  0.454040  1.0  -0.1422
  C  C345  1  0.114980  0.460400  0.495600  1.0  -0.0425
  C  C346  1  0.143310  0.445700  0.479610  1.0  -0.1336
  C  C347  1  0.143340  0.430940  0.421150  1.0  0.0369
  C  C348  1  0.114490  0.432030  0.380000  1.0  -0.1662
  C  C349  1  0.086040  0.446830  0.396280  1.0  -0.044
  C  C350  1  0.171270  0.412060  0.404240  1.0  0.0495
  C  C351  1  0.153230  0.373990  0.370000  1.0  -0.1155
  C  C352  1  0.721090  0.809480  0.805210  1.0  0.6673
  C  C353  1  0.752510  0.794320  0.787370  1.0  -0.1422
  C  C354  1  0.781650  0.793730  0.828930  1.0  -0.0425
  C  C355  1  0.809980  0.779030  0.812940  1.0  -0.1336
  C  C356  1  0.810010  0.764270  0.754480  1.0  0.0369
  C  C357  1  0.781160  0.765360  0.713330  1.0  -0.1664
  C  C358  1  0.752710  0.780160  0.729610  1.0  -0.044
  C  C359  1  0.837940  0.745390  0.737570  1.0  0.0495
  C  C360  1  0.819900  0.707320  0.703330  1.0  -0.1176
  C  C361  1  0.387750  0.142820  0.138550  1.0  0.6673
  C  C362  1  0.419170  0.127660  0.120710  1.0  -0.1422
  C  C363  1  0.448310  0.127070  0.162270  1.0  -0.0425
  C  C364  1  0.476640  0.112370  0.146280  1.0  -0.1336
  C  C365  1  0.476670  0.097610  0.087820  1.0  0.0369
  C  C366  1  0.447820  0.098700  0.046670  1.0  -0.1662
  C  C367  1  0.419370  0.113500  0.062950  1.0  -0.044
  C  C368  1  0.504600  0.078730  0.070910  1.0  0.0495
  C  C369  1  0.486560  0.040660  0.036670  1.0  -0.1154
  C  C370  1  0.578270  0.523850  0.528120  1.0  0.6671
  C  C371  1  0.624850  0.539010  0.545960  1.0  -0.1421
  C  C372  1  0.654580  0.539600  0.504400  1.0  -0.0421
  C  C373  1  0.697610  0.554300  0.520390  1.0  -0.1342
  C  C374  1  0.712400  0.569060  0.578850  1.0  0.0368
  C  C375  1  0.682460  0.567970  0.620000  1.0  -0.1667
  C  C376  1  0.639210  0.553170  0.603720  1.0  -0.0447
  C  C377  1  0.759210  0.587940  0.595760  1.0  0.0508
  C  C378  1  0.779240  0.626010  0.630000  1.0  -0.1195
  C  C379  1  0.244940  0.857180  0.861450  1.0  0.6671
  C  C380  1  0.291520  0.872340  0.879290  1.0  -0.1421
  C  C381  1  0.321250  0.872930  0.837730  1.0  -0.0421
  C  C382  1  0.364280  0.887630  0.853720  1.0  -0.1342
  C  C383  1  0.379070  0.902390  0.912180  1.0  0.0368
  C  C384  1  0.349130  0.901300  0.953330  1.0  -0.1664
  C  C385  1  0.305880  0.886500  0.937050  1.0  -0.0447
  C  C386  1  0.425880  0.921270  0.929090  1.0  0.0508
  C  C387  1  0.445910  0.959340  0.963330  1.0  -0.1194
  C  C388  1  0.911600  0.190520  0.194790  1.0  0.6671
  C  C389  1  0.958180  0.205680  0.212630  1.0  -0.1421
  C  C390  1  0.987910  0.206270  0.171070  1.0  -0.0421
  C  C391  1  0.030940  0.220970  0.187060  1.0  -0.1342
  C  C392  1  0.045730  0.235730  0.245520  1.0  0.0368
  C  C393  1  0.015790  0.234640  0.286670  1.0  -0.1664
  C  C394  1  0.972540  0.219840  0.270390  1.0  -0.0447
  C  C395  1  0.092540  0.254610  0.262430  1.0  0.0508
  C  C396  1  0.112570  0.292680  0.296670  1.0  -0.1168
  C  C397  1  0.945580  0.421730  0.528120  1.0  0.6687
  C  C398  1  0.914160  0.375150  0.545960  1.0  -0.1407
  C  C399  1  0.885020  0.345420  0.504400  1.0  -0.044
  C  C400  1  0.856690  0.302390  0.520390  1.0  -0.135
  C  C401  1  0.856660  0.287600  0.578850  1.0  0.0377
  C  C402  1  0.885510  0.317540  0.620000  1.0  -0.1688
  C  C403  1  0.913960  0.360790  0.603720  1.0  -0.0466
  C  C404  1  0.828730  0.240790  0.595760  1.0  0.0501
  C  C405  1  0.846770  0.220760  0.630000  1.0  -0.115
  C  C406  1  0.612250  0.755060  0.861450  1.0  0.6687
  C  C407  1  0.580830  0.708480  0.879290  1.0  -0.1407
  C  C408  1  0.551690  0.678750  0.837730  1.0  -0.044
  C  C409  1  0.523360  0.635720  0.853720  1.0  -0.135
  C  C410  1  0.523330  0.620930  0.912180  1.0  0.0377
  C  C411  1  0.552180  0.650870  0.953330  1.0  -0.169
  C  C412  1  0.580630  0.694120  0.937050  1.0  -0.0466
  C  C413  1  0.495400  0.574120  0.929090  1.0  0.0501
  C  C414  1  0.513440  0.554090  0.963330  1.0  -0.1151
  C  C415  1  0.278910  0.088400  0.194790  1.0  0.6687
  C  C416  1  0.247490  0.041820  0.212630  1.0  -0.1407
  C  C417  1  0.218350  0.012090  0.171070  1.0  -0.044
  C  C418  1  0.190020  0.969060  0.187060  1.0  -0.135
  C  C419  1  0.189990  0.954270  0.245520  1.0  0.0377
  C  C420  1  0.218840  0.984210  0.286670  1.0  -0.1688
  C  C421  1  0.247290  0.027460  0.270390  1.0  -0.0466
  C  C422  1  0.162060  0.907460  0.262430  1.0  0.0501
  C  C423  1  0.180100  0.887430  0.296670  1.0  -0.1164
  C  C424  1  0.476150  0.054420  0.528120  1.0  0.6677
  C  C425  1  0.460990  0.085840  0.545960  1.0  -0.1421
  C  C426  1  0.460400  0.114980  0.504400  1.0  -0.043
  C  C427  1  0.445700  0.143310  0.520390  1.0  -0.1344
  C  C428  1  0.430940  0.143340  0.578850  1.0  0.0367
  C  C429  1  0.432030  0.114490  0.620000  1.0  -0.1695
  C  C430  1  0.446830  0.086040  0.603720  1.0  -0.0471
  C  C431  1  0.412060  0.171270  0.595760  1.0  0.0497
  C  C432  1  0.373990  0.153230  0.630000  1.0  -0.1135
  C  C433  1  0.142820  0.387750  0.861450  1.0  0.6677
  C  C434  1  0.127660  0.419170  0.879290  1.0  -0.1421
  C  C435  1  0.127070  0.448310  0.837730  1.0  -0.043
  C  C436  1  0.112370  0.476640  0.853720  1.0  -0.1344
  C  C437  1  0.097610  0.476670  0.912180  1.0  0.0367
  C  C438  1  0.098700  0.447820  0.953330  1.0  -0.1695
  C  C439  1  0.113500  0.419370  0.937050  1.0  -0.0471
  C  C440  1  0.078730  0.504600  0.929090  1.0  0.0497
  C  C441  1  0.040660  0.486560  0.963330  1.0  -0.1132
  C  C442  1  0.809480  0.721090  0.194790  1.0  0.6677
  C  C443  1  0.794320  0.752510  0.212630  1.0  -0.1421
  C  C444  1  0.793730  0.781650  0.171070  1.0  -0.043
  C  C445  1  0.779030  0.809980  0.187060  1.0  -0.1344
  C  C446  1  0.764270  0.810010  0.245520  1.0  0.0367
  C  C447  1  0.765360  0.781160  0.286670  1.0  -0.1697
  C  C448  1  0.780160  0.752710  0.270390  1.0  -0.0471
  C  C449  1  0.745390  0.837940  0.262430  1.0  0.0497
  C  C450  1  0.707320  0.819900  0.296670  1.0  -0.115
  C  C451  1  0.476150  0.421730  0.528120  1.0  0.6692
  C  C452  1  0.460990  0.375150  0.545960  1.0  -0.1407
  C  C453  1  0.460400  0.345420  0.504400  1.0  -0.0436
  C  C454  1  0.445700  0.302390  0.520390  1.0  -0.136
  C  C455  1  0.430940  0.287600  0.578850  1.0  0.0375
  C  C456  1  0.432030  0.317540  0.620000  1.0  -0.1694
  C  C457  1  0.446830  0.360790  0.603720  1.0  -0.0475
  C  C458  1  0.412060  0.240790  0.595760  1.0  0.0499
  C  C459  1  0.373990  0.220760  0.630000  1.0  -0.1177
  C  C460  1  0.142820  0.755060  0.861450  1.0  0.6692
  C  C461  1  0.127660  0.708480  0.879290  1.0  -0.1407
  C  C462  1  0.127070  0.678750  0.837730  1.0  -0.0436
  C  C463  1  0.112370  0.635720  0.853720  1.0  -0.136
  C  C464  1  0.097610  0.620930  0.912180  1.0  0.0375
  C  C465  1  0.098700  0.650870  0.953330  1.0  -0.1692
  C  C466  1  0.113500  0.694120  0.937050  1.0  -0.0475
  C  C467  1  0.078730  0.574120  0.929090  1.0  0.0499
  C  C468  1  0.040660  0.554090  0.963330  1.0  -0.1176
  C  C469  1  0.809480  0.088400  0.194790  1.0  0.6692
  C  C470  1  0.794320  0.041820  0.212630  1.0  -0.1407
  C  C471  1  0.793730  0.012090  0.171070  1.0  -0.0436
  C  C472  1  0.779030  0.969060  0.187060  1.0  -0.136
  C  C473  1  0.764270  0.954270  0.245520  1.0  0.0375
  C  C474  1  0.765360  0.984210  0.286670  1.0  -0.1692
  C  C475  1  0.780160  0.027460  0.270390  1.0  -0.0475
  C  C476  1  0.745390  0.907460  0.262430  1.0  0.0499
  C  C477  1  0.707320  0.887430  0.296670  1.0  -0.115
  C  C478  1  0.578270  0.054420  0.528120  1.0  0.668
  C  C479  1  0.624850  0.085840  0.545960  1.0  -0.1426
  C  C480  1  0.654580  0.114980  0.504400  1.0  -0.0425
  C  C481  1  0.697610  0.143310  0.520390  1.0  -0.1351
  C  C482  1  0.712400  0.143340  0.578850  1.0  0.0364
  C  C483  1  0.682460  0.114490  0.620000  1.0  -0.1693
  C  C484  1  0.639210  0.086040  0.603720  1.0  -0.0477
  C  C485  1  0.759210  0.171270  0.595760  1.0  0.0495
  C  C486  1  0.779240  0.153230  0.630000  1.0  -0.1124
  C  C487  1  0.244940  0.387750  0.861450  1.0  0.668
  C  C488  1  0.291520  0.419170  0.879290  1.0  -0.1426
  C  C489  1  0.321250  0.448310  0.837730  1.0  -0.0425
  C  C490  1  0.364280  0.476640  0.853720  1.0  -0.1351
  C  C491  1  0.379070  0.476670  0.912180  1.0  0.0364
  C  C492  1  0.349130  0.447820  0.953330  1.0  -0.1695
  C  C493  1  0.305880  0.419370  0.937050  1.0  -0.0477
  C  C494  1  0.425880  0.504600  0.929090  1.0  0.0495
  C  C495  1  0.445910  0.486560  0.963330  1.0  -0.1124
  C  C496  1  0.911600  0.721090  0.194790  1.0  0.668
  C  C497  1  0.958180  0.752510  0.212630  1.0  -0.1426
  C  C498  1  0.987910  0.781650  0.171070  1.0  -0.0425
  C  C499  1  0.030940  0.809980  0.187060  1.0  -0.1351
  C  C500  1  0.045730  0.810010  0.245520  1.0  0.0364
  C  C501  1  0.015790  0.781160  0.286670  1.0  -0.1693
  C  C502  1  0.972540  0.752710  0.270390  1.0  -0.0477
  C  C503  1  0.092540  0.837940  0.262430  1.0  0.0495
  C  C504  1  0.112570  0.819900  0.296670  1.0  -0.114
  C  C505  1  0.945580  0.523850  0.528120  1.0  0.667
  C  C506  1  0.914160  0.539010  0.545960  1.0  -0.1422
  C  C507  1  0.885020  0.539600  0.504400  1.0  -0.0432
  C  C508  1  0.856690  0.554300  0.520390  1.0  -0.1346
  C  C509  1  0.856660  0.569060  0.578850  1.0  0.0379
  C  C510  1  0.885510  0.567970  0.620000  1.0  -0.1663
  C  C511  1  0.913960  0.553170  0.603720  1.0  -0.0451
  C  C512  1  0.828730  0.587940  0.595760  1.0  0.0514
  C  C513  1  0.846770  0.626010  0.630000  1.0  -0.115
  C  C514  1  0.612250  0.857180  0.861450  1.0  0.667
  C  C515  1  0.580830  0.872340  0.879290  1.0  -0.1422
  C  C516  1  0.551690  0.872930  0.837730  1.0  -0.0432
  C  C517  1  0.523360  0.887630  0.853720  1.0  -0.1346
  C  C518  1  0.523330  0.902390  0.912180  1.0  0.0379
  C  C519  1  0.552180  0.901300  0.953330  1.0  -0.1663
  C  C520  1  0.580630  0.886500  0.937050  1.0  -0.0451
  C  C521  1  0.495400  0.921270  0.929090  1.0  0.0514
  C  C522  1  0.513440  0.959340  0.963330  1.0  -0.1147
  C  C523  1  0.278910  0.190520  0.194790  1.0  0.667
  C  C524  1  0.247490  0.205680  0.212630  1.0  -0.1422
  C  C525  1  0.218350  0.206270  0.171070  1.0  -0.0432
  C  C526  1  0.190020  0.220970  0.187060  1.0  -0.1346
  C  C527  1  0.189990  0.235730  0.245520  1.0  0.0379
  C  C528  1  0.218840  0.234640  0.286670  1.0  -0.1665
  C  C529  1  0.247290  0.219840  0.270390  1.0  -0.0451
  C  C530  1  0.162060  0.254610  0.262430  1.0  0.0514
  C  C531  1  0.180100  0.292680  0.296670  1.0  -0.1178
  C  C532  1  0.421730  0.476150  0.471880  1.0  0.6673
  C  C533  1  0.375150  0.460990  0.454040  1.0  -0.1425
  C  C534  1  0.345420  0.460400  0.495600  1.0  -0.0416
  C  C535  1  0.302390  0.445700  0.479610  1.0  -0.1341
  C  C536  1  0.287600  0.430940  0.421150  1.0  0.0378
  C  C537  1  0.317540  0.432030  0.380000  1.0  -0.1656
  C  C538  1  0.360790  0.446830  0.396280  1.0  -0.0442
  C  C539  1  0.240790  0.412060  0.404240  1.0  0.0502
  C  C540  1  0.220760  0.373990  0.370000  1.0  -0.1168
  C  C541  1  0.088400  0.809480  0.805210  1.0  0.6673
  C  C542  1  0.041820  0.794320  0.787370  1.0  -0.1425
  C  C543  1  0.012090  0.793730  0.828930  1.0  -0.0416
  C  C544  1  0.969060  0.779030  0.812940  1.0  -0.1341
  C  C545  1  0.954270  0.764270  0.754480  1.0  0.0378
  C  C546  1  0.984210  0.765360  0.713330  1.0  -0.1654
  C  C547  1  0.027460  0.780160  0.729610  1.0  -0.0442
  C  C548  1  0.907460  0.745390  0.737570  1.0  0.0502
  C  C549  1  0.887430  0.707320  0.703330  1.0  -0.1143
  C  C550  1  0.755060  0.142820  0.138550  1.0  0.6673
  C  C551  1  0.708480  0.127660  0.120710  1.0  -0.1425
  C  C552  1  0.678750  0.127070  0.162270  1.0  -0.0416
  C  C553  1  0.635720  0.112370  0.146280  1.0  -0.1341
  C  C554  1  0.620930  0.097610  0.087820  1.0  0.0378
  C  C555  1  0.650870  0.098700  0.046670  1.0  -0.1654
  C  C556  1  0.694120  0.113500  0.062950  1.0  -0.0442
  C  C557  1  0.574120  0.078730  0.070910  1.0  0.0502
  C  C558  1  0.554090  0.040660  0.036670  1.0  -0.1166
  C  C559  1  0.054420  0.578270  0.471880  1.0  0.6689
  C  C560  1  0.085840  0.624850  0.454040  1.0  -0.1417
  C  C561  1  0.114980  0.654580  0.495600  1.0  -0.0412
  C  C562  1  0.143310  0.697610  0.479610  1.0  -0.136
  C  C563  1  0.143340  0.712400  0.421150  1.0  0.0373
  C  C564  1  0.114490  0.682460  0.380000  1.0  -0.1679
  C  C565  1  0.086040  0.639210  0.396280  1.0  -0.0453
  C  C566  1  0.171270  0.759210  0.404240  1.0  0.0493
  C  C567  1  0.153230  0.779240  0.370000  1.0  -0.1145
  C  C568  1  0.721090  0.911600  0.805210  1.0  0.6689
  C  C569  1  0.752510  0.958180  0.787370  1.0  -0.1417
  C  C570  1  0.781650  0.987910  0.828930  1.0  -0.0412
  C  C571  1  0.809980  0.030940  0.812940  1.0  -0.136
  C  C572  1  0.810010  0.045730  0.754480  1.0  0.0373
  C  C573  1  0.781160  0.015790  0.713330  1.0  -0.1679
  C  C574  1  0.752710  0.972540  0.729610  1.0  -0.0453
  C  C575  1  0.837940  0.092540  0.737570  1.0  0.0493
  C  C576  1  0.819900  0.112570  0.703330  1.0  -0.116
  C  C577  1  0.387750  0.244940  0.138550  1.0  0.6689
  C  C578  1  0.419170  0.291520  0.120710  1.0  -0.1417
  C  C579  1  0.448310  0.321250  0.162270  1.0  -0.0412
  C  C580  1  0.476640  0.364280  0.146280  1.0  -0.136
  C  C581  1  0.476670  0.379070  0.087820  1.0  0.0373
  C  C582  1  0.447820  0.349130  0.046670  1.0  -0.1681
  C  C583  1  0.419370  0.305880  0.062950  1.0  -0.0453
  C  C584  1  0.504600  0.425880  0.070910  1.0  0.0493
  C  C585  1  0.486560  0.445910  0.036670  1.0  -0.1145
  C  C586  1  0.523850  0.945580  0.471880  1.0  0.6682
  C  C587  1  0.539010  0.914160  0.454040  1.0  -0.142
  C  C588  1  0.539600  0.885020  0.495600  1.0  -0.0427
  C  C589  1  0.554300  0.856690  0.479610  1.0  -0.1335
  C  C590  1  0.569060  0.856660  0.421150  1.0  0.0365
  C  C591  1  0.567970  0.885510  0.380000  1.0  -0.1682
  C  C592  1  0.553170  0.913960  0.396280  1.0  -0.0468
  C  C593  1  0.587940  0.828730  0.404240  1.0  0.0503
  C  C594  1  0.626010  0.846770  0.370000  1.0  -0.1111
  C  C595  1  0.190520  0.278910  0.805210  1.0  0.6682
  C  C596  1  0.205680  0.247490  0.787370  1.0  -0.142
  C  C597  1  0.206270  0.218350  0.828930  1.0  -0.0427
  C  C598  1  0.220970  0.190020  0.812940  1.0  -0.1335
  C  C599  1  0.235730  0.189990  0.754480  1.0  0.0365
  C  C600  1  0.234640  0.218840  0.713330  1.0  -0.1684
  C  C601  1  0.219840  0.247290  0.729610  1.0  -0.0468
  C  C602  1  0.254610  0.162060  0.737570  1.0  0.0503
  C  C603  1  0.292680  0.180100  0.703330  1.0  -0.1125
  C  C604  1  0.857180  0.612250  0.138550  1.0  0.6682
  C  C605  1  0.872340  0.580830  0.120710  1.0  -0.142
  C  C606  1  0.872930  0.551690  0.162270  1.0  -0.0427
  C  C607  1  0.887630  0.523360  0.146280  1.0  -0.1335
  C  C608  1  0.902390  0.523330  0.087820  1.0  0.0365
  C  C609  1  0.901300  0.552180  0.046670  1.0  -0.1682
  C  C610  1  0.886500  0.580630  0.062950  1.0  -0.0468
  C  C611  1  0.921270  0.495400  0.070910  1.0  0.0503
  C  C612  1  0.959340  0.513440  0.036670  1.0  -0.1111
  C  C613  1  0.646050  0.823020  0.351360  1.0  -0.0342
  C  C614  1  0.569040  0.784520  0.420420  1.0  0.1697
  C  C615  1  0.490820  0.745410  0.421300  1.0  0.1266
  C  C616  1  0.455070  0.727530  0.465800  1.0  -0.3699
  C  C617  1  0.312720  0.156360  0.684690  1.0  -0.0338
  C  C618  1  0.235710  0.117850  0.753750  1.0  0.1697
  C  C619  1  0.157490  0.078740  0.754630  1.0  0.1266
  C  C620  1  0.121740  0.060870  0.799130  1.0  -0.3699
  C  C621  1  0.979380  0.489690  0.018030  1.0  -0.0336
  C  C622  1  0.902370  0.451190  0.087090  1.0  0.1697
  C  C623  1  0.824150  0.412080  0.087970  1.0  0.1266
  C  C624  1  0.788400  0.394200  0.132470  1.0  -0.3699
  C  C625  1  0.176980  0.823020  0.351360  1.0  -0.0376
  C  C626  1  0.215480  0.784520  0.420420  1.0  0.1698
  C  C627  1  0.254590  0.745410  0.421300  1.0  0.1276
  C  C628  1  0.272470  0.727530  0.465800  1.0  -0.3684
  C  C629  1  0.843640  0.156360  0.684690  1.0  -0.0366
  C  C630  1  0.882150  0.117850  0.753750  1.0  0.1698
  C  C631  1  0.921260  0.078740  0.754630  1.0  0.1265
  C  C632  1  0.939130  0.060870  0.799130  1.0  -0.3692
  C  C633  1  0.510310  0.489690  0.018030  1.0  -0.0377
  C  C634  1  0.548810  0.451190  0.087090  1.0  0.1698
  C  C635  1  0.587920  0.412080  0.087970  1.0  0.1276
  C  C636  1  0.605800  0.394200  0.132470  1.0  -0.3684
  C  C637  1  0.176980  0.353950  0.351360  1.0  -0.0304
  C  C638  1  0.215480  0.430960  0.420420  1.0  0.1684
  C  C639  1  0.254590  0.509180  0.421300  1.0  0.1224
  C  C640  1  0.272470  0.544930  0.465800  1.0  -0.3718
  C  C641  1  0.843640  0.687280  0.684690  1.0  -0.03
  C  C642  1  0.882150  0.764290  0.753750  1.0  0.1684
  C  C643  1  0.921260  0.842510  0.754630  1.0  0.1224
  C  C644  1  0.939130  0.878260  0.799130  1.0  -0.3718
  C  C645  1  0.510310  0.020620  0.018030  1.0  -0.0298
  C  C646  1  0.548810  0.097630  0.087090  1.0  0.1684
  C  C647  1  0.587920  0.175850  0.087970  1.0  0.1224
  C  C648  1  0.605800  0.211600  0.132470  1.0  -0.3718
  C  C649  1  0.823020  0.646050  0.648640  1.0  -0.0301
  C  C650  1  0.784520  0.569040  0.579580  1.0  0.1695
  C  C651  1  0.745410  0.490820  0.578700  1.0  0.1233
  C  C652  1  0.727530  0.455070  0.534200  1.0  -0.3697
  C  C653  1  0.489690  0.979380  0.981970  1.0  -0.0295
  C  C654  1  0.451190  0.902370  0.912910  1.0  0.1695
  C  C655  1  0.412080  0.824150  0.912030  1.0  0.1233
  C  C656  1  0.394200  0.788400  0.867530  1.0  -0.3697
  C  C657  1  0.156360  0.312720  0.315310  1.0  -0.0298
  C  C658  1  0.117850  0.235710  0.246250  1.0  0.1695
  C  C659  1  0.078740  0.157490  0.245370  1.0  0.1233
  C  C660  1  0.060870  0.121740  0.200870  1.0  -0.3697
  C  C661  1  0.823020  0.176980  0.648640  1.0  -0.0389
  C  C662  1  0.784520  0.215480  0.579580  1.0  0.1697
  C  C663  1  0.745410  0.254590  0.578700  1.0  0.1258
  C  C664  1  0.727530  0.272470  0.534200  1.0  -0.3685
  C  C665  1  0.489690  0.510310  0.981970  1.0  -0.0391
  C  C666  1  0.451190  0.548810  0.912910  1.0  0.1697
  C  C667  1  0.412080  0.587920  0.912030  1.0  0.1258
  C  C668  1  0.394200  0.605800  0.867530  1.0  -0.3685
  C  C669  1  0.156360  0.843640  0.315310  1.0  -0.038
  C  C670  1  0.117850  0.882150  0.246250  1.0  0.1697
  C  C671  1  0.078740  0.921260  0.245370  1.0  0.1248
  C  C672  1  0.060870  0.939130  0.200870  1.0  -0.3689
  C  C673  1  0.353950  0.176980  0.648640  1.0  -0.0341
  C  C674  1  0.430960  0.215480  0.579580  1.0  0.1697
  C  C675  1  0.509180  0.254590  0.578700  1.0  0.1252
  C  C676  1  0.544930  0.272470  0.534200  1.0  -0.3688
  C  C677  1  0.020620  0.510310  0.981970  1.0  -0.0334
  C  C678  1  0.097630  0.548810  0.912910  1.0  0.1697
  C  C679  1  0.175850  0.587920  0.912030  1.0  0.1252
  C  C680  1  0.211600  0.605800  0.867530  1.0  -0.3688
  C  C681  1  0.687280  0.843640  0.315310  1.0  -0.0338
  C  C682  1  0.764290  0.882150  0.246250  1.0  0.1697
  C  C683  1  0.842510  0.921260  0.245370  1.0  0.1252
  C  C684  1  0.878260  0.939130  0.200870  1.0  -0.3688
  O  O685  1  0.525150  0.553660  0.431370  1.0  -0.5733
  O  O686  1  0.511240  0.567190  0.525330  1.0  -0.5604
  O  O687  1  0.191820  0.886990  0.764700  1.0  -0.5733
  O  O688  1  0.177910  0.900520  0.858660  1.0  -0.5604
  O  O689  1  0.858480  0.220330  0.098040  1.0  -0.5733
  O  O690  1  0.844570  0.233860  0.192000  1.0  -0.5604
  O  O691  1  0.446340  0.971490  0.431370  1.0  -0.5737
  O  O692  1  0.432810  0.944050  0.525330  1.0  -0.56
  O  O693  1  0.113010  0.304820  0.764700  1.0  -0.5737
  O  O694  1  0.099480  0.277380  0.858660  1.0  -0.5627
  O  O695  1  0.779670  0.638160  0.098040  1.0  -0.5731
  O  O696  1  0.766140  0.610720  0.192000  1.0  -0.56
  O  O697  1  0.028510  0.474850  0.431370  1.0  -0.5727
  O  O698  1  0.055950  0.488760  0.525330  1.0  -0.5623
  O  O699  1  0.695180  0.808180  0.764700  1.0  -0.5727
  O  O700  1  0.722620  0.822090  0.858660  1.0  -0.5596
  O  O701  1  0.361840  0.141520  0.098040  1.0  -0.5737
  O  O702  1  0.389280  0.155430  0.192000  1.0  -0.5623
  O  O703  1  0.553660  0.525150  0.568630  1.0  -0.5711
  O  O704  1  0.567190  0.511240  0.474670  1.0  -0.5611
  O  O705  1  0.220330  0.858480  0.901960  1.0  -0.5711
  O  O706  1  0.233860  0.844570  0.808000  1.0  -0.5611
  O  O707  1  0.886990  0.191820  0.235300  1.0  -0.5711
  O  O708  1  0.900520  0.177910  0.141340  1.0  -0.5611
  O  O709  1  0.971490  0.446340  0.568630  1.0  -0.5711
  O  O710  1  0.944050  0.432810  0.474670  1.0  -0.5608
  O  O711  1  0.638160  0.779670  0.901960  1.0  -0.571
  O  O712  1  0.610720  0.766140  0.808000  1.0  -0.5608
  O  O713  1  0.304820  0.113010  0.235300  1.0  -0.5711
  O  O714  1  0.277380  0.099480  0.141340  1.0  -0.563
  O  O715  1  0.474850  0.028510  0.568630  1.0  -0.5716
  O  O716  1  0.488760  0.055950  0.474670  1.0  -0.5633
  O  O717  1  0.141520  0.361840  0.901960  1.0  -0.5718
  O  O718  1  0.155430  0.389280  0.808000  1.0  -0.5633
  O  O719  1  0.808180  0.695180  0.235300  1.0  -0.5716
  O  O720  1  0.822090  0.722620  0.141340  1.0  -0.5606
  O  O721  1  0.474850  0.446340  0.568630  1.0  -0.572
  O  O722  1  0.488760  0.432810  0.474670  1.0  -0.5605
  O  O723  1  0.141520  0.779670  0.901960  1.0  -0.572
  O  O724  1  0.155430  0.766140  0.808000  1.0  -0.5605
  O  O725  1  0.808180  0.113010  0.235300  1.0  -0.572
  O  O726  1  0.822090  0.099480  0.141340  1.0  -0.5605
  O  O727  1  0.553660  0.028510  0.568630  1.0  -0.5715
  O  O728  1  0.567190  0.055950  0.474670  1.0  -0.5609
  O  O729  1  0.220330  0.361840  0.901960  1.0  -0.5715
  O  O730  1  0.233860  0.389280  0.808000  1.0  -0.5609
  O  O731  1  0.886990  0.695180  0.235300  1.0  -0.5715
  O  O732  1  0.900520  0.722620  0.141340  1.0  -0.5633
  O  O733  1  0.971490  0.525150  0.568630  1.0  -0.5709
  O  O734  1  0.944050  0.511240  0.474670  1.0  -0.5636
  O  O735  1  0.638160  0.858480  0.901960  1.0  -0.5711
  O  O736  1  0.610720  0.844570  0.808000  1.0  -0.5636
  O  O737  1  0.304820  0.191820  0.235300  1.0  -0.5709
  O  O738  1  0.277380  0.177910  0.141340  1.0  -0.5611
  O  O739  1  0.446340  0.474850  0.431370  1.0  -0.5727
  O  O740  1  0.432810  0.488760  0.525330  1.0  -0.5605
  O  O741  1  0.113010  0.808180  0.764700  1.0  -0.5727
  O  O742  1  0.099480  0.822090  0.858660  1.0  -0.5605
  O  O743  1  0.779670  0.141520  0.098040  1.0  -0.5727
  O  O744  1  0.766140  0.155430  0.192000  1.0  -0.5605
  O  O745  1  0.028510  0.553660  0.431370  1.0  -0.5741
  O  O746  1  0.055950  0.567190  0.525330  1.0  -0.5595
  O  O747  1  0.695180  0.886990  0.764700  1.0  -0.5741
  O  O748  1  0.722620  0.900520  0.858660  1.0  -0.5619
  O  O749  1  0.361840  0.220330  0.098040  1.0  -0.5734
  O  O750  1  0.389280  0.233860  0.192000  1.0  -0.5595
  O  O751  1  0.525150  0.971490  0.431370  1.0  -0.5734
  O  O752  1  0.511240  0.944050  0.525330  1.0  -0.5627
  O  O753  1  0.191820  0.304820  0.764700  1.0  -0.5734
  O  O754  1  0.177910  0.277380  0.858660  1.0  -0.5601
  O  O755  1  0.858480  0.638160  0.098040  1.0  -0.5741
  O  O756  1  0.844570  0.610720  0.192000  1.0  -0.5627
  O  O757  1  0.530300  0.765150  0.455070  1.0  -0.3144
  O  O758  1  0.196970  0.098480  0.788400  1.0  -0.3144
  O  O759  1  0.863630  0.431820  0.121740  1.0  -0.3143
  O  O760  1  0.234850  0.765150  0.455070  1.0  -0.3139
  O  O761  1  0.901520  0.098480  0.788400  1.0  -0.3139
  O  O762  1  0.568180  0.431820  0.121740  1.0  -0.3139
  O  O763  1  0.234850  0.469700  0.455070  1.0  -0.3125
  O  O764  1  0.901520  0.803030  0.788400  1.0  -0.3125
  O  O765  1  0.568180  0.136370  0.121740  1.0  -0.3125
  O  O766  1  0.765150  0.530300  0.544930  1.0  -0.3097
  O  O767  1  0.431820  0.863630  0.878260  1.0  -0.3097
  O  O768  1  0.098480  0.196970  0.211600  1.0  -0.3097
  O  O769  1  0.765150  0.234850  0.544930  1.0  -0.3107
  O  O770  1  0.431820  0.568180  0.878260  1.0  -0.3107
  O  O771  1  0.098480  0.901520  0.211600  1.0  -0.3107
  O  O772  1  0.469700  0.234850  0.544930  1.0  -0.3104
  O  O773  1  0.136370  0.568180  0.878260  1.0  -0.3104
  O  O774  1  0.803030  0.901520  0.211600  1.0  -0.3104
