# generated using pymatgen
data_CuH15C22O5
_symmetry_space_group_name_H-M   'P 1'
_cell_length_a   35.82920000
_cell_length_b   35.82920000
_cell_length_c   15.78500000
_cell_angle_alpha   90.00000000
_cell_angle_beta   90.00000000
_cell_angle_gamma   120.00000000
_symmetry_Int_Tables_number   1
_chemical_formula_structural   CuH15C22O5
_chemical_formula_sum   'Cu18 H270 C396 O90'
_cell_volume   17548.88146373
_cell_formula_units_Z   18
loop_
 _symmetry_equiv_pos_site_id
 _symmetry_equiv_pos_as_xyz
  1  'x, y, z'
loop_
 _atom_site_type_symbol
 _atom_site_label
 _atom_site_symmetry_multiplicity
 _atom_site_fract_x
 _atom_site_fract_y
 _atom_site_fract_z
 _atom_site_occupancy
 _atom_site_charge
  Cu  Cu1  1  0.837660  0.162340  0.085590  1.0  0.9161
  Cu  Cu2  1  0.504330  0.495670  0.418920  1.0  0.9161
  Cu  Cu3  1  0.170990  0.829010  0.752260  1.0  0.9161
  Cu  Cu4  1  0.837660  0.675320  0.085590  1.0  0.916
  Cu  Cu5  1  0.504330  0.008650  0.418920  1.0  0.9161
  Cu  Cu6  1  0.170990  0.341990  0.752260  1.0  0.916
  Cu  Cu7  1  0.324680  0.162340  0.085590  1.0  0.9161
  Cu  Cu8  1  0.991350  0.495670  0.418920  1.0  0.9162
  Cu  Cu9  1  0.658010  0.829010  0.752260  1.0  0.9161
  Cu  Cu10  1  0.162340  0.837660  0.914410  1.0  0.9155
  Cu  Cu11  1  0.829010  0.170990  0.247740  1.0  0.9155
  Cu  Cu12  1  0.495670  0.504330  0.581080  1.0  0.9154
  Cu  Cu13  1  0.675320  0.837660  0.914410  1.0  0.9154
  Cu  Cu14  1  0.341990  0.170990  0.247740  1.0  0.9154
  Cu  Cu15  1  0.008650  0.504330  0.581080  1.0  0.9155
  Cu  Cu16  1  0.162340  0.324680  0.914410  1.0  0.9155
  Cu  Cu17  1  0.829010  0.658010  0.247740  1.0  0.9155
  Cu  Cu18  1  0.495670  0.991350  0.581080  1.0  0.9156
  H  H19  1  0.799000  0.024500  0.076000  1.0  0.1234
  H  H20  1  0.777000  0.952700  0.104900  1.0  0.1028
  H  H21  1  0.766900  0.972400  0.345600  1.0  0.1143
  H  H22  1  0.792500  0.044100  0.319800  1.0  0.1048
  H  H23  1  0.695000  0.903000  0.302100  1.0  0.1176
  H  H24  1  0.840700  0.942200  0.275700  1.0  0.1404
  H  H25  1  0.893700  0.925000  0.166100  1.0  0.1394
  H  H26  1  0.465670  0.357830  0.409330  1.0  0.1234
  H  H27  1  0.443670  0.286030  0.438230  1.0  0.1028
  H  H28  1  0.433570  0.305730  0.678930  1.0  0.1144
  H  H29  1  0.459170  0.377430  0.653130  1.0  0.1049
  H  H30  1  0.361670  0.236330  0.635430  1.0  0.1176
  H  H31  1  0.507370  0.275530  0.609030  1.0  0.1404
  H  H32  1  0.560370  0.258330  0.499430  1.0  0.1394
  H  H33  1  0.132330  0.691170  0.742670  1.0  0.1234
  H  H34  1  0.110330  0.619370  0.771570  1.0  0.1028
  H  H35  1  0.100230  0.639070  0.012270  1.0  0.1143
  H  H36  1  0.125830  0.710770  0.986470  1.0  0.1048
  H  H37  1  0.028330  0.569670  0.968770  1.0  0.1176
  H  H38  1  0.174030  0.608870  0.942370  1.0  0.1404
  H  H39  1  0.227030  0.591670  0.832770  1.0  0.1394
  H  H40  1  0.975500  0.774500  0.076000  1.0  0.1234
  H  H41  1  0.047300  0.824300  0.104900  1.0  0.1027
  H  H42  1  0.027600  0.794500  0.345600  1.0  0.1152
  H  H43  1  0.955900  0.748400  0.319800  1.0  0.1054
  H  H44  1  0.097000  0.792000  0.302100  1.0  0.118
  H  H45  1  0.057800  0.898500  0.275700  1.0  0.14
  H  H46  1  0.075000  0.968700  0.166100  1.0  0.1385
  H  H47  1  0.642170  0.107830  0.409330  1.0  0.1234
  H  H48  1  0.713970  0.157630  0.438230  1.0  0.1027
  H  H49  1  0.694270  0.127830  0.678930  1.0  0.1152
  H  H50  1  0.622570  0.081730  0.653130  1.0  0.1054
  H  H51  1  0.763670  0.125330  0.635430  1.0  0.118
  H  H52  1  0.724470  0.231830  0.609030  1.0  0.14
  H  H53  1  0.741670  0.302030  0.499430  1.0  0.1385
  H  H54  1  0.308830  0.441170  0.742670  1.0  0.1234
  H  H55  1  0.380630  0.490970  0.771570  1.0  0.1027
  H  H56  1  0.360930  0.461170  0.012270  1.0  0.1152
  H  H57  1  0.289230  0.415070  0.986470  1.0  0.1054
  H  H58  1  0.430330  0.458670  0.968770  1.0  0.1183
  H  H59  1  0.391130  0.565170  0.942370  1.0  0.14
  H  H60  1  0.408330  0.635370  0.832770  1.0  0.1385
  H  H61  1  0.225500  0.201000  0.076000  1.0  0.1237
  H  H62  1  0.175700  0.223000  0.104900  1.0  0.103
  H  H63  1  0.205500  0.233100  0.345600  1.0  0.1147
  H  H64  1  0.251600  0.207500  0.319800  1.0  0.1056
  H  H65  1  0.208000  0.305000  0.302100  1.0  0.1183
  H  H66  1  0.101500  0.159300  0.275700  1.0  0.1403
  H  H67  1  0.031300  0.106300  0.166100  1.0  0.1378
  H  H68  1  0.892170  0.534330  0.409330  1.0  0.1237
  H  H69  1  0.842370  0.556330  0.438230  1.0  0.103
  H  H70  1  0.872170  0.566430  0.678930  1.0  0.1146
  H  H71  1  0.918270  0.540830  0.653130  1.0  0.1057
  H  H72  1  0.874670  0.638330  0.635430  1.0  0.1183
  H  H73  1  0.768170  0.492630  0.609030  1.0  0.1403
  H  H74  1  0.697970  0.439630  0.499430  1.0  0.1378
  H  H75  1  0.558830  0.867670  0.742670  1.0  0.1237
  H  H76  1  0.509030  0.889670  0.771570  1.0  0.103
  H  H77  1  0.538830  0.899770  0.012270  1.0  0.1147
  H  H78  1  0.584930  0.874170  0.986470  1.0  0.1056
  H  H79  1  0.541330  0.971670  0.968770  1.0  0.1186
  H  H80  1  0.434830  0.825970  0.942370  1.0  0.1403
  H  H81  1  0.364630  0.772970  0.832770  1.0  0.1378
  H  H82  1  0.024500  0.799000  0.924000  1.0  0.1235
  H  H83  1  0.952700  0.777000  0.895100  1.0  0.1031
  H  H84  1  0.972400  0.766900  0.654400  1.0  0.1149
  H  H85  1  0.044100  0.792500  0.680200  1.0  0.1056
  H  H86  1  0.903000  0.695000  0.697900  1.0  0.12
  H  H87  1  0.942200  0.840700  0.724300  1.0  0.1399
  H  H88  1  0.925000  0.893700  0.833900  1.0  0.1377
  H  H89  1  0.691170  0.132330  0.257330  1.0  0.1235
  H  H90  1  0.619370  0.110330  0.228430  1.0  0.1031
  H  H91  1  0.639070  0.100230  0.987730  1.0  0.1149
  H  H92  1  0.710770  0.125830  0.013530  1.0  0.1056
  H  H93  1  0.569670  0.028330  0.031230  1.0  0.1201
  H  H94  1  0.608870  0.174030  0.057630  1.0  0.1399
  H  H95  1  0.591670  0.227030  0.167230  1.0  0.1377
  H  H96  1  0.357830  0.465670  0.590670  1.0  0.1235
  H  H97  1  0.286030  0.443670  0.561770  1.0  0.1031
  H  H98  1  0.305730  0.433570  0.321070  1.0  0.115
  H  H99  1  0.377430  0.459170  0.346870  1.0  0.1057
  H  H100  1  0.236330  0.361670  0.364570  1.0  0.12
  H  H101  1  0.275530  0.507370  0.390970  1.0  0.1399
  H  H102  1  0.258330  0.560370  0.500570  1.0  0.1377
  H  H103  1  0.774500  0.975500  0.924000  1.0  0.1236
  H  H104  1  0.824300  0.047300  0.895100  1.0  0.1025
  H  H105  1  0.794500  0.027600  0.654400  1.0  0.1152
  H  H106  1  0.748400  0.955900  0.680200  1.0  0.1053
  H  H107  1  0.792000  0.097000  0.697900  1.0  0.1199
  H  H108  1  0.898500  0.057800  0.724300  1.0  0.1406
  H  H109  1  0.968700  0.075000  0.833900  1.0  0.139
  H  H110  1  0.441170  0.308830  0.257330  1.0  0.1236
  H  H111  1  0.490970  0.380630  0.228430  1.0  0.1025
  H  H112  1  0.461170  0.360930  0.987730  1.0  0.1151
  H  H113  1  0.415070  0.289230  0.013530  1.0  0.1053
  H  H114  1  0.458670  0.430330  0.031230  1.0  0.1193
  H  H115  1  0.565170  0.391130  0.057630  1.0  0.1406
  H  H116  1  0.635370  0.408330  0.167230  1.0  0.139
  H  H117  1  0.107830  0.642170  0.590670  1.0  0.1236
  H  H118  1  0.157630  0.713970  0.561770  1.0  0.1025
  H  H119  1  0.127830  0.694270  0.321070  1.0  0.1152
  H  H120  1  0.081730  0.622570  0.346870  1.0  0.1053
  H  H121  1  0.125330  0.763670  0.364570  1.0  0.1199
  H  H122  1  0.231830  0.724470  0.390970  1.0  0.1406
  H  H123  1  0.302030  0.741670  0.500570  1.0  0.139
  H  H124  1  0.201000  0.225500  0.924000  1.0  0.1233
  H  H125  1  0.223000  0.175700  0.895100  1.0  0.1031
  H  H126  1  0.233100  0.205500  0.654400  1.0  0.115
  H  H127  1  0.207500  0.251600  0.680200  1.0  0.1055
  H  H128  1  0.305000  0.208000  0.697900  1.0  0.119
  H  H129  1  0.159300  0.101500  0.724300  1.0  0.1397
  H  H130  1  0.106300  0.031300  0.833900  1.0  0.1389
  H  H131  1  0.867670  0.558830  0.257330  1.0  0.1233
  H  H132  1  0.889670  0.509030  0.228430  1.0  0.1031
  H  H133  1  0.899770  0.538830  0.987730  1.0  0.1151
  H  H134  1  0.874170  0.584930  0.013530  1.0  0.1055
  H  H135  1  0.971670  0.541330  0.031230  1.0  0.1191
  H  H136  1  0.825970  0.434830  0.057630  1.0  0.1397
  H  H137  1  0.772970  0.364630  0.167230  1.0  0.1389
  H  H138  1  0.534330  0.892170  0.590670  1.0  0.1233
  H  H139  1  0.556330  0.842370  0.561770  1.0  0.1031
  H  H140  1  0.566430  0.872170  0.321070  1.0  0.115
  H  H141  1  0.540830  0.918270  0.346870  1.0  0.1055
  H  H142  1  0.638330  0.874670  0.364570  1.0  0.119
  H  H143  1  0.492630  0.768170  0.390970  1.0  0.1397
  H  H144  1  0.439630  0.697970  0.500570  1.0  0.1389
  H  H145  1  0.201000  0.975500  0.924000  1.0  0.1235
  H  H146  1  0.223000  0.047300  0.895100  1.0  0.1028
  H  H147  1  0.233100  0.027600  0.654400  1.0  0.1149
  H  H148  1  0.207500  0.955900  0.680200  1.0  0.1052
  H  H149  1  0.305000  0.097000  0.697900  1.0  0.1189
  H  H150  1  0.159300  0.057800  0.724300  1.0  0.1391
  H  H151  1  0.106300  0.075000  0.833900  1.0  0.1384
  H  H152  1  0.867670  0.308830  0.257330  1.0  0.1235
  H  H153  1  0.889670  0.380630  0.228430  1.0  0.1028
  H  H154  1  0.899770  0.360930  0.987730  1.0  0.1149
  H  H155  1  0.874170  0.289230  0.013530  1.0  0.1052
  H  H156  1  0.971670  0.430330  0.031230  1.0  0.1189
  H  H157  1  0.825970  0.391130  0.057630  1.0  0.1391
  H  H158  1  0.772970  0.408330  0.167230  1.0  0.1384
  H  H159  1  0.534330  0.642170  0.590670  1.0  0.1235
  H  H160  1  0.556330  0.713970  0.561770  1.0  0.1028
  H  H161  1  0.566430  0.694270  0.321070  1.0  0.1149
  H  H162  1  0.540830  0.622570  0.346870  1.0  0.1052
  H  H163  1  0.638330  0.763670  0.364570  1.0  0.1189
  H  H164  1  0.492630  0.724470  0.390970  1.0  0.1391
  H  H165  1  0.439630  0.741670  0.500570  1.0  0.1384
  H  H166  1  0.024500  0.225500  0.924000  1.0  0.1234
  H  H167  1  0.952700  0.175700  0.895100  1.0  0.1032
  H  H168  1  0.972400  0.205500  0.654400  1.0  0.1149
  H  H169  1  0.044100  0.251600  0.680200  1.0  0.1055
  H  H170  1  0.903000  0.208000  0.697900  1.0  0.1182
  H  H171  1  0.942200  0.101500  0.724300  1.0  0.1393
  H  H172  1  0.925000  0.031300  0.833900  1.0  0.1401
  H  H173  1  0.691170  0.558830  0.257330  1.0  0.1234
  H  H174  1  0.619370  0.509030  0.228430  1.0  0.1032
  H  H175  1  0.639070  0.538830  0.987730  1.0  0.1148
  H  H176  1  0.710770  0.584930  0.013530  1.0  0.1055
  H  H177  1  0.569670  0.541330  0.031230  1.0  0.1183
  H  H178  1  0.608870  0.434830  0.057630  1.0  0.1393
  H  H179  1  0.591670  0.364630  0.167230  1.0  0.1401
  H  H180  1  0.357830  0.892170  0.590670  1.0  0.1234
  H  H181  1  0.286030  0.842370  0.561770  1.0  0.1032
  H  H182  1  0.305730  0.872170  0.321070  1.0  0.1149
  H  H183  1  0.377430  0.918270  0.346870  1.0  0.1055
  H  H184  1  0.236330  0.874670  0.364570  1.0  0.1182
  H  H185  1  0.275530  0.768170  0.390970  1.0  0.1393
  H  H186  1  0.258330  0.697970  0.500570  1.0  0.1401
  H  H187  1  0.774500  0.799000  0.924000  1.0  0.1234
  H  H188  1  0.824300  0.777000  0.895100  1.0  0.103
  H  H189  1  0.794500  0.766900  0.654400  1.0  0.1151
  H  H190  1  0.748400  0.792500  0.680200  1.0  0.1056
  H  H191  1  0.792000  0.695000  0.697900  1.0  0.1187
  H  H192  1  0.898500  0.840700  0.724300  1.0  0.1397
  H  H193  1  0.968700  0.893700  0.833900  1.0  0.1354
  H  H194  1  0.441170  0.132330  0.257330  1.0  0.1234
  H  H195  1  0.490970  0.110330  0.228430  1.0  0.103
  H  H196  1  0.461170  0.100230  0.987730  1.0  0.1151
  H  H197  1  0.415070  0.125830  0.013530  1.0  0.1056
  H  H198  1  0.458670  0.028330  0.031230  1.0  0.1189
  H  H199  1  0.565170  0.174030  0.057630  1.0  0.1397
  H  H200  1  0.635370  0.227030  0.167230  1.0  0.1354
  H  H201  1  0.107830  0.465670  0.590670  1.0  0.1234
  H  H202  1  0.157630  0.443670  0.561770  1.0  0.103
  H  H203  1  0.127830  0.433570  0.321070  1.0  0.115
  H  H204  1  0.081730  0.459170  0.346870  1.0  0.1056
  H  H205  1  0.125330  0.361670  0.364570  1.0  0.1187
  H  H206  1  0.231830  0.507370  0.390970  1.0  0.1397
  H  H207  1  0.302030  0.560370  0.500570  1.0  0.1354
  H  H208  1  0.975500  0.201000  0.076000  1.0  0.1235
  H  H209  1  0.047300  0.223000  0.104900  1.0  0.1028
  H  H210  1  0.027600  0.233100  0.345600  1.0  0.1151
  H  H211  1  0.955900  0.207500  0.319800  1.0  0.1056
  H  H212  1  0.097000  0.305000  0.302100  1.0  0.119
  H  H213  1  0.057800  0.159300  0.275700  1.0  0.1406
  H  H214  1  0.075000  0.106300  0.166100  1.0  0.1364
  H  H215  1  0.642170  0.534330  0.409330  1.0  0.1235
  H  H216  1  0.713970  0.556330  0.438230  1.0  0.1028
  H  H217  1  0.694270  0.566430  0.678930  1.0  0.1152
  H  H218  1  0.622570  0.540830  0.653130  1.0  0.1056
  H  H219  1  0.763670  0.638330  0.635430  1.0  0.119
  H  H220  1  0.724470  0.492630  0.609030  1.0  0.1406
  H  H221  1  0.741670  0.439630  0.499430  1.0  0.1364
  H  H222  1  0.308830  0.867670  0.742670  1.0  0.1235
  H  H223  1  0.380630  0.889670  0.771570  1.0  0.1028
  H  H224  1  0.360930  0.899770  0.012270  1.0  0.1151
  H  H225  1  0.289230  0.874170  0.986470  1.0  0.1056
  H  H226  1  0.430330  0.971670  0.968770  1.0  0.1191
  H  H227  1  0.391130  0.825970  0.942370  1.0  0.1406
  H  H228  1  0.408330  0.772970  0.832770  1.0  0.1364
  H  H229  1  0.225500  0.024500  0.076000  1.0  0.1233
  H  H230  1  0.175700  0.952700  0.104900  1.0  0.103
  H  H231  1  0.205500  0.972400  0.345600  1.0  0.1139
  H  H232  1  0.251600  0.044100  0.319800  1.0  0.1051
  H  H233  1  0.208000  0.903000  0.302100  1.0  0.1193
  H  H234  1  0.101500  0.942200  0.275700  1.0  0.1403
  H  H235  1  0.031300  0.925000  0.166100  1.0  0.1378
  H  H236  1  0.892170  0.357830  0.409330  1.0  0.1233
  H  H237  1  0.842370  0.286030  0.438230  1.0  0.103
  H  H238  1  0.872170  0.305730  0.678930  1.0  0.1139
  H  H239  1  0.918270  0.377430  0.653130  1.0  0.1051
  H  H240  1  0.874670  0.236330  0.635430  1.0  0.1193
  H  H241  1  0.768170  0.275530  0.609030  1.0  0.1403
  H  H242  1  0.697970  0.258330  0.499430  1.0  0.1378
  H  H243  1  0.558830  0.691170  0.742670  1.0  0.1233
  H  H244  1  0.509030  0.619370  0.771570  1.0  0.103
  H  H245  1  0.538830  0.639070  0.012270  1.0  0.1138
  H  H246  1  0.584930  0.710770  0.986470  1.0  0.1051
  H  H247  1  0.541330  0.569670  0.968770  1.0  0.1189
  H  H248  1  0.434830  0.608870  0.942370  1.0  0.1403
  H  H249  1  0.364630  0.591670  0.832770  1.0  0.1378
  H  H250  1  0.799000  0.774500  0.076000  1.0  0.1235
  H  H251  1  0.777000  0.824300  0.104900  1.0  0.1026
  H  H252  1  0.766900  0.794500  0.345600  1.0  0.1146
  H  H253  1  0.792500  0.748400  0.319800  1.0  0.1056
  H  H254  1  0.695000  0.792000  0.302100  1.0  0.1196
  H  H255  1  0.840700  0.898500  0.275700  1.0  0.1392
  H  H256  1  0.893700  0.968700  0.166100  1.0  0.1405
  H  H257  1  0.465670  0.107830  0.409330  1.0  0.1235
  H  H258  1  0.443670  0.157630  0.438230  1.0  0.1026
  H  H259  1  0.433570  0.127830  0.678930  1.0  0.1146
  H  H260  1  0.459170  0.081730  0.653130  1.0  0.1057
  H  H261  1  0.361670  0.125330  0.635430  1.0  0.1196
  H  H262  1  0.507370  0.231830  0.609030  1.0  0.1392
  H  H263  1  0.560370  0.302030  0.499430  1.0  0.1405
  H  H264  1  0.132330  0.441170  0.742670  1.0  0.1235
  H  H265  1  0.110330  0.490970  0.771570  1.0  0.1026
  H  H266  1  0.100230  0.461170  0.012270  1.0  0.1147
  H  H267  1  0.125830  0.415070  0.986470  1.0  0.1056
  H  H268  1  0.028330  0.458670  0.968770  1.0  0.1194
  H  H269  1  0.174030  0.565170  0.942370  1.0  0.1392
  H  H270  1  0.227030  0.635370  0.832770  1.0  0.1405
  H  H271  1  0.910900  0.955450  0.245100  1.0  0.1368
  H  H272  1  0.577570  0.288780  0.578430  1.0  0.1368
  H  H273  1  0.244230  0.622120  0.911770  1.0  0.1368
  H  H274  1  0.044550  0.955450  0.245100  1.0  0.137
  H  H275  1  0.711220  0.288780  0.578430  1.0  0.137
  H  H276  1  0.377880  0.622120  0.911770  1.0  0.137
  H  H277  1  0.044550  0.089100  0.245100  1.0  0.1391
  H  H278  1  0.711220  0.422430  0.578430  1.0  0.1391
  H  H279  1  0.377880  0.755770  0.911770  1.0  0.1391
  H  H280  1  0.955450  0.910900  0.754900  1.0  0.1359
  H  H281  1  0.622120  0.244230  0.088230  1.0  0.1359
  H  H282  1  0.288780  0.577570  0.421570  1.0  0.1359
  H  H283  1  0.955450  0.044550  0.754900  1.0  0.1369
  H  H284  1  0.622120  0.377880  0.088230  1.0  0.1369
  H  H285  1  0.288780  0.711220  0.421570  1.0  0.1369
  H  H286  1  0.089100  0.044550  0.754900  1.0  0.1368
  H  H287  1  0.755770  0.377880  0.088230  1.0  0.1368
  H  H288  1  0.422430  0.711220  0.421570  1.0  0.1368
  C  C289  1  0.811980  0.088960  0.181000  1.0  0.6746
  C  C290  1  0.797410  0.041730  0.197500  1.0  -0.1339
  C  C291  1  0.792700  0.014230  0.131300  1.0  -0.0943
  C  C292  1  0.778310  0.970580  0.149000  1.0  -0.14
  C  C293  1  0.766570  0.953920  0.225900  1.0  0.1045
  C  C294  1  0.773000  0.982470  0.290100  1.0  -0.177
  C  C295  1  0.788400  0.025840  0.274600  1.0  -0.058
  C  C296  1  0.746440  0.906940  0.242700  1.0  0.0209
  C  C297  1  0.707860  0.886870  0.286900  1.0  -0.1458
  C  C298  1  0.478650  0.422290  0.514330  1.0  0.6746
  C  C299  1  0.464080  0.375060  0.530830  1.0  -0.1337
  C  C300  1  0.459370  0.347560  0.464630  1.0  -0.0945
  C  C301  1  0.444980  0.303910  0.482330  1.0  -0.14
  C  C302  1  0.433240  0.287250  0.559230  1.0  0.1045
  C  C303  1  0.439670  0.315800  0.623430  1.0  -0.177
  C  C304  1  0.455070  0.359170  0.607930  1.0  -0.058
  C  C305  1  0.413110  0.240270  0.576030  1.0  0.0209
  C  C306  1  0.374530  0.220200  0.620230  1.0  -0.1458
  C  C307  1  0.145310  0.755630  0.847670  1.0  0.6746
  C  C308  1  0.130740  0.708400  0.864170  1.0  -0.1337
  C  C309  1  0.126030  0.680900  0.797970  1.0  -0.0944
  C  C310  1  0.111640  0.637250  0.815670  1.0  -0.14
  C  C311  1  0.099900  0.620590  0.892570  1.0  0.1044
  C  C312  1  0.106330  0.649140  0.956770  1.0  -0.177
  C  C313  1  0.121730  0.692510  0.941270  1.0  -0.058
  C  C314  1  0.079770  0.573610  0.909370  1.0  0.0209
  C  C315  1  0.041190  0.553540  0.953570  1.0  -0.1458
  C  C316  1  0.911040  0.723020  0.181000  1.0  0.6742
  C  C317  1  0.958270  0.755680  0.197500  1.0  -0.1372
  C  C318  1  0.985770  0.778470  0.131300  1.0  -0.0938
  C  C319  1  0.029420  0.807730  0.149000  1.0  -0.1382
  C  C320  1  0.046080  0.812650  0.225900  1.0  0.1053
  C  C321  1  0.017530  0.790530  0.290100  1.0  -0.1778
  C  C322  1  0.974160  0.762560  0.274600  1.0  -0.0555
  C  C323  1  0.093060  0.839500  0.242700  1.0  0.0215
  C  C324  1  0.113130  0.820990  0.286900  1.0  -0.1459
  C  C325  1  0.577710  0.056350  0.514330  1.0  0.6742
  C  C326  1  0.624940  0.089010  0.530830  1.0  -0.1372
  C  C327  1  0.652440  0.111800  0.464630  1.0  -0.0939
  C  C328  1  0.696090  0.141060  0.482330  1.0  -0.1382
  C  C329  1  0.712750  0.145980  0.559230  1.0  0.1053
  C  C330  1  0.684200  0.123860  0.623430  1.0  -0.1778
  C  C331  1  0.640830  0.095890  0.607930  1.0  -0.0555
  C  C332  1  0.759730  0.172830  0.576030  1.0  0.0215
  C  C333  1  0.779800  0.154320  0.620230  1.0  -0.1459
  C  C334  1  0.244370  0.389690  0.847670  1.0  0.6742
  C  C335  1  0.291600  0.422350  0.864170  1.0  -0.1375
  C  C336  1  0.319100  0.445140  0.797970  1.0  -0.0936
  C  C337  1  0.362750  0.474400  0.815670  1.0  -0.1382
  C  C338  1  0.379410  0.479320  0.892570  1.0  0.1053
  C  C339  1  0.350860  0.457200  0.956770  1.0  -0.1778
  C  C340  1  0.307490  0.429230  0.941270  1.0  -0.0555
  C  C341  1  0.426390  0.506170  0.909370  1.0  0.0215
  C  C342  1  0.446460  0.487660  0.953570  1.0  -0.1457
  C  C343  1  0.276980  0.188020  0.181000  1.0  0.673
  C  C344  1  0.244320  0.202590  0.197500  1.0  -0.135
  C  C345  1  0.221530  0.207300  0.131300  1.0  -0.0959
  C  C346  1  0.192270  0.221690  0.149000  1.0  -0.1384
  C  C347  1  0.187350  0.233430  0.225900  1.0  0.1045
  C  C348  1  0.209470  0.227000  0.290100  1.0  -0.1778
  C  C349  1  0.237440  0.211600  0.274600  1.0  -0.0549
  C  C350  1  0.160500  0.253560  0.242700  1.0  0.0239
  C  C351  1  0.179010  0.292140  0.286900  1.0  -0.1479
  C  C352  1  0.943650  0.521350  0.514330  1.0  0.673
  C  C353  1  0.910990  0.535920  0.530830  1.0  -0.1353
  C  C354  1  0.888200  0.540630  0.464630  1.0  -0.0958
  C  C355  1  0.858940  0.555020  0.482330  1.0  -0.1384
  C  C356  1  0.854020  0.566760  0.559230  1.0  0.1045
  C  C357  1  0.876140  0.560330  0.623430  1.0  -0.1778
  C  C358  1  0.904110  0.544930  0.607930  1.0  -0.0549
  C  C359  1  0.827170  0.586890  0.576030  1.0  0.0239
  C  C360  1  0.845680  0.625470  0.620230  1.0  -0.1479
  C  C361  1  0.610310  0.854690  0.847670  1.0  0.673
  C  C362  1  0.577650  0.869260  0.864170  1.0  -0.135
  C  C363  1  0.554860  0.873970  0.797970  1.0  -0.0958
  C  C364  1  0.525600  0.888360  0.815670  1.0  -0.1384
  C  C365  1  0.520680  0.900100  0.892570  1.0  0.1047
  C  C366  1  0.542800  0.893670  0.956770  1.0  -0.1778
  C  C367  1  0.570770  0.878270  0.941270  1.0  -0.055
  C  C368  1  0.493830  0.920230  0.909370  1.0  0.0239
  C  C369  1  0.512340  0.958810  0.953570  1.0  -0.1478
  C  C370  1  0.088960  0.811980  0.819000  1.0  0.6734
  C  C371  1  0.041730  0.797410  0.802500  1.0  -0.1362
  C  C372  1  0.014230  0.792700  0.868700  1.0  -0.0933
  C  C373  1  0.970580  0.778310  0.851000  1.0  -0.1378
  C  C374  1  0.953920  0.766570  0.774100  1.0  0.1045
  C  C375  1  0.982470  0.773000  0.709900  1.0  -0.1759
  C  C376  1  0.025840  0.788400  0.725400  1.0  -0.0557
  C  C377  1  0.906940  0.746440  0.757300  1.0  0.0234
  C  C378  1  0.886870  0.707860  0.713100  1.0  -0.1483
  C  C379  1  0.755630  0.145310  0.152330  1.0  0.6734
  C  C380  1  0.708400  0.130740  0.135830  1.0  -0.1359
  C  C381  1  0.680900  0.126030  0.202030  1.0  -0.0934
  C  C382  1  0.637250  0.111640  0.184330  1.0  -0.1378
  C  C383  1  0.620590  0.099900  0.107430  1.0  0.1045
  C  C384  1  0.649140  0.106330  0.043230  1.0  -0.1759
  C  C385  1  0.692510  0.121730  0.058730  1.0  -0.0555
  C  C386  1  0.573610  0.079770  0.090630  1.0  0.0234
  C  C387  1  0.553540  0.041190  0.046430  1.0  -0.1483
  C  C388  1  0.422290  0.478650  0.485670  1.0  0.6734
  C  C389  1  0.375060  0.464080  0.469170  1.0  -0.136
  C  C390  1  0.347560  0.459370  0.535370  1.0  -0.0935
  C  C391  1  0.303910  0.444980  0.517670  1.0  -0.1378
  C  C392  1  0.287250  0.433240  0.440770  1.0  0.1045
  C  C393  1  0.315800  0.439670  0.376570  1.0  -0.1759
  C  C394  1  0.359170  0.455070  0.392070  1.0  -0.0557
  C  C395  1  0.240270  0.413110  0.423970  1.0  0.0234
  C  C396  1  0.220200  0.374530  0.379770  1.0  -0.1483
  C  C397  1  0.723020  0.911040  0.819000  1.0  0.6746
  C  C398  1  0.755680  0.958270  0.802500  1.0  -0.1348
  C  C399  1  0.778470  0.985770  0.868700  1.0  -0.0926
  C  C400  1  0.807730  0.029420  0.851000  1.0  -0.1388
  C  C401  1  0.812650  0.046080  0.774100  1.0  0.1046
  C  C402  1  0.790530  0.017530  0.709900  1.0  -0.176
  C  C403  1  0.762560  0.974160  0.725400  1.0  -0.0573
  C  C404  1  0.839500  0.093060  0.757300  1.0  0.0208
  C  C405  1  0.820990  0.113130  0.713100  1.0  -0.1471
  C  C406  1  0.389690  0.244370  0.152330  1.0  0.6746
  C  C407  1  0.422350  0.291600  0.135830  1.0  -0.1351
  C  C408  1  0.445140  0.319100  0.202030  1.0  -0.0924
  C  C409  1  0.474400  0.362750  0.184330  1.0  -0.1389
  C  C410  1  0.479320  0.379410  0.107430  1.0  0.1046
  C  C411  1  0.457200  0.350860  0.043230  1.0  -0.176
  C  C412  1  0.429230  0.307490  0.058730  1.0  -0.0571
  C  C413  1  0.506170  0.426390  0.090630  1.0  0.0208
  C  C414  1  0.487660  0.446460  0.046430  1.0  -0.1469
  C  C415  1  0.056350  0.577710  0.485670  1.0  0.6745
  C  C416  1  0.089010  0.624940  0.469170  1.0  -0.1348
  C  C417  1  0.111800  0.652440  0.535370  1.0  -0.0926
  C  C418  1  0.141060  0.696090  0.517670  1.0  -0.1388
  C  C419  1  0.145980  0.712750  0.440770  1.0  0.1046
  C  C420  1  0.123860  0.684200  0.376570  1.0  -0.176
  C  C421  1  0.095890  0.640830  0.392070  1.0  -0.0573
  C  C422  1  0.172830  0.759730  0.423970  1.0  0.0208
  C  C423  1  0.154320  0.779800  0.379770  1.0  -0.1471
  C  C424  1  0.188020  0.276980  0.819000  1.0  0.6746
  C  C425  1  0.202590  0.244320  0.802500  1.0  -0.1373
  C  C426  1  0.207300  0.221530  0.868700  1.0  -0.0924
  C  C427  1  0.221690  0.192270  0.851000  1.0  -0.1382
  C  C428  1  0.233430  0.187350  0.774100  1.0  0.1044
  C  C429  1  0.227000  0.209470  0.709900  1.0  -0.1767
  C  C430  1  0.211600  0.237440  0.725400  1.0  -0.056
  C  C431  1  0.253560  0.160500  0.757300  1.0  0.0224
  C  C432  1  0.292140  0.179010  0.713100  1.0  -0.1483
  C  C433  1  0.854690  0.610310  0.152330  1.0  0.6746
  C  C434  1  0.869260  0.577650  0.135830  1.0  -0.1373
  C  C435  1  0.873970  0.554860  0.202030  1.0  -0.0924
  C  C436  1  0.888360  0.525600  0.184330  1.0  -0.1382
  C  C437  1  0.900100  0.520680  0.107430  1.0  0.1045
  C  C438  1  0.893670  0.542800  0.043230  1.0  -0.1767
  C  C439  1  0.878270  0.570770  0.058730  1.0  -0.0562
  C  C440  1  0.920230  0.493830  0.090630  1.0  0.0224
  C  C441  1  0.958810  0.512340  0.046430  1.0  -0.1482
  C  C442  1  0.521350  0.943650  0.485670  1.0  0.6746
  C  C443  1  0.535920  0.910990  0.469170  1.0  -0.1375
  C  C444  1  0.540630  0.888200  0.535370  1.0  -0.0924
  C  C445  1  0.555020  0.858940  0.517670  1.0  -0.1382
  C  C446  1  0.566760  0.854020  0.440770  1.0  0.1044
  C  C447  1  0.560330  0.876140  0.376570  1.0  -0.1767
  C  C448  1  0.544930  0.904110  0.392070  1.0  -0.056
  C  C449  1  0.586890  0.827170  0.423970  1.0  0.0224
  C  C450  1  0.625470  0.845680  0.379770  1.0  -0.1483
  C  C451  1  0.188020  0.911040  0.819000  1.0  0.674
  C  C452  1  0.202590  0.958270  0.802500  1.0  -0.1362
  C  C453  1  0.207300  0.985770  0.868700  1.0  -0.0927
  C  C454  1  0.221690  0.029420  0.851000  1.0  -0.1392
  C  C455  1  0.233430  0.046080  0.774100  1.0  0.1051
  C  C456  1  0.227000  0.017530  0.709900  1.0  -0.1754
  C  C457  1  0.211600  0.974160  0.725400  1.0  -0.0591
  C  C458  1  0.253560  0.093060  0.757300  1.0  0.0226
  C  C459  1  0.292140  0.113130  0.713100  1.0  -0.1479
  C  C460  1  0.854690  0.244370  0.152330  1.0  0.674
  C  C461  1  0.869260  0.291600  0.135830  1.0  -0.1359
  C  C462  1  0.873970  0.319100  0.202030  1.0  -0.0928
  C  C463  1  0.888360  0.362750  0.184330  1.0  -0.1392
  C  C464  1  0.900100  0.379410  0.107430  1.0  0.1051
  C  C465  1  0.893670  0.350860  0.043230  1.0  -0.1755
  C  C466  1  0.878270  0.307490  0.058730  1.0  -0.0589
  C  C467  1  0.920230  0.426390  0.090630  1.0  0.0226
  C  C468  1  0.958810  0.446460  0.046430  1.0  -0.1479
  C  C469  1  0.521350  0.577710  0.485670  1.0  0.674
  C  C470  1  0.535920  0.624940  0.469170  1.0  -0.1359
  C  C471  1  0.540630  0.652440  0.535370  1.0  -0.0929
  C  C472  1  0.555020  0.696090  0.517670  1.0  -0.1392
  C  C473  1  0.566760  0.712750  0.440770  1.0  0.1051
  C  C474  1  0.560330  0.684200  0.376570  1.0  -0.1755
  C  C475  1  0.544930  0.640830  0.392070  1.0  -0.0591
  C  C476  1  0.586890  0.759730  0.423970  1.0  0.0226
  C  C477  1  0.625470  0.779800  0.379770  1.0  -0.1479
  C  C478  1  0.088960  0.276980  0.819000  1.0  0.6738
  C  C479  1  0.041730  0.244320  0.802500  1.0  -0.1368
  C  C480  1  0.014230  0.221530  0.868700  1.0  -0.0926
  C  C481  1  0.970580  0.192270  0.851000  1.0  -0.1388
  C  C482  1  0.953920  0.187350  0.774100  1.0  0.1043
  C  C483  1  0.982470  0.209470  0.709900  1.0  -0.1764
  C  C484  1  0.025840  0.237440  0.725400  1.0  -0.0575
  C  C485  1  0.906940  0.160500  0.757300  1.0  0.0218
  C  C486  1  0.886870  0.179010  0.713100  1.0  -0.1474
  C  C487  1  0.755630  0.610310  0.152330  1.0  0.6738
  C  C488  1  0.708400  0.577650  0.135830  1.0  -0.1371
  C  C489  1  0.680900  0.554860  0.202030  1.0  -0.0924
  C  C490  1  0.637250  0.525600  0.184330  1.0  -0.1388
  C  C491  1  0.620590  0.520680  0.107430  1.0  0.1043
  C  C492  1  0.649140  0.542800  0.043230  1.0  -0.1764
  C  C493  1  0.692510  0.570770  0.058730  1.0  -0.0574
  C  C494  1  0.573610  0.493830  0.090630  1.0  0.0218
  C  C495  1  0.553540  0.512340  0.046430  1.0  -0.1472
  C  C496  1  0.422290  0.943650  0.485670  1.0  0.6737
  C  C497  1  0.375060  0.910990  0.469170  1.0  -0.1368
  C  C498  1  0.347560  0.888200  0.535370  1.0  -0.0926
  C  C499  1  0.303910  0.858940  0.517670  1.0  -0.1388
  C  C500  1  0.287250  0.854020  0.440770  1.0  0.1043
  C  C501  1  0.315800  0.876140  0.376570  1.0  -0.1764
  C  C502  1  0.359170  0.904110  0.392070  1.0  -0.0575
  C  C503  1  0.240270  0.827170  0.423970  1.0  0.0218
  C  C504  1  0.220200  0.845680  0.379770  1.0  -0.1474
  C  C505  1  0.723020  0.811980  0.819000  1.0  0.6731
  C  C506  1  0.755680  0.797410  0.802500  1.0  -0.1384
  C  C507  1  0.778470  0.792700  0.868700  1.0  -0.0941
  C  C508  1  0.807730  0.778310  0.851000  1.0  -0.1381
  C  C509  1  0.812650  0.766570  0.774100  1.0  0.1046
  C  C510  1  0.790530  0.773000  0.709900  1.0  -0.1756
  C  C511  1  0.762560  0.788400  0.725400  1.0  -0.0544
  C  C512  1  0.839500  0.746440  0.757300  1.0  0.0217
  C  C513  1  0.820990  0.707860  0.713100  1.0  -0.1479
  C  C514  1  0.389690  0.145310  0.152330  1.0  0.6731
  C  C515  1  0.422350  0.130740  0.135830  1.0  -0.1385
  C  C516  1  0.445140  0.126030  0.202030  1.0  -0.094
  C  C517  1  0.474400  0.111640  0.184330  1.0  -0.1381
  C  C518  1  0.479320  0.099900  0.107430  1.0  0.1048
  C  C519  1  0.457200  0.106330  0.043230  1.0  -0.1756
  C  C520  1  0.429230  0.121730  0.058730  1.0  -0.0547
  C  C521  1  0.506170  0.079770  0.090630  1.0  0.0217
  C  C522  1  0.487660  0.041190  0.046430  1.0  -0.1478
  C  C523  1  0.056350  0.478650  0.485670  1.0  0.6732
  C  C524  1  0.089010  0.464080  0.469170  1.0  -0.1387
  C  C525  1  0.111800  0.459370  0.535370  1.0  -0.094
  C  C526  1  0.141060  0.444980  0.517670  1.0  -0.1381
  C  C527  1  0.145980  0.433240  0.440770  1.0  0.1046
  C  C528  1  0.123860  0.439670  0.376570  1.0  -0.1756
  C  C529  1  0.095890  0.455070  0.392070  1.0  -0.0545
  C  C530  1  0.172830  0.413110  0.423970  1.0  0.0217
  C  C531  1  0.154320  0.374530  0.379770  1.0  -0.1479
  C  C532  1  0.911040  0.188020  0.181000  1.0  0.6727
  C  C533  1  0.958270  0.202590  0.197500  1.0  -0.138
  C  C534  1  0.985770  0.207300  0.131300  1.0  -0.0951
  C  C535  1  0.029420  0.221690  0.149000  1.0  -0.1383
  C  C536  1  0.046080  0.233430  0.225900  1.0  0.1043
  C  C537  1  0.017530  0.227000  0.290100  1.0  -0.1775
  C  C538  1  0.974160  0.211600  0.274600  1.0  -0.0545
  C  C539  1  0.093060  0.253560  0.242700  1.0  0.0223
  C  C540  1  0.113130  0.292140  0.286900  1.0  -0.1483
  C  C541  1  0.577710  0.521350  0.514330  1.0  0.6726
  C  C542  1  0.624940  0.535920  0.530830  1.0  -0.1377
  C  C543  1  0.652440  0.540630  0.464630  1.0  -0.0953
  C  C544  1  0.696090  0.555020  0.482330  1.0  -0.1383
  C  C545  1  0.712750  0.566760  0.559230  1.0  0.1043
  C  C546  1  0.684200  0.560330  0.623430  1.0  -0.1775
  C  C547  1  0.640830  0.544930  0.607930  1.0  -0.0545
  C  C548  1  0.759730  0.586890  0.576030  1.0  0.0223
  C  C549  1  0.779800  0.625470  0.620230  1.0  -0.1483
  C  C550  1  0.244370  0.854690  0.847670  1.0  0.6727
  C  C551  1  0.291600  0.869260  0.864170  1.0  -0.1377
  C  C552  1  0.319100  0.873970  0.797970  1.0  -0.0952
  C  C553  1  0.362750  0.888360  0.815670  1.0  -0.1383
  C  C554  1  0.379410  0.900100  0.892570  1.0  0.1043
  C  C555  1  0.350860  0.893670  0.956770  1.0  -0.1775
  C  C556  1  0.307490  0.878270  0.941270  1.0  -0.0545
  C  C557  1  0.426390  0.920230  0.909370  1.0  0.0223
  C  C558  1  0.446460  0.958810  0.953570  1.0  -0.1482
  C  C559  1  0.276980  0.088960  0.181000  1.0  0.6743
  C  C560  1  0.244320  0.041730  0.197500  1.0  -0.1348
  C  C561  1  0.221530  0.014230  0.131300  1.0  -0.095
  C  C562  1  0.192270  0.970580  0.149000  1.0  -0.1406
  C  C563  1  0.187350  0.953920  0.225900  1.0  0.105
  C  C564  1  0.209470  0.982470  0.290100  1.0  -0.1766
  C  C565  1  0.237440  0.025840  0.274600  1.0  -0.0572
  C  C566  1  0.160500  0.906940  0.242700  1.0  0.0228
  C  C567  1  0.179010  0.886870  0.286900  1.0  -0.1472
  C  C568  1  0.943650  0.422290  0.514330  1.0  0.6743
  C  C569  1  0.910990  0.375060  0.530830  1.0  -0.1348
  C  C570  1  0.888200  0.347560  0.464630  1.0  -0.0951
  C  C571  1  0.858940  0.303910  0.482330  1.0  -0.1406
  C  C572  1  0.854020  0.287250  0.559230  1.0  0.105
  C  C573  1  0.876140  0.315800  0.623430  1.0  -0.1766
  C  C574  1  0.904110  0.359170  0.607930  1.0  -0.0572
  C  C575  1  0.827170  0.240270  0.576030  1.0  0.0228
  C  C576  1  0.845680  0.220200  0.620230  1.0  -0.1472
  C  C577  1  0.610310  0.755630  0.847670  1.0  0.6743
  C  C578  1  0.577650  0.708400  0.864170  1.0  -0.1351
  C  C579  1  0.554860  0.680900  0.797970  1.0  -0.0948
  C  C580  1  0.525600  0.637250  0.815670  1.0  -0.1407
  C  C581  1  0.520680  0.620590  0.892570  1.0  0.1051
  C  C582  1  0.542800  0.649140  0.956770  1.0  -0.1766
  C  C583  1  0.570770  0.692510  0.941270  1.0  -0.0571
  C  C584  1  0.493830  0.573610  0.909370  1.0  0.0228
  C  C585  1  0.512340  0.553540  0.953570  1.0  -0.147
  C  C586  1  0.811980  0.723020  0.181000  1.0  0.6733
  C  C587  1  0.797410  0.755680  0.197500  1.0  -0.1356
  C  C588  1  0.792700  0.778470  0.131300  1.0  -0.095
  C  C589  1  0.778310  0.807730  0.149000  1.0  -0.1385
  C  C590  1  0.766570  0.812650  0.225900  1.0  0.1049
  C  C591  1  0.773000  0.790530  0.290100  1.0  -0.1781
  C  C592  1  0.788400  0.762560  0.274600  1.0  -0.0558
  C  C593  1  0.746440  0.839500  0.242700  1.0  0.0212
  C  C594  1  0.707860  0.820990  0.286900  1.0  -0.1462
  C  C595  1  0.478650  0.056350  0.514330  1.0  0.6733
  C  C596  1  0.464080  0.089010  0.530830  1.0  -0.1358
  C  C597  1  0.459370  0.111800  0.464630  1.0  -0.0949
  C  C598  1  0.444980  0.141060  0.482330  1.0  -0.1385
  C  C599  1  0.433240  0.145980  0.559230  1.0  0.1049
  C  C600  1  0.439670  0.123860  0.623430  1.0  -0.1781
  C  C601  1  0.455070  0.095890  0.607930  1.0  -0.0558
  C  C602  1  0.413110  0.172830  0.576030  1.0  0.0212
  C  C603  1  0.374530  0.154320  0.620230  1.0  -0.1462
  C  C604  1  0.145310  0.389690  0.847670  1.0  0.6733
  C  C605  1  0.130740  0.422350  0.864170  1.0  -0.1356
  C  C606  1  0.126030  0.445140  0.797970  1.0  -0.0949
  C  C607  1  0.111640  0.474400  0.815670  1.0  -0.1385
  C  C608  1  0.099900  0.479320  0.892570  1.0  0.105
  C  C609  1  0.106330  0.457200  0.956770  1.0  -0.1781
  C  C610  1  0.121730  0.429230  0.941270  1.0  -0.0559
  C  C611  1  0.079770  0.506170  0.909370  1.0  0.0212
  C  C612  1  0.041190  0.487660  0.953570  1.0  -0.146
  C  C613  1  0.687740  0.843870  0.309200  1.0  -0.0132
  C  C614  1  0.765740  0.882870  0.220100  1.0  0.1945
  C  C615  1  0.843400  0.921700  0.239700  1.0  -0.0807
  C  C616  1  0.889900  0.944950  0.200400  1.0  -0.3184
  C  C617  1  0.354410  0.177200  0.642530  1.0  -0.0132
  C  C618  1  0.432410  0.216200  0.553430  1.0  0.1945
  C  C619  1  0.510070  0.255030  0.573030  1.0  -0.0807
  C  C620  1  0.556570  0.278280  0.533730  1.0  -0.3184
  C  C621  1  0.021070  0.510540  0.975870  1.0  -0.0127
  C  C622  1  0.099070  0.549540  0.886770  1.0  0.194
  C  C623  1  0.176730  0.588370  0.906370  1.0  -0.0807
  C  C624  1  0.223230  0.611620  0.867070  1.0  -0.3184
  C  C625  1  0.156130  0.843870  0.309200  1.0  -0.0132
  C  C626  1  0.117130  0.882870  0.220100  1.0  0.1932
  C  C627  1  0.078300  0.921700  0.239700  1.0  -0.0811
  C  C628  1  0.055050  0.944950  0.200400  1.0  -0.3192
  C  C629  1  0.822800  0.177200  0.642530  1.0  -0.0132
  C  C630  1  0.783800  0.216200  0.553430  1.0  0.1932
  C  C631  1  0.744970  0.255030  0.573030  1.0  -0.0811
  C  C632  1  0.721720  0.278280  0.533730  1.0  -0.3192
  C  C633  1  0.489460  0.510540  0.975870  1.0  -0.0133
  C  C634  1  0.450460  0.549540  0.886770  1.0  0.1937
  C  C635  1  0.411630  0.588370  0.906370  1.0  -0.0811
  C  C636  1  0.388380  0.611620  0.867070  1.0  -0.3192
  C  C637  1  0.156130  0.312260  0.309200  1.0  -0.0097
  C  C638  1  0.117130  0.234260  0.220100  1.0  0.1941
  C  C639  1  0.078300  0.156600  0.239700  1.0  -0.0822
  C  C640  1  0.055050  0.110100  0.200400  1.0  -0.321
  C  C641  1  0.822800  0.645590  0.642530  1.0  -0.0097
  C  C642  1  0.783800  0.567590  0.553430  1.0  0.1941
  C  C643  1  0.744970  0.489930  0.573030  1.0  -0.0822
  C  C644  1  0.721720  0.443430  0.533730  1.0  -0.321
  C  C645  1  0.489460  0.978930  0.975870  1.0  -0.0093
  C  C646  1  0.450460  0.900930  0.886770  1.0  0.1937
  C  C647  1  0.411630  0.823270  0.906370  1.0  -0.0822
  C  C648  1  0.388380  0.776770  0.867070  1.0  -0.321
  C  C649  1  0.843870  0.687740  0.690800  1.0  -0.0094
  C  C650  1  0.882870  0.765740  0.779900  1.0  0.1939
  C  C651  1  0.921700  0.843400  0.760300  1.0  -0.0838
  C  C652  1  0.944950  0.889900  0.799600  1.0  -0.321
  C  C653  1  0.510540  0.021070  0.024130  1.0  -0.009
  C  C654  1  0.549540  0.099070  0.113230  1.0  0.1934
  C  C655  1  0.588370  0.176730  0.093630  1.0  -0.0838
  C  C656  1  0.611620  0.223230  0.132930  1.0  -0.321
  C  C657  1  0.177200  0.354410  0.357470  1.0  -0.0094
  C  C658  1  0.216200  0.432410  0.446570  1.0  0.1939
  C  C659  1  0.255030  0.510070  0.426970  1.0  -0.0838
  C  C660  1  0.278280  0.556570  0.466270  1.0  -0.321
  C  C661  1  0.843870  0.156130  0.690800  1.0  -0.0128
  C  C662  1  0.882870  0.117130  0.779900  1.0  0.1936
  C  C663  1  0.921700  0.078300  0.760300  1.0  -0.0791
  C  C664  1  0.944950  0.055050  0.799600  1.0  -0.3169
  C  C665  1  0.510540  0.489460  0.024130  1.0  -0.0128
  C  C666  1  0.549540  0.450460  0.113230  1.0  0.1941
  C  C667  1  0.588370  0.411630  0.093630  1.0  -0.0791
  C  C668  1  0.611620  0.388380  0.132930  1.0  -0.3169
  C  C669  1  0.177200  0.822800  0.357470  1.0  -0.0128
  C  C670  1  0.216200  0.783800  0.446570  1.0  0.1936
  C  C671  1  0.255030  0.744970  0.426970  1.0  -0.0791
  C  C672  1  0.278280  0.721720  0.466270  1.0  -0.3169
  C  C673  1  0.312260  0.156130  0.690800  1.0  -0.0131
  C  C674  1  0.234260  0.117130  0.779900  1.0  0.1935
  C  C675  1  0.156600  0.078300  0.760300  1.0  -0.0779
  C  C676  1  0.110100  0.055050  0.799600  1.0  -0.3184
  C  C677  1  0.978930  0.489460  0.024130  1.0  -0.0125
  C  C678  1  0.900930  0.450460  0.113230  1.0  0.1931
  C  C679  1  0.823270  0.411630  0.093630  1.0  -0.0779
  C  C680  1  0.776770  0.388380  0.132930  1.0  -0.3184
  C  C681  1  0.645590  0.822800  0.357470  1.0  -0.0131
  C  C682  1  0.567590  0.783800  0.446570  1.0  0.1935
  C  C683  1  0.489930  0.744970  0.426970  1.0  -0.0779
  C  C684  1  0.443430  0.721720  0.466270  1.0  -0.3184
  O  O685  1  0.812660  0.109740  0.245800  1.0  -0.5615
  O  O686  1  0.820620  0.101980  0.105200  1.0  -0.5493
  O  O687  1  0.479330  0.443070  0.579130  1.0  -0.5615
  O  O688  1  0.487290  0.435310  0.438530  1.0  -0.5493
  O  O689  1  0.145990  0.776410  0.912470  1.0  -0.5615
  O  O690  1  0.153950  0.768650  0.771870  1.0  -0.5493
  O  O691  1  0.890260  0.702920  0.245800  1.0  -0.5623
  O  O692  1  0.898020  0.718640  0.105200  1.0  -0.5511
  O  O693  1  0.556930  0.036250  0.579130  1.0  -0.5623
  O  O694  1  0.564690  0.051970  0.438530  1.0  -0.5511
  O  O695  1  0.223590  0.369590  0.912470  1.0  -0.5623
  O  O696  1  0.231350  0.385310  0.771870  1.0  -0.5511
  O  O697  1  0.297080  0.187340  0.245800  1.0  -0.562
  O  O698  1  0.281360  0.179380  0.105200  1.0  -0.5506
  O  O699  1  0.963750  0.520670  0.579130  1.0  -0.562
  O  O700  1  0.948030  0.512710  0.438530  1.0  -0.5506
  O  O701  1  0.630410  0.854010  0.912470  1.0  -0.562
  O  O702  1  0.614690  0.846050  0.771870  1.0  -0.5506
  O  O703  1  0.109740  0.812660  0.754200  1.0  -0.563
  O  O704  1  0.101980  0.820620  0.894800  1.0  -0.5511
  O  O705  1  0.776410  0.145990  0.087530  1.0  -0.563
  O  O706  1  0.768650  0.153950  0.228130  1.0  -0.5511
  O  O707  1  0.443070  0.479330  0.420870  1.0  -0.563
  O  O708  1  0.435310  0.487290  0.561470  1.0  -0.5511
  O  O709  1  0.702920  0.890260  0.754200  1.0  -0.5624
  O  O710  1  0.718640  0.898020  0.894800  1.0  -0.5503
  O  O711  1  0.369590  0.223590  0.087530  1.0  -0.5624
  O  O712  1  0.385310  0.231350  0.228130  1.0  -0.5503
  O  O713  1  0.036250  0.556930  0.420870  1.0  -0.5624
  O  O714  1  0.051970  0.564690  0.561470  1.0  -0.5503
  O  O715  1  0.187340  0.297080  0.754200  1.0  -0.5626
  O  O716  1  0.179380  0.281360  0.894800  1.0  -0.5513
  O  O717  1  0.854010  0.630410  0.087530  1.0  -0.5626
  O  O718  1  0.846050  0.614690  0.228130  1.0  -0.5513
  O  O719  1  0.520670  0.963750  0.420870  1.0  -0.5627
  O  O720  1  0.512710  0.948030  0.561470  1.0  -0.5512
  O  O721  1  0.187340  0.890260  0.754200  1.0  -0.5636
  O  O722  1  0.179380  0.898020  0.894800  1.0  -0.5502
  O  O723  1  0.854010  0.223590  0.087530  1.0  -0.5636
  O  O724  1  0.846050  0.231350  0.228130  1.0  -0.5502
  O  O725  1  0.520670  0.556930  0.420870  1.0  -0.5636
  O  O726  1  0.512710  0.564690  0.561470  1.0  -0.5502
  O  O727  1  0.109740  0.297080  0.754200  1.0  -0.564
  O  O728  1  0.101980  0.281360  0.894800  1.0  -0.5505
  O  O729  1  0.776410  0.630410  0.087530  1.0  -0.564
  O  O730  1  0.768650  0.614690  0.228130  1.0  -0.5505
  O  O731  1  0.443070  0.963750  0.420870  1.0  -0.564
  O  O732  1  0.435310  0.948030  0.561470  1.0  -0.5505
  O  O733  1  0.702920  0.812660  0.754200  1.0  -0.5636
  O  O734  1  0.718640  0.820620  0.894800  1.0  -0.5506
  O  O735  1  0.369590  0.145990  0.087530  1.0  -0.5636
  O  O736  1  0.385310  0.153950  0.228130  1.0  -0.5506
  O  O737  1  0.036250  0.479330  0.420870  1.0  -0.5636
  O  O738  1  0.051970  0.487290  0.561470  1.0  -0.5505
  O  O739  1  0.890260  0.187340  0.245800  1.0  -0.5622
  O  O740  1  0.898020  0.179380  0.105200  1.0  -0.5509
  O  O741  1  0.556930  0.520670  0.579130  1.0  -0.5621
  O  O742  1  0.564690  0.512710  0.438530  1.0  -0.5509
  O  O743  1  0.223590  0.854010  0.912470  1.0  -0.5622
  O  O744  1  0.231350  0.846050  0.771870  1.0  -0.5509
  O  O745  1  0.297080  0.109740  0.245800  1.0  -0.5617
  O  O746  1  0.281360  0.101980  0.105200  1.0  -0.5494
  O  O747  1  0.963750  0.443070  0.579130  1.0  -0.5617
  O  O748  1  0.948030  0.435310  0.438530  1.0  -0.5494
  O  O749  1  0.630410  0.776410  0.912470  1.0  -0.5617
  O  O750  1  0.614690  0.768650  0.771870  1.0  -0.5494
  O  O751  1  0.812660  0.702920  0.245800  1.0  -0.5625
  O  O752  1  0.820620  0.718640  0.105200  1.0  -0.5503
  O  O753  1  0.479330  0.036250  0.579130  1.0  -0.5625
  O  O754  1  0.487290  0.051970  0.438530  1.0  -0.5503
  O  O755  1  0.145990  0.369590  0.912470  1.0  -0.5625
  O  O756  1  0.153950  0.385310  0.771870  1.0  -0.5503
  O  O757  1  0.804560  0.902280  0.175000  1.0  -0.3983
  O  O758  1  0.471230  0.235610  0.508330  1.0  -0.3983
  O  O759  1  0.137890  0.568950  0.841670  1.0  -0.3983
  O  O760  1  0.097720  0.902280  0.175000  1.0  -0.3974
  O  O761  1  0.764390  0.235610  0.508330  1.0  -0.3974
  O  O762  1  0.431050  0.568950  0.841670  1.0  -0.3974
  O  O763  1  0.097720  0.195440  0.175000  1.0  -0.3985
  O  O764  1  0.764390  0.528770  0.508330  1.0  -0.3985
  O  O765  1  0.431050  0.862110  0.841670  1.0  -0.3985
  O  O766  1  0.902280  0.804560  0.825000  1.0  -0.4
  O  O767  1  0.568950  0.137890  0.158330  1.0  -0.4
  O  O768  1  0.235610  0.471230  0.491670  1.0  -0.4
  O  O769  1  0.902280  0.097720  0.825000  1.0  -0.3995
  O  O770  1  0.568950  0.431050  0.158330  1.0  -0.3995
  O  O771  1  0.235610  0.764390  0.491670  1.0  -0.3995
  O  O772  1  0.195440  0.097720  0.825000  1.0  -0.3997
  O  O773  1  0.862110  0.431050  0.158330  1.0  -0.3997
  O  O774  1  0.528770  0.764390  0.491670  1.0  -0.3997
