# generated using pymatgen
data_CuH15C22O5
_symmetry_space_group_name_H-M   'P 1'
_cell_length_a   35.16770000
_cell_length_b   35.16770000
_cell_length_c   22.03460000
_cell_angle_alpha   90.00000000
_cell_angle_beta   90.00000000
_cell_angle_gamma   120.00000000
_symmetry_Int_Tables_number   1
_chemical_formula_structural   CuH15C22O5
_chemical_formula_sum   'Cu18 H270 C396 O90'
_cell_volume   23600.63752382
_cell_formula_units_Z   18
loop_
 _symmetry_equiv_pos_site_id
 _symmetry_equiv_pos_as_xyz
  1  'x, y, z'
loop_
 _atom_site_type_symbol
 _atom_site_label
 _atom_site_symmetry_multiplicity
 _atom_site_fract_x
 _atom_site_fract_y
 _atom_site_fract_z
 _atom_site_occupancy
 _atom_site_charge
  Cu  Cu1  1  0.507870  0.492130  0.444510  1.0  0.8893
  Cu  Cu2  1  0.174540  0.825460  0.777840  1.0  0.8893
  Cu  Cu3  1  0.841200  0.158800  0.111180  1.0  0.8893
  Cu  Cu4  1  0.507870  0.015740  0.444510  1.0  0.8928
  Cu  Cu5  1  0.174540  0.349070  0.777840  1.0  0.8928
  Cu  Cu6  1  0.841200  0.682410  0.111180  1.0  0.8928
  Cu  Cu7  1  0.984260  0.492130  0.444510  1.0  0.8921
  Cu  Cu8  1  0.650930  0.825460  0.777840  1.0  0.8921
  Cu  Cu9  1  0.317590  0.158800  0.111180  1.0  0.8921
  Cu  Cu10  1  0.492130  0.507870  0.555490  1.0  0.8896
  Cu  Cu11  1  0.158800  0.841200  0.888820  1.0  0.8896
  Cu  Cu12  1  0.825460  0.174540  0.222160  1.0  0.8896
  Cu  Cu13  1  0.015740  0.507870  0.555490  1.0  0.8929
  Cu  Cu14  1  0.682410  0.841200  0.888820  1.0  0.8929
  Cu  Cu15  1  0.349070  0.174540  0.222160  1.0  0.8929
  Cu  Cu16  1  0.492130  0.984260  0.555490  1.0  0.8928
  Cu  Cu17  1  0.158800  0.317590  0.888820  1.0  0.8928
  Cu  Cu18  1  0.825460  0.650930  0.222160  1.0  0.8928
  H  H19  1  0.531000  0.645300  0.537000  1.0  0.1117
  H  H20  1  0.554500  0.717600  0.509100  1.0  0.1056
  H  H21  1  0.576900  0.691700  0.338700  1.0  0.1152
  H  H22  1  0.552500  0.619000  0.366600  1.0  0.1109
  H  H23  1  0.638700  0.762200  0.357900  1.0  0.1094
  H  H24  1  0.489600  0.721900  0.393700  1.0  0.0852
  H  H25  1  0.456800  0.751100  0.487900  1.0  0.0996
  H  H26  1  0.197670  0.978630  0.870330  1.0  0.1117
  H  H27  1  0.221170  0.050930  0.842430  1.0  0.1049
  H  H28  1  0.243570  0.025030  0.672030  1.0  0.1153
  H  H29  1  0.219170  0.952330  0.699930  1.0  0.1109
  H  H30  1  0.305370  0.095530  0.691230  1.0  0.1094
  H  H31  1  0.156270  0.055230  0.727030  1.0  0.0835
  H  H32  1  0.123470  0.084430  0.821230  1.0  0.0999
  H  H33  1  0.864330  0.311970  0.203670  1.0  0.1117
  H  H34  1  0.887830  0.384270  0.175770  1.0  0.1056
  H  H35  1  0.910230  0.358370  0.005370  1.0  0.1152
  H  H36  1  0.885830  0.285670  0.033270  1.0  0.1109
  H  H37  1  0.972030  0.428870  0.024570  1.0  0.1093
  H  H38  1  0.822930  0.388570  0.060370  1.0  0.0858
  H  H39  1  0.790130  0.417770  0.154570  1.0  0.0996
  H  H40  1  0.354700  0.885700  0.537000  1.0  0.112
  H  H41  1  0.282400  0.836900  0.509100  1.0  0.1053
  H  H42  1  0.308300  0.885200  0.338700  1.0  0.1155
  H  H43  1  0.381000  0.933500  0.366600  1.0  0.1112
  H  H44  1  0.237800  0.876500  0.357900  1.0  0.11
  H  H45  1  0.278100  0.767700  0.393700  1.0  0.0886
  H  H46  1  0.248900  0.705700  0.487900  1.0  0.1009
  H  H47  1  0.021370  0.219030  0.870330  1.0  0.1116
  H  H48  1  0.949070  0.170230  0.842430  1.0  0.1053
  H  H49  1  0.974970  0.218530  0.672030  1.0  0.1155
  H  H50  1  0.047670  0.266830  0.699930  1.0  0.1112
  H  H51  1  0.904470  0.209830  0.691230  1.0  0.11
  H  H52  1  0.944770  0.101030  0.727030  1.0  0.0855
  H  H53  1  0.915570  0.039030  0.821230  1.0  0.0985
  H  H54  1  0.688030  0.552370  0.203670  1.0  0.112
  H  H55  1  0.615730  0.503570  0.175770  1.0  0.1053
  H  H56  1  0.641630  0.551870  0.005370  1.0  0.1155
  H  H57  1  0.714330  0.600170  0.033270  1.0  0.1112
  H  H58  1  0.571130  0.543170  0.024570  1.0  0.1099
  H  H59  1  0.611430  0.434370  0.060370  1.0  0.0887
  H  H60  1  0.582230  0.372370  0.154570  1.0  0.1009
  H  H61  1  0.114300  0.469000  0.537000  1.0  0.1107
  H  H62  1  0.163100  0.445500  0.509100  1.0  0.1058
  H  H63  1  0.114800  0.423100  0.338700  1.0  0.1149
  H  H64  1  0.066500  0.447500  0.366600  1.0  0.1107
  H  H65  1  0.123500  0.361300  0.357900  1.0  0.1091
  H  H66  1  0.232300  0.510400  0.393700  1.0  0.0829
  H  H67  1  0.294300  0.543200  0.487900  1.0  0.0983
  H  H68  1  0.780970  0.802330  0.870330  1.0  0.1114
  H  H69  1  0.829770  0.778830  0.842430  1.0  0.1067
  H  H70  1  0.781470  0.756430  0.672030  1.0  0.1148
  H  H71  1  0.733170  0.780830  0.699930  1.0  0.1109
  H  H72  1  0.790170  0.694630  0.691230  1.0  0.1091
  H  H73  1  0.898970  0.843730  0.727030  1.0  0.084
  H  H74  1  0.960970  0.876530  0.821230  1.0  0.0981
  H  H75  1  0.447630  0.135670  0.203670  1.0  0.1107
  H  H76  1  0.496430  0.112170  0.175770  1.0  0.1058
  H  H77  1  0.448130  0.089770  0.005370  1.0  0.1149
  H  H78  1  0.399830  0.114170  0.033270  1.0  0.1111
  H  H79  1  0.456830  0.027970  0.024570  1.0  0.1092
  H  H80  1  0.565630  0.177070  0.060370  1.0  0.0855
  H  H81  1  0.627630  0.209870  0.154570  1.0  0.0983
  H  H82  1  0.645300  0.531000  0.463000  1.0  0.1114
  H  H83  1  0.717600  0.554500  0.490900  1.0  0.106
  H  H84  1  0.691700  0.576900  0.661300  1.0  0.1149
  H  H85  1  0.619000  0.552500  0.633400  1.0  0.111
  H  H86  1  0.762200  0.638700  0.642100  1.0  0.1091
  H  H87  1  0.721900  0.489600  0.606300  1.0  0.0844
  H  H88  1  0.751100  0.456800  0.512100  1.0  0.0959
  H  H89  1  0.311970  0.864330  0.796330  1.0  0.1114
  H  H90  1  0.384270  0.887830  0.824230  1.0  0.106
  H  H91  1  0.358370  0.910230  0.994630  1.0  0.1149
  H  H92  1  0.285670  0.885830  0.966730  1.0  0.111
  H  H93  1  0.428870  0.972030  0.975430  1.0  0.109
  H  H94  1  0.388570  0.822930  0.939630  1.0  0.0842
  H  H95  1  0.417770  0.790130  0.845430  1.0  0.0959
  H  H96  1  0.978630  0.197670  0.129670  1.0  0.1114
  H  H97  1  0.050930  0.221170  0.157570  1.0  0.1054
  H  H98  1  0.025030  0.243570  0.327970  1.0  0.1149
  H  H99  1  0.952330  0.219170  0.300070  1.0  0.111
  H  H100  1  0.095530  0.305370  0.308770  1.0  0.1091
  H  H101  1  0.055230  0.156270  0.272970  1.0  0.0829
  H  H102  1  0.084430  0.123470  0.178770  1.0  0.096
  H  H103  1  0.885700  0.354700  0.463000  1.0  0.1115
  H  H104  1  0.836900  0.282400  0.490900  1.0  0.1054
  H  H105  1  0.885200  0.308300  0.661300  1.0  0.1151
  H  H106  1  0.933500  0.381000  0.633400  1.0  0.1108
  H  H107  1  0.876500  0.237800  0.642100  1.0  0.1091
  H  H108  1  0.767700  0.278100  0.606300  1.0  0.0876
  H  H109  1  0.705700  0.248900  0.512100  1.0  0.0991
  H  H110  1  0.552370  0.688030  0.796330  1.0  0.1115
  H  H111  1  0.503570  0.615730  0.824230  1.0  0.1054
  H  H112  1  0.551870  0.641630  0.994630  1.0  0.1152
  H  H113  1  0.600170  0.714330  0.966730  1.0  0.1108
  H  H114  1  0.543170  0.571130  0.975430  1.0  0.1091
  H  H115  1  0.434370  0.611430  0.939630  1.0  0.0878
  H  H116  1  0.372370  0.582230  0.845430  1.0  0.0991
  H  H117  1  0.219030  0.021370  0.129670  1.0  0.1107
  H  H118  1  0.170230  0.949070  0.157570  1.0  0.1054
  H  H119  1  0.218530  0.974970  0.327970  1.0  0.1152
  H  H120  1  0.266830  0.047670  0.300070  1.0  0.1109
  H  H121  1  0.209830  0.904470  0.308770  1.0  0.1091
  H  H122  1  0.101030  0.944770  0.272970  1.0  0.0848
  H  H123  1  0.039030  0.915570  0.178770  1.0  0.0972
  H  H124  1  0.469000  0.114300  0.463000  1.0  0.111
  H  H125  1  0.445500  0.163100  0.490900  1.0  0.105
  H  H126  1  0.423100  0.114800  0.661300  1.0  0.115
  H  H127  1  0.447500  0.066500  0.633400  1.0  0.1111
  H  H128  1  0.361300  0.123500  0.642100  1.0  0.1098
  H  H129  1  0.510400  0.232300  0.606300  1.0  0.0861
  H  H130  1  0.543200  0.294300  0.512100  1.0  0.1018
  H  H131  1  0.135670  0.447630  0.796330  1.0  0.111
  H  H132  1  0.112170  0.496430  0.824230  1.0  0.105
  H  H133  1  0.089770  0.448130  0.994630  1.0  0.1149
  H  H134  1  0.114170  0.399830  0.966730  1.0  0.1117
  H  H135  1  0.027970  0.456830  0.975430  1.0  0.1099
  H  H136  1  0.177070  0.565630  0.939630  1.0  0.0889
  H  H137  1  0.209870  0.627630  0.845430  1.0  0.1018
  H  H138  1  0.802330  0.780970  0.129670  1.0  0.1118
  H  H139  1  0.778830  0.829770  0.157570  1.0  0.1057
  H  H140  1  0.756430  0.781470  0.327970  1.0  0.115
  H  H141  1  0.780830  0.733170  0.300070  1.0  0.1113
  H  H142  1  0.694630  0.790170  0.308770  1.0  0.1098
  H  H143  1  0.843730  0.898970  0.272970  1.0  0.0873
  H  H144  1  0.876530  0.960970  0.178770  1.0  0.1012
  H  H145  1  0.469000  0.354700  0.463000  1.0  0.1117
  H  H146  1  0.445500  0.282400  0.490900  1.0  0.1055
  H  H147  1  0.423100  0.308300  0.661300  1.0  0.1152
  H  H148  1  0.447500  0.381000  0.633400  1.0  0.1106
  H  H149  1  0.361300  0.237800  0.642100  1.0  0.109
  H  H150  1  0.510400  0.278100  0.606300  1.0  0.0864
  H  H151  1  0.543200  0.248900  0.512100  1.0  0.0984
  H  H152  1  0.135670  0.688030  0.796330  1.0  0.1117
  H  H153  1  0.112170  0.615730  0.824230  1.0  0.1055
  H  H154  1  0.089770  0.641630  0.994630  1.0  0.1152
  H  H155  1  0.114170  0.714330  0.966730  1.0  0.1106
  H  H156  1  0.027970  0.571130  0.975430  1.0  0.1089
  H  H157  1  0.177070  0.611430  0.939630  1.0  0.0864
  H  H158  1  0.209870  0.582230  0.845430  1.0  0.0984
  H  H159  1  0.802330  0.021370  0.129670  1.0  0.1117
  H  H160  1  0.778830  0.949070  0.157570  1.0  0.1053
  H  H161  1  0.756430  0.974970  0.327970  1.0  0.1151
  H  H162  1  0.780830  0.047670  0.300070  1.0  0.1106
  H  H163  1  0.694630  0.904470  0.308770  1.0  0.109
  H  H164  1  0.843730  0.944770  0.272970  1.0  0.0849
  H  H165  1  0.876530  0.915570  0.178770  1.0  0.0986
  H  H166  1  0.645300  0.114300  0.463000  1.0  0.1117
  H  H167  1  0.717600  0.163100  0.490900  1.0  0.1052
  H  H168  1  0.691700  0.114800  0.661300  1.0  0.1154
  H  H169  1  0.619000  0.066500  0.633400  1.0  0.1111
  H  H170  1  0.762200  0.123500  0.642100  1.0  0.11
  H  H171  1  0.721900  0.232300  0.606300  1.0  0.0896
  H  H172  1  0.751100  0.294300  0.512100  1.0  0.0992
  H  H173  1  0.311970  0.447630  0.796330  1.0  0.1117
  H  H174  1  0.384270  0.496430  0.824230  1.0  0.1052
  H  H175  1  0.358370  0.448130  0.994630  1.0  0.1154
  H  H176  1  0.285670  0.399830  0.966730  1.0  0.111
  H  H177  1  0.428870  0.456830  0.975430  1.0  0.1099
  H  H178  1  0.388570  0.565630  0.939630  1.0  0.0897
  H  H179  1  0.417770  0.627630  0.845430  1.0  0.0992
  H  H180  1  0.978630  0.780970  0.129670  1.0  0.1111
  H  H181  1  0.050930  0.829770  0.157570  1.0  0.1052
  H  H182  1  0.025030  0.781470  0.327970  1.0  0.1154
  H  H183  1  0.952330  0.733170  0.300070  1.0  0.1113
  H  H184  1  0.095530  0.790170  0.308770  1.0  0.11
  H  H185  1  0.055230  0.898970  0.272970  1.0  0.0868
  H  H186  1  0.084430  0.960970  0.178770  1.0  0.0973
  H  H187  1  0.885700  0.531000  0.463000  1.0  0.1101
  H  H188  1  0.836900  0.554500  0.490900  1.0  0.106
  H  H189  1  0.885200  0.576900  0.661300  1.0  0.1149
  H  H190  1  0.933500  0.552500  0.633400  1.0  0.1111
  H  H191  1  0.876500  0.638700  0.642100  1.0  0.1096
  H  H192  1  0.767700  0.489600  0.606300  1.0  0.0834
  H  H193  1  0.705700  0.456800  0.512100  1.0  0.0975
  H  H194  1  0.552370  0.864330  0.796330  1.0  0.1101
  H  H195  1  0.503570  0.887830  0.824230  1.0  0.106
  H  H196  1  0.551870  0.910230  0.994630  1.0  0.1149
  H  H197  1  0.600170  0.885830  0.966730  1.0  0.1115
  H  H198  1  0.543170  0.972030  0.975430  1.0  0.1098
  H  H199  1  0.434370  0.822930  0.939630  1.0  0.0861
  H  H200  1  0.372370  0.790130  0.845430  1.0  0.0975
  H  H201  1  0.219030  0.197670  0.129670  1.0  0.1111
  H  H202  1  0.170230  0.221170  0.157570  1.0  0.1065
  H  H203  1  0.218530  0.243570  0.327970  1.0  0.1149
  H  H204  1  0.266830  0.219170  0.300070  1.0  0.1112
  H  H205  1  0.209830  0.305370  0.308770  1.0  0.1096
  H  H206  1  0.101030  0.156270  0.272970  1.0  0.0849
  H  H207  1  0.039030  0.123470  0.178770  1.0  0.0982
  H  H208  1  0.354700  0.469000  0.537000  1.0  0.1113
  H  H209  1  0.282400  0.445500  0.509100  1.0  0.106
  H  H210  1  0.308300  0.423100  0.338700  1.0  0.1154
  H  H211  1  0.381000  0.447500  0.366600  1.0  0.1115
  H  H212  1  0.237800  0.361300  0.357900  1.0  0.11
  H  H213  1  0.278100  0.510400  0.393700  1.0  0.0848
  H  H214  1  0.248900  0.543200  0.487900  1.0  0.0972
  H  H215  1  0.021370  0.802330  0.870330  1.0  0.1113
  H  H216  1  0.949070  0.778830  0.842430  1.0  0.1054
  H  H217  1  0.974970  0.756430  0.672030  1.0  0.1157
  H  H218  1  0.047670  0.780830  0.699930  1.0  0.1115
  H  H219  1  0.904470  0.694630  0.691230  1.0  0.11
  H  H220  1  0.944770  0.843730  0.727030  1.0  0.0831
  H  H221  1  0.915570  0.876530  0.821230  1.0  0.0976
  H  H222  1  0.688030  0.135670  0.203670  1.0  0.1113
  H  H223  1  0.615730  0.112170  0.175770  1.0  0.106
  H  H224  1  0.641630  0.089770  0.005370  1.0  0.1154
  H  H225  1  0.714330  0.114170  0.033270  1.0  0.1115
  H  H226  1  0.571130  0.027970  0.024570  1.0  0.11
  H  H227  1  0.611430  0.177070  0.060370  1.0  0.0849
  H  H228  1  0.582230  0.209870  0.154570  1.0  0.0972
  H  H229  1  0.114300  0.645300  0.537000  1.0  0.1117
  H  H230  1  0.163100  0.717600  0.509100  1.0  0.1051
  H  H231  1  0.114800  0.691700  0.338700  1.0  0.1151
  H  H232  1  0.066500  0.619000  0.366600  1.0  0.1106
  H  H233  1  0.123500  0.762200  0.357900  1.0  0.1089
  H  H234  1  0.232300  0.721900  0.393700  1.0  0.088
  H  H235  1  0.294300  0.751100  0.487900  1.0  0.1006
  H  H236  1  0.780970  0.978630  0.870330  1.0  0.1111
  H  H237  1  0.829770  0.050930  0.842430  1.0  0.1051
  H  H238  1  0.781470  0.025030  0.672030  1.0  0.1152
  H  H239  1  0.733170  0.952330  0.699930  1.0  0.1106
  H  H240  1  0.790170  0.095530  0.691230  1.0  0.1089
  H  H241  1  0.898970  0.055230  0.727030  1.0  0.0848
  H  H242  1  0.960970  0.084430  0.821230  1.0  0.0988
  H  H243  1  0.447630  0.311970  0.203670  1.0  0.1117
  H  H244  1  0.496430  0.384270  0.175770  1.0  0.1051
  H  H245  1  0.448130  0.358370  0.005370  1.0  0.1151
  H  H246  1  0.399830  0.285670  0.033270  1.0  0.1105
  H  H247  1  0.456830  0.428870  0.024570  1.0  0.1088
  H  H248  1  0.565630  0.388570  0.060370  1.0  0.0881
  H  H249  1  0.627630  0.417770  0.154570  1.0  0.1006
  H  H250  1  0.531000  0.885700  0.537000  1.0  0.1112
  H  H251  1  0.554500  0.836900  0.509100  1.0  0.1051
  H  H252  1  0.576900  0.885200  0.338700  1.0  0.1154
  H  H253  1  0.552500  0.933500  0.366600  1.0  0.1107
  H  H254  1  0.638700  0.876500  0.357900  1.0  0.11
  H  H255  1  0.489600  0.767700  0.393700  1.0  0.0857
  H  H256  1  0.456800  0.705700  0.487900  1.0  0.0998
  H  H257  1  0.197670  0.219030  0.870330  1.0  0.1117
  H  H258  1  0.221170  0.170230  0.842430  1.0  0.1061
  H  H259  1  0.243570  0.218530  0.672030  1.0  0.1153
  H  H260  1  0.219170  0.266830  0.699930  1.0  0.1108
  H  H261  1  0.305370  0.209830  0.691230  1.0  0.11
  H  H262  1  0.156270  0.101030  0.727030  1.0  0.0859
  H  H263  1  0.123470  0.039030  0.821230  1.0  0.1004
  H  H264  1  0.864330  0.552370  0.203670  1.0  0.1112
  H  H265  1  0.887830  0.503570  0.175770  1.0  0.1051
  H  H266  1  0.910230  0.551870  0.005370  1.0  0.1154
  H  H267  1  0.885830  0.600170  0.033270  1.0  0.1112
  H  H268  1  0.972030  0.543170  0.024570  1.0  0.1101
  H  H269  1  0.822930  0.434370  0.060370  1.0  0.0882
  H  H270  1  0.790130  0.372370  0.154570  1.0  0.0998
  H  H271  1  0.427100  0.713550  0.440200  1.0  0.0945
  H  H272  1  0.093770  0.046880  0.773530  1.0  0.0932
  H  H273  1  0.760430  0.380220  0.106870  1.0  0.097
  H  H274  1  0.286450  0.713550  0.440200  1.0  0.098
  H  H275  1  0.953120  0.046880  0.773530  1.0  0.0964
  H  H276  1  0.619780  0.380220  0.106870  1.0  0.0981
  H  H277  1  0.286450  0.572900  0.440200  1.0  0.1001
  H  H278  1  0.953120  0.906230  0.773530  1.0  0.0994
  H  H279  1  0.619780  0.239570  0.106870  1.0  0.1022
  H  H280  1  0.713550  0.427100  0.559800  1.0  0.0971
  H  H281  1  0.380220  0.760430  0.893130  1.0  0.0993
  H  H282  1  0.046880  0.093770  0.226470  1.0  0.0961
  H  H283  1  0.713550  0.286450  0.559800  1.0  0.0957
  H  H284  1  0.380220  0.619780  0.893130  1.0  0.0953
  H  H285  1  0.046880  0.953120  0.226470  1.0  0.0946
  H  H286  1  0.572900  0.286450  0.559800  1.0  0.0993
  H  H287  1  0.239570  0.619780  0.893130  1.0  0.1018
  H  H288  1  0.906230  0.953120  0.226470  1.0  0.0984
  C  C289  1  0.523920  0.578250  0.472620  1.0  0.6815
  C  C290  1  0.538840  0.624930  0.453860  1.0  -0.1297
  C  C291  1  0.540070  0.654540  0.496440  1.0  -0.0619
  C  C292  1  0.554500  0.697720  0.479810  1.0  -0.1401
  C  C293  1  0.568890  0.712400  0.421430  1.0  0.0835
  C  C294  1  0.567630  0.682470  0.379180  1.0  -0.1566
  C  C295  1  0.552880  0.639070  0.395810  1.0  -0.0336
  C  C296  1  0.588010  0.759390  0.404280  1.0  -0.0265
  C  C297  1  0.625820  0.779220  0.369880  1.0  -0.1292
  C  C298  1  0.190590  0.911580  0.805950  1.0  0.6815
  C  C299  1  0.205510  0.958260  0.787190  1.0  -0.1297
  C  C300  1  0.206740  0.987870  0.829770  1.0  -0.0619
  C  C301  1  0.221170  0.031050  0.813140  1.0  -0.1402
  C  C302  1  0.235560  0.045730  0.754760  1.0  0.0835
  C  C303  1  0.234300  0.015800  0.712510  1.0  -0.1566
  C  C304  1  0.219550  0.972400  0.729140  1.0  -0.0336
  C  C305  1  0.254680  0.092720  0.737610  1.0  -0.0297
  C  C306  1  0.292490  0.112550  0.703210  1.0  -0.1324
  C  C307  1  0.857250  0.244920  0.139290  1.0  0.6815
  C  C308  1  0.872170  0.291600  0.120530  1.0  -0.1297
  C  C309  1  0.873400  0.321210  0.163110  1.0  -0.0619
  C  C310  1  0.887830  0.364390  0.146480  1.0  -0.1401
  C  C311  1  0.902220  0.379070  0.088100  1.0  0.0835
  C  C312  1  0.900960  0.349140  0.045850  1.0  -0.1566
  C  C313  1  0.886210  0.305740  0.062480  1.0  -0.0336
  C  C314  1  0.921340  0.426060  0.070950  1.0  -0.0275
  C  C315  1  0.959150  0.445890  0.036550  1.0  -0.1292
  C  C316  1  0.421750  0.945670  0.472620  1.0  0.6816
  C  C317  1  0.375070  0.913910  0.453860  1.0  -0.1294
  C  C318  1  0.345460  0.885530  0.496440  1.0  -0.0613
  C  C319  1  0.302280  0.856780  0.479810  1.0  -0.1391
  C  C320  1  0.287600  0.856490  0.421430  1.0  0.0834
  C  C321  1  0.317530  0.885160  0.379180  1.0  -0.1567
  C  C322  1  0.360930  0.913810  0.395810  1.0  -0.0336
  C  C323  1  0.240610  0.828620  0.404280  1.0  -0.0318
  C  C324  1  0.220780  0.846600  0.369880  1.0  -0.131
  C  C325  1  0.088420  0.279000  0.805950  1.0  0.6816
  C  C326  1  0.041740  0.247240  0.787190  1.0  -0.1294
  C  C327  1  0.012130  0.218860  0.829770  1.0  -0.0613
  C  C328  1  0.968950  0.190110  0.813140  1.0  -0.1391
  C  C329  1  0.954270  0.189820  0.754760  1.0  0.0834
  C  C330  1  0.984200  0.218490  0.712510  1.0  -0.1567
  C  C331  1  0.027600  0.247140  0.729140  1.0  -0.0336
  C  C332  1  0.907280  0.161950  0.737610  1.0  -0.0318
  C  C333  1  0.887450  0.179930  0.703210  1.0  -0.131
  C  C334  1  0.755080  0.612340  0.139290  1.0  0.6816
  C  C335  1  0.708400  0.580580  0.120530  1.0  -0.1294
  C  C336  1  0.678790  0.552200  0.163110  1.0  -0.0613
  C  C337  1  0.635610  0.523450  0.146480  1.0  -0.1391
  C  C338  1  0.620930  0.523160  0.088100  1.0  0.0834
  C  C339  1  0.650860  0.551830  0.045850  1.0  -0.1567
  C  C340  1  0.694260  0.580480  0.062480  1.0  -0.0336
  C  C341  1  0.573940  0.495290  0.070950  1.0  -0.0322
  C  C342  1  0.554110  0.513270  0.036550  1.0  -0.131
  C  C343  1  0.054330  0.476080  0.472620  1.0  0.681
  C  C344  1  0.086090  0.461160  0.453860  1.0  -0.1295
  C  C345  1  0.114470  0.459930  0.496440  1.0  -0.0624
  C  C346  1  0.143220  0.445500  0.479810  1.0  -0.139
  C  C347  1  0.143510  0.431110  0.421430  1.0  0.0842
  C  C348  1  0.114840  0.432370  0.379180  1.0  -0.1546
  C  C349  1  0.086190  0.447120  0.395810  1.0  -0.0312
  C  C350  1  0.171380  0.411990  0.404280  1.0  -0.0321
  C  C351  1  0.153400  0.374180  0.369880  1.0  -0.1327
  C  C352  1  0.721000  0.809410  0.805950  1.0  0.681
  C  C353  1  0.752760  0.794490  0.787190  1.0  -0.1295
  C  C354  1  0.781140  0.793260  0.829770  1.0  -0.0624
  C  C355  1  0.809890  0.778830  0.813140  1.0  -0.139
  C  C356  1  0.810180  0.764440  0.754760  1.0  0.0842
  C  C357  1  0.781510  0.765700  0.712510  1.0  -0.1546
  C  C358  1  0.752860  0.780450  0.729140  1.0  -0.0312
  C  C359  1  0.838050  0.745320  0.737610  1.0  -0.0288
  C  C360  1  0.820070  0.707510  0.703210  1.0  -0.129
  C  C361  1  0.387660  0.142750  0.139290  1.0  0.681
  C  C362  1  0.419420  0.127830  0.120530  1.0  -0.1295
  C  C363  1  0.447800  0.126600  0.163110  1.0  -0.0624
  C  C364  1  0.476550  0.112170  0.146480  1.0  -0.139
  C  C365  1  0.476840  0.097780  0.088100  1.0  0.0842
  C  C366  1  0.448170  0.099040  0.045850  1.0  -0.1546
  C  C367  1  0.419520  0.113790  0.062480  1.0  -0.0312
  C  C368  1  0.504710  0.078660  0.070950  1.0  -0.0314
  C  C369  1  0.486730  0.040850  0.036550  1.0  -0.1327
  C  C370  1  0.578250  0.523920  0.527380  1.0  0.6809
  C  C371  1  0.624930  0.538840  0.546140  1.0  -0.1292
  C  C372  1  0.654540  0.540070  0.503560  1.0  -0.0615
  C  C373  1  0.697720  0.554500  0.520190  1.0  -0.1374
  C  C374  1  0.712400  0.568890  0.578570  1.0  0.0837
  C  C375  1  0.682470  0.567630  0.620820  1.0  -0.156
  C  C376  1  0.639070  0.552880  0.604190  1.0  -0.0306
  C  C377  1  0.759390  0.588010  0.595720  1.0  -0.0274
  C  C378  1  0.779220  0.625820  0.630120  1.0  -0.1294
  C  C379  1  0.244920  0.857250  0.860710  1.0  0.6809
  C  C380  1  0.291600  0.872170  0.879470  1.0  -0.1292
  C  C381  1  0.321210  0.873400  0.836890  1.0  -0.0615
  C  C382  1  0.364390  0.887830  0.853520  1.0  -0.1374
  C  C383  1  0.379070  0.902220  0.911900  1.0  0.0837
  C  C384  1  0.349140  0.900960  0.954150  1.0  -0.156
  C  C385  1  0.305740  0.886210  0.937520  1.0  -0.0306
  C  C386  1  0.426060  0.921340  0.929050  1.0  -0.0284
  C  C387  1  0.445890  0.959150  0.963450  1.0  -0.1294
  C  C388  1  0.911580  0.190590  0.194050  1.0  0.6809
  C  C389  1  0.958260  0.205510  0.212810  1.0  -0.1292
  C  C390  1  0.987870  0.206740  0.170230  1.0  -0.0615
  C  C391  1  0.031050  0.221170  0.186860  1.0  -0.1374
  C  C392  1  0.045730  0.235560  0.245240  1.0  0.0837
  C  C393  1  0.015800  0.234300  0.287490  1.0  -0.156
  C  C394  1  0.972400  0.219550  0.270860  1.0  -0.0306
  C  C395  1  0.092720  0.254680  0.262390  1.0  -0.031
  C  C396  1  0.112550  0.292490  0.296790  1.0  -0.1336
  C  C397  1  0.945670  0.421750  0.527380  1.0  0.6819
  C  C398  1  0.913910  0.375070  0.546140  1.0  -0.1284
  C  C399  1  0.885530  0.345460  0.503560  1.0  -0.0621
  C  C400  1  0.856780  0.302280  0.520190  1.0  -0.1391
  C  C401  1  0.856490  0.287600  0.578570  1.0  0.0833
  C  C402  1  0.885160  0.317530  0.620820  1.0  -0.1574
  C  C403  1  0.913810  0.360930  0.604190  1.0  -0.0308
  C  C404  1  0.828620  0.240610  0.595720  1.0  -0.0297
  C  C405  1  0.846600  0.220780  0.630120  1.0  -0.1333
  C  C406  1  0.612340  0.755080  0.860710  1.0  0.6819
  C  C407  1  0.580580  0.708400  0.879470  1.0  -0.1284
  C  C408  1  0.552200  0.678790  0.836890  1.0  -0.0621
  C  C409  1  0.523450  0.635610  0.853520  1.0  -0.1391
  C  C410  1  0.523160  0.620930  0.911900  1.0  0.0833
  C  C411  1  0.551830  0.650860  0.954150  1.0  -0.1574
  C  C412  1  0.580480  0.694260  0.937520  1.0  -0.0309
  C  C413  1  0.495290  0.573940  0.929050  1.0  -0.0301
  C  C414  1  0.513270  0.554110  0.963450  1.0  -0.1333
  C  C415  1  0.279000  0.088420  0.194050  1.0  0.6819
  C  C416  1  0.247240  0.041740  0.212810  1.0  -0.1284
  C  C417  1  0.218860  0.012130  0.170230  1.0  -0.0621
  C  C418  1  0.190110  0.968950  0.186860  1.0  -0.1392
  C  C419  1  0.189820  0.954270  0.245240  1.0  0.0833
  C  C420  1  0.218490  0.984200  0.287490  1.0  -0.1574
  C  C421  1  0.247140  0.027600  0.270860  1.0  -0.0308
  C  C422  1  0.161950  0.907280  0.262390  1.0  -0.0297
  C  C423  1  0.179930  0.887450  0.296790  1.0  -0.1333
  C  C424  1  0.476080  0.054330  0.527380  1.0  0.6813
  C  C425  1  0.461160  0.086090  0.546140  1.0  -0.1295
  C  C426  1  0.459930  0.114470  0.503560  1.0  -0.0621
  C  C427  1  0.445500  0.143220  0.520190  1.0  -0.1374
  C  C428  1  0.431110  0.143510  0.578570  1.0  0.0832
  C  C429  1  0.432370  0.114840  0.620820  1.0  -0.1594
  C  C430  1  0.447120  0.086190  0.604190  1.0  -0.0325
  C  C431  1  0.411990  0.171380  0.595720  1.0  -0.033
  C  C432  1  0.374180  0.153400  0.630120  1.0  -0.1318
  C  C433  1  0.142750  0.387660  0.860710  1.0  0.6813
  C  C434  1  0.127830  0.419420  0.879470  1.0  -0.1295
  C  C435  1  0.126600  0.447800  0.836890  1.0  -0.0621
  C  C436  1  0.112170  0.476550  0.853520  1.0  -0.1374
  C  C437  1  0.097780  0.476840  0.911900  1.0  0.0833
  C  C438  1  0.099040  0.448170  0.954150  1.0  -0.1594
  C  C439  1  0.113790  0.419520  0.937520  1.0  -0.0325
  C  C440  1  0.078660  0.504710  0.929050  1.0  -0.0322
  C  C441  1  0.040850  0.486730  0.963450  1.0  -0.1318
  C  C442  1  0.809410  0.721000  0.194050  1.0  0.6813
  C  C443  1  0.794490  0.752760  0.212810  1.0  -0.1295
  C  C444  1  0.793260  0.781140  0.170230  1.0  -0.0621
  C  C445  1  0.778830  0.809890  0.186860  1.0  -0.1374
  C  C446  1  0.764440  0.810180  0.245240  1.0  0.0832
  C  C447  1  0.765700  0.781510  0.287490  1.0  -0.1594
  C  C448  1  0.780450  0.752860  0.270860  1.0  -0.0325
  C  C449  1  0.745320  0.838050  0.262390  1.0  -0.0292
  C  C450  1  0.707510  0.820070  0.296790  1.0  -0.1275
  C  C451  1  0.476080  0.421750  0.527380  1.0  0.682
  C  C452  1  0.461160  0.375070  0.546140  1.0  -0.1283
  C  C453  1  0.459930  0.345460  0.503560  1.0  -0.0624
  C  C454  1  0.445500  0.302280  0.520190  1.0  -0.1397
  C  C455  1  0.431110  0.287600  0.578570  1.0  0.0845
  C  C456  1  0.432370  0.317530  0.620820  1.0  -0.1581
  C  C457  1  0.447120  0.360930  0.604190  1.0  -0.0325
  C  C458  1  0.411990  0.240610  0.595720  1.0  -0.0279
  C  C459  1  0.374180  0.220780  0.630120  1.0  -0.129
  C  C460  1  0.142750  0.755080  0.860710  1.0  0.682
  C  C461  1  0.127830  0.708400  0.879470  1.0  -0.1283
  C  C462  1  0.126600  0.678790  0.836890  1.0  -0.0624
  C  C463  1  0.112170  0.635610  0.853520  1.0  -0.1397
  C  C464  1  0.097780  0.620930  0.911900  1.0  0.0845
  C  C465  1  0.099040  0.650860  0.954150  1.0  -0.1581
  C  C466  1  0.113790  0.694260  0.937520  1.0  -0.0325
  C  C467  1  0.078660  0.573940  0.929050  1.0  -0.0288
  C  C468  1  0.040850  0.554110  0.963450  1.0  -0.129
  C  C469  1  0.809410  0.088420  0.194050  1.0  0.682
  C  C470  1  0.794490  0.041740  0.212810  1.0  -0.1283
  C  C471  1  0.793260  0.012130  0.170230  1.0  -0.0624
  C  C472  1  0.778830  0.968950  0.186860  1.0  -0.1397
  C  C473  1  0.764440  0.954270  0.245240  1.0  0.0845
  C  C474  1  0.765700  0.984200  0.287490  1.0  -0.1581
  C  C475  1  0.780450  0.027600  0.270860  1.0  -0.0325
  C  C476  1  0.745320  0.907280  0.262390  1.0  -0.0317
  C  C477  1  0.707510  0.887450  0.296790  1.0  -0.1332
  C  C478  1  0.578250  0.054330  0.527380  1.0  0.6809
  C  C479  1  0.624930  0.086090  0.546140  1.0  -0.1296
  C  C480  1  0.654540  0.114470  0.503560  1.0  -0.0613
  C  C481  1  0.697720  0.143220  0.520190  1.0  -0.1382
  C  C482  1  0.712400  0.143510  0.578570  1.0  0.0834
  C  C483  1  0.682470  0.114840  0.620820  1.0  -0.1581
  C  C484  1  0.639070  0.086190  0.604190  1.0  -0.0329
  C  C485  1  0.759390  0.171380  0.595720  1.0  -0.0321
  C  C486  1  0.779220  0.153400  0.630120  1.0  -0.1317
  C  C487  1  0.244920  0.387660  0.860710  1.0  0.6809
  C  C488  1  0.291600  0.419420  0.879470  1.0  -0.1296
  C  C489  1  0.321210  0.447800  0.836890  1.0  -0.0613
  C  C490  1  0.364390  0.476550  0.853520  1.0  -0.1382
  C  C491  1  0.379070  0.476840  0.911900  1.0  0.0834
  C  C492  1  0.349140  0.448170  0.954150  1.0  -0.1581
  C  C493  1  0.305740  0.419520  0.937520  1.0  -0.0329
  C  C494  1  0.426060  0.504710  0.929050  1.0  -0.0326
  C  C495  1  0.445890  0.486730  0.963450  1.0  -0.1318
  C  C496  1  0.911580  0.721000  0.194050  1.0  0.6809
  C  C497  1  0.958260  0.752760  0.212810  1.0  -0.1296
  C  C498  1  0.987870  0.781140  0.170230  1.0  -0.0613
  C  C499  1  0.031050  0.809890  0.186860  1.0  -0.1382
  C  C500  1  0.045730  0.810180  0.245240  1.0  0.0834
  C  C501  1  0.015800  0.781510  0.287490  1.0  -0.1581
  C  C502  1  0.972400  0.752860  0.270860  1.0  -0.0329
  C  C503  1  0.092720  0.838050  0.262390  1.0  -0.0322
  C  C504  1  0.112550  0.820070  0.296790  1.0  -0.1317
  C  C505  1  0.945670  0.523920  0.527380  1.0  0.6808
  C  C506  1  0.913910  0.538840  0.546140  1.0  -0.1295
  C  C507  1  0.885530  0.540070  0.503560  1.0  -0.0621
  C  C508  1  0.856780  0.554500  0.520190  1.0  -0.138
  C  C509  1  0.856490  0.568890  0.578570  1.0  0.0828
  C  C510  1  0.885160  0.567630  0.620820  1.0  -0.1561
  C  C511  1  0.913810  0.552880  0.604190  1.0  -0.03
  C  C512  1  0.828620  0.588010  0.595720  1.0  -0.0302
  C  C513  1  0.846600  0.625820  0.630120  1.0  -0.1332
  C  C514  1  0.612340  0.857250  0.860710  1.0  0.6808
  C  C515  1  0.580580  0.872170  0.879470  1.0  -0.1295
  C  C516  1  0.552200  0.873400  0.836890  1.0  -0.0621
  C  C517  1  0.523450  0.887830  0.853520  1.0  -0.138
  C  C518  1  0.523160  0.902220  0.911900  1.0  0.0828
  C  C519  1  0.551830  0.900960  0.954150  1.0  -0.1561
  C  C520  1  0.580480  0.886210  0.937520  1.0  -0.03
  C  C521  1  0.495290  0.921340  0.929050  1.0  -0.0295
  C  C522  1  0.513270  0.959150  0.963450  1.0  -0.1332
  C  C523  1  0.279000  0.190590  0.194050  1.0  0.6808
  C  C524  1  0.247240  0.205510  0.212810  1.0  -0.1295
  C  C525  1  0.218860  0.206740  0.170230  1.0  -0.0621
  C  C526  1  0.190110  0.221170  0.186860  1.0  -0.138
  C  C527  1  0.189820  0.235560  0.245240  1.0  0.0828
  C  C528  1  0.218490  0.234300  0.287490  1.0  -0.1561
  C  C529  1  0.247140  0.219550  0.270860  1.0  -0.03
  C  C530  1  0.161950  0.254680  0.262390  1.0  -0.0269
  C  C531  1  0.179930  0.292490  0.296790  1.0  -0.1296
  C  C532  1  0.421750  0.476080  0.472620  1.0  0.681
  C  C533  1  0.375070  0.461160  0.453860  1.0  -0.1299
  C  C534  1  0.345460  0.459930  0.496440  1.0  -0.0617
  C  C535  1  0.302280  0.445500  0.479810  1.0  -0.1395
  C  C536  1  0.287600  0.431110  0.421430  1.0  0.0834
  C  C537  1  0.317530  0.432370  0.379180  1.0  -0.1541
  C  C538  1  0.360930  0.447120  0.395810  1.0  -0.0313
  C  C539  1  0.240610  0.411990  0.404280  1.0  -0.0266
  C  C540  1  0.220780  0.374180  0.369880  1.0  -0.1289
  C  C541  1  0.088420  0.809410  0.805950  1.0  0.681
  C  C542  1  0.041740  0.794490  0.787190  1.0  -0.1299
  C  C543  1  0.012130  0.793260  0.829770  1.0  -0.0617
  C  C544  1  0.968950  0.778830  0.813140  1.0  -0.1396
  C  C545  1  0.954270  0.764440  0.754760  1.0  0.0834
  C  C546  1  0.984200  0.765700  0.712510  1.0  -0.1541
  C  C547  1  0.027600  0.780450  0.729140  1.0  -0.0313
  C  C548  1  0.907280  0.745320  0.737610  1.0  -0.0297
  C  C549  1  0.887450  0.707510  0.703210  1.0  -0.1328
  C  C550  1  0.755080  0.142750  0.139290  1.0  0.681
  C  C551  1  0.708400  0.127830  0.120530  1.0  -0.1299
  C  C552  1  0.678790  0.126600  0.163110  1.0  -0.0617
  C  C553  1  0.635610  0.112170  0.146480  1.0  -0.1395
  C  C554  1  0.620930  0.097780  0.088100  1.0  0.0834
  C  C555  1  0.650860  0.099040  0.045850  1.0  -0.154
  C  C556  1  0.694260  0.113790  0.062480  1.0  -0.0313
  C  C557  1  0.573940  0.078660  0.070950  1.0  -0.0276
  C  C558  1  0.554110  0.040850  0.036550  1.0  -0.1289
  C  C559  1  0.054330  0.578250  0.472620  1.0  0.6815
  C  C560  1  0.086090  0.624930  0.453860  1.0  -0.1293
  C  C561  1  0.114470  0.654540  0.496440  1.0  -0.0614
  C  C562  1  0.143220  0.697720  0.479810  1.0  -0.1405
  C  C563  1  0.143510  0.712400  0.421430  1.0  0.0847
  C  C564  1  0.114840  0.682470  0.379180  1.0  -0.1564
  C  C565  1  0.086190  0.639070  0.395810  1.0  -0.0328
  C  C566  1  0.171380  0.759390  0.404280  1.0  -0.0319
  C  C567  1  0.153400  0.779220  0.369880  1.0  -0.1324
  C  C568  1  0.721000  0.911580  0.805950  1.0  0.6815
  C  C569  1  0.752760  0.958260  0.787190  1.0  -0.1293
  C  C570  1  0.781140  0.987870  0.829770  1.0  -0.0614
  C  C571  1  0.809890  0.031050  0.813140  1.0  -0.1405
  C  C572  1  0.810180  0.045730  0.754760  1.0  0.0847
  C  C573  1  0.781510  0.015800  0.712510  1.0  -0.1564
  C  C574  1  0.752860  0.972400  0.729140  1.0  -0.0328
  C  C575  1  0.838050  0.092720  0.737610  1.0  -0.0319
  C  C576  1  0.820070  0.112550  0.703210  1.0  -0.1324
  C  C577  1  0.387660  0.244920  0.139290  1.0  0.6815
  C  C578  1  0.419420  0.291600  0.120530  1.0  -0.1293
  C  C579  1  0.447800  0.321210  0.163110  1.0  -0.0614
  C  C580  1  0.476550  0.364390  0.146480  1.0  -0.1405
  C  C581  1  0.476840  0.379070  0.088100  1.0  0.0847
  C  C582  1  0.448170  0.349140  0.045850  1.0  -0.1564
  C  C583  1  0.419520  0.305740  0.062480  1.0  -0.0328
  C  C584  1  0.504710  0.426060  0.070950  1.0  -0.0323
  C  C585  1  0.486730  0.445890  0.036550  1.0  -0.1325
  C  C586  1  0.523920  0.945670  0.472620  1.0  0.6811
  C  C587  1  0.538840  0.913910  0.453860  1.0  -0.1294
  C  C588  1  0.540070  0.885530  0.496440  1.0  -0.062
  C  C589  1  0.554500  0.856780  0.479810  1.0  -0.1386
  C  C590  1  0.568890  0.856490  0.421430  1.0  0.0834
  C  C591  1  0.567630  0.885160  0.379180  1.0  -0.1568
  C  C592  1  0.552880  0.913810  0.395810  1.0  -0.0329
  C  C593  1  0.588010  0.828620  0.404280  1.0  -0.0317
  C  C594  1  0.625820  0.846600  0.369880  1.0  -0.1317
  C  C595  1  0.190590  0.279000  0.805950  1.0  0.6811
  C  C596  1  0.205510  0.247240  0.787190  1.0  -0.1294
  C  C597  1  0.206740  0.218860  0.829770  1.0  -0.062
  C  C598  1  0.221170  0.190110  0.813140  1.0  -0.1386
  C  C599  1  0.235560  0.189820  0.754760  1.0  0.0834
  C  C600  1  0.234300  0.218490  0.712510  1.0  -0.1568
  C  C601  1  0.219550  0.247140  0.729140  1.0  -0.0329
  C  C602  1  0.254680  0.161950  0.737610  1.0  -0.0283
  C  C603  1  0.292490  0.179930  0.703210  1.0  -0.1279
  C  C604  1  0.857250  0.612340  0.139290  1.0  0.6811
  C  C605  1  0.872170  0.580580  0.120530  1.0  -0.1294
  C  C606  1  0.873400  0.552200  0.163110  1.0  -0.062
  C  C607  1  0.887830  0.523450  0.146480  1.0  -0.1386
  C  C608  1  0.902220  0.523160  0.088100  1.0  0.0834
  C  C609  1  0.900960  0.551830  0.045850  1.0  -0.1568
  C  C610  1  0.886210  0.580480  0.062480  1.0  -0.0329
  C  C611  1  0.921340  0.495290  0.070950  1.0  -0.0309
  C  C612  1  0.959150  0.513270  0.036550  1.0  -0.1317
  C  C613  1  0.646040  0.823020  0.351880  1.0  0.0562
  C  C614  1  0.568450  0.784230  0.420800  1.0  0.1639
  C  C615  1  0.490810  0.745410  0.419900  1.0  0.1159
  C  C616  1  0.455000  0.727500  0.462300  1.0  -0.3764
  C  C617  1  0.312710  0.156350  0.685210  1.0  0.0562
  C  C618  1  0.235120  0.117560  0.754130  1.0  0.1639
  C  C619  1  0.157480  0.078740  0.753230  1.0  0.1159
  C  C620  1  0.121670  0.060830  0.795630  1.0  -0.3764
  C  C621  1  0.979370  0.489690  0.018550  1.0  0.0597
  C  C622  1  0.901780  0.450890  0.087470  1.0  0.1639
  C  C623  1  0.824140  0.412070  0.086570  1.0  0.1158
  C  C624  1  0.788330  0.394170  0.128970  1.0  -0.3764
  C  C625  1  0.176980  0.823020  0.351880  1.0  0.056
  C  C626  1  0.215770  0.784230  0.420800  1.0  0.1643
  C  C627  1  0.254590  0.745410  0.419900  1.0  0.1149
  C  C628  1  0.272500  0.727500  0.462300  1.0  -0.373
  C  C629  1  0.843650  0.156350  0.685210  1.0  0.056
  C  C630  1  0.882440  0.117560  0.754130  1.0  0.1643
  C  C631  1  0.921260  0.078740  0.753230  1.0  0.1149
  C  C632  1  0.939170  0.060830  0.795630  1.0  -0.373
  C  C633  1  0.510310  0.489690  0.018550  1.0  0.0517
  C  C634  1  0.549110  0.450890  0.087470  1.0  0.1644
  C  C635  1  0.587930  0.412070  0.086570  1.0  0.1152
  C  C636  1  0.605830  0.394170  0.128970  1.0  -0.373
  C  C637  1  0.176980  0.353960  0.351880  1.0  0.0604
  C  C638  1  0.215770  0.431550  0.420800  1.0  0.1629
  C  C639  1  0.254590  0.509190  0.419900  1.0  0.1113
  C  C640  1  0.272500  0.545000  0.462300  1.0  -0.3752
  C  C641  1  0.843650  0.687290  0.685210  1.0  0.0604
  C  C642  1  0.882440  0.764880  0.754130  1.0  0.1629
  C  C643  1  0.921260  0.842520  0.753230  1.0  0.1113
  C  C644  1  0.939170  0.878330  0.795630  1.0  -0.3752
  C  C645  1  0.510310  0.020630  0.018550  1.0  0.0638
  C  C646  1  0.549110  0.098220  0.087470  1.0  0.1629
  C  C647  1  0.587930  0.175860  0.086570  1.0  0.1113
  C  C648  1  0.605830  0.211670  0.128970  1.0  -0.3752
  C  C649  1  0.823020  0.646040  0.648120  1.0  0.0606
  C  C650  1  0.784230  0.568450  0.579200  1.0  0.1638
  C  C651  1  0.745410  0.490810  0.580100  1.0  0.1125
  C  C652  1  0.727500  0.455000  0.537700  1.0  -0.374
  C  C653  1  0.489690  0.979370  0.981450  1.0  0.064
  C  C654  1  0.450890  0.901780  0.912530  1.0  0.1638
  C  C655  1  0.412070  0.824140  0.913430  1.0  0.1125
  C  C656  1  0.394170  0.788330  0.871030  1.0  -0.3741
  C  C657  1  0.156350  0.312710  0.314790  1.0  0.0606
  C  C658  1  0.117560  0.235120  0.245870  1.0  0.1638
  C  C659  1  0.078740  0.157480  0.246770  1.0  0.1125
  C  C660  1  0.060830  0.121670  0.204370  1.0  -0.374
  C  C661  1  0.823020  0.176980  0.648120  1.0  0.0562
  C  C662  1  0.784230  0.215770  0.579200  1.0  0.1636
  C  C663  1  0.745410  0.254590  0.580100  1.0  0.1137
  C  C664  1  0.727500  0.272500  0.537700  1.0  -0.3741
  C  C665  1  0.489690  0.510310  0.981450  1.0  0.0521
  C  C666  1  0.450890  0.549110  0.912530  1.0  0.1636
  C  C667  1  0.412070  0.587930  0.913430  1.0  0.1138
  C  C668  1  0.394170  0.605830  0.871030  1.0  -0.3741
  C  C669  1  0.156350  0.843650  0.314790  1.0  0.0562
  C  C670  1  0.117560  0.882440  0.245870  1.0  0.1636
  C  C671  1  0.078740  0.921260  0.246770  1.0  0.1137
  C  C672  1  0.060830  0.939170  0.204370  1.0  -0.3741
  C  C673  1  0.353960  0.176980  0.648120  1.0  0.0559
  C  C674  1  0.431550  0.215770  0.579200  1.0  0.1638
  C  C675  1  0.509190  0.254590  0.580100  1.0  0.1141
  C  C676  1  0.545000  0.272500  0.537700  1.0  -0.3728
  C  C677  1  0.020630  0.510310  0.981450  1.0  0.0594
  C  C678  1  0.098220  0.549110  0.912530  1.0  0.1639
  C  C679  1  0.175860  0.587930  0.913430  1.0  0.1141
  C  C680  1  0.211670  0.605830  0.871030  1.0  -0.3728
  C  C681  1  0.687290  0.843650  0.314790  1.0  0.0559
  C  C682  1  0.764880  0.882440  0.245870  1.0  0.1638
  C  C683  1  0.842520  0.921260  0.246770  1.0  0.1141
  C  C684  1  0.878330  0.939170  0.204370  1.0  -0.3728
  O  O685  1  0.524790  0.553680  0.430790  1.0  -0.5828
  O  O686  1  0.511330  0.567290  0.525540  1.0  -0.5629
  O  O687  1  0.191460  0.887010  0.764120  1.0  -0.5828
  O  O688  1  0.178000  0.900620  0.858870  1.0  -0.5629
  O  O689  1  0.858120  0.220350  0.097460  1.0  -0.5828
  O  O690  1  0.844660  0.233960  0.192210  1.0  -0.5629
  O  O691  1  0.446320  0.971110  0.430790  1.0  -0.5819
  O  O692  1  0.432710  0.944040  0.525540  1.0  -0.5628
  O  O693  1  0.112990  0.304440  0.764120  1.0  -0.5819
  O  O694  1  0.099380  0.277370  0.858870  1.0  -0.5636
  O  O695  1  0.779650  0.637780  0.097460  1.0  -0.5831
  O  O696  1  0.766040  0.610710  0.192210  1.0  -0.5628
  O  O697  1  0.028890  0.475210  0.430790  1.0  -0.583
  O  O698  1  0.055960  0.488670  0.525540  1.0  -0.5635
  O  O699  1  0.695560  0.808540  0.764120  1.0  -0.583
  O  O700  1  0.722630  0.822000  0.858870  1.0  -0.5621
  O  O701  1  0.362220  0.141880  0.097460  1.0  -0.582
  O  O702  1  0.389290  0.155340  0.192210  1.0  -0.5635
  O  O703  1  0.553680  0.524790  0.569210  1.0  -0.5815
  O  O704  1  0.567290  0.511330  0.474460  1.0  -0.562
  O  O705  1  0.220350  0.858120  0.902540  1.0  -0.5815
  O  O706  1  0.233960  0.844660  0.807790  1.0  -0.562
  O  O707  1  0.887010  0.191460  0.235880  1.0  -0.5815
  O  O708  1  0.900620  0.178000  0.141130  1.0  -0.562
  O  O709  1  0.971110  0.446320  0.569210  1.0  -0.5795
  O  O710  1  0.944040  0.432710  0.474460  1.0  -0.5621
  O  O711  1  0.637780  0.779650  0.902540  1.0  -0.5809
  O  O712  1  0.610710  0.766040  0.807790  1.0  -0.5621
  O  O713  1  0.304440  0.112990  0.235880  1.0  -0.5795
  O  O714  1  0.277370  0.099380  0.141130  1.0  -0.5631
  O  O715  1  0.475210  0.028890  0.569210  1.0  -0.5823
  O  O716  1  0.488670  0.055960  0.474460  1.0  -0.5641
  O  O717  1  0.141880  0.362220  0.902540  1.0  -0.5811
  O  O718  1  0.155340  0.389290  0.807790  1.0  -0.5641
  O  O719  1  0.808540  0.695560  0.235880  1.0  -0.5823
  O  O720  1  0.822000  0.722630  0.141130  1.0  -0.5625
  O  O721  1  0.475210  0.446320  0.569210  1.0  -0.5818
  O  O722  1  0.488670  0.432710  0.474460  1.0  -0.5621
  O  O723  1  0.141880  0.779650  0.902540  1.0  -0.5818
  O  O724  1  0.155340  0.766040  0.807790  1.0  -0.5621
  O  O725  1  0.808540  0.112990  0.235880  1.0  -0.5818
  O  O726  1  0.822000  0.099380  0.141130  1.0  -0.5621
  O  O727  1  0.553680  0.028890  0.569210  1.0  -0.5809
  O  O728  1  0.567290  0.055960  0.474460  1.0  -0.5626
  O  O729  1  0.220350  0.362220  0.902540  1.0  -0.5823
  O  O730  1  0.233960  0.389290  0.807790  1.0  -0.5626
  O  O731  1  0.887010  0.695560  0.235880  1.0  -0.5809
  O  O732  1  0.900620  0.722630  0.141130  1.0  -0.5637
  O  O733  1  0.971110  0.524790  0.569210  1.0  -0.5818
  O  O734  1  0.944040  0.511330  0.474460  1.0  -0.5642
  O  O735  1  0.637780  0.858120  0.902540  1.0  -0.5804
  O  O736  1  0.610710  0.844660  0.807790  1.0  -0.5642
  O  O737  1  0.304440  0.191460  0.235880  1.0  -0.5818
  O  O738  1  0.277370  0.178000  0.141130  1.0  -0.5625
  O  O739  1  0.446320  0.475210  0.430790  1.0  -0.5836
  O  O740  1  0.432710  0.488670  0.525540  1.0  -0.5634
  O  O741  1  0.112990  0.808540  0.764120  1.0  -0.5836
  O  O742  1  0.099380  0.822000  0.858870  1.0  -0.5634
  O  O743  1  0.779650  0.141880  0.097460  1.0  -0.5836
  O  O744  1  0.766040  0.155340  0.192210  1.0  -0.5634
  O  O745  1  0.028890  0.553680  0.430790  1.0  -0.5818
  O  O746  1  0.055960  0.567290  0.525540  1.0  -0.5617
  O  O747  1  0.695560  0.887010  0.764120  1.0  -0.5818
  O  O748  1  0.722630  0.900620  0.858870  1.0  -0.5627
  O  O749  1  0.362220  0.220350  0.097460  1.0  -0.5831
  O  O750  1  0.389290  0.233960  0.192210  1.0  -0.5617
  O  O751  1  0.524790  0.971110  0.430790  1.0  -0.5833
  O  O752  1  0.511330  0.944040  0.525540  1.0  -0.5639
  O  O753  1  0.191460  0.304440  0.764120  1.0  -0.5833
  O  O754  1  0.178000  0.277370  0.858870  1.0  -0.5627
  O  O755  1  0.858120  0.637780  0.097460  1.0  -0.5821
  O  O756  1  0.844660  0.610710  0.192210  1.0  -0.5639
  O  O757  1  0.530000  0.765000  0.455220  1.0  -0.3071
  O  O758  1  0.196670  0.098330  0.788550  1.0  -0.3071
  O  O759  1  0.863330  0.431670  0.121890  1.0  -0.3071
  O  O760  1  0.235000  0.765000  0.455220  1.0  -0.3069
  O  O761  1  0.901670  0.098330  0.788550  1.0  -0.3069
  O  O762  1  0.568330  0.431670  0.121890  1.0  -0.3065
  O  O763  1  0.235000  0.470000  0.455220  1.0  -0.3052
  O  O764  1  0.901670  0.803330  0.788550  1.0  -0.3052
  O  O765  1  0.568330  0.136670  0.121890  1.0  -0.3053
  O  O766  1  0.765000  0.530000  0.544780  1.0  -0.3022
  O  O767  1  0.431670  0.863330  0.878110  1.0  -0.3022
  O  O768  1  0.098330  0.196670  0.211450  1.0  -0.3022
  O  O769  1  0.765000  0.235000  0.544780  1.0  -0.3036
  O  O770  1  0.431670  0.568330  0.878110  1.0  -0.3032
  O  O771  1  0.098330  0.901670  0.211450  1.0  -0.3036
  O  O772  1  0.470000  0.235000  0.544780  1.0  -0.3029
  O  O773  1  0.136670  0.568330  0.878110  1.0  -0.3029
  O  O774  1  0.803330  0.901670  0.211450  1.0  -0.3029
