# generated using pymatgen
data_CuH15C22O5
_symmetry_space_group_name_H-M   'P 1'
_cell_length_a   34.89300000
_cell_length_b   34.89300000
_cell_length_c   23.89200000
_cell_angle_alpha   90.00000000
_cell_angle_beta   90.00000000
_cell_angle_gamma   120.00000000
_symmetry_Int_Tables_number   1
_chemical_formula_structural   CuH15C22O5
_chemical_formula_sum   'Cu18 H270 C396 O90'
_cell_volume   25191.83242119
_cell_formula_units_Z   18
loop_
 _symmetry_equiv_pos_site_id
 _symmetry_equiv_pos_as_xyz
  1  'x, y, z'
loop_
 _atom_site_type_symbol
 _atom_site_label
 _atom_site_symmetry_multiplicity
 _atom_site_fract_x
 _atom_site_fract_y
 _atom_site_fract_z
 _atom_site_occupancy
 _atom_site_charge
  Cu  Cu1  1  0.508660  0.017310  0.949270  1.0  0.9028
  Cu  Cu2  1  0.175320  0.350640  0.282600  1.0  0.9028
  Cu  Cu3  1  0.841990  0.683980  0.615940  1.0  0.9028
  Cu  Cu4  1  0.982690  0.491340  0.949270  1.0  0.9016
  Cu  Cu5  1  0.649360  0.824680  0.282600  1.0  0.9017
  Cu  Cu6  1  0.316020  0.158010  0.615940  1.0  0.9017
  Cu  Cu7  1  0.508660  0.491340  0.949270  1.0  0.8981
  Cu  Cu8  1  0.175320  0.824680  0.282600  1.0  0.8982
  Cu  Cu9  1  0.841990  0.158010  0.615940  1.0  0.898
  Cu  Cu10  1  0.017310  0.508660  0.050730  1.0  0.902
  Cu  Cu11  1  0.683980  0.841990  0.384060  1.0  0.9021
  Cu  Cu12  1  0.350640  0.175320  0.717400  1.0  0.9021
  Cu  Cu13  1  0.491340  0.982690  0.050730  1.0  0.9029
  Cu  Cu14  1  0.158010  0.316020  0.384060  1.0  0.903
  Cu  Cu15  1  0.824680  0.649360  0.717400  1.0  0.903
  Cu  Cu16  1  0.491340  0.508660  0.050730  1.0  0.8982
  Cu  Cu17  1  0.158010  0.841990  0.384060  1.0  0.898
  Cu  Cu18  1  0.824680  0.175320  0.717400  1.0  0.8983
  H  H19  1  0.648400  0.113100  0.970500  1.0  0.1156
  H  H20  1  0.718900  0.161300  0.997200  1.0  0.1178
  H  H21  1  0.690100  0.113200  0.153600  1.0  0.1119
  H  H22  1  0.618200  0.065600  0.127800  1.0  0.1243
  H  H23  1  0.763300  0.122800  0.141300  1.0  0.1365
  H  H24  1  0.722000  0.232400  0.109300  1.0  0.1167
  H  H25  1  0.754300  0.290600  0.016900  1.0  0.1142
  H  H26  1  0.315070  0.446430  0.303830  1.0  0.1156
  H  H27  1  0.385570  0.494630  0.330530  1.0  0.1178
  H  H28  1  0.356770  0.446530  0.486930  1.0  0.112
  H  H29  1  0.284870  0.398930  0.461130  1.0  0.1237
  H  H30  1  0.429970  0.456130  0.474630  1.0  0.1366
  H  H31  1  0.388670  0.565730  0.442630  1.0  0.1167
  H  H32  1  0.420970  0.623930  0.350230  1.0  0.1142
  H  H33  1  0.981730  0.779770  0.637170  1.0  0.1147
  H  H34  1  0.052230  0.827970  0.663870  1.0  0.1178
  H  H35  1  0.023430  0.779870  0.820270  1.0  0.1118
  H  H36  1  0.951530  0.732270  0.794470  1.0  0.1243
  H  H37  1  0.096630  0.789470  0.807970  1.0  0.1365
  H  H38  1  0.055330  0.899070  0.775970  1.0  0.1156
  H  H39  1  0.087630  0.957270  0.683570  1.0  0.1161
  H  H40  1  0.886900  0.535300  0.970500  1.0  0.1141
  H  H41  1  0.838700  0.557600  0.997200  1.0  0.1178
  H  H42  1  0.886800  0.576900  0.153600  1.0  0.1109
  H  H43  1  0.934400  0.552600  0.127800  1.0  0.122
  H  H44  1  0.877200  0.640500  0.141300  1.0  0.1364
  H  H45  1  0.767600  0.489600  0.109300  1.0  0.1135
  H  H46  1  0.709400  0.463700  0.016900  1.0  0.1156
  H  H47  1  0.553570  0.868630  0.303830  1.0  0.1141
  H  H48  1  0.505370  0.890930  0.330530  1.0  0.1178
  H  H49  1  0.553470  0.910230  0.486930  1.0  0.1109
  H  H50  1  0.601070  0.885930  0.461130  1.0  0.1233
  H  H51  1  0.543870  0.973830  0.474630  1.0  0.1365
  H  H52  1  0.434270  0.822930  0.442630  1.0  0.1135
  H  H53  1  0.376070  0.797030  0.350230  1.0  0.1156
  H  H54  1  0.220230  0.201970  0.637170  1.0  0.115
  H  H55  1  0.172030  0.224270  0.663870  1.0  0.1164
  H  H56  1  0.220130  0.243570  0.820270  1.0  0.1108
  H  H57  1  0.267730  0.219270  0.794470  1.0  0.1234
  H  H58  1  0.210530  0.307170  0.807970  1.0  0.1364
  H  H59  1  0.100930  0.156270  0.775970  1.0  0.1131
  H  H60  1  0.042730  0.130370  0.683570  1.0  0.1111
  H  H61  1  0.464700  0.351600  0.970500  1.0  0.1156
  H  H62  1  0.442400  0.281100  0.997200  1.0  0.1162
  H  H63  1  0.423100  0.309900  0.153600  1.0  0.1116
  H  H64  1  0.447400  0.381800  0.127800  1.0  0.1233
  H  H65  1  0.359500  0.236700  0.141300  1.0  0.1362
  H  H66  1  0.510400  0.278000  0.109300  1.0  0.1134
  H  H67  1  0.536300  0.245700  0.016900  1.0  0.1171
  H  H68  1  0.131370  0.684930  0.303830  1.0  0.1156
  H  H69  1  0.109070  0.614430  0.330530  1.0  0.1162
  H  H70  1  0.089770  0.643230  0.486930  1.0  0.1116
  H  H71  1  0.114070  0.715130  0.461130  1.0  0.1233
  H  H72  1  0.026170  0.570030  0.474630  1.0  0.1362
  H  H73  1  0.177070  0.611330  0.442630  1.0  0.1134
  H  H74  1  0.202970  0.579030  0.350230  1.0  0.1171
  H  H75  1  0.798030  0.018270  0.637170  1.0  0.1156
  H  H76  1  0.775730  0.947770  0.663870  1.0  0.1176
  H  H77  1  0.756430  0.976570  0.820270  1.0  0.1115
  H  H78  1  0.780730  0.048470  0.794470  1.0  0.1234
  H  H79  1  0.692830  0.903370  0.807970  1.0  0.1362
  H  H80  1  0.843730  0.944670  0.775970  1.0  0.1137
  H  H81  1  0.869630  0.912370  0.683570  1.0  0.1182
  H  H82  1  0.113100  0.648400  0.029500  1.0  0.1152
  H  H83  1  0.161300  0.718900  0.002800  1.0  0.1176
  H  H84  1  0.113200  0.690100  0.846400  1.0  0.1116
  H  H85  1  0.065600  0.618200  0.872200  1.0  0.1236
  H  H86  1  0.122800  0.763300  0.858700  1.0  0.1367
  H  H87  1  0.232400  0.722000  0.890700  1.0  0.1155
  H  H88  1  0.290600  0.754300  0.983100  1.0  0.1157
  H  H89  1  0.779770  0.981730  0.362830  1.0  0.1145
  H  H90  1  0.827970  0.052230  0.336130  1.0  0.1176
  H  H91  1  0.779870  0.023430  0.179730  1.0  0.1115
  H  H92  1  0.732270  0.951530  0.205530  1.0  0.1235
  H  H93  1  0.789470  0.096630  0.192030  1.0  0.1367
  H  H94  1  0.899070  0.055330  0.224030  1.0  0.1139
  H  H95  1  0.957270  0.087630  0.316430  1.0  0.1178
  H  H96  1  0.446430  0.315070  0.696170  1.0  0.1152
  H  H97  1  0.494630  0.385570  0.669470  1.0  0.1176
  H  H98  1  0.446530  0.356770  0.513070  1.0  0.1117
  H  H99  1  0.398930  0.284870  0.538870  1.0  0.1234
  H  H100  1  0.456130  0.429970  0.525370  1.0  0.1367
  H  H101  1  0.565730  0.388670  0.557370  1.0  0.1155
  H  H102  1  0.623930  0.420970  0.649770  1.0  0.1157
  H  H103  1  0.535300  0.886900  0.029500  1.0  0.1144
  H  H104  1  0.557600  0.838700  0.002800  1.0  0.1174
  H  H105  1  0.576900  0.886800  0.846400  1.0  0.1115
  H  H106  1  0.552600  0.934400  0.872200  1.0  0.1217
  H  H107  1  0.640500  0.877200  0.858700  1.0  0.1364
  H  H108  1  0.489600  0.767600  0.890700  1.0  0.1137
  H  H109  1  0.463700  0.709400  0.983100  1.0  0.1179
  H  H110  1  0.201970  0.220230  0.362830  1.0  0.1154
  H  H111  1  0.224270  0.172030  0.336130  1.0  0.1168
  H  H112  1  0.243570  0.220130  0.179730  1.0  0.1114
  H  H113  1  0.219270  0.267730  0.205530  1.0  0.1239
  H  H114  1  0.307170  0.210530  0.192030  1.0  0.1364
  H  H115  1  0.156270  0.100930  0.224030  1.0  0.1134
  H  H116  1  0.130370  0.042730  0.316430  1.0  0.1153
  H  H117  1  0.868630  0.553570  0.696170  1.0  0.1144
  H  H118  1  0.890930  0.505370  0.669470  1.0  0.1174
  H  H119  1  0.910230  0.553470  0.513070  1.0  0.1115
  H  H120  1  0.885930  0.601070  0.538870  1.0  0.1231
  H  H121  1  0.973830  0.543870  0.525370  1.0  0.1366
  H  H122  1  0.822930  0.434270  0.557370  1.0  0.1137
  H  H123  1  0.797030  0.376070  0.649770  1.0  0.1179
  H  H124  1  0.351600  0.464700  0.029500  1.0  0.1149
  H  H125  1  0.281100  0.442400  0.002800  1.0  0.116
  H  H126  1  0.309900  0.423100  0.846400  1.0  0.1118
  H  H127  1  0.381800  0.447400  0.872200  1.0  0.124
  H  H128  1  0.236700  0.359500  0.858700  1.0  0.1373
  H  H129  1  0.278000  0.510400  0.890700  1.0  0.113
  H  H130  1  0.245700  0.536300  0.983100  1.0  0.1143
  H  H131  1  0.018270  0.798030  0.362830  1.0  0.1149
  H  H132  1  0.947770  0.775730  0.336130  1.0  0.117
  H  H133  1  0.976570  0.756430  0.179730  1.0  0.1117
  H  H134  1  0.048470  0.780730  0.205530  1.0  0.1239
  H  H135  1  0.903370  0.692830  0.192030  1.0  0.1373
  H  H136  1  0.944670  0.843730  0.224030  1.0  0.1128
  H  H137  1  0.912370  0.869630  0.316430  1.0  0.1154
  H  H138  1  0.684930  0.131370  0.696170  1.0  0.1149
  H  H139  1  0.614430  0.109070  0.669470  1.0  0.116
  H  H140  1  0.643230  0.089770  0.513070  1.0  0.1117
  H  H141  1  0.715130  0.114070  0.538870  1.0  0.124
  H  H142  1  0.570030  0.026170  0.525370  1.0  0.1372
  H  H143  1  0.611330  0.177070  0.557370  1.0  0.113
  H  H144  1  0.579030  0.202970  0.649770  1.0  0.1143
  H  H145  1  0.351600  0.886900  0.029500  1.0  0.1152
  H  H146  1  0.281100  0.838700  0.002800  1.0  0.1175
  H  H147  1  0.309900  0.886800  0.846400  1.0  0.1117
  H  H148  1  0.381800  0.934400  0.872200  1.0  0.1242
  H  H149  1  0.236700  0.877200  0.858700  1.0  0.1366
  H  H150  1  0.278000  0.767600  0.890700  1.0  0.1155
  H  H151  1  0.245700  0.709400  0.983100  1.0  0.1159
  H  H152  1  0.018270  0.220230  0.362830  1.0  0.1144
  H  H153  1  0.947770  0.172030  0.336130  1.0  0.1175
  H  H154  1  0.976570  0.220130  0.179730  1.0  0.1115
  H  H155  1  0.048470  0.267730  0.205530  1.0  0.1241
  H  H156  1  0.903370  0.210530  0.192030  1.0  0.1366
  H  H157  1  0.944670  0.100930  0.224030  1.0  0.1143
  H  H158  1  0.912370  0.042730  0.316430  1.0  0.1178
  H  H159  1  0.684930  0.553570  0.696170  1.0  0.1152
  H  H160  1  0.614430  0.505370  0.669470  1.0  0.1175
  H  H161  1  0.643230  0.553470  0.513070  1.0  0.1117
  H  H162  1  0.715130  0.601070  0.538870  1.0  0.1237
  H  H163  1  0.570030  0.543870  0.525370  1.0  0.1367
  H  H164  1  0.611330  0.434270  0.557370  1.0  0.1155
  H  H165  1  0.579030  0.376070  0.649770  1.0  0.1159
  H  H166  1  0.113100  0.464700  0.029500  1.0  0.1138
  H  H167  1  0.161300  0.442400  0.002800  1.0  0.1178
  H  H168  1  0.113200  0.423100  0.846400  1.0  0.1113
  H  H169  1  0.065600  0.447400  0.872200  1.0  0.1218
  H  H170  1  0.122800  0.359500  0.858700  1.0  0.1366
  H  H171  1  0.232400  0.510400  0.890700  1.0  0.1122
  H  H172  1  0.290600  0.536300  0.983100  1.0  0.104
  H  H173  1  0.779770  0.798030  0.362830  1.0  0.1147
  H  H174  1  0.827970  0.775730  0.336130  1.0  0.1169
  H  H175  1  0.779870  0.756430  0.179730  1.0  0.1112
  H  H176  1  0.732270  0.780730  0.205530  1.0  0.1237
  H  H177  1  0.789470  0.692830  0.192030  1.0  0.1366
  H  H178  1  0.899070  0.843730  0.224030  1.0  0.1121
  H  H179  1  0.957270  0.869630  0.316430  1.0  0.0997
  H  H180  1  0.446430  0.131370  0.696170  1.0  0.1138
  H  H181  1  0.494630  0.109070  0.669470  1.0  0.1178
  H  H182  1  0.446530  0.089770  0.513070  1.0  0.1113
  H  H183  1  0.398930  0.114070  0.538870  1.0  0.1232
  H  H184  1  0.456130  0.026170  0.525370  1.0  0.1367
  H  H185  1  0.565730  0.177070  0.557370  1.0  0.1122
  H  H186  1  0.623930  0.202970  0.649770  1.0  0.104
  H  H187  1  0.535300  0.648400  0.029500  1.0  0.1151
  H  H188  1  0.557600  0.718900  0.002800  1.0  0.1165
  H  H189  1  0.576900  0.690100  0.846400  1.0  0.1119
  H  H190  1  0.552600  0.618200  0.872200  1.0  0.1234
  H  H191  1  0.640500  0.763300  0.858700  1.0  0.1362
  H  H192  1  0.489600  0.722000  0.890700  1.0  0.1133
  H  H193  1  0.463700  0.754300  0.983100  1.0  0.1175
  H  H194  1  0.201970  0.981730  0.362830  1.0  0.1151
  H  H195  1  0.224270  0.052230  0.336130  1.0  0.1174
  H  H196  1  0.243570  0.023430  0.179730  1.0  0.1118
  H  H197  1  0.219270  0.951530  0.205530  1.0  0.1235
  H  H198  1  0.307170  0.096630  0.192030  1.0  0.1362
  H  H199  1  0.156270  0.055330  0.224030  1.0  0.1128
  H  H200  1  0.130370  0.087630  0.316430  1.0  0.1181
  H  H201  1  0.868630  0.315070  0.696170  1.0  0.1151
  H  H202  1  0.890930  0.385570  0.669470  1.0  0.1165
  H  H203  1  0.910230  0.356770  0.513070  1.0  0.1118
  H  H204  1  0.885930  0.284870  0.538870  1.0  0.1234
  H  H205  1  0.973830  0.429970  0.525370  1.0  0.1362
  H  H206  1  0.822930  0.388670  0.557370  1.0  0.1133
  H  H207  1  0.797030  0.420970  0.649770  1.0  0.1175
  H  H208  1  0.886900  0.351600  0.970500  1.0  0.1155
  H  H209  1  0.838700  0.281100  0.997200  1.0  0.1177
  H  H210  1  0.886800  0.309900  0.153600  1.0  0.1118
  H  H211  1  0.934400  0.381800  0.127800  1.0  0.1238
  H  H212  1  0.877200  0.236700  0.141300  1.0  0.1356
  H  H213  1  0.767600  0.278000  0.109300  1.0  0.1152
  H  H214  1  0.709400  0.245700  0.016900  1.0  0.1156
  H  H215  1  0.553570  0.684930  0.303830  1.0  0.1155
  H  H216  1  0.505370  0.614430  0.330530  1.0  0.1177
  H  H217  1  0.553470  0.643230  0.486930  1.0  0.1118
  H  H218  1  0.601070  0.715130  0.461130  1.0  0.1232
  H  H219  1  0.543870  0.570030  0.474630  1.0  0.1356
  H  H220  1  0.434270  0.611330  0.442630  1.0  0.1152
  H  H221  1  0.376070  0.579030  0.350230  1.0  0.1156
  H  H222  1  0.220230  0.018270  0.637170  1.0  0.1146
  H  H223  1  0.172030  0.947770  0.663870  1.0  0.1177
  H  H224  1  0.220130  0.976570  0.820270  1.0  0.1117
  H  H225  1  0.267730  0.048470  0.794470  1.0  0.1238
  H  H226  1  0.210530  0.903370  0.807970  1.0  0.1356
  H  H227  1  0.100930  0.944670  0.775970  1.0  0.1143
  H  H228  1  0.042730  0.912370  0.683570  1.0  0.117
  H  H229  1  0.464700  0.113100  0.970500  1.0  0.1146
  H  H230  1  0.442400  0.161300  0.997200  1.0  0.1177
  H  H231  1  0.423100  0.113200  0.153600  1.0  0.1113
  H  H232  1  0.447400  0.065600  0.127800  1.0  0.122
  H  H233  1  0.359500  0.122800  0.141300  1.0  0.1362
  H  H234  1  0.510400  0.232400  0.109300  1.0  0.1145
  H  H235  1  0.536300  0.290600  0.016900  1.0  0.12
  H  H236  1  0.131370  0.446430  0.303830  1.0  0.1146
  H  H237  1  0.109070  0.494630  0.330530  1.0  0.1177
  H  H238  1  0.089770  0.446530  0.486930  1.0  0.1113
  H  H239  1  0.114070  0.398930  0.461130  1.0  0.1233
  H  H240  1  0.026170  0.456130  0.474630  1.0  0.1363
  H  H241  1  0.177070  0.565730  0.442630  1.0  0.1145
  H  H242  1  0.202970  0.623930  0.350230  1.0  0.12
  H  H243  1  0.798030  0.779770  0.637170  1.0  0.1154
  H  H244  1  0.775730  0.827970  0.663870  1.0  0.1166
  H  H245  1  0.756430  0.779870  0.820270  1.0  0.1112
  H  H246  1  0.780730  0.732270  0.794470  1.0  0.1237
  H  H247  1  0.692830  0.789470  0.807970  1.0  0.1362
  H  H248  1  0.843730  0.899070  0.775970  1.0  0.1144
  H  H249  1  0.869630  0.957270  0.683570  1.0  0.1165
  H  H250  1  0.648400  0.535300  0.970500  1.0  0.1152
  H  H251  1  0.718900  0.557600  0.997200  1.0  0.1161
  H  H252  1  0.690100  0.576900  0.153600  1.0  0.1116
  H  H253  1  0.618200  0.552600  0.127800  1.0  0.1236
  H  H254  1  0.763300  0.640500  0.141300  1.0  0.1361
  H  H255  1  0.722000  0.489600  0.109300  1.0  0.1143
  H  H256  1  0.754300  0.463700  0.016900  1.0  0.1025
  H  H257  1  0.315070  0.868630  0.303830  1.0  0.1152
  H  H258  1  0.385570  0.890930  0.330530  1.0  0.1161
  H  H259  1  0.356770  0.910230  0.486930  1.0  0.1115
  H  H260  1  0.284870  0.885930  0.461130  1.0  0.1236
  H  H261  1  0.429970  0.973830  0.474630  1.0  0.136
  H  H262  1  0.388670  0.822930  0.442630  1.0  0.1143
  H  H263  1  0.420970  0.797030  0.350230  1.0  0.1025
  H  H264  1  0.981730  0.201970  0.637170  1.0  0.1152
  H  H265  1  0.052230  0.224270  0.663870  1.0  0.1178
  H  H266  1  0.023430  0.243570  0.820270  1.0  0.1115
  H  H267  1  0.951530  0.219270  0.794470  1.0  0.1236
  H  H268  1  0.096630  0.307170  0.807970  1.0  0.1361
  H  H269  1  0.055330  0.156270  0.775970  1.0  0.1145
  H  H270  1  0.087630  0.130370  0.683570  1.0  0.102
  H  H271  1  0.714900  0.285100  0.054100  1.0  0.1256
  H  H272  1  0.381570  0.618430  0.387430  1.0  0.1256
  H  H273  1  0.048230  0.951770  0.720770  1.0  0.1256
  H  H274  1  0.714900  0.429800  0.054100  1.0  0.1267
  H  H275  1  0.381570  0.763130  0.387430  1.0  0.1267
  H  H276  1  0.048230  0.096470  0.720770  1.0  0.1267
  H  H277  1  0.570200  0.285100  0.054100  1.0  0.1295
  H  H278  1  0.236870  0.618430  0.387430  1.0  0.1295
  H  H279  1  0.903530  0.951770  0.720770  1.0  0.1295
  H  H280  1  0.285100  0.714900  0.945900  1.0  0.1292
  H  H281  1  0.951770  0.048230  0.279230  1.0  0.1292
  H  H282  1  0.618430  0.381570  0.612570  1.0  0.1292
  H  H283  1  0.429800  0.714900  0.945900  1.0  0.1262
  H  H284  1  0.096470  0.048230  0.279230  1.0  0.1262
  H  H285  1  0.763130  0.381570  0.612570  1.0  0.1262
  H  H286  1  0.285100  0.570200  0.945900  1.0  0.1286
  H  H287  1  0.951770  0.903530  0.279230  1.0  0.1286
  H  H288  1  0.618430  0.236870  0.612570  1.0  0.1286
  C  C289  1  0.578210  0.054060  0.028600  1.0  0.6876
  C  C290  1  0.625100  0.084900  0.046500  1.0  -0.1383
  C  C291  1  0.656700  0.113510  0.007600  1.0  -0.0299
  C  C292  1  0.698920  0.141600  0.023200  1.0  -0.1507
  C  C293  1  0.713160  0.141280  0.078900  1.0  0.0444
  C  C294  1  0.681720  0.113080  0.116600  1.0  -0.1381
  C  C295  1  0.638390  0.084730  0.101500  1.0  -0.0604
  C  C296  1  0.759620  0.169990  0.097700  1.0  -0.0087
  C  C297  1  0.779780  0.152360  0.130700  1.0  -0.118
  C  C298  1  0.244880  0.387390  0.361930  1.0  0.6876
  C  C299  1  0.291770  0.418230  0.379830  1.0  -0.1383
  C  C300  1  0.323370  0.446840  0.340930  1.0  -0.0299
  C  C301  1  0.365590  0.474930  0.356530  1.0  -0.1507
  C  C302  1  0.379830  0.474610  0.412230  1.0  0.0444
  C  C303  1  0.348390  0.446410  0.449930  1.0  -0.1381
  C  C304  1  0.305060  0.418060  0.434830  1.0  -0.0604
  C  C305  1  0.426290  0.503320  0.431030  1.0  -0.0087
  C  C306  1  0.446450  0.485690  0.464030  1.0  -0.118
  C  C307  1  0.911540  0.720730  0.695270  1.0  0.6876
  C  C308  1  0.958430  0.751570  0.713170  1.0  -0.1383
  C  C309  1  0.990030  0.780180  0.674270  1.0  -0.0299
  C  C310  1  0.032250  0.808270  0.689870  1.0  -0.1506
  C  C311  1  0.046490  0.807950  0.745570  1.0  0.0444
  C  C312  1  0.015050  0.779750  0.783270  1.0  -0.1381
  C  C313  1  0.971720  0.751400  0.768170  1.0  -0.0604
  C  C314  1  0.092950  0.836660  0.764370  1.0  -0.0087
  C  C315  1  0.113110  0.819030  0.797370  1.0  -0.118
  C  C316  1  0.945940  0.524150  0.028600  1.0  0.6868
  C  C317  1  0.915100  0.540200  0.046500  1.0  -0.1386
  C  C318  1  0.886490  0.543190  0.007600  1.0  -0.0305
  C  C319  1  0.858400  0.557320  0.023200  1.0  -0.1506
  C  C320  1  0.858720  0.571880  0.078900  1.0  0.0441
  C  C321  1  0.886920  0.568640  0.116600  1.0  -0.1352
  C  C322  1  0.915270  0.553660  0.101500  1.0  -0.0586
  C  C323  1  0.830010  0.589630  0.097700  1.0  -0.0074
  C  C324  1  0.847640  0.627420  0.130700  1.0  -0.1194
  C  C325  1  0.612610  0.857480  0.361930  1.0  0.6868
  C  C326  1  0.581770  0.873530  0.379830  1.0  -0.1386
  C  C327  1  0.553160  0.876520  0.340930  1.0  -0.0306
  C  C328  1  0.525070  0.890650  0.356530  1.0  -0.1506
  C  C329  1  0.525390  0.905210  0.412230  1.0  0.0441
  C  C330  1  0.553590  0.901970  0.449930  1.0  -0.1352
  C  C331  1  0.581940  0.886990  0.434830  1.0  -0.0586
  C  C332  1  0.496680  0.922960  0.431030  1.0  -0.0074
  C  C333  1  0.514310  0.960750  0.464030  1.0  -0.1194
  C  C334  1  0.279270  0.190820  0.695270  1.0  0.6868
  C  C335  1  0.248430  0.206870  0.713170  1.0  -0.1386
  C  C336  1  0.219820  0.209860  0.674270  1.0  -0.0305
  C  C337  1  0.191730  0.223990  0.689870  1.0  -0.1506
  C  C338  1  0.192050  0.238550  0.745570  1.0  0.0441
  C  C339  1  0.220250  0.235310  0.783270  1.0  -0.1352
  C  C340  1  0.248600  0.220330  0.768170  1.0  -0.0586
  C  C341  1  0.163340  0.256300  0.764370  1.0  -0.0074
  C  C342  1  0.180970  0.294090  0.797370  1.0  -0.1188
  C  C343  1  0.475850  0.421790  0.028600  1.0  0.6886
  C  C344  1  0.459800  0.374900  0.046500  1.0  -0.1351
  C  C345  1  0.456810  0.343300  0.007600  1.0  -0.031
  C  C346  1  0.442680  0.301080  0.023200  1.0  -0.1503
  C  C347  1  0.428120  0.286840  0.078900  1.0  0.0439
  C  C348  1  0.431360  0.318280  0.116600  1.0  -0.1371
  C  C349  1  0.446340  0.361610  0.101500  1.0  -0.0604
  C  C350  1  0.410370  0.240380  0.097700  1.0  -0.0092
  C  C351  1  0.372580  0.220220  0.130700  1.0  -0.1191
  C  C352  1  0.142520  0.755120  0.361930  1.0  0.6886
  C  C353  1  0.126470  0.708230  0.379830  1.0  -0.1351
  C  C354  1  0.123480  0.676630  0.340930  1.0  -0.031
  C  C355  1  0.109350  0.634410  0.356530  1.0  -0.1503
  C  C356  1  0.094790  0.620170  0.412230  1.0  0.0439
  C  C357  1  0.098030  0.651610  0.449930  1.0  -0.1371
  C  C358  1  0.113010  0.694940  0.434830  1.0  -0.0604
  C  C359  1  0.077040  0.573710  0.431030  1.0  -0.0092
  C  C360  1  0.039250  0.553550  0.464030  1.0  -0.119
  C  C361  1  0.809180  0.088460  0.695270  1.0  0.6886
  C  C362  1  0.793130  0.041570  0.713170  1.0  -0.1351
  C  C363  1  0.790140  0.009970  0.674270  1.0  -0.031
  C  C364  1  0.776010  0.967750  0.689870  1.0  -0.1503
  C  C365  1  0.761450  0.953510  0.745570  1.0  0.0439
  C  C366  1  0.764690  0.984950  0.783270  1.0  -0.1371
  C  C367  1  0.779670  0.028280  0.768170  1.0  -0.0604
  C  C368  1  0.743700  0.907050  0.764370  1.0  -0.0092
  C  C369  1  0.705910  0.886890  0.797370  1.0  -0.1195
  C  C370  1  0.054060  0.578210  0.971400  1.0  0.6885
  C  C371  1  0.084900  0.625100  0.953500  1.0  -0.1362
  C  C372  1  0.113510  0.656700  0.992400  1.0  -0.029
  C  C373  1  0.141600  0.698920  0.976800  1.0  -0.1506
  C  C374  1  0.141280  0.713160  0.921100  1.0  0.0438
  C  C375  1  0.113080  0.681720  0.883400  1.0  -0.1358
  C  C376  1  0.084730  0.638390  0.898500  1.0  -0.0597
  C  C377  1  0.169990  0.759620  0.902300  1.0  -0.01
  C  C378  1  0.152360  0.779780  0.869300  1.0  -0.1204
  C  C379  1  0.720730  0.911540  0.304730  1.0  0.6885
  C  C380  1  0.751570  0.958430  0.286830  1.0  -0.1362
  C  C381  1  0.780180  0.990030  0.325730  1.0  -0.029
  C  C382  1  0.808270  0.032250  0.310130  1.0  -0.1505
  C  C383  1  0.807950  0.046490  0.254430  1.0  0.0438
  C  C384  1  0.779750  0.015050  0.216730  1.0  -0.1358
  C  C385  1  0.751400  0.971720  0.231830  1.0  -0.0597
  C  C386  1  0.836660  0.092950  0.235630  1.0  -0.01
  C  C387  1  0.819030  0.113110  0.202630  1.0  -0.1204
  C  C388  1  0.387390  0.244880  0.638070  1.0  0.6885
  C  C389  1  0.418230  0.291770  0.620170  1.0  -0.1362
  C  C390  1  0.446840  0.323370  0.659070  1.0  -0.029
  C  C391  1  0.474930  0.365590  0.643470  1.0  -0.1506
  C  C392  1  0.474610  0.379830  0.587770  1.0  0.0438
  C  C393  1  0.446410  0.348390  0.550070  1.0  -0.1358
  C  C394  1  0.418060  0.305060  0.565170  1.0  -0.0597
  C  C395  1  0.503320  0.426290  0.568970  1.0  -0.01
  C  C396  1  0.485690  0.446450  0.535970  1.0  -0.1205
  C  C397  1  0.524150  0.945940  0.971400  1.0  0.688
  C  C398  1  0.540200  0.915100  0.953500  1.0  -0.1377
  C  C399  1  0.543190  0.886490  0.992400  1.0  -0.0292
  C  C400  1  0.557320  0.858400  0.976800  1.0  -0.1497
  C  C401  1  0.571880  0.858720  0.921100  1.0  0.0448
  C  C402  1  0.568640  0.886920  0.883400  1.0  -0.1369
  C  C403  1  0.553660  0.915270  0.898500  1.0  -0.0605
  C  C404  1  0.589630  0.830010  0.902300  1.0  -0.0087
  C  C405  1  0.627420  0.847640  0.869300  1.0  -0.1163
  C  C406  1  0.190820  0.279270  0.304730  1.0  0.688
  C  C407  1  0.206870  0.248430  0.286830  1.0  -0.1377
  C  C408  1  0.209860  0.219820  0.325730  1.0  -0.0292
  C  C409  1  0.223990  0.191730  0.310130  1.0  -0.1497
  C  C410  1  0.238550  0.192050  0.254430  1.0  0.0448
  C  C411  1  0.235310  0.220250  0.216730  1.0  -0.1369
  C  C412  1  0.220330  0.248600  0.231830  1.0  -0.0605
  C  C413  1  0.256300  0.163340  0.235630  1.0  -0.0087
  C  C414  1  0.294090  0.180970  0.202630  1.0  -0.1153
  C  C415  1  0.857480  0.612610  0.638070  1.0  0.688
  C  C416  1  0.873530  0.581770  0.620170  1.0  -0.1377
  C  C417  1  0.876520  0.553160  0.659070  1.0  -0.0293
  C  C418  1  0.890650  0.525070  0.643470  1.0  -0.1497
  C  C419  1  0.905210  0.525390  0.587770  1.0  0.0448
  C  C420  1  0.901970  0.553590  0.550070  1.0  -0.1369
  C  C421  1  0.886990  0.581940  0.565170  1.0  -0.0605
  C  C422  1  0.922960  0.496680  0.568970  1.0  -0.0087
  C  C423  1  0.960750  0.514310  0.535970  1.0  -0.1163
  C  C424  1  0.421790  0.475850  0.971400  1.0  0.6873
  C  C425  1  0.374900  0.459800  0.953500  1.0  -0.1387
  C  C426  1  0.343300  0.456810  0.992400  1.0  -0.0281
  C  C427  1  0.301080  0.442680  0.976800  1.0  -0.1501
  C  C428  1  0.286840  0.428120  0.921100  1.0  0.0434
  C  C429  1  0.318280  0.431360  0.883400  1.0  -0.1338
  C  C430  1  0.361610  0.446340  0.898500  1.0  -0.0596
  C  C431  1  0.240380  0.410370  0.902300  1.0  -0.0072
  C  C432  1  0.220220  0.372580  0.869300  1.0  -0.12
  C  C433  1  0.088460  0.809180  0.304730  1.0  0.6873
  C  C434  1  0.041570  0.793130  0.286830  1.0  -0.1387
  C  C435  1  0.009970  0.790140  0.325730  1.0  -0.0281
  C  C436  1  0.967750  0.776010  0.310130  1.0  -0.1501
  C  C437  1  0.953510  0.761450  0.254430  1.0  0.0434
  C  C438  1  0.984950  0.764690  0.216730  1.0  -0.1338
  C  C439  1  0.028280  0.779670  0.231830  1.0  -0.0596
  C  C440  1  0.907050  0.743700  0.235630  1.0  -0.0072
  C  C441  1  0.886890  0.705910  0.202630  1.0  -0.1202
  C  C442  1  0.755120  0.142520  0.638070  1.0  0.6873
  C  C443  1  0.708230  0.126470  0.620170  1.0  -0.1387
  C  C444  1  0.676630  0.123480  0.659070  1.0  -0.0281
  C  C445  1  0.634410  0.109350  0.643470  1.0  -0.1501
  C  C446  1  0.620170  0.094790  0.587770  1.0  0.0434
  C  C447  1  0.651610  0.098030  0.550070  1.0  -0.1338
  C  C448  1  0.694940  0.113010  0.565170  1.0  -0.0596
  C  C449  1  0.573710  0.077040  0.568970  1.0  -0.0072
  C  C450  1  0.553550  0.039250  0.535970  1.0  -0.1199
  C  C451  1  0.421790  0.945940  0.971400  1.0  0.6882
  C  C452  1  0.374900  0.915100  0.953500  1.0  -0.1382
  C  C453  1  0.343300  0.886490  0.992400  1.0  -0.0285
  C  C454  1  0.301080  0.858400  0.976800  1.0  -0.1505
  C  C455  1  0.286840  0.858720  0.921100  1.0  0.0444
  C  C456  1  0.318280  0.886920  0.883400  1.0  -0.1376
  C  C457  1  0.361610  0.915270  0.898500  1.0  -0.0618
  C  C458  1  0.240380  0.830010  0.902300  1.0  -0.0096
  C  C459  1  0.220220  0.847640  0.869300  1.0  -0.116
  C  C460  1  0.088460  0.279270  0.304730  1.0  0.6882
  C  C461  1  0.041570  0.248430  0.286830  1.0  -0.1382
  C  C462  1  0.009970  0.219820  0.325730  1.0  -0.0285
  C  C463  1  0.967750  0.191730  0.310130  1.0  -0.1504
  C  C464  1  0.953510  0.192050  0.254430  1.0  0.0444
  C  C465  1  0.984950  0.220250  0.216730  1.0  -0.1376
  C  C466  1  0.028280  0.248600  0.231830  1.0  -0.0618
  C  C467  1  0.907050  0.163340  0.235630  1.0  -0.0096
  C  C468  1  0.886890  0.180970  0.202630  1.0  -0.116
  C  C469  1  0.755120  0.612610  0.638070  1.0  0.6882
  C  C470  1  0.708230  0.581770  0.620170  1.0  -0.1382
  C  C471  1  0.676630  0.553160  0.659070  1.0  -0.0285
  C  C472  1  0.634410  0.525070  0.643470  1.0  -0.1505
  C  C473  1  0.620170  0.525390  0.587770  1.0  0.0444
  C  C474  1  0.651610  0.553590  0.550070  1.0  -0.1375
  C  C475  1  0.694940  0.581940  0.565170  1.0  -0.0618
  C  C476  1  0.573710  0.496680  0.568970  1.0  -0.0096
  C  C477  1  0.553550  0.514310  0.535970  1.0  -0.1161
  C  C478  1  0.054060  0.475850  0.971400  1.0  0.6884
  C  C479  1  0.084900  0.459800  0.953500  1.0  -0.138
  C  C480  1  0.113510  0.456810  0.992400  1.0  -0.0286
  C  C481  1  0.141600  0.442680  0.976800  1.0  -0.1493
  C  C482  1  0.141280  0.428120  0.921100  1.0  0.0423
  C  C483  1  0.113080  0.431360  0.883400  1.0  -0.1342
  C  C484  1  0.084730  0.446340  0.898500  1.0  -0.0584
  C  C485  1  0.169990  0.410370  0.902300  1.0  -0.0087
  C  C486  1  0.152360  0.372580  0.869300  1.0  -0.1217
  C  C487  1  0.720730  0.809180  0.304730  1.0  0.6884
  C  C488  1  0.751570  0.793130  0.286830  1.0  -0.138
  C  C489  1  0.780180  0.790140  0.325730  1.0  -0.0286
  C  C490  1  0.808270  0.776010  0.310130  1.0  -0.1493
  C  C491  1  0.807950  0.761450  0.254430  1.0  0.0423
  C  C492  1  0.779750  0.764690  0.216730  1.0  -0.1342
  C  C493  1  0.751400  0.779670  0.231830  1.0  -0.0584
  C  C494  1  0.836660  0.743700  0.235630  1.0  -0.0087
  C  C495  1  0.819030  0.705910  0.202630  1.0  -0.1202
  C  C496  1  0.387390  0.142520  0.638070  1.0  0.6884
  C  C497  1  0.418230  0.126470  0.620170  1.0  -0.138
  C  C498  1  0.446840  0.123480  0.659070  1.0  -0.0287
  C  C499  1  0.474930  0.109350  0.643470  1.0  -0.1493
  C  C500  1  0.474610  0.094790  0.587770  1.0  0.0423
  C  C501  1  0.446410  0.098030  0.550070  1.0  -0.1342
  C  C502  1  0.418060  0.113010  0.565170  1.0  -0.0584
  C  C503  1  0.503320  0.077040  0.568970  1.0  -0.0087
  C  C504  1  0.485690  0.039250  0.535970  1.0  -0.1217
  C  C505  1  0.524150  0.578210  0.971400  1.0  0.6883
  C  C506  1  0.540200  0.625100  0.953500  1.0  -0.1368
  C  C507  1  0.543190  0.656700  0.992400  1.0  -0.0293
  C  C508  1  0.557320  0.698920  0.976800  1.0  -0.1496
  C  C509  1  0.571880  0.713160  0.921100  1.0  0.0444
  C  C510  1  0.568640  0.681720  0.883400  1.0  -0.1365
  C  C511  1  0.553660  0.638390  0.898500  1.0  -0.0612
  C  C512  1  0.589630  0.759620  0.902300  1.0  -0.009
  C  C513  1  0.627420  0.779780  0.869300  1.0  -0.1181
  C  C514  1  0.190820  0.911540  0.304730  1.0  0.6883
  C  C515  1  0.206870  0.958430  0.286830  1.0  -0.1368
  C  C516  1  0.209860  0.990030  0.325730  1.0  -0.0293
  C  C517  1  0.223990  0.032250  0.310130  1.0  -0.1496
  C  C518  1  0.238550  0.046490  0.254430  1.0  0.0444
  C  C519  1  0.235310  0.015050  0.216730  1.0  -0.1365
  C  C520  1  0.220330  0.971720  0.231830  1.0  -0.0612
  C  C521  1  0.256300  0.092950  0.235630  1.0  -0.009
  C  C522  1  0.294090  0.113110  0.202630  1.0  -0.1189
  C  C523  1  0.857480  0.244880  0.638070  1.0  0.6883
  C  C524  1  0.873530  0.291770  0.620170  1.0  -0.1368
  C  C525  1  0.876520  0.323370  0.659070  1.0  -0.0293
  C  C526  1  0.890650  0.365590  0.643470  1.0  -0.1496
  C  C527  1  0.905210  0.379830  0.587770  1.0  0.0444
  C  C528  1  0.901970  0.348390  0.550070  1.0  -0.1365
  C  C529  1  0.886990  0.305060  0.565170  1.0  -0.0612
  C  C530  1  0.922960  0.426290  0.568970  1.0  -0.009
  C  C531  1  0.960750  0.446450  0.535970  1.0  -0.1181
  C  C532  1  0.945940  0.421790  0.028600  1.0  0.6885
  C  C533  1  0.915100  0.374900  0.046500  1.0  -0.1354
  C  C534  1  0.886490  0.343300  0.007600  1.0  -0.0301
  C  C535  1  0.858400  0.301080  0.023200  1.0  -0.1498
  C  C536  1  0.858720  0.286840  0.078900  1.0  0.0447
  C  C537  1  0.886920  0.318280  0.116600  1.0  -0.1371
  C  C538  1  0.915270  0.361610  0.101500  1.0  -0.0588
  C  C539  1  0.830010  0.240380  0.097700  1.0  -0.0078
  C  C540  1  0.847640  0.220220  0.130700  1.0  -0.1183
  C  C541  1  0.612610  0.755120  0.361930  1.0  0.6885
  C  C542  1  0.581770  0.708230  0.379830  1.0  -0.1354
  C  C543  1  0.553160  0.676630  0.340930  1.0  -0.0301
  C  C544  1  0.525070  0.634410  0.356530  1.0  -0.1498
  C  C545  1  0.525390  0.620170  0.412230  1.0  0.0447
  C  C546  1  0.553590  0.651610  0.449930  1.0  -0.1371
  C  C547  1  0.581940  0.694940  0.434830  1.0  -0.0588
  C  C548  1  0.496680  0.573710  0.431030  1.0  -0.0078
  C  C549  1  0.514310  0.553550  0.464030  1.0  -0.1183
  C  C550  1  0.279270  0.088460  0.695270  1.0  0.6885
  C  C551  1  0.248430  0.041570  0.713170  1.0  -0.1354
  C  C552  1  0.219820  0.009970  0.674270  1.0  -0.0301
  C  C553  1  0.191730  0.967750  0.689870  1.0  -0.1497
  C  C554  1  0.192050  0.953510  0.745570  1.0  0.0447
  C  C555  1  0.220250  0.984950  0.783270  1.0  -0.1371
  C  C556  1  0.248600  0.028280  0.768170  1.0  -0.0588
  C  C557  1  0.163340  0.907050  0.764370  1.0  -0.0078
  C  C558  1  0.180970  0.886890  0.797370  1.0  -0.1183
  C  C559  1  0.475850  0.054060  0.028600  1.0  0.6877
  C  C560  1  0.459800  0.084900  0.046500  1.0  -0.1384
  C  C561  1  0.456810  0.113510  0.007600  1.0  -0.0304
  C  C562  1  0.442680  0.141600  0.023200  1.0  -0.1502
  C  C563  1  0.428120  0.141280  0.078900  1.0  0.0439
  C  C564  1  0.431360  0.113080  0.116600  1.0  -0.1386
  C  C565  1  0.446340  0.084730  0.101500  1.0  -0.0603
  C  C566  1  0.410370  0.169990  0.097700  1.0  -0.0091
  C  C567  1  0.372580  0.152360  0.130700  1.0  -0.1182
  C  C568  1  0.142520  0.387390  0.361930  1.0  0.6877
  C  C569  1  0.126470  0.418230  0.379830  1.0  -0.1384
  C  C570  1  0.123480  0.446840  0.340930  1.0  -0.0305
  C  C571  1  0.109350  0.474930  0.356530  1.0  -0.1502
  C  C572  1  0.094790  0.474610  0.412230  1.0  0.0439
  C  C573  1  0.098030  0.446410  0.449930  1.0  -0.1387
  C  C574  1  0.113010  0.418060  0.434830  1.0  -0.0603
  C  C575  1  0.077040  0.503320  0.431030  1.0  -0.0091
  C  C576  1  0.039250  0.485690  0.464030  1.0  -0.1182
  C  C577  1  0.809180  0.720730  0.695270  1.0  0.6877
  C  C578  1  0.793130  0.751570  0.713170  1.0  -0.1384
  C  C579  1  0.790140  0.780180  0.674270  1.0  -0.0304
  C  C580  1  0.776010  0.808270  0.689870  1.0  -0.1502
  C  C581  1  0.761450  0.807950  0.745570  1.0  0.0439
  C  C582  1  0.764690  0.779750  0.783270  1.0  -0.1386
  C  C583  1  0.779670  0.751400  0.768170  1.0  -0.0603
  C  C584  1  0.743700  0.836660  0.764370  1.0  -0.0091
  C  C585  1  0.705910  0.819030  0.797370  1.0  -0.1164
  C  C586  1  0.578210  0.524150  0.028600  1.0  0.688
  C  C587  1  0.625100  0.540200  0.046500  1.0  -0.1384
  C  C588  1  0.656700  0.543190  0.007600  1.0  -0.0299
  C  C589  1  0.698920  0.557320  0.023200  1.0  -0.1504
  C  C590  1  0.713160  0.571880  0.078900  1.0  0.0426
  C  C591  1  0.681720  0.568640  0.116600  1.0  -0.1353
  C  C592  1  0.638390  0.553660  0.101500  1.0  -0.0583
  C  C593  1  0.759620  0.589630  0.097700  1.0  -0.0088
  C  C594  1  0.779780  0.627420  0.130700  1.0  -0.1205
  C  C595  1  0.244880  0.857480  0.361930  1.0  0.688
  C  C596  1  0.291770  0.873530  0.379830  1.0  -0.1384
  C  C597  1  0.323370  0.876520  0.340930  1.0  -0.0299
  C  C598  1  0.365590  0.890650  0.356530  1.0  -0.1504
  C  C599  1  0.379830  0.905210  0.412230  1.0  0.0426
  C  C600  1  0.348390  0.901970  0.449930  1.0  -0.1353
  C  C601  1  0.305060  0.886990  0.434830  1.0  -0.0583
  C  C602  1  0.426290  0.922960  0.431030  1.0  -0.0089
  C  C603  1  0.446450  0.960750  0.464030  1.0  -0.1205
  C  C604  1  0.911540  0.190820  0.695270  1.0  0.688
  C  C605  1  0.958430  0.206870  0.713170  1.0  -0.1384
  C  C606  1  0.990030  0.209860  0.674270  1.0  -0.0299
  C  C607  1  0.032250  0.223990  0.689870  1.0  -0.1504
  C  C608  1  0.046490  0.238550  0.745570  1.0  0.0426
  C  C609  1  0.015050  0.235310  0.783270  1.0  -0.1353
  C  C610  1  0.971720  0.220330  0.768170  1.0  -0.0583
  C  C611  1  0.092950  0.256300  0.764370  1.0  -0.0088
  C  C612  1  0.113110  0.294090  0.797370  1.0  -0.121
  C  C613  1  0.823360  0.176640  0.148700  1.0  -0.0486
  C  C614  1  0.785900  0.214100  0.080700  1.0  0.1363
  C  C615  1  0.745710  0.254290  0.086200  1.0  0.0326
  C  C616  1  0.729700  0.270300  0.039400  1.0  -0.3566
  C  C617  1  0.490030  0.509970  0.482030  1.0  -0.0485
  C  C618  1  0.452570  0.547430  0.414030  1.0  0.1361
  C  C619  1  0.412380  0.587620  0.419530  1.0  0.0326
  C  C620  1  0.396370  0.603630  0.372730  1.0  -0.3566
  C  C621  1  0.156690  0.843310  0.815370  1.0  -0.0486
  C  C622  1  0.119230  0.880770  0.747370  1.0  0.1363
  C  C623  1  0.079040  0.920960  0.752870  1.0  0.0326
  C  C624  1  0.063030  0.936970  0.706070  1.0  -0.3566
  C  C625  1  0.823360  0.646720  0.148700  1.0  -0.0472
  C  C626  1  0.785900  0.571800  0.080700  1.0  0.1352
  C  C627  1  0.745710  0.491420  0.086200  1.0  0.0309
  C  C628  1  0.729700  0.459400  0.039400  1.0  -0.3553
  C  C629  1  0.490030  0.980050  0.482030  1.0  -0.0472
  C  C630  1  0.452570  0.905130  0.414030  1.0  0.1353
  C  C631  1  0.412380  0.824750  0.419530  1.0  0.0309
  C  C632  1  0.396370  0.792730  0.372730  1.0  -0.3553
  C  C633  1  0.156690  0.313390  0.815370  1.0  -0.0472
  C  C634  1  0.119230  0.238470  0.747370  1.0  0.1352
  C  C635  1  0.079040  0.158090  0.752870  1.0  0.0309
  C  C636  1  0.063030  0.126070  0.706070  1.0  -0.3553
  C  C637  1  0.353280  0.176640  0.148700  1.0  -0.0503
  C  C638  1  0.428200  0.214100  0.080700  1.0  0.136
  C  C639  1  0.508580  0.254290  0.086200  1.0  0.0328
  C  C640  1  0.540600  0.270300  0.039400  1.0  -0.357
  C  C641  1  0.019950  0.509970  0.482030  1.0  -0.0503
  C  C642  1  0.094870  0.547430  0.414030  1.0  0.1361
  C  C643  1  0.175250  0.587620  0.419530  1.0  0.0328
  C  C644  1  0.207270  0.603630  0.372730  1.0  -0.357
  C  C645  1  0.686610  0.843310  0.815370  1.0  -0.0503
  C  C646  1  0.761530  0.880770  0.747370  1.0  0.136
  C  C647  1  0.841910  0.920960  0.752870  1.0  0.0328
  C  C648  1  0.873930  0.936970  0.706070  1.0  -0.357
  C  C649  1  0.176640  0.823360  0.851300  1.0  -0.0486
  C  C650  1  0.214100  0.785900  0.919300  1.0  0.1367
  C  C651  1  0.254290  0.745710  0.913800  1.0  0.0312
  C  C652  1  0.270300  0.729700  0.960600  1.0  -0.3569
  C  C653  1  0.843310  0.156690  0.184630  1.0  -0.0486
  C  C654  1  0.880770  0.119230  0.252630  1.0  0.1367
  C  C655  1  0.920960  0.079040  0.247130  1.0  0.0312
  C  C656  1  0.936970  0.063030  0.293930  1.0  -0.3569
  C  C657  1  0.509970  0.490030  0.517970  1.0  -0.0485
  C  C658  1  0.547430  0.452570  0.585970  1.0  0.1366
  C  C659  1  0.587620  0.412380  0.580470  1.0  0.0312
  C  C660  1  0.603630  0.396370  0.627270  1.0  -0.3569
  C  C661  1  0.646720  0.823360  0.851300  1.0  -0.0496
  C  C662  1  0.571800  0.785900  0.919300  1.0  0.1371
  C  C663  1  0.491420  0.745710  0.913800  1.0  0.0328
  C  C664  1  0.459400  0.729700  0.960600  1.0  -0.3578
  C  C665  1  0.313390  0.156690  0.184630  1.0  -0.0496
  C  C666  1  0.238470  0.119230  0.252630  1.0  0.1371
  C  C667  1  0.158090  0.079040  0.247130  1.0  0.0328
  C  C668  1  0.126070  0.063030  0.293930  1.0  -0.3578
  C  C669  1  0.980050  0.490030  0.517970  1.0  -0.0496
  C  C670  1  0.905130  0.452570  0.585970  1.0  0.1373
  C  C671  1  0.824750  0.412380  0.580470  1.0  0.0328
  C  C672  1  0.792730  0.396370  0.627270  1.0  -0.3578
  C  C673  1  0.176640  0.353280  0.851300  1.0  -0.0474
  C  C674  1  0.214100  0.428200  0.919300  1.0  0.136
  C  C675  1  0.254290  0.508580  0.913800  1.0  0.0279
  C  C676  1  0.270300  0.540600  0.960600  1.0  -0.3572
  C  C677  1  0.843310  0.686610  0.184630  1.0  -0.0474
  C  C678  1  0.880770  0.761530  0.252630  1.0  0.136
  C  C679  1  0.920960  0.841910  0.247130  1.0  0.0279
  C  C680  1  0.936970  0.873930  0.293930  1.0  -0.3572
  C  C681  1  0.509970  0.019950  0.517970  1.0  -0.0472
  C  C682  1  0.547430  0.094870  0.585970  1.0  0.1362
  C  C683  1  0.587620  0.175250  0.580470  1.0  0.0279
  C  C684  1  0.603630  0.207270  0.627270  1.0  -0.3572
  O  O685  1  0.553120  0.026990  0.065950  1.0  -0.558
  O  O686  1  0.568060  0.056610  0.979460  1.0  -0.5583
  O  O687  1  0.219790  0.360320  0.399280  1.0  -0.5573
  O  O688  1  0.234730  0.389940  0.312790  1.0  -0.5583
  O  O689  1  0.886450  0.693660  0.732620  1.0  -0.558
  O  O690  1  0.901390  0.723280  0.646130  1.0  -0.561
  O  O691  1  0.973010  0.526130  0.065950  1.0  -0.5563
  O  O692  1  0.943390  0.511450  0.979460  1.0  -0.5597
  O  O693  1  0.639680  0.859460  0.399280  1.0  -0.5573
  O  O694  1  0.610060  0.844780  0.312790  1.0  -0.5597
  O  O695  1  0.306340  0.192800  0.732620  1.0  -0.5563
  O  O696  1  0.276720  0.178120  0.646130  1.0  -0.5575
  O  O697  1  0.473870  0.446880  0.065950  1.0  -0.5572
  O  O698  1  0.488550  0.431940  0.979460  1.0  -0.557
  O  O699  1  0.140540  0.780210  0.399280  1.0  -0.5572
  O  O700  1  0.155220  0.765270  0.312790  1.0  -0.557
  O  O701  1  0.807200  0.113550  0.732620  1.0  -0.5572
  O  O702  1  0.821880  0.098610  0.646130  1.0  -0.557
  O  O703  1  0.026990  0.553120  0.934050  1.0  -0.5583
  O  O704  1  0.056610  0.568060  0.020540  1.0  -0.5562
  O  O705  1  0.693660  0.886450  0.267380  1.0  -0.5583
  O  O706  1  0.723280  0.901390  0.353870  1.0  -0.5586
  O  O707  1  0.360320  0.219790  0.600720  1.0  -0.558
  O  O708  1  0.389940  0.234730  0.687210  1.0  -0.5562
  O  O709  1  0.526130  0.973010  0.934050  1.0  -0.5576
  O  O710  1  0.511450  0.943390  0.020540  1.0  -0.5606
  O  O711  1  0.192800  0.306340  0.267380  1.0  -0.5576
  O  O712  1  0.178120  0.276720  0.353870  1.0  -0.5579
  O  O713  1  0.859460  0.639680  0.600720  1.0  -0.5584
  O  O714  1  0.844780  0.610060  0.687210  1.0  -0.5606
  O  O715  1  0.446880  0.473870  0.934050  1.0  -0.5574
  O  O716  1  0.431940  0.488550  0.020540  1.0  -0.5575
  O  O717  1  0.113550  0.807200  0.267380  1.0  -0.5574
  O  O718  1  0.098610  0.821880  0.353870  1.0  -0.5575
  O  O719  1  0.780210  0.140540  0.600720  1.0  -0.5574
  O  O720  1  0.765270  0.155220  0.687210  1.0  -0.5575
  O  O721  1  0.446880  0.973010  0.934050  1.0  -0.5577
  O  O722  1  0.431940  0.943390  0.020540  1.0  -0.5577
  O  O723  1  0.113550  0.306340  0.267380  1.0  -0.5577
  O  O724  1  0.098610  0.276720  0.353870  1.0  -0.5602
  O  O725  1  0.780210  0.639680  0.600720  1.0  -0.5576
  O  O726  1  0.765270  0.610060  0.687210  1.0  -0.5577
  O  O727  1  0.026990  0.473870  0.934050  1.0  -0.5574
  O  O728  1  0.056610  0.488550  0.020540  1.0  -0.5592
  O  O729  1  0.693660  0.807200  0.267380  1.0  -0.5574
  O  O730  1  0.723280  0.821880  0.353870  1.0  -0.5565
  O  O731  1  0.360320  0.140540  0.600720  1.0  -0.5582
  O  O732  1  0.389940  0.155220  0.687210  1.0  -0.5592
  O  O733  1  0.526130  0.553120  0.934050  1.0  -0.5573
  O  O734  1  0.511450  0.568060  0.020540  1.0  -0.5567
  O  O735  1  0.192800  0.886450  0.267380  1.0  -0.5573
  O  O736  1  0.178120  0.901390  0.353870  1.0  -0.5567
  O  O737  1  0.859460  0.219790  0.600720  1.0  -0.5573
  O  O738  1  0.844780  0.234730  0.687210  1.0  -0.5567
  O  O739  1  0.973010  0.446880  0.065950  1.0  -0.5564
  O  O740  1  0.943390  0.431940  0.979460  1.0  -0.5572
  O  O741  1  0.639680  0.780210  0.399280  1.0  -0.556
  O  O742  1  0.610060  0.765270  0.312790  1.0  -0.5572
  O  O743  1  0.306340  0.113550  0.732620  1.0  -0.5564
  O  O744  1  0.276720  0.098610  0.646130  1.0  -0.5594
  O  O745  1  0.473870  0.026990  0.065950  1.0  -0.5571
  O  O746  1  0.488550  0.056610  0.979460  1.0  -0.5607
  O  O747  1  0.140540  0.360320  0.399280  1.0  -0.5581
  O  O748  1  0.155220  0.389940  0.312790  1.0  -0.5607
  O  O749  1  0.807200  0.693660  0.732620  1.0  -0.5571
  O  O750  1  0.821880  0.723280  0.646130  1.0  -0.558
  O  O751  1  0.553120  0.526130  0.065950  1.0  -0.5566
  O  O752  1  0.568060  0.511450  0.979460  1.0  -0.5571
  O  O753  1  0.219790  0.859460  0.399280  1.0  -0.5566
  O  O754  1  0.234730  0.844780  0.312790  1.0  -0.5571
  O  O755  1  0.886450  0.192800  0.732620  1.0  -0.5566
  O  O756  1  0.901390  0.178120  0.646130  1.0  -0.5571
  O  O757  1  0.766520  0.233480  0.045300  1.0  -0.4046
  O  O758  1  0.433190  0.566810  0.378630  1.0  -0.4046
  O  O759  1  0.099850  0.900150  0.711970  1.0  -0.4046
  O  O760  1  0.766520  0.533040  0.045300  1.0  -0.4045
  O  O761  1  0.433190  0.866370  0.378630  1.0  -0.4045
  O  O762  1  0.099850  0.199710  0.711970  1.0  -0.4045
  O  O763  1  0.466960  0.233480  0.045300  1.0  -0.4037
  O  O764  1  0.133630  0.566810  0.378630  1.0  -0.4037
  O  O765  1  0.800290  0.900150  0.711970  1.0  -0.4037
  O  O766  1  0.233480  0.766520  0.954700  1.0  -0.4059
  O  O767  1  0.900150  0.099850  0.288030  1.0  -0.4059
  O  O768  1  0.566810  0.433190  0.621370  1.0  -0.4059
  O  O769  1  0.533040  0.766520  0.954700  1.0  -0.4067
  O  O770  1  0.199710  0.099850  0.288030  1.0  -0.4067
  O  O771  1  0.866370  0.433190  0.621370  1.0  -0.4067
  O  O772  1  0.233480  0.466960  0.954700  1.0  -0.4064
  O  O773  1  0.900150  0.800290  0.288030  1.0  -0.4064
  O  O774  1  0.566810  0.133630  0.621370  1.0  -0.4064
