# generated using pymatgen
data_CuH15C22O5
_symmetry_space_group_name_H-M   'P 1'
_cell_length_a   35.13570000
_cell_length_b   35.13570000
_cell_length_c   22.38140000
_cell_angle_alpha   90.00000000
_cell_angle_beta   90.00000000
_cell_angle_gamma   120.00000000
_symmetry_Int_Tables_number   1
_chemical_formula_structural   CuH15C22O5
_chemical_formula_sum   'Cu18 H270 C396 O90'
_cell_volume   23928.47941289
_cell_formula_units_Z   18
loop_
 _symmetry_equiv_pos_site_id
 _symmetry_equiv_pos_as_xyz
  1  'x, y, z'
loop_
 _atom_site_type_symbol
 _atom_site_label
 _atom_site_symmetry_multiplicity
 _atom_site_fract_x
 _atom_site_fract_y
 _atom_site_fract_z
 _atom_site_occupancy
 _atom_site_charge
  Cu  Cu1  1  0.508070  0.016140  0.945540  1.0  0.9133
  Cu  Cu2  1  0.174740  0.349470  0.278870  1.0  0.9133
  Cu  Cu3  1  0.841400  0.682810  0.612210  1.0  0.9133
  Cu  Cu4  1  0.983860  0.491930  0.945540  1.0  0.9127
  Cu  Cu5  1  0.650530  0.825260  0.278870  1.0  0.9127
  Cu  Cu6  1  0.317190  0.158600  0.612210  1.0  0.9127
  Cu  Cu7  1  0.508070  0.491930  0.945540  1.0  0.9128
  Cu  Cu8  1  0.174740  0.825260  0.278870  1.0  0.9128
  Cu  Cu9  1  0.841400  0.158600  0.612210  1.0  0.9128
  Cu  Cu10  1  0.016140  0.508070  0.054460  1.0  0.9136
  Cu  Cu11  1  0.682810  0.841400  0.387790  1.0  0.9136
  Cu  Cu12  1  0.349470  0.174740  0.721130  1.0  0.9136
  Cu  Cu13  1  0.491930  0.983860  0.054460  1.0  0.9142
  Cu  Cu14  1  0.158600  0.317190  0.387790  1.0  0.9142
  Cu  Cu15  1  0.825260  0.650530  0.721130  1.0  0.9142
  Cu  Cu16  1  0.491930  0.508070  0.054460  1.0  0.9132
  Cu  Cu17  1  0.158600  0.841400  0.387790  1.0  0.9132
  Cu  Cu18  1  0.825260  0.174740  0.721130  1.0  0.9132
  H  H19  1  0.530200  0.884700  0.033700  1.0  0.1056
  H  H20  1  0.553700  0.836900  0.006300  1.0  0.1001
  H  H21  1  0.577500  0.886000  0.840700  1.0  0.109
  H  H22  1  0.553500  0.933900  0.868400  1.0  0.1036
  H  H23  1  0.638500  0.876000  0.858200  1.0  0.1068
  H  H24  1  0.489700  0.722500  0.898700  1.0  0.0659
  H  H25  1  0.455700  0.705500  0.988600  1.0  0.0997
  H  H26  1  0.196870  0.218030  0.367030  1.0  0.1061
  H  H27  1  0.220370  0.170230  0.339630  1.0  0.0995
  H  H28  1  0.244170  0.219330  0.174030  1.0  0.1095
  H  H29  1  0.220170  0.267230  0.201730  1.0  0.1046
  H  H30  1  0.305170  0.209330  0.191530  1.0  0.1068
  H  H31  1  0.156370  0.055830  0.232030  1.0  0.0632
  H  H32  1  0.122370  0.038830  0.321930  1.0  0.1011
  H  H33  1  0.863530  0.551370  0.700370  1.0  0.1056
  H  H34  1  0.887030  0.503570  0.672970  1.0  0.1001
  H  H35  1  0.910830  0.552670  0.507370  1.0  0.109
  H  H36  1  0.886830  0.600570  0.535070  1.0  0.1045
  H  H37  1  0.971830  0.542670  0.524870  1.0  0.1068
  H  H38  1  0.823030  0.389170  0.565370  1.0  0.0659
  H  H39  1  0.789030  0.372170  0.655270  1.0  0.0997
  H  H40  1  0.115300  0.645500  0.033700  1.0  0.1055
  H  H41  1  0.163100  0.716800  0.006300  1.0  0.1005
  H  H42  1  0.114000  0.691500  0.840700  1.0  0.1094
  H  H43  1  0.066100  0.619600  0.868400  1.0  0.1037
  H  H44  1  0.124000  0.762500  0.858200  1.0  0.1059
  H  H45  1  0.277500  0.767200  0.898700  1.0  0.0657
  H  H46  1  0.294500  0.750200  0.988600  1.0  0.1014
  H  H47  1  0.781970  0.978830  0.367030  1.0  0.1053
  H  H48  1  0.829770  0.050130  0.339630  1.0  0.1005
  H  H49  1  0.780670  0.024830  0.174030  1.0  0.11
  H  H50  1  0.732770  0.952930  0.201730  1.0  0.1037
  H  H51  1  0.790670  0.095830  0.191530  1.0  0.1059
  H  H52  1  0.944170  0.100530  0.232030  1.0  0.0652
  H  H53  1  0.961170  0.083530  0.321930  1.0  0.0992
  H  H54  1  0.448630  0.312170  0.700370  1.0  0.1055
  H  H55  1  0.496430  0.383470  0.672970  1.0  0.1005
  H  H56  1  0.447330  0.358170  0.507370  1.0  0.1094
  H  H57  1  0.399430  0.286270  0.535070  1.0  0.104
  H  H58  1  0.457330  0.429170  0.524870  1.0  0.1059
  H  H59  1  0.610830  0.433870  0.565370  1.0  0.0657
  H  H60  1  0.627830  0.416870  0.655270  1.0  0.1012
  H  H61  1  0.354500  0.469800  0.033700  1.0  0.1055
  H  H62  1  0.283200  0.446300  0.006300  1.0  0.099
  H  H63  1  0.308500  0.422500  0.840700  1.0  0.1103
  H  H64  1  0.380400  0.446500  0.868400  1.0  0.1049
  H  H65  1  0.237500  0.361500  0.858200  1.0  0.1067
  H  H66  1  0.232800  0.510300  0.898700  1.0  0.0623
  H  H67  1  0.249800  0.544300  0.988600  1.0  0.0956
  H  H68  1  0.021170  0.803130  0.367030  1.0  0.1055
  H  H69  1  0.949870  0.779630  0.339630  1.0  0.0998
  H  H70  1  0.975170  0.755830  0.174030  1.0  0.1095
  H  H71  1  0.047070  0.779830  0.201730  1.0  0.105
  H  H72  1  0.904170  0.694830  0.191530  1.0  0.1067
  H  H73  1  0.899470  0.843630  0.232030  1.0  0.0629
  H  H74  1  0.916470  0.877630  0.321930  1.0  0.0966
  H  H75  1  0.687830  0.136470  0.700370  1.0  0.1055
  H  H76  1  0.616530  0.112970  0.672970  1.0  0.099
  H  H77  1  0.641830  0.089170  0.507370  1.0  0.1102
  H  H78  1  0.713730  0.113170  0.535070  1.0  0.1049
  H  H79  1  0.570830  0.028170  0.524870  1.0  0.1067
  H  H80  1  0.566130  0.176970  0.565370  1.0  0.0623
  H  H81  1  0.583130  0.210970  0.655270  1.0  0.0956
  H  H82  1  0.884700  0.530200  0.966300  1.0  0.1048
  H  H83  1  0.836900  0.553700  0.993700  1.0  0.1005
  H  H84  1  0.886000  0.577500  0.159300  1.0  0.1091
  H  H85  1  0.933900  0.553500  0.131600  1.0  0.1042
  H  H86  1  0.876000  0.638500  0.141800  1.0  0.1063
  H  H87  1  0.722500  0.489700  0.101300  1.0  0.0647
  H  H88  1  0.705500  0.455700  0.011400  1.0  0.0952
  H  H89  1  0.551370  0.863530  0.299630  1.0  0.1048
  H  H90  1  0.503570  0.887030  0.327030  1.0  0.1005
  H  H91  1  0.552670  0.910830  0.492630  1.0  0.1091
  H  H92  1  0.600570  0.886830  0.464930  1.0  0.105
  H  H93  1  0.542670  0.971830  0.475130  1.0  0.1063
  H  H94  1  0.389170  0.823030  0.434630  1.0  0.0647
  H  H95  1  0.372170  0.789030  0.344730  1.0  0.0952
  H  H96  1  0.218030  0.196870  0.632970  1.0  0.1051
  H  H97  1  0.170230  0.220370  0.660370  1.0  0.0994
  H  H98  1  0.219330  0.244170  0.825970  1.0  0.1093
  H  H99  1  0.267230  0.220170  0.798270  1.0  0.105
  H  H100  1  0.209330  0.305170  0.808470  1.0  0.1063
  H  H101  1  0.055830  0.156370  0.767970  1.0  0.0614
  H  H102  1  0.038830  0.122370  0.678070  1.0  0.0938
  H  H103  1  0.645500  0.115300  0.966300  1.0  0.1058
  H  H104  1  0.716800  0.163100  0.993700  1.0  0.1002
  H  H105  1  0.691500  0.114000  0.159300  1.0  0.1098
  H  H106  1  0.619600  0.066100  0.131600  1.0  0.1045
  H  H107  1  0.762500  0.124000  0.141800  1.0  0.1069
  H  H108  1  0.767200  0.277500  0.101300  1.0  0.0649
  H  H109  1  0.750200  0.294500  0.011400  1.0  0.0992
  H  H110  1  0.312170  0.448630  0.299630  1.0  0.1058
  H  H111  1  0.383470  0.496430  0.327030  1.0  0.1002
  H  H112  1  0.358170  0.447330  0.492630  1.0  0.1098
  H  H113  1  0.286270  0.399430  0.464930  1.0  0.1046
  H  H114  1  0.429170  0.457330  0.475130  1.0  0.1069
  H  H115  1  0.433870  0.610830  0.434630  1.0  0.0649
  H  H116  1  0.416870  0.627830  0.344730  1.0  0.0991
  H  H117  1  0.978830  0.781970  0.632970  1.0  0.1055
  H  H118  1  0.050130  0.829770  0.660370  1.0  0.1002
  H  H119  1  0.024830  0.780670  0.825970  1.0  0.1101
  H  H120  1  0.952930  0.732770  0.798270  1.0  0.1045
  H  H121  1  0.095830  0.790670  0.808470  1.0  0.1069
  H  H122  1  0.100530  0.944170  0.767970  1.0  0.0649
  H  H123  1  0.083530  0.961170  0.678070  1.0  0.0972
  H  H124  1  0.469800  0.354500  0.966300  1.0  0.1056
  H  H125  1  0.446300  0.283200  0.993700  1.0  0.0986
  H  H126  1  0.422500  0.308500  0.159300  1.0  0.1101
  H  H127  1  0.446500  0.380400  0.131600  1.0  0.1045
  H  H128  1  0.361500  0.237500  0.141800  1.0  0.1059
  H  H129  1  0.510300  0.232800  0.101300  1.0  0.0656
  H  H130  1  0.544300  0.249800  0.011400  1.0  0.0976
  H  H131  1  0.136470  0.687830  0.299630  1.0  0.1056
  H  H132  1  0.112970  0.616530  0.327030  1.0  0.0986
  H  H133  1  0.089170  0.641830  0.492630  1.0  0.1101
  H  H134  1  0.113170  0.713730  0.464930  1.0  0.1045
  H  H135  1  0.028170  0.570830  0.475130  1.0  0.1059
  H  H136  1  0.176970  0.566130  0.434630  1.0  0.0656
  H  H137  1  0.210970  0.583130  0.344730  1.0  0.0976
  H  H138  1  0.803130  0.021170  0.632970  1.0  0.1056
  H  H139  1  0.779630  0.949870  0.660370  1.0  0.1002
  H  H140  1  0.755830  0.975170  0.825970  1.0  0.1096
  H  H141  1  0.779830  0.047070  0.798270  1.0  0.1046
  H  H142  1  0.694830  0.904170  0.808470  1.0  0.1059
  H  H143  1  0.843630  0.899470  0.767970  1.0  0.0662
  H  H144  1  0.877630  0.916470  0.678070  1.0  0.0979
  H  H145  1  0.469800  0.115300  0.966300  1.0  0.1054
  H  H146  1  0.446300  0.163100  0.993700  1.0  0.0999
  H  H147  1  0.422500  0.114000  0.159300  1.0  0.1094
  H  H148  1  0.446500  0.066100  0.131600  1.0  0.1041
  H  H149  1  0.361500  0.124000  0.141800  1.0  0.1065
  H  H150  1  0.510300  0.277500  0.101300  1.0  0.0671
  H  H151  1  0.544300  0.294500  0.011400  1.0  0.1012
  H  H152  1  0.136470  0.448630  0.299630  1.0  0.1054
  H  H153  1  0.112970  0.496430  0.327030  1.0  0.0999
  H  H154  1  0.089170  0.447330  0.492630  1.0  0.1094
  H  H155  1  0.113170  0.399430  0.464930  1.0  0.105
  H  H156  1  0.028170  0.457330  0.475130  1.0  0.1065
  H  H157  1  0.176970  0.610830  0.434630  1.0  0.0671
  H  H158  1  0.210970  0.627830  0.344730  1.0  0.1012
  H  H159  1  0.803130  0.781970  0.632970  1.0  0.1059
  H  H160  1  0.779630  0.829770  0.660370  1.0  0.099
  H  H161  1  0.755830  0.780670  0.825970  1.0  0.1096
  H  H162  1  0.779830  0.732770  0.798270  1.0  0.1046
  H  H163  1  0.694830  0.790670  0.808470  1.0  0.1065
  H  H164  1  0.843630  0.944170  0.767970  1.0  0.0639
  H  H165  1  0.877630  0.961170  0.678070  1.0  0.1011
  H  H166  1  0.884700  0.354500  0.966300  1.0  0.1057
  H  H167  1  0.836900  0.283200  0.993700  1.0  0.1002
  H  H168  1  0.886000  0.308500  0.159300  1.0  0.1093
  H  H169  1  0.933900  0.380400  0.131600  1.0  0.104
  H  H170  1  0.876000  0.237500  0.141800  1.0  0.1056
  H  H171  1  0.722500  0.232800  0.101300  1.0  0.0659
  H  H172  1  0.705500  0.249800  0.011400  1.0  0.0991
  H  H173  1  0.551370  0.687830  0.299630  1.0  0.1057
  H  H174  1  0.503570  0.616530  0.327030  1.0  0.1002
  H  H175  1  0.552670  0.641830  0.492630  1.0  0.1093
  H  H176  1  0.600570  0.713730  0.464930  1.0  0.1044
  H  H177  1  0.542670  0.570830  0.475130  1.0  0.1056
  H  H178  1  0.389170  0.566130  0.434630  1.0  0.066
  H  H179  1  0.372170  0.583130  0.344730  1.0  0.099
  H  H180  1  0.218030  0.021170  0.632970  1.0  0.1053
  H  H181  1  0.170230  0.949870  0.660370  1.0  0.1002
  H  H182  1  0.219330  0.975170  0.825970  1.0  0.1093
  H  H183  1  0.267230  0.047070  0.798270  1.0  0.104
  H  H184  1  0.209330  0.904170  0.808470  1.0  0.1056
  H  H185  1  0.055830  0.899470  0.767970  1.0  0.0655
  H  H186  1  0.038830  0.916470  0.678070  1.0  0.0969
  H  H187  1  0.645500  0.530200  0.966300  1.0  0.1053
  H  H188  1  0.716800  0.553700  0.993700  1.0  0.0986
  H  H189  1  0.691500  0.577500  0.159300  1.0  0.1099
  H  H190  1  0.619600  0.553500  0.131600  1.0  0.1048
  H  H191  1  0.762500  0.638500  0.141800  1.0  0.1065
  H  H192  1  0.767200  0.489700  0.101300  1.0  0.0619
  H  H193  1  0.750200  0.455700  0.011400  1.0  0.0883
  H  H194  1  0.312170  0.863530  0.299630  1.0  0.1053
  H  H195  1  0.383470  0.887030  0.327030  1.0  0.0986
  H  H196  1  0.358170  0.910830  0.492630  1.0  0.1099
  H  H197  1  0.286270  0.886830  0.464930  1.0  0.1048
  H  H198  1  0.429170  0.971830  0.475130  1.0  0.1064
  H  H199  1  0.433870  0.823030  0.434630  1.0  0.0619
  H  H200  1  0.416870  0.789030  0.344730  1.0  0.0883
  H  H201  1  0.978830  0.196870  0.632970  1.0  0.1053
  H  H202  1  0.050130  0.220370  0.660370  1.0  0.1003
  H  H203  1  0.024830  0.244170  0.825970  1.0  0.1092
  H  H204  1  0.952930  0.220170  0.798270  1.0  0.105
  H  H205  1  0.095830  0.305170  0.808470  1.0  0.1065
  H  H206  1  0.100530  0.156370  0.767970  1.0  0.0626
  H  H207  1  0.083530  0.122370  0.678070  1.0  0.0888
  H  H208  1  0.115300  0.469800  0.033700  1.0  0.1052
  H  H209  1  0.163100  0.446300  0.006300  1.0  0.1008
  H  H210  1  0.114000  0.422500  0.840700  1.0  0.1084
  H  H211  1  0.066100  0.446500  0.868400  1.0  0.1037
  H  H212  1  0.124000  0.361500  0.858200  1.0  0.1068
  H  H213  1  0.277500  0.510300  0.898700  1.0  0.0642
  H  H214  1  0.294500  0.544300  0.988600  1.0  0.0918
  H  H215  1  0.781970  0.803130  0.367030  1.0  0.1055
  H  H216  1  0.829770  0.779630  0.339630  1.0  0.1002
  H  H217  1  0.780670  0.755830  0.174030  1.0  0.1089
  H  H218  1  0.732770  0.779830  0.201730  1.0  0.1047
  H  H219  1  0.790670  0.694830  0.191530  1.0  0.1068
  H  H220  1  0.944170  0.843630  0.232030  1.0  0.061
  H  H221  1  0.961170  0.877630  0.321930  1.0  0.0916
  H  H222  1  0.448630  0.136470  0.700370  1.0  0.1052
  H  H223  1  0.496430  0.112970  0.672970  1.0  0.1008
  H  H224  1  0.447330  0.089170  0.507370  1.0  0.1084
  H  H225  1  0.399430  0.113170  0.535070  1.0  0.1047
  H  H226  1  0.457330  0.028170  0.524870  1.0  0.1068
  H  H227  1  0.610830  0.176970  0.565370  1.0  0.0642
  H  H228  1  0.627830  0.210970  0.655270  1.0  0.0918
  H  H229  1  0.354500  0.884700  0.033700  1.0  0.1059
  H  H230  1  0.283200  0.836900  0.006300  1.0  0.1
  H  H231  1  0.308500  0.886000  0.840700  1.0  0.1092
  H  H232  1  0.380400  0.933900  0.868400  1.0  0.1042
  H  H233  1  0.237500  0.876000  0.858200  1.0  0.1066
  H  H234  1  0.232800  0.722500  0.898700  1.0  0.0651
  H  H235  1  0.249800  0.705500  0.988600  1.0  0.1013
  H  H236  1  0.021170  0.218030  0.367030  1.0  0.1056
  H  H237  1  0.949870  0.170230  0.339630  1.0  0.1
  H  H238  1  0.975170  0.219330  0.174030  1.0  0.1096
  H  H239  1  0.047070  0.267230  0.201730  1.0  0.1042
  H  H240  1  0.904170  0.209330  0.191530  1.0  0.1066
  H  H241  1  0.899470  0.055830  0.232030  1.0  0.0647
  H  H242  1  0.916470  0.038830  0.321930  1.0  0.0984
  H  H243  1  0.687830  0.551370  0.700370  1.0  0.1059
  H  H244  1  0.616530  0.503570  0.672970  1.0  0.1
  H  H245  1  0.641830  0.552670  0.507370  1.0  0.1092
  H  H246  1  0.713730  0.600570  0.535070  1.0  0.1047
  H  H247  1  0.570830  0.542670  0.524870  1.0  0.1066
  H  H248  1  0.566130  0.389170  0.565370  1.0  0.0651
  H  H249  1  0.583130  0.372170  0.655270  1.0  0.1012
  H  H250  1  0.530200  0.645500  0.033700  1.0  0.1057
  H  H251  1  0.553700  0.716800  0.006300  1.0  0.0991
  H  H252  1  0.577500  0.691500  0.840700  1.0  0.1101
  H  H253  1  0.553500  0.619600  0.868400  1.0  0.1041
  H  H254  1  0.638500  0.762500  0.858200  1.0  0.1058
  H  H255  1  0.489700  0.767200  0.898700  1.0  0.0665
  H  H256  1  0.455700  0.750200  0.988600  1.0  0.1001
  H  H257  1  0.196870  0.978830  0.367030  1.0  0.1057
  H  H258  1  0.220370  0.050130  0.339630  1.0  0.1
  H  H259  1  0.244170  0.024830  0.174030  1.0  0.1098
  H  H260  1  0.220170  0.952930  0.201730  1.0  0.1042
  H  H261  1  0.305170  0.095830  0.191530  1.0  0.1058
  H  H262  1  0.156370  0.100530  0.232030  1.0  0.0671
  H  H263  1  0.122370  0.083530  0.321930  1.0  0.1004
  H  H264  1  0.863530  0.312170  0.700370  1.0  0.1057
  H  H265  1  0.887030  0.383470  0.672970  1.0  0.0991
  H  H266  1  0.910830  0.358170  0.507370  1.0  0.1101
  H  H267  1  0.886830  0.286270  0.535070  1.0  0.1041
  H  H268  1  0.971830  0.429170  0.524870  1.0  0.1058
  H  H269  1  0.823030  0.433870  0.565370  1.0  0.0665
  H  H270  1  0.789030  0.416870  0.655270  1.0  0.1001
  H  H271  1  0.427800  0.713900  0.941300  1.0  0.0876
  H  H272  1  0.094470  0.047230  0.274630  1.0  0.0882
  H  H273  1  0.761130  0.380570  0.607970  1.0  0.0876
  H  H274  1  0.286100  0.713900  0.941300  1.0  0.092
  H  H275  1  0.952770  0.047230  0.274630  1.0  0.0928
  H  H276  1  0.619430  0.380570  0.607970  1.0  0.092
  H  H277  1  0.286100  0.572200  0.941300  1.0  0.0925
  H  H278  1  0.952770  0.905530  0.274630  1.0  0.0929
  H  H279  1  0.619430  0.238870  0.607970  1.0  0.0925
  H  H280  1  0.713900  0.427800  0.058700  1.0  0.09
  H  H281  1  0.380570  0.761130  0.392030  1.0  0.09
  H  H282  1  0.047230  0.094470  0.725370  1.0  0.0897
  H  H283  1  0.713900  0.286100  0.058700  1.0  0.09
  H  H284  1  0.380570  0.619430  0.392030  1.0  0.09
  H  H285  1  0.047230  0.952770  0.725370  1.0  0.0908
  H  H286  1  0.572200  0.286100  0.058700  1.0  0.0923
  H  H287  1  0.238870  0.619430  0.392030  1.0  0.0923
  H  H288  1  0.905530  0.952770  0.725370  1.0  0.092
  C  C289  1  0.523900  0.946020  0.971640  1.0  0.6812
  C  C290  1  0.539340  0.914330  0.953580  1.0  -0.145
  C  C291  1  0.539710  0.885130  0.994780  1.0  -0.0554
  C  C292  1  0.554180  0.856680  0.978300  1.0  -0.1246
  C  C293  1  0.569300  0.856800  0.921270  1.0  0.0767
  C  C294  1  0.568330  0.885780  0.879710  1.0  -0.1733
  C  C295  1  0.553630  0.914410  0.896390  1.0  -0.0406
  C  C296  1  0.588140  0.828640  0.903910  1.0  0.0166
  C  C297  1  0.625980  0.846770  0.869680  1.0  -0.1287
  C  C298  1  0.190570  0.279350  0.304970  1.0  0.6812
  C  C299  1  0.206010  0.247660  0.286910  1.0  -0.145
  C  C300  1  0.206380  0.218460  0.328110  1.0  -0.0554
  C  C301  1  0.220850  0.190010  0.311630  1.0  -0.1246
  C  C302  1  0.235970  0.190130  0.254600  1.0  0.0767
  C  C303  1  0.235000  0.219110  0.213040  1.0  -0.1733
  C  C304  1  0.220300  0.247740  0.229720  1.0  -0.0406
  C  C305  1  0.254810  0.161970  0.237240  1.0  0.0198
  C  C306  1  0.292650  0.180100  0.203010  1.0  -0.124
  C  C307  1  0.857230  0.612690  0.638310  1.0  0.6812
  C  C308  1  0.872670  0.581000  0.620250  1.0  -0.145
  C  C309  1  0.873040  0.551800  0.661450  1.0  -0.0554
  C  C310  1  0.887510  0.523350  0.644970  1.0  -0.1247
  C  C311  1  0.902630  0.523470  0.587940  1.0  0.0767
  C  C312  1  0.901660  0.552450  0.546380  1.0  -0.1733
  C  C313  1  0.886960  0.581080  0.563060  1.0  -0.0406
  C  C314  1  0.921470  0.495310  0.570580  1.0  0.0161
  C  C315  1  0.959310  0.513440  0.536350  1.0  -0.1285
  C  C316  1  0.053980  0.577880  0.971640  1.0  0.6813
  C  C317  1  0.085670  0.625010  0.953580  1.0  -0.144
  C  C318  1  0.114870  0.654580  0.994780  1.0  -0.0542
  C  C319  1  0.143320  0.697500  0.978300  1.0  -0.1267
  C  C320  1  0.143200  0.712500  0.921270  1.0  0.0778
  C  C321  1  0.114220  0.682550  0.879710  1.0  -0.1719
  C  C322  1  0.085590  0.639220  0.896390  1.0  -0.0386
  C  C323  1  0.171360  0.759500  0.903910  1.0  0.0161
  C  C324  1  0.153230  0.779210  0.869680  1.0  -0.1316
  C  C325  1  0.720650  0.911210  0.304970  1.0  0.6813
  C  C326  1  0.752340  0.958340  0.286910  1.0  -0.144
  C  C327  1  0.781540  0.987910  0.328110  1.0  -0.0542
  C  C328  1  0.809990  0.030830  0.311630  1.0  -0.1267
  C  C329  1  0.809870  0.045830  0.254600  1.0  0.0778
  C  C330  1  0.780890  0.015880  0.213040  1.0  -0.1719
  C  C331  1  0.752260  0.972550  0.229720  1.0  -0.0386
  C  C332  1  0.838030  0.092830  0.237240  1.0  0.0161
  C  C333  1  0.819900  0.112540  0.203010  1.0  -0.1316
  C  C334  1  0.387310  0.244550  0.638310  1.0  0.6813
  C  C335  1  0.419000  0.291680  0.620250  1.0  -0.144
  C  C336  1  0.448200  0.321250  0.661450  1.0  -0.0542
  C  C337  1  0.476650  0.364170  0.644970  1.0  -0.1266
  C  C338  1  0.476530  0.379170  0.587940  1.0  0.0778
  C  C339  1  0.447550  0.349220  0.546380  1.0  -0.1722
  C  C340  1  0.418920  0.305890  0.563060  1.0  -0.0386
  C  C341  1  0.504690  0.426170  0.570580  1.0  0.0154
  C  C342  1  0.486560  0.445880  0.536350  1.0  -0.1316
  C  C343  1  0.422120  0.476100  0.971640  1.0  0.6805
  C  C344  1  0.374990  0.460660  0.953580  1.0  -0.1451
  C  C345  1  0.345420  0.460290  0.994780  1.0  -0.0551
  C  C346  1  0.302500  0.445820  0.978300  1.0  -0.1251
  C  C347  1  0.287500  0.430700  0.921270  1.0  0.0766
  C  C348  1  0.317450  0.431670  0.879710  1.0  -0.1695
  C  C349  1  0.360780  0.446370  0.896390  1.0  -0.0382
  C  C350  1  0.240500  0.411860  0.903910  1.0  0.019
  C  C351  1  0.220790  0.374020  0.869680  1.0  -0.1277
  C  C352  1  0.088790  0.809430  0.304970  1.0  0.6805
  C  C353  1  0.041660  0.793990  0.286910  1.0  -0.1451
  C  C354  1  0.012090  0.793620  0.328110  1.0  -0.0551
  C  C355  1  0.969170  0.779150  0.311630  1.0  -0.1251
  C  C356  1  0.954170  0.764030  0.254600  1.0  0.0766
  C  C357  1  0.984120  0.765000  0.213040  1.0  -0.1695
  C  C358  1  0.027450  0.779700  0.229720  1.0  -0.0382
  C  C359  1  0.907170  0.745190  0.237240  1.0  0.0165
  C  C360  1  0.887460  0.707350  0.203010  1.0  -0.1319
  C  C361  1  0.755450  0.142770  0.638310  1.0  0.6805
  C  C362  1  0.708320  0.127330  0.620250  1.0  -0.1451
  C  C363  1  0.678750  0.126960  0.661450  1.0  -0.0551
  C  C364  1  0.635830  0.112490  0.644970  1.0  -0.125
  C  C365  1  0.620830  0.097370  0.587940  1.0  0.0766
  C  C366  1  0.650780  0.098340  0.546380  1.0  -0.1694
  C  C367  1  0.694110  0.113040  0.563060  1.0  -0.0382
  C  C368  1  0.573830  0.078530  0.570580  1.0  0.0196
  C  C369  1  0.554120  0.040690  0.536350  1.0  -0.1279
  C  C370  1  0.946020  0.523900  0.028360  1.0  0.6802
  C  C371  1  0.914330  0.539340  0.046420  1.0  -0.1446
  C  C372  1  0.885130  0.539710  0.005220  1.0  -0.0572
  C  C373  1  0.856680  0.554180  0.021700  1.0  -0.1259
  C  C374  1  0.856800  0.569300  0.078730  1.0  0.0763
  C  C375  1  0.885780  0.568330  0.120290  1.0  -0.1724
  C  C376  1  0.914410  0.553630  0.103610  1.0  -0.0378
  C  C377  1  0.828640  0.588140  0.096090  1.0  0.017
  C  C378  1  0.846770  0.625980  0.130320  1.0  -0.1331
  C  C379  1  0.612690  0.857230  0.361690  1.0  0.6802
  C  C380  1  0.581000  0.872670  0.379750  1.0  -0.1446
  C  C381  1  0.551800  0.873040  0.338550  1.0  -0.0572
  C  C382  1  0.523350  0.887510  0.355030  1.0  -0.1259
  C  C383  1  0.523470  0.902630  0.412060  1.0  0.0763
  C  C384  1  0.552450  0.901660  0.453620  1.0  -0.1724
  C  C385  1  0.581080  0.886960  0.436940  1.0  -0.0378
  C  C386  1  0.495310  0.921470  0.429420  1.0  0.017
  C  C387  1  0.513440  0.959310  0.463650  1.0  -0.133
  C  C388  1  0.279350  0.190570  0.695030  1.0  0.6802
  C  C389  1  0.247660  0.206010  0.713090  1.0  -0.1446
  C  C390  1  0.218460  0.206380  0.671890  1.0  -0.0572
  C  C391  1  0.190010  0.220850  0.688370  1.0  -0.1258
  C  C392  1  0.190130  0.235970  0.745400  1.0  0.0763
  C  C393  1  0.219110  0.235000  0.786960  1.0  -0.1724
  C  C394  1  0.247740  0.220300  0.770280  1.0  -0.0378
  C  C395  1  0.161970  0.254810  0.762760  1.0  0.0205
  C  C396  1  0.180100  0.292650  0.796990  1.0  -0.1284
  C  C397  1  0.577880  0.053980  0.028360  1.0  0.6809
  C  C398  1  0.625010  0.085670  0.046420  1.0  -0.1452
  C  C399  1  0.654580  0.114870  0.005220  1.0  -0.0557
  C  C400  1  0.697500  0.143320  0.021700  1.0  -0.1261
  C  C401  1  0.712500  0.143200  0.078730  1.0  0.0765
  C  C402  1  0.682550  0.114220  0.120290  1.0  -0.1752
  C  C403  1  0.639220  0.085590  0.103610  1.0  -0.0408
  C  C404  1  0.759500  0.171360  0.096090  1.0  0.0165
  C  C405  1  0.779210  0.153230  0.130320  1.0  -0.1309
  C  C406  1  0.244550  0.387310  0.361690  1.0  0.6809
  C  C407  1  0.291680  0.419000  0.379750  1.0  -0.1452
  C  C408  1  0.321250  0.448200  0.338550  1.0  -0.0558
  C  C409  1  0.364170  0.476650  0.355030  1.0  -0.1261
  C  C410  1  0.379170  0.476530  0.412060  1.0  0.0765
  C  C411  1  0.349220  0.447550  0.453620  1.0  -0.1752
  C  C412  1  0.305890  0.418920  0.436940  1.0  -0.0408
  C  C413  1  0.426170  0.504690  0.429420  1.0  0.0155
  C  C414  1  0.445880  0.486560  0.463650  1.0  -0.131
  C  C415  1  0.911210  0.720650  0.695030  1.0  0.6809
  C  C416  1  0.958340  0.752340  0.713090  1.0  -0.1452
  C  C417  1  0.987910  0.781540  0.671890  1.0  -0.0558
  C  C418  1  0.030830  0.809990  0.688370  1.0  -0.1261
  C  C419  1  0.045830  0.809870  0.745400  1.0  0.0765
  C  C420  1  0.015880  0.780890  0.786960  1.0  -0.1752
  C  C421  1  0.972550  0.752260  0.770280  1.0  -0.0408
  C  C422  1  0.092830  0.838030  0.762760  1.0  0.0165
  C  C423  1  0.112540  0.819900  0.796990  1.0  -0.1309
  C  C424  1  0.476100  0.422120  0.028360  1.0  0.6815
  C  C425  1  0.460660  0.374990  0.046420  1.0  -0.1435
  C  C426  1  0.460290  0.345420  0.005220  1.0  -0.0569
  C  C427  1  0.445820  0.302500  0.021700  1.0  -0.1266
  C  C428  1  0.430700  0.287500  0.078730  1.0  0.0774
  C  C429  1  0.431670  0.317450  0.120290  1.0  -0.1746
  C  C430  1  0.446370  0.360780  0.103610  1.0  -0.0405
  C  C431  1  0.411860  0.240500  0.096090  1.0  0.0181
  C  C432  1  0.374020  0.220790  0.130320  1.0  -0.1274
  C  C433  1  0.142770  0.755450  0.361690  1.0  0.6815
  C  C434  1  0.127330  0.708320  0.379750  1.0  -0.1435
  C  C435  1  0.126960  0.678750  0.338550  1.0  -0.0568
  C  C436  1  0.112490  0.635830  0.355030  1.0  -0.1266
  C  C437  1  0.097370  0.620830  0.412060  1.0  0.0774
  C  C438  1  0.098340  0.650780  0.453620  1.0  -0.1746
  C  C439  1  0.113040  0.694110  0.436940  1.0  -0.0405
  C  C440  1  0.078530  0.573830  0.429420  1.0  0.0185
  C  C441  1  0.040690  0.554120  0.463650  1.0  -0.1275
  C  C442  1  0.809430  0.088790  0.695030  1.0  0.6815
  C  C443  1  0.793990  0.041660  0.713090  1.0  -0.1435
  C  C444  1  0.793620  0.012090  0.671890  1.0  -0.0569
  C  C445  1  0.779150  0.969170  0.688370  1.0  -0.1266
  C  C446  1  0.764030  0.954170  0.745400  1.0  0.0774
  C  C447  1  0.765000  0.984120  0.786960  1.0  -0.1746
  C  C448  1  0.779700  0.027450  0.770280  1.0  -0.0405
  C  C449  1  0.745190  0.907170  0.762760  1.0  0.0156
  C  C450  1  0.707350  0.887460  0.796990  1.0  -0.1325
  C  C451  1  0.476100  0.053980  0.028360  1.0  0.6807
  C  C452  1  0.460660  0.085670  0.046420  1.0  -0.1448
  C  C453  1  0.460290  0.114870  0.005220  1.0  -0.0565
  C  C454  1  0.445820  0.143320  0.021700  1.0  -0.1263
  C  C455  1  0.430700  0.143200  0.078730  1.0  0.0763
  C  C456  1  0.431670  0.114220  0.120290  1.0  -0.175
  C  C457  1  0.446370  0.085590  0.103610  1.0  -0.0404
  C  C458  1  0.411860  0.171360  0.096090  1.0  0.0164
  C  C459  1  0.374020  0.153230  0.130320  1.0  -0.1305
  C  C460  1  0.142770  0.387310  0.361690  1.0  0.6807
  C  C461  1  0.127330  0.419000  0.379750  1.0  -0.1448
  C  C462  1  0.126960  0.448200  0.338550  1.0  -0.0565
  C  C463  1  0.112490  0.476650  0.355030  1.0  -0.1263
  C  C464  1  0.097370  0.476530  0.412060  1.0  0.0763
  C  C465  1  0.098340  0.447550  0.453620  1.0  -0.175
  C  C466  1  0.113040  0.418920  0.436940  1.0  -0.0404
  C  C467  1  0.078530  0.504690  0.429420  1.0  0.0157
  C  C468  1  0.040690  0.486560  0.463650  1.0  -0.1304
  C  C469  1  0.809430  0.720650  0.695030  1.0  0.6807
  C  C470  1  0.793990  0.752340  0.713090  1.0  -0.1448
  C  C471  1  0.793620  0.781540  0.671890  1.0  -0.0565
  C  C472  1  0.779150  0.809990  0.688370  1.0  -0.1263
  C  C473  1  0.764030  0.809870  0.745400  1.0  0.0763
  C  C474  1  0.765000  0.780890  0.786960  1.0  -0.175
  C  C475  1  0.779700  0.752260  0.770280  1.0  -0.0404
  C  C476  1  0.745190  0.838030  0.762760  1.0  0.0194
  C  C477  1  0.707350  0.819900  0.796990  1.0  -0.1247
  C  C478  1  0.946020  0.422120  0.028360  1.0  0.6813
  C  C479  1  0.914330  0.374990  0.046420  1.0  -0.1439
  C  C480  1  0.885130  0.345420  0.005220  1.0  -0.0569
  C  C481  1  0.856680  0.302500  0.021700  1.0  -0.1264
  C  C482  1  0.856800  0.287500  0.078730  1.0  0.0774
  C  C483  1  0.885780  0.317450  0.120290  1.0  -0.1742
  C  C484  1  0.914410  0.360780  0.103610  1.0  -0.0398
  C  C485  1  0.828640  0.240500  0.096090  1.0  0.0173
  C  C486  1  0.846770  0.220790  0.130320  1.0  -0.1322
  C  C487  1  0.612690  0.755450  0.361690  1.0  0.6813
  C  C488  1  0.581000  0.708320  0.379750  1.0  -0.1439
  C  C489  1  0.551800  0.678750  0.338550  1.0  -0.057
  C  C490  1  0.523350  0.635830  0.355030  1.0  -0.1263
  C  C491  1  0.523470  0.620830  0.412060  1.0  0.0774
  C  C492  1  0.552450  0.650780  0.453620  1.0  -0.1742
  C  C493  1  0.581080  0.694110  0.436940  1.0  -0.0398
  C  C494  1  0.495310  0.573830  0.429420  1.0  0.0165
  C  C495  1  0.513440  0.554120  0.463650  1.0  -0.1323
  C  C496  1  0.279350  0.088790  0.695030  1.0  0.6813
  C  C497  1  0.247660  0.041660  0.713090  1.0  -0.1439
  C  C498  1  0.218460  0.012090  0.671890  1.0  -0.057
  C  C499  1  0.190010  0.969170  0.688370  1.0  -0.1264
  C  C500  1  0.190130  0.954170  0.745400  1.0  0.0774
  C  C501  1  0.219110  0.984120  0.786960  1.0  -0.1742
  C  C502  1  0.247740  0.027450  0.770280  1.0  -0.0398
  C  C503  1  0.161970  0.907170  0.762760  1.0  0.0173
  C  C504  1  0.180100  0.887460  0.796990  1.0  -0.1322
  C  C505  1  0.577880  0.523900  0.028360  1.0  0.6806
  C  C506  1  0.625010  0.539340  0.046420  1.0  -0.1442
  C  C507  1  0.654580  0.539710  0.005220  1.0  -0.0559
  C  C508  1  0.697500  0.554180  0.021700  1.0  -0.1253
  C  C509  1  0.712500  0.569300  0.078730  1.0  0.0767
  C  C510  1  0.682550  0.568330  0.120290  1.0  -0.1721
  C  C511  1  0.639220  0.553630  0.103610  1.0  -0.0376
  C  C512  1  0.759500  0.588140  0.096090  1.0  0.0196
  C  C513  1  0.779210  0.625980  0.130320  1.0  -0.1283
  C  C514  1  0.244550  0.857230  0.361690  1.0  0.6806
  C  C515  1  0.291680  0.872670  0.379750  1.0  -0.1442
  C  C516  1  0.321250  0.873040  0.338550  1.0  -0.0559
  C  C517  1  0.364170  0.887510  0.355030  1.0  -0.1253
  C  C518  1  0.379170  0.902630  0.412060  1.0  0.0767
  C  C519  1  0.349220  0.901660  0.453620  1.0  -0.1721
  C  C520  1  0.305890  0.886960  0.436940  1.0  -0.0376
  C  C521  1  0.426170  0.921470  0.429420  1.0  0.0196
  C  C522  1  0.445880  0.959310  0.463650  1.0  -0.1282
  C  C523  1  0.911210  0.190570  0.695030  1.0  0.6806
  C  C524  1  0.958340  0.206010  0.713090  1.0  -0.1442
  C  C525  1  0.987910  0.206380  0.671890  1.0  -0.0559
  C  C526  1  0.030830  0.220850  0.688370  1.0  -0.1254
  C  C527  1  0.045830  0.235970  0.745400  1.0  0.0767
  C  C528  1  0.015880  0.235000  0.786960  1.0  -0.1721
  C  C529  1  0.972550  0.220300  0.770280  1.0  -0.0376
  C  C530  1  0.092830  0.254810  0.762760  1.0  0.0162
  C  C531  1  0.112540  0.292650  0.796990  1.0  -0.1332
  C  C532  1  0.053980  0.476100  0.971640  1.0  0.6808
  C  C533  1  0.085670  0.460660  0.953580  1.0  -0.1445
  C  C534  1  0.114870  0.460290  0.994780  1.0  -0.0556
  C  C535  1  0.143320  0.445820  0.978300  1.0  -0.1246
  C  C536  1  0.143200  0.430700  0.921270  1.0  0.077
  C  C537  1  0.114220  0.431670  0.879710  1.0  -0.17
  C  C538  1  0.085590  0.446370  0.896390  1.0  -0.0376
  C  C539  1  0.171360  0.411860  0.903910  1.0  0.0158
  C  C540  1  0.153230  0.374020  0.869680  1.0  -0.1327
  C  C541  1  0.720650  0.809430  0.304970  1.0  0.6808
  C  C542  1  0.752340  0.793990  0.286910  1.0  -0.1445
  C  C543  1  0.781540  0.793620  0.328110  1.0  -0.0556
  C  C544  1  0.809990  0.779150  0.311630  1.0  -0.1246
  C  C545  1  0.809870  0.764030  0.254600  1.0  0.077
  C  C546  1  0.780890  0.765000  0.213040  1.0  -0.17
  C  C547  1  0.752260  0.779700  0.229720  1.0  -0.0376
  C  C548  1  0.838030  0.745190  0.237240  1.0  0.0189
  C  C549  1  0.819900  0.707350  0.203010  1.0  -0.1278
  C  C550  1  0.387310  0.142770  0.638310  1.0  0.6808
  C  C551  1  0.419000  0.127330  0.620250  1.0  -0.1445
  C  C552  1  0.448200  0.126960  0.661450  1.0  -0.0556
  C  C553  1  0.476650  0.112490  0.644970  1.0  -0.1246
  C  C554  1  0.476530  0.097370  0.587940  1.0  0.077
  C  C555  1  0.447550  0.098340  0.546380  1.0  -0.17
  C  C556  1  0.418920  0.113040  0.563060  1.0  -0.0376
  C  C557  1  0.504690  0.078530  0.570580  1.0  0.0154
  C  C558  1  0.486560  0.040690  0.536350  1.0  -0.1326
  C  C559  1  0.422120  0.946020  0.971640  1.0  0.6811
  C  C560  1  0.374990  0.914330  0.953580  1.0  -0.1451
  C  C561  1  0.345420  0.885130  0.994780  1.0  -0.0546
  C  C562  1  0.302500  0.856680  0.978300  1.0  -0.1258
  C  C563  1  0.287500  0.856800  0.921270  1.0  0.0767
  C  C564  1  0.317450  0.885780  0.879710  1.0  -0.1726
  C  C565  1  0.360780  0.914410  0.896390  1.0  -0.0413
  C  C566  1  0.240500  0.828640  0.903910  1.0  0.0169
  C  C567  1  0.220790  0.846770  0.869680  1.0  -0.1278
  C  C568  1  0.088790  0.279350  0.304970  1.0  0.6811
  C  C569  1  0.041660  0.247660  0.286910  1.0  -0.1451
  C  C570  1  0.012090  0.218460  0.328110  1.0  -0.0546
  C  C571  1  0.969170  0.190010  0.311630  1.0  -0.1258
  C  C572  1  0.954170  0.190130  0.254600  1.0  0.0767
  C  C573  1  0.984120  0.219110  0.213040  1.0  -0.1726
  C  C574  1  0.027450  0.247740  0.229720  1.0  -0.0413
  C  C575  1  0.907170  0.161970  0.237240  1.0  0.0169
  C  C576  1  0.887460  0.180100  0.203010  1.0  -0.1278
  C  C577  1  0.755450  0.612690  0.638310  1.0  0.6811
  C  C578  1  0.708320  0.581000  0.620250  1.0  -0.1451
  C  C579  1  0.678750  0.551800  0.661450  1.0  -0.0546
  C  C580  1  0.635830  0.523350  0.644970  1.0  -0.1258
  C  C581  1  0.620830  0.523470  0.587940  1.0  0.0767
  C  C582  1  0.650780  0.552450  0.546380  1.0  -0.1727
  C  C583  1  0.694110  0.581080  0.563060  1.0  -0.0413
  C  C584  1  0.573830  0.495310  0.570580  1.0  0.0162
  C  C585  1  0.554120  0.513440  0.536350  1.0  -0.1279
  C  C586  1  0.523900  0.577880  0.971640  1.0  0.6811
  C  C587  1  0.539340  0.625010  0.953580  1.0  -0.1449
  C  C588  1  0.539710  0.654580  0.994780  1.0  -0.0557
  C  C589  1  0.554180  0.697500  0.978300  1.0  -0.126
  C  C590  1  0.569300  0.712500  0.921270  1.0  0.0777
  C  C591  1  0.568330  0.682550  0.879710  1.0  -0.1719
  C  C592  1  0.553630  0.639220  0.896390  1.0  -0.0403
  C  C593  1  0.588140  0.759500  0.903910  1.0  0.0186
  C  C594  1  0.625980  0.779210  0.869680  1.0  -0.1277
  C  C595  1  0.190570  0.911210  0.304970  1.0  0.6811
  C  C596  1  0.206010  0.958340  0.286910  1.0  -0.1449
  C  C597  1  0.206380  0.987910  0.328110  1.0  -0.0557
  C  C598  1  0.220850  0.030830  0.311630  1.0  -0.126
  C  C599  1  0.235970  0.045830  0.254600  1.0  0.0777
  C  C600  1  0.235000  0.015880  0.213040  1.0  -0.1719
  C  C601  1  0.220300  0.972550  0.229720  1.0  -0.0403
  C  C602  1  0.254810  0.092830  0.237240  1.0  0.0161
  C  C603  1  0.292650  0.112540  0.203010  1.0  -0.1315
  C  C604  1  0.857230  0.244550  0.638310  1.0  0.6811
  C  C605  1  0.872670  0.291680  0.620250  1.0  -0.1449
  C  C606  1  0.873040  0.321250  0.661450  1.0  -0.0557
  C  C607  1  0.887510  0.364170  0.644970  1.0  -0.126
  C  C608  1  0.902630  0.379170  0.587940  1.0  0.0777
  C  C609  1  0.901660  0.349220  0.546380  1.0  -0.1719
  C  C610  1  0.886960  0.305890  0.563060  1.0  -0.0403
  C  C611  1  0.921470  0.426170  0.570580  1.0  0.0191
  C  C612  1  0.959310  0.445880  0.536350  1.0  -0.1278
  C  C613  1  0.646360  0.823180  0.851480  1.0  -0.0084
  C  C614  1  0.568970  0.784490  0.920600  1.0  0.19
  C  C615  1  0.491100  0.745550  0.924100  1.0  0.1625
  C  C616  1  0.454600  0.727300  0.963900  1.0  -0.3675
  C  C617  1  0.313030  0.156510  0.184810  1.0  -0.0084
  C  C618  1  0.235640  0.117820  0.253930  1.0  0.19
  C  C619  1  0.157770  0.078880  0.257430  1.0  0.1625
  C  C620  1  0.121270  0.060630  0.297230  1.0  -0.3675
  C  C621  1  0.979690  0.489850  0.518150  1.0  -0.008
  C  C622  1  0.902300  0.451150  0.587270  1.0  0.19
  C  C623  1  0.824430  0.412220  0.590770  1.0  0.1624
  C  C624  1  0.787930  0.393970  0.630570  1.0  -0.3675
  C  C625  1  0.176820  0.823180  0.851480  1.0  -0.0105
  C  C626  1  0.215510  0.784490  0.920600  1.0  0.1905
  C  C627  1  0.254450  0.745550  0.924100  1.0  0.1616
  C  C628  1  0.272700  0.727300  0.963900  1.0  -0.3652
  C  C629  1  0.843490  0.156510  0.184810  1.0  -0.0105
  C  C630  1  0.882180  0.117820  0.253930  1.0  0.1905
  C  C631  1  0.921120  0.078880  0.257430  1.0  0.1616
  C  C632  1  0.939370  0.060630  0.297230  1.0  -0.3652
  C  C633  1  0.510150  0.489850  0.518150  1.0  -0.0108
  C  C634  1  0.548850  0.451150  0.587270  1.0  0.1918
  C  C635  1  0.587780  0.412220  0.590770  1.0  0.1616
  C  C636  1  0.606030  0.393970  0.630570  1.0  -0.3652
  C  C637  1  0.176820  0.353640  0.851480  1.0  -0.0043
  C  C638  1  0.215510  0.431030  0.920600  1.0  0.1901
  C  C639  1  0.254450  0.508900  0.924100  1.0  0.1574
  C  C640  1  0.272700  0.545400  0.963900  1.0  -0.369
  C  C641  1  0.843490  0.686970  0.184810  1.0  -0.0043
  C  C642  1  0.882180  0.764360  0.253930  1.0  0.1901
  C  C643  1  0.921120  0.842230  0.257430  1.0  0.1574
  C  C644  1  0.939370  0.878730  0.297230  1.0  -0.369
  C  C645  1  0.510150  0.020310  0.518150  1.0  -0.0039
  C  C646  1  0.548850  0.097700  0.587270  1.0  0.1902
  C  C647  1  0.587780  0.175570  0.590770  1.0  0.1574
  C  C648  1  0.606030  0.212070  0.630570  1.0  -0.369
  C  C649  1  0.823180  0.646360  0.148520  1.0  -0.0045
  C  C650  1  0.784480  0.568970  0.079400  1.0  0.1909
  C  C651  1  0.745550  0.491100  0.075900  1.0  0.1595
  C  C652  1  0.727300  0.454600  0.036100  1.0  -0.3655
  C  C653  1  0.489850  0.979690  0.481850  1.0  -0.0041
  C  C654  1  0.451150  0.902300  0.412730  1.0  0.1909
  C  C655  1  0.412220  0.824430  0.409230  1.0  0.1595
  C  C656  1  0.393970  0.787930  0.369430  1.0  -0.3655
  C  C657  1  0.156510  0.313030  0.815190  1.0  -0.0045
  C  C658  1  0.117820  0.235640  0.746070  1.0  0.1909
  C  C659  1  0.078880  0.157770  0.742570  1.0  0.1595
  C  C660  1  0.060630  0.121270  0.702770  1.0  -0.3655
  C  C661  1  0.823180  0.176820  0.148520  1.0  -0.0113
  C  C662  1  0.784490  0.215510  0.079400  1.0  0.1897
  C  C663  1  0.745550  0.254450  0.075900  1.0  0.1611
  C  C664  1  0.727300  0.272700  0.036100  1.0  -0.3679
  C  C665  1  0.489850  0.510150  0.481850  1.0  -0.0116
  C  C666  1  0.451150  0.548850  0.412730  1.0  0.191
  C  C667  1  0.412220  0.587780  0.409230  1.0  0.1609
  C  C668  1  0.393970  0.606030  0.369430  1.0  -0.3679
  C  C669  1  0.156510  0.843490  0.815190  1.0  -0.0113
  C  C670  1  0.117820  0.882180  0.746070  1.0  0.1897
  C  C671  1  0.078880  0.921120  0.742570  1.0  0.1611
  C  C672  1  0.060630  0.939370  0.702770  1.0  -0.3679
  C  C673  1  0.353640  0.176820  0.148520  1.0  -0.0087
  C  C674  1  0.431030  0.215510  0.079400  1.0  0.1898
  C  C675  1  0.508900  0.254450  0.075900  1.0  0.1612
  C  C676  1  0.545400  0.272700  0.036100  1.0  -0.3665
  C  C677  1  0.020310  0.510150  0.481850  1.0  -0.0083
  C  C678  1  0.097700  0.548850  0.412730  1.0  0.1898
  C  C679  1  0.175570  0.587780  0.409230  1.0  0.1612
  C  C680  1  0.212070  0.606030  0.369430  1.0  -0.3665
  C  C681  1  0.686970  0.843490  0.815190  1.0  -0.0087
  C  C682  1  0.764360  0.882180  0.746070  1.0  0.1898
  C  C683  1  0.842230  0.921120  0.742570  1.0  0.1612
  C  C684  1  0.878730  0.939370  0.702770  1.0  -0.3665
  O  O685  1  0.525030  0.971670  0.931280  1.0  -0.5742
  O  O686  1  0.511380  0.944190  0.024360  1.0  -0.571
  O  O687  1  0.191700  0.305000  0.264610  1.0  -0.5742
  O  O688  1  0.178050  0.277520  0.357690  1.0  -0.5693
  O  O689  1  0.858360  0.638340  0.597950  1.0  -0.5744
  O  O690  1  0.844710  0.610860  0.691030  1.0  -0.571
  O  O691  1  0.028330  0.553360  0.931280  1.0  -0.5748
  O  O692  1  0.055810  0.567190  0.024360  1.0  -0.5678
  O  O693  1  0.695000  0.886690  0.264610  1.0  -0.5748
  O  O694  1  0.722480  0.900520  0.357690  1.0  -0.5697
  O  O695  1  0.361660  0.220030  0.597950  1.0  -0.5742
  O  O696  1  0.389140  0.233860  0.691030  1.0  -0.5678
  O  O697  1  0.446640  0.474970  0.931280  1.0  -0.5737
  O  O698  1  0.432810  0.488620  0.024360  1.0  -0.5689
  O  O699  1  0.113310  0.808300  0.264610  1.0  -0.5737
  O  O700  1  0.099480  0.821950  0.357690  1.0  -0.5689
  O  O701  1  0.779970  0.141640  0.597950  1.0  -0.5737
  O  O702  1  0.766140  0.155290  0.691030  1.0  -0.5689
  O  O703  1  0.971670  0.525030  0.068720  1.0  -0.573
  O  O704  1  0.944190  0.511380  0.975640  1.0  -0.5704
  O  O705  1  0.638340  0.858360  0.402050  1.0  -0.5725
  O  O706  1  0.610860  0.844710  0.308970  1.0  -0.5704
  O  O707  1  0.305000  0.191700  0.735390  1.0  -0.573
  O  O708  1  0.277520  0.178050  0.642310  1.0  -0.5687
  O  O709  1  0.553360  0.028330  0.068720  1.0  -0.5729
  O  O710  1  0.567190  0.055810  0.975640  1.0  -0.5691
  O  O711  1  0.220030  0.361660  0.402050  1.0  -0.5735
  O  O712  1  0.233860  0.389140  0.308970  1.0  -0.5691
  O  O713  1  0.886690  0.695000  0.735390  1.0  -0.5729
  O  O714  1  0.900520  0.722480  0.642310  1.0  -0.5709
  O  O715  1  0.474970  0.446640  0.068720  1.0  -0.5736
  O  O716  1  0.488620  0.432810  0.975640  1.0  -0.5681
  O  O717  1  0.141640  0.779970  0.402050  1.0  -0.5736
  O  O718  1  0.155290  0.766140  0.308970  1.0  -0.5681
  O  O719  1  0.808300  0.113310  0.735390  1.0  -0.5736
  O  O720  1  0.821950  0.099480  0.642310  1.0  -0.5681
  O  O721  1  0.474970  0.028330  0.068720  1.0  -0.5737
  O  O722  1  0.488620  0.055810  0.975640  1.0  -0.5701
  O  O723  1  0.141640  0.361660  0.402050  1.0  -0.5732
  O  O724  1  0.155290  0.389140  0.308970  1.0  -0.5701
  O  O725  1  0.808300  0.695000  0.735390  1.0  -0.5737
  O  O726  1  0.821950  0.722480  0.642310  1.0  -0.5687
  O  O727  1  0.971670  0.446640  0.068720  1.0  -0.5719
  O  O728  1  0.944190  0.432810  0.975640  1.0  -0.5685
  O  O729  1  0.638340  0.779970  0.402050  1.0  -0.5724
  O  O730  1  0.610860  0.766140  0.308970  1.0  -0.5685
  O  O731  1  0.305000  0.113310  0.735390  1.0  -0.5719
  O  O732  1  0.277520  0.099480  0.642310  1.0  -0.5705
  O  O733  1  0.553360  0.525030  0.068720  1.0  -0.5731
  O  O734  1  0.567190  0.511380  0.975640  1.0  -0.5687
  O  O735  1  0.220030  0.858360  0.402050  1.0  -0.5731
  O  O736  1  0.233860  0.844710  0.308970  1.0  -0.5687
  O  O737  1  0.886690  0.191700  0.735390  1.0  -0.5731
  O  O738  1  0.900520  0.178050  0.642310  1.0  -0.5687
  O  O739  1  0.028330  0.474970  0.931280  1.0  -0.5739
  O  O740  1  0.055810  0.488620  0.024360  1.0  -0.5695
  O  O741  1  0.695000  0.808300  0.264610  1.0  -0.5739
  O  O742  1  0.722480  0.821950  0.357690  1.0  -0.5678
  O  O743  1  0.361660  0.141640  0.597950  1.0  -0.5743
  O  O744  1  0.389140  0.155290  0.691030  1.0  -0.5695
  O  O745  1  0.446640  0.971670  0.931280  1.0  -0.5743
  O  O746  1  0.432810  0.944190  0.024360  1.0  -0.5688
  O  O747  1  0.113310  0.305000  0.264610  1.0  -0.5743
  O  O748  1  0.099480  0.277520  0.357690  1.0  -0.571
  O  O749  1  0.779970  0.638340  0.597950  1.0  -0.5742
  O  O750  1  0.766140  0.610860  0.691030  1.0  -0.5688
  O  O751  1  0.525030  0.553360  0.931280  1.0  -0.5739
  O  O752  1  0.511380  0.567190  0.024360  1.0  -0.5684
  O  O753  1  0.191700  0.886690  0.264610  1.0  -0.5739
  O  O754  1  0.178050  0.900520  0.357690  1.0  -0.5684
  O  O755  1  0.858360  0.220030  0.597950  1.0  -0.5739
  O  O756  1  0.844710  0.233860  0.691030  1.0  -0.5684
  O  O757  1  0.530870  0.765440  0.955230  1.0  -0.2852
  O  O758  1  0.197540  0.098770  0.288560  1.0  -0.2852
  O  O759  1  0.864200  0.432100  0.621900  1.0  -0.2852
  O  O760  1  0.234560  0.765440  0.955230  1.0  -0.2854
  O  O761  1  0.901230  0.098770  0.288560  1.0  -0.2854
  O  O762  1  0.567900  0.432100  0.621900  1.0  -0.2849
  O  O763  1  0.234560  0.469130  0.955230  1.0  -0.2843
  O  O764  1  0.901230  0.802460  0.288560  1.0  -0.2843
  O  O765  1  0.567900  0.135800  0.621900  1.0  -0.2843
  O  O766  1  0.765430  0.530870  0.044770  1.0  -0.2829
  O  O767  1  0.432100  0.864200  0.378100  1.0  -0.2829
  O  O768  1  0.098770  0.197540  0.711440  1.0  -0.2829
  O  O769  1  0.765440  0.234560  0.044770  1.0  -0.2833
  O  O770  1  0.432100  0.567900  0.378100  1.0  -0.2828
  O  O771  1  0.098770  0.901230  0.711440  1.0  -0.2833
  O  O772  1  0.469130  0.234560  0.044770  1.0  -0.2828
  O  O773  1  0.135800  0.567900  0.378100  1.0  -0.2828
  O  O774  1  0.802460  0.901230  0.711440  1.0  -0.2828
