# generated using pymatgen
data_CuH15C22O5
_symmetry_space_group_name_H-M   'P 1'
_cell_length_a   35.83730000
_cell_length_b   35.83730000
_cell_length_c   15.13430000
_cell_angle_alpha   90.00000000
_cell_angle_beta   90.00000000
_cell_angle_gamma   120.00000000
_symmetry_Int_Tables_number   1
_chemical_formula_structural   CuH15C22O5
_chemical_formula_sum   'Cu18 H270 C396 O90'
_cell_volume   16833.07795786
_cell_formula_units_Z   18
loop_
 _symmetry_equiv_pos_site_id
 _symmetry_equiv_pos_as_xyz
  1  'x, y, z'
loop_
 _atom_site_type_symbol
 _atom_site_label
 _atom_site_symmetry_multiplicity
 _atom_site_fract_x
 _atom_site_fract_y
 _atom_site_fract_z
 _atom_site_occupancy
 _atom_site_charge
  Cu  Cu1  1  0.503310  0.006620  0.414050  1.0  0.9013
  Cu  Cu2  1  0.169980  0.339950  0.747380  1.0  0.9013
  Cu  Cu3  1  0.836640  0.673290  0.080720  1.0  0.9017
  Cu  Cu4  1  0.993380  0.496690  0.414050  1.0  0.9022
  Cu  Cu5  1  0.660050  0.830020  0.747380  1.0  0.9022
  Cu  Cu6  1  0.326710  0.163360  0.080720  1.0  0.9026
  Cu  Cu7  1  0.503310  0.496690  0.414050  1.0  0.9017
  Cu  Cu8  1  0.169980  0.830020  0.747380  1.0  0.9016
  Cu  Cu9  1  0.836640  0.163360  0.080720  1.0  0.9012
  Cu  Cu10  1  0.006620  0.503310  0.585950  1.0  0.8999
  Cu  Cu11  1  0.673290  0.836640  0.919280  1.0  0.9003
  Cu  Cu12  1  0.339950  0.169980  0.252620  1.0  0.8999
  Cu  Cu13  1  0.496690  0.993380  0.585950  1.0  0.8998
  Cu  Cu14  1  0.163360  0.326710  0.919280  1.0  0.9002
  Cu  Cu15  1  0.830020  0.660050  0.252620  1.0  0.8998
  Cu  Cu16  1  0.496690  0.503310  0.585950  1.0  0.9012
  Cu  Cu17  1  0.163360  0.836640  0.919280  1.0  0.9007
  Cu  Cu18  1  0.830020  0.169980  0.252620  1.0  0.9011
  H  H19  1  0.641200  0.106000  0.399400  1.0  0.0948
  H  H20  1  0.712900  0.153700  0.424500  1.0  0.0876
  H  H21  1  0.696200  0.131300  0.679800  1.0  0.1099
  H  H22  1  0.623500  0.085800  0.658100  1.0  0.1224
  H  H23  1  0.763600  0.125300  0.633600  1.0  0.1206
  H  H24  1  0.770800  0.272900  0.599100  1.0  0.0942
  H  H25  1  0.745200  0.298500  0.482400  1.0  0.1333
  H  H26  1  0.307870  0.439330  0.732730  1.0  0.0948
  H  H27  1  0.379570  0.487030  0.757830  1.0  0.0876
  H  H28  1  0.362870  0.464630  0.013130  1.0  0.11
  H  H29  1  0.290170  0.419130  0.991430  1.0  0.1224
  H  H30  1  0.430270  0.458630  0.966930  1.0  0.1207
  H  H31  1  0.437470  0.606230  0.932430  1.0  0.0942
  H  H32  1  0.411870  0.631830  0.815730  1.0  0.1333
  H  H33  1  0.974530  0.772670  0.066070  1.0  0.0962
  H  H34  1  0.046230  0.820370  0.091170  1.0  0.0875
  H  H35  1  0.029530  0.797970  0.346470  1.0  0.11
  H  H36  1  0.956830  0.752470  0.324770  1.0  0.1231
  H  H37  1  0.096930  0.791970  0.300270  1.0  0.1206
  H  H38  1  0.104130  0.939570  0.265770  1.0  0.0942
  H  H39  1  0.078530  0.965170  0.149070  1.0  0.1322
  H  H40  1  0.894000  0.535200  0.399400  1.0  0.0968
  H  H41  1  0.846300  0.559200  0.424500  1.0  0.0875
  H  H42  1  0.868700  0.564900  0.679800  1.0  0.1097
  H  H43  1  0.914200  0.537700  0.658100  1.0  0.1227
  H  H44  1  0.874700  0.638300  0.633600  1.0  0.1198
  H  H45  1  0.727100  0.497900  0.599100  1.0  0.0969
  H  H46  1  0.701500  0.446700  0.482400  1.0  0.1303
  H  H47  1  0.560670  0.868530  0.732730  1.0  0.0968
  H  H48  1  0.512970  0.892530  0.757830  1.0  0.0875
  H  H49  1  0.535370  0.898230  0.013130  1.0  0.1096
  H  H50  1  0.580870  0.871030  0.991430  1.0  0.1227
  H  H51  1  0.541370  0.971630  0.966930  1.0  0.1192
  H  H52  1  0.393770  0.831230  0.932430  1.0  0.0969
  H  H53  1  0.368170  0.780030  0.815730  1.0  0.1303
  H  H54  1  0.227330  0.201870  0.066070  1.0  0.095
  H  H55  1  0.179630  0.225870  0.091170  1.0  0.0874
  H  H56  1  0.202030  0.231570  0.346470  1.0  0.1108
  H  H57  1  0.247530  0.204370  0.324770  1.0  0.1221
  H  H58  1  0.208030  0.304970  0.300270  1.0  0.1198
  H  H59  1  0.060430  0.164570  0.265770  1.0  0.0948
  H  H60  1  0.034830  0.113370  0.149070  1.0  0.1312
  H  H61  1  0.464800  0.358800  0.399400  1.0  0.095
  H  H62  1  0.440800  0.287100  0.424500  1.0  0.0876
  H  H63  1  0.435100  0.303800  0.679800  1.0  0.1103
  H  H64  1  0.462300  0.376500  0.658100  1.0  0.122
  H  H65  1  0.361700  0.236400  0.633600  1.0  0.1189
  H  H66  1  0.502100  0.229200  0.599100  1.0  0.0944
  H  H67  1  0.553300  0.254800  0.482400  1.0  0.1328
  H  H68  1  0.131470  0.692130  0.732730  1.0  0.095
  H  H69  1  0.107470  0.620430  0.757830  1.0  0.0876
  H  H70  1  0.101770  0.637130  0.013130  1.0  0.1103
  H  H71  1  0.128970  0.709830  0.991430  1.0  0.122
  H  H72  1  0.028370  0.569730  0.966930  1.0  0.1194
  H  H73  1  0.168770  0.562530  0.932430  1.0  0.0944
  H  H74  1  0.219970  0.588130  0.815730  1.0  0.1328
  H  H75  1  0.798130  0.025470  0.066070  1.0  0.095
  H  H76  1  0.774130  0.953770  0.091170  1.0  0.0876
  H  H77  1  0.768430  0.970470  0.346470  1.0  0.1093
  H  H78  1  0.795630  0.043170  0.324770  1.0  0.1221
  H  H79  1  0.695030  0.903070  0.300270  1.0  0.1188
  H  H80  1  0.835430  0.895870  0.265770  1.0  0.0963
  H  H81  1  0.886630  0.921470  0.149070  1.0  0.1323
  H  H82  1  0.106000  0.641200  0.600600  1.0  0.0952
  H  H83  1  0.153700  0.712900  0.575500  1.0  0.0871
  H  H84  1  0.131300  0.696200  0.320200  1.0  0.1093
  H  H85  1  0.085800  0.623500  0.341900  1.0  0.1218
  H  H86  1  0.125300  0.763600  0.366400  1.0  0.1199
  H  H87  1  0.272900  0.770800  0.400900  1.0  0.0939
  H  H88  1  0.298500  0.745200  0.517600  1.0  0.134
  H  H89  1  0.772670  0.974530  0.933930  1.0  0.0969
  H  H90  1  0.820370  0.046230  0.908830  1.0  0.087
  H  H91  1  0.797970  0.029530  0.653530  1.0  0.1094
  H  H92  1  0.752470  0.956830  0.675230  1.0  0.1223
  H  H93  1  0.791970  0.096930  0.699730  1.0  0.1199
  H  H94  1  0.939570  0.104130  0.734230  1.0  0.094
  H  H95  1  0.965170  0.078530  0.850930  1.0  0.1326
  H  H96  1  0.439330  0.307870  0.267270  1.0  0.0952
  H  H97  1  0.487030  0.379570  0.242170  1.0  0.0871
  H  H98  1  0.464630  0.362870  0.986870  1.0  0.1094
  H  H99  1  0.419130  0.290170  0.008570  1.0  0.1218
  H  H100  1  0.458630  0.430270  0.033070  1.0  0.12
  H  H101  1  0.606230  0.437470  0.067570  1.0  0.094
  H  H102  1  0.631830  0.411870  0.184270  1.0  0.134
  H  H103  1  0.535200  0.894000  0.600600  1.0  0.097
  H  H104  1  0.559200  0.846300  0.575500  1.0  0.0871
  H  H105  1  0.564900  0.868700  0.320200  1.0  0.1098
  H  H106  1  0.537700  0.914200  0.341900  1.0  0.1227
  H  H107  1  0.638300  0.874700  0.366400  1.0  0.1214
  H  H108  1  0.497900  0.727100  0.400900  1.0  0.0949
  H  H109  1  0.446700  0.701500  0.517600  1.0  0.1337
  H  H110  1  0.201870  0.227330  0.933930  1.0  0.0949
  H  H111  1  0.225870  0.179630  0.908830  1.0  0.087
  H  H112  1  0.231570  0.202030  0.653530  1.0  0.1106
  H  H113  1  0.204370  0.247530  0.675230  1.0  0.1221
  H  H114  1  0.304970  0.208030  0.699730  1.0  0.1214
  H  H115  1  0.164570  0.060430  0.734230  1.0  0.0928
  H  H116  1  0.113370  0.034830  0.850930  1.0  0.1346
  H  H117  1  0.868530  0.560670  0.267270  1.0  0.097
  H  H118  1  0.892530  0.512970  0.242170  1.0  0.0871
  H  H119  1  0.898230  0.535370  0.986870  1.0  0.1098
  H  H120  1  0.871030  0.580870  0.008570  1.0  0.1227
  H  H121  1  0.971630  0.541370  0.033070  1.0  0.121
  H  H122  1  0.831230  0.393770  0.067570  1.0  0.0949
  H  H123  1  0.780030  0.368170  0.184270  1.0  0.1337
  H  H124  1  0.358800  0.464800  0.600600  1.0  0.0949
  H  H125  1  0.287100  0.440800  0.575500  1.0  0.0872
  H  H126  1  0.303800  0.435100  0.320200  1.0  0.1107
  H  H127  1  0.376500  0.462300  0.341900  1.0  0.1221
  H  H128  1  0.236400  0.361700  0.366400  1.0  0.12
  H  H129  1  0.229200  0.502100  0.400900  1.0  0.0936
  H  H130  1  0.254800  0.553300  0.517600  1.0  0.132
  H  H131  1  0.025470  0.798130  0.933930  1.0  0.0949
  H  H132  1  0.953770  0.774130  0.908830  1.0  0.0871
  H  H133  1  0.970470  0.768430  0.653530  1.0  0.1098
  H  H134  1  0.043170  0.795630  0.675230  1.0  0.1221
  H  H135  1  0.903070  0.695030  0.699730  1.0  0.1199
  H  H136  1  0.895870  0.835430  0.734230  1.0  0.0961
  H  H137  1  0.921470  0.886630  0.850930  1.0  0.1324
  H  H138  1  0.692130  0.131470  0.267270  1.0  0.0949
  H  H139  1  0.620430  0.107470  0.242170  1.0  0.0872
  H  H140  1  0.637130  0.101770  0.986870  1.0  0.1107
  H  H141  1  0.709830  0.128970  0.008570  1.0  0.1221
  H  H142  1  0.569730  0.028370  0.033070  1.0  0.1206
  H  H143  1  0.562530  0.168770  0.067570  1.0  0.0936
  H  H144  1  0.588130  0.219970  0.184270  1.0  0.132
  H  H145  1  0.358800  0.894000  0.600600  1.0  0.095
  H  H146  1  0.287100  0.846300  0.575500  1.0  0.087
  H  H147  1  0.303800  0.868700  0.320200  1.0  0.1096
  H  H148  1  0.376500  0.914200  0.341900  1.0  0.1223
  H  H149  1  0.236400  0.874700  0.366400  1.0  0.1203
  H  H150  1  0.229200  0.727100  0.400900  1.0  0.0937
  H  H151  1  0.254800  0.701500  0.517600  1.0  0.1355
  H  H152  1  0.025470  0.227330  0.933930  1.0  0.0968
  H  H153  1  0.953770  0.179630  0.908830  1.0  0.0869
  H  H154  1  0.970470  0.202030  0.653530  1.0  0.1097
  H  H155  1  0.043170  0.247530  0.675230  1.0  0.1228
  H  H156  1  0.903070  0.208030  0.699730  1.0  0.1204
  H  H157  1  0.895870  0.060430  0.734230  1.0  0.0937
  H  H158  1  0.921470  0.034830  0.850930  1.0  0.1333
  H  H159  1  0.692130  0.560670  0.267270  1.0  0.095
  H  H160  1  0.620430  0.512970  0.242170  1.0  0.087
  H  H161  1  0.637130  0.535370  0.986870  1.0  0.1097
  H  H162  1  0.709830  0.580870  0.008570  1.0  0.1223
  H  H163  1  0.569730  0.541370  0.033070  1.0  0.1204
  H  H164  1  0.562530  0.393770  0.067570  1.0  0.0937
  H  H165  1  0.588130  0.368170  0.184270  1.0  0.1355
  H  H166  1  0.106000  0.464800  0.600600  1.0  0.0971
  H  H167  1  0.153700  0.440800  0.575500  1.0  0.0874
  H  H168  1  0.131300  0.435100  0.320200  1.0  0.1101
  H  H169  1  0.085800  0.462300  0.341900  1.0  0.1227
  H  H170  1  0.125300  0.361700  0.366400  1.0  0.1194
  H  H171  1  0.272900  0.502100  0.400900  1.0  0.0953
  H  H172  1  0.298500  0.553300  0.517600  1.0  0.1307
  H  H173  1  0.772670  0.798130  0.933930  1.0  0.0951
  H  H174  1  0.820370  0.774130  0.908830  1.0  0.0873
  H  H175  1  0.797970  0.768430  0.653530  1.0  0.1108
  H  H176  1  0.752470  0.795630  0.675230  1.0  0.1222
  H  H177  1  0.791970  0.695030  0.699730  1.0  0.1195
  H  H178  1  0.939570  0.835430  0.734230  1.0  0.0922
  H  H179  1  0.965170  0.886630  0.850930  1.0  0.1314
  H  H180  1  0.439330  0.131470  0.267270  1.0  0.0971
  H  H181  1  0.487030  0.107470  0.242170  1.0  0.0874
  H  H182  1  0.464630  0.101770  0.986870  1.0  0.11
  H  H183  1  0.419130  0.128970  0.008570  1.0  0.1227
  H  H184  1  0.458630  0.028370  0.033070  1.0  0.1191
  H  H185  1  0.606230  0.168770  0.067570  1.0  0.0953
  H  H186  1  0.631830  0.219970  0.184270  1.0  0.1307
  H  H187  1  0.535200  0.641200  0.600600  1.0  0.0949
  H  H188  1  0.559200  0.712900  0.575500  1.0  0.0873
  H  H189  1  0.564900  0.696200  0.320200  1.0  0.1102
  H  H190  1  0.537700  0.623500  0.341900  1.0  0.1216
  H  H191  1  0.638300  0.763600  0.366400  1.0  0.1189
  H  H192  1  0.497900  0.770800  0.400900  1.0  0.0939
  H  H193  1  0.446700  0.745200  0.517600  1.0  0.1326
  H  H194  1  0.201870  0.974530  0.933930  1.0  0.0949
  H  H195  1  0.225870  0.046230  0.908830  1.0  0.0872
  H  H196  1  0.231570  0.029530  0.653530  1.0  0.1094
  H  H197  1  0.204370  0.956830  0.675230  1.0  0.1216
  H  H198  1  0.304970  0.096930  0.699730  1.0  0.1188
  H  H199  1  0.164570  0.104130  0.734230  1.0  0.0959
  H  H200  1  0.113370  0.078530  0.850930  1.0  0.1332
  H  H201  1  0.868530  0.307870  0.267270  1.0  0.0949
  H  H202  1  0.892530  0.379570  0.242170  1.0  0.0873
  H  H203  1  0.898230  0.362870  0.986870  1.0  0.1102
  H  H204  1  0.871030  0.290170  0.008570  1.0  0.1216
  H  H205  1  0.971630  0.430270  0.033070  1.0  0.1195
  H  H206  1  0.831230  0.437470  0.067570  1.0  0.0939
  H  H207  1  0.780030  0.411870  0.184270  1.0  0.1326
  H  H208  1  0.894000  0.358800  0.399400  1.0  0.0946
  H  H209  1  0.846300  0.287100  0.424500  1.0  0.0876
  H  H210  1  0.868700  0.303800  0.679800  1.0  0.109
  H  H211  1  0.914200  0.376500  0.658100  1.0  0.1219
  H  H212  1  0.874700  0.236400  0.633600  1.0  0.1202
  H  H213  1  0.727100  0.229200  0.599100  1.0  0.0945
  H  H214  1  0.701500  0.254800  0.482400  1.0  0.1319
  H  H215  1  0.560670  0.692130  0.732730  1.0  0.0946
  H  H216  1  0.512970  0.620430  0.757830  1.0  0.0876
  H  H217  1  0.535370  0.637130  0.013130  1.0  0.1091
  H  H218  1  0.580870  0.709830  0.991430  1.0  0.1219
  H  H219  1  0.541370  0.569730  0.966930  1.0  0.1203
  H  H220  1  0.393770  0.562530  0.932430  1.0  0.0945
  H  H221  1  0.368170  0.588130  0.815730  1.0  0.1319
  H  H222  1  0.227330  0.025470  0.066070  1.0  0.0962
  H  H223  1  0.179630  0.953770  0.091170  1.0  0.0875
  H  H224  1  0.202030  0.970470  0.346470  1.0  0.1091
  H  H225  1  0.247530  0.043170  0.324770  1.0  0.1225
  H  H226  1  0.208030  0.903070  0.300270  1.0  0.1203
  H  H227  1  0.060430  0.895870  0.265770  1.0  0.0945
  H  H228  1  0.034830  0.921470  0.149070  1.0  0.1313
  H  H229  1  0.464800  0.106000  0.399400  1.0  0.0967
  H  H230  1  0.440800  0.153700  0.424500  1.0  0.0874
  H  H231  1  0.435100  0.131300  0.679800  1.0  0.1095
  H  H232  1  0.462300  0.085800  0.658100  1.0  0.1231
  H  H233  1  0.361700  0.125300  0.633600  1.0  0.1213
  H  H234  1  0.502100  0.272900  0.599100  1.0  0.0965
  H  H235  1  0.553300  0.298500  0.482400  1.0  0.1345
  H  H236  1  0.131470  0.439330  0.732730  1.0  0.0967
  H  H237  1  0.107470  0.487030  0.757830  1.0  0.0874
  H  H238  1  0.101770  0.464630  0.013130  1.0  0.1094
  H  H239  1  0.128970  0.419130  0.991430  1.0  0.1231
  H  H240  1  0.028370  0.458630  0.966930  1.0  0.1208
  H  H241  1  0.168770  0.606230  0.932430  1.0  0.0965
  H  H242  1  0.219970  0.631830  0.815730  1.0  0.1345
  H  H243  1  0.798130  0.772670  0.066070  1.0  0.095
  H  H244  1  0.774130  0.820370  0.091170  1.0  0.0872
  H  H245  1  0.768430  0.797970  0.346470  1.0  0.1106
  H  H246  1  0.795630  0.752470  0.324770  1.0  0.1226
  H  H247  1  0.695030  0.791970  0.300270  1.0  0.1213
  H  H248  1  0.835430  0.939570  0.265770  1.0  0.0946
  H  H249  1  0.886630  0.965170  0.149070  1.0  0.1355
  H  H250  1  0.641200  0.535200  0.399400  1.0  0.095
  H  H251  1  0.712900  0.559200  0.424500  1.0  0.0876
  H  H252  1  0.696200  0.564900  0.679800  1.0  0.1111
  H  H253  1  0.623500  0.537700  0.658100  1.0  0.1222
  H  H254  1  0.763600  0.638300  0.633600  1.0  0.1197
  H  H255  1  0.770800  0.497900  0.599100  1.0  0.0924
  H  H256  1  0.745200  0.446700  0.482400  1.0  0.1298
  H  H257  1  0.307870  0.868530  0.732730  1.0  0.095
  H  H258  1  0.379570  0.892530  0.757830  1.0  0.0876
  H  H259  1  0.362870  0.898230  0.013130  1.0  0.1111
  H  H260  1  0.290170  0.871030  0.991430  1.0  0.1223
  H  H261  1  0.430270  0.971630  0.966930  1.0  0.1202
  H  H262  1  0.437470  0.831230  0.932430  1.0  0.0924
  H  H263  1  0.411870  0.780030  0.815730  1.0  0.1298
  H  H264  1  0.974530  0.201870  0.066070  1.0  0.095
  H  H265  1  0.046230  0.225870  0.091170  1.0  0.0876
  H  H266  1  0.029530  0.231570  0.346470  1.0  0.1099
  H  H267  1  0.956830  0.204370  0.324770  1.0  0.1223
  H  H268  1  0.096930  0.304970  0.300270  1.0  0.1197
  H  H269  1  0.104130  0.164570  0.265770  1.0  0.0951
  H  H270  1  0.078530  0.113370  0.149070  1.0  0.1298
  H  H271  1  0.714100  0.285900  0.563700  1.0  0.1319
  H  H272  1  0.380770  0.619230  0.897030  1.0  0.1319
  H  H273  1  0.047430  0.952570  0.230370  1.0  0.1293
  H  H274  1  0.714100  0.428200  0.563700  1.0  0.1294
  H  H275  1  0.380770  0.761530  0.897030  1.0  0.1294
  H  H276  1  0.047430  0.094870  0.230370  1.0  0.1279
  H  H277  1  0.571800  0.285900  0.563700  1.0  0.13
  H  H278  1  0.238470  0.619230  0.897030  1.0  0.13
  H  H279  1  0.905130  0.952570  0.230370  1.0  0.1281
  H  H280  1  0.285900  0.714100  0.436300  1.0  0.1309
  H  H281  1  0.952570  0.047430  0.769630  1.0  0.1274
  H  H282  1  0.619230  0.380770  0.102970  1.0  0.1309
  H  H283  1  0.428200  0.714100  0.436300  1.0  0.1277
  H  H284  1  0.094870  0.047430  0.769630  1.0  0.1259
  H  H285  1  0.761530  0.380770  0.102970  1.0  0.1277
  H  H286  1  0.285900  0.571800  0.436300  1.0  0.1293
  H  H287  1  0.952570  0.905130  0.769630  1.0  0.1276
  H  H288  1  0.619230  0.238470  0.102970  1.0  0.1293
  C  C289  1  0.578420  0.056970  0.508700  1.0  0.6595
  C  C290  1  0.625060  0.089070  0.523400  1.0  -0.1094
  C  C291  1  0.651830  0.110300  0.456800  1.0  -0.0714
  C  C292  1  0.695410  0.138800  0.472200  1.0  -0.1277
  C  C293  1  0.712950  0.145510  0.551900  1.0  0.1064
  C  C294  1  0.685210  0.125800  0.622700  1.0  -0.174
  C  C295  1  0.641730  0.098200  0.609900  1.0  -0.0632
  C  C296  1  0.759940  0.172670  0.570000  1.0  -0.0105
  C  C297  1  0.779820  0.154210  0.617700  1.0  -0.1676
  C  C298  1  0.245090  0.390300  0.842030  1.0  0.6595
  C  C299  1  0.291730  0.422400  0.856730  1.0  -0.1094
  C  C300  1  0.318500  0.443630  0.790130  1.0  -0.0714
  C  C301  1  0.362080  0.472130  0.805530  1.0  -0.1277
  C  C302  1  0.379620  0.478840  0.885230  1.0  0.1064
  C  C303  1  0.351880  0.459130  0.956030  1.0  -0.174
  C  C304  1  0.308400  0.431530  0.943230  1.0  -0.0632
  C  C305  1  0.426610  0.506000  0.903330  1.0  -0.0105
  C  C306  1  0.446490  0.487540  0.951030  1.0  -0.1676
  C  C307  1  0.911750  0.723640  0.175370  1.0  0.6595
  C  C308  1  0.958390  0.755740  0.190070  1.0  -0.1094
  C  C309  1  0.985160  0.776970  0.123470  1.0  -0.0714
  C  C310  1  0.028740  0.805470  0.138870  1.0  -0.1277
  C  C311  1  0.046280  0.812180  0.218570  1.0  0.1064
  C  C312  1  0.018540  0.792470  0.289370  1.0  -0.174
  C  C313  1  0.975060  0.764870  0.276570  1.0  -0.0632
  C  C314  1  0.093270  0.839340  0.236670  1.0  -0.0106
  C  C315  1  0.113150  0.820880  0.284370  1.0  -0.1678
  C  C316  1  0.943030  0.521450  0.508700  1.0  0.6574
  C  C317  1  0.910930  0.535990  0.523400  1.0  -0.1095
  C  C318  1  0.889700  0.541530  0.456800  1.0  -0.0712
  C  C319  1  0.861200  0.556610  0.472200  1.0  -0.1272
  C  C320  1  0.854490  0.567440  0.551900  1.0  0.1065
  C  C321  1  0.874200  0.559410  0.622700  1.0  -0.1724
  C  C322  1  0.901800  0.543530  0.609900  1.0  -0.061
  C  C323  1  0.827330  0.587270  0.570000  1.0  -0.0098
  C  C324  1  0.845790  0.625610  0.617700  1.0  -0.1703
  C  C325  1  0.609700  0.854780  0.842030  1.0  0.6574
  C  C326  1  0.577600  0.869320  0.856730  1.0  -0.1095
  C  C327  1  0.556370  0.874860  0.790130  1.0  -0.0712
  C  C328  1  0.527870  0.889940  0.805530  1.0  -0.1272
  C  C329  1  0.521160  0.900770  0.885230  1.0  0.1065
  C  C330  1  0.540870  0.892740  0.956030  1.0  -0.1724
  C  C331  1  0.568470  0.876860  0.943230  1.0  -0.061
  C  C332  1  0.494000  0.920600  0.903330  1.0  -0.0098
  C  C333  1  0.512460  0.958940  0.951030  1.0  -0.1702
  C  C334  1  0.276360  0.188120  0.175370  1.0  0.6574
  C  C335  1  0.244260  0.202660  0.190070  1.0  -0.1095
  C  C336  1  0.223030  0.208200  0.123470  1.0  -0.0712
  C  C337  1  0.194530  0.223280  0.138870  1.0  -0.1272
  C  C338  1  0.187820  0.234110  0.218570  1.0  0.1065
  C  C339  1  0.207530  0.226080  0.289370  1.0  -0.1724
  C  C340  1  0.235130  0.210200  0.276570  1.0  -0.061
  C  C341  1  0.160660  0.253940  0.236670  1.0  -0.0098
  C  C342  1  0.179120  0.292280  0.284370  1.0  -0.1703
  C  C343  1  0.478550  0.421580  0.508700  1.0  0.6596
  C  C344  1  0.464010  0.374940  0.523400  1.0  -0.107
  C  C345  1  0.458470  0.348170  0.456800  1.0  -0.0718
  C  C346  1  0.443390  0.304590  0.472200  1.0  -0.1295
  C  C347  1  0.432560  0.287050  0.551900  1.0  0.106
  C  C348  1  0.440590  0.314790  0.622700  1.0  -0.172
  C  C349  1  0.456470  0.358270  0.609900  1.0  -0.0625
  C  C350  1  0.412730  0.240060  0.570000  1.0  -0.0114
  C  C351  1  0.374390  0.220180  0.617700  1.0  -0.1686
  C  C352  1  0.145220  0.754910  0.842030  1.0  0.6596
  C  C353  1  0.130680  0.708270  0.856730  1.0  -0.107
  C  C354  1  0.125140  0.681500  0.790130  1.0  -0.0718
  C  C355  1  0.110060  0.637920  0.805530  1.0  -0.1295
  C  C356  1  0.099230  0.620380  0.885230  1.0  0.106
  C  C357  1  0.107260  0.648120  0.956030  1.0  -0.172
  C  C358  1  0.123140  0.691600  0.943230  1.0  -0.0625
  C  C359  1  0.079400  0.573390  0.903330  1.0  -0.0114
  C  C360  1  0.041060  0.553510  0.951030  1.0  -0.1685
  C  C361  1  0.811880  0.088250  0.175370  1.0  0.6596
  C  C362  1  0.797340  0.041610  0.190070  1.0  -0.107
  C  C363  1  0.791800  0.014840  0.123470  1.0  -0.0718
  C  C364  1  0.776720  0.971260  0.138870  1.0  -0.1295
  C  C365  1  0.765890  0.953720  0.218570  1.0  0.106
  C  C366  1  0.773920  0.981460  0.289370  1.0  -0.172
  C  C367  1  0.789800  0.024940  0.276570  1.0  -0.0625
  C  C368  1  0.746060  0.906730  0.236670  1.0  -0.0114
  C  C369  1  0.707720  0.886850  0.284370  1.0  -0.1687
  C  C370  1  0.056970  0.578420  0.491300  1.0  0.6597
  C  C371  1  0.089070  0.625060  0.476600  1.0  -0.1085
  C  C372  1  0.110300  0.651830  0.543200  1.0  -0.0711
  C  C373  1  0.138800  0.695410  0.527800  1.0  -0.127
  C  C374  1  0.145510  0.712950  0.448100  1.0  0.1067
  C  C375  1  0.125800  0.685210  0.377300  1.0  -0.1705
  C  C376  1  0.098200  0.641730  0.390100  1.0  -0.0603
  C  C377  1  0.172670  0.759940  0.430000  1.0  -0.0108
  C  C378  1  0.154210  0.779820  0.382300  1.0  -0.1697
  C  C379  1  0.723640  0.911750  0.824630  1.0  0.6597
  C  C380  1  0.755740  0.958390  0.809930  1.0  -0.1085
  C  C381  1  0.776970  0.985160  0.876530  1.0  -0.0711
  C  C382  1  0.805470  0.028740  0.861130  1.0  -0.127
  C  C383  1  0.812180  0.046280  0.781430  1.0  0.1067
  C  C384  1  0.792470  0.018540  0.710630  1.0  -0.1705
  C  C385  1  0.764870  0.975060  0.723430  1.0  -0.0603
  C  C386  1  0.839340  0.093270  0.763330  1.0  -0.0108
  C  C387  1  0.820880  0.113150  0.715630  1.0  -0.1698
  C  C388  1  0.390300  0.245090  0.157970  1.0  0.6597
  C  C389  1  0.422400  0.291730  0.143270  1.0  -0.1085
  C  C390  1  0.443630  0.318500  0.209870  1.0  -0.0711
  C  C391  1  0.472130  0.362080  0.194470  1.0  -0.127
  C  C392  1  0.478840  0.379620  0.114770  1.0  0.1067
  C  C393  1  0.459130  0.351880  0.043970  1.0  -0.1705
  C  C394  1  0.431530  0.308400  0.056770  1.0  -0.0603
  C  C395  1  0.506000  0.426610  0.096670  1.0  -0.0108
  C  C396  1  0.487540  0.446490  0.048970  1.0  -0.1697
  C  C397  1  0.521450  0.943030  0.491300  1.0  0.6597
  C  C398  1  0.535990  0.910930  0.476600  1.0  -0.1093
  C  C399  1  0.541530  0.889700  0.543200  1.0  -0.0704
  C  C400  1  0.556610  0.861200  0.527800  1.0  -0.1271
  C  C401  1  0.567440  0.854490  0.448100  1.0  0.1063
  C  C402  1  0.559410  0.874200  0.377300  1.0  -0.1713
  C  C403  1  0.543530  0.901800  0.390100  1.0  -0.0623
  C  C404  1  0.587270  0.827330  0.430000  1.0  -0.0097
  C  C405  1  0.625610  0.845790  0.382300  1.0  -0.1692
  C  C406  1  0.188120  0.276360  0.824630  1.0  0.6597
  C  C407  1  0.202660  0.244260  0.809930  1.0  -0.1093
  C  C408  1  0.208200  0.223030  0.876530  1.0  -0.0704
  C  C409  1  0.223280  0.194530  0.861130  1.0  -0.1271
  C  C410  1  0.234110  0.187820  0.781430  1.0  0.1063
  C  C411  1  0.226080  0.207530  0.710630  1.0  -0.1713
  C  C412  1  0.210200  0.235130  0.723430  1.0  -0.0623
  C  C413  1  0.253940  0.160660  0.763330  1.0  -0.0097
  C  C414  1  0.292280  0.179120  0.715630  1.0  -0.1692
  C  C415  1  0.854780  0.609700  0.157970  1.0  0.6597
  C  C416  1  0.869320  0.577600  0.143270  1.0  -0.1093
  C  C417  1  0.874860  0.556370  0.209870  1.0  -0.0704
  C  C418  1  0.889940  0.527870  0.194470  1.0  -0.1271
  C  C419  1  0.900770  0.521160  0.114770  1.0  0.1063
  C  C420  1  0.892740  0.540870  0.043970  1.0  -0.1713
  C  C421  1  0.876860  0.568470  0.056770  1.0  -0.0623
  C  C422  1  0.920600  0.494000  0.096670  1.0  -0.0097
  C  C423  1  0.958940  0.512460  0.048970  1.0  -0.1691
  C  C424  1  0.421580  0.478550  0.491300  1.0  0.6575
  C  C425  1  0.374940  0.464010  0.476600  1.0  -0.1095
  C  C426  1  0.348170  0.458470  0.543200  1.0  -0.0701
  C  C427  1  0.304590  0.443390  0.527800  1.0  -0.1262
  C  C428  1  0.287050  0.432560  0.448100  1.0  0.107
  C  C429  1  0.314790  0.440590  0.377300  1.0  -0.1697
  C  C430  1  0.358270  0.456470  0.390100  1.0  -0.0621
  C  C431  1  0.240060  0.412730  0.430000  1.0  -0.0092
  C  C432  1  0.220180  0.374390  0.382300  1.0  -0.1708
  C  C433  1  0.088250  0.811880  0.824630  1.0  0.6575
  C  C434  1  0.041610  0.797340  0.809930  1.0  -0.1095
  C  C435  1  0.014840  0.791800  0.876530  1.0  -0.0701
  C  C436  1  0.971260  0.776720  0.861130  1.0  -0.1262
  C  C437  1  0.953720  0.765890  0.781430  1.0  0.107
  C  C438  1  0.981460  0.773920  0.710630  1.0  -0.1697
  C  C439  1  0.024940  0.789800  0.723430  1.0  -0.0621
  C  C440  1  0.906730  0.746060  0.763330  1.0  -0.0091
  C  C441  1  0.886850  0.707720  0.715630  1.0  -0.1709
  C  C442  1  0.754910  0.145220  0.157970  1.0  0.6575
  C  C443  1  0.708270  0.130680  0.143270  1.0  -0.1095
  C  C444  1  0.681500  0.125140  0.209870  1.0  -0.0701
  C  C445  1  0.637920  0.110060  0.194470  1.0  -0.1262
  C  C446  1  0.620380  0.099230  0.114770  1.0  0.107
  C  C447  1  0.648120  0.107260  0.043970  1.0  -0.1697
  C  C448  1  0.691600  0.123140  0.056770  1.0  -0.0621
  C  C449  1  0.573390  0.079400  0.096670  1.0  -0.0092
  C  C450  1  0.553510  0.041060  0.048970  1.0  -0.1707
  C  C451  1  0.421580  0.943030  0.491300  1.0  0.6584
  C  C452  1  0.374940  0.910930  0.476600  1.0  -0.1104
  C  C453  1  0.348170  0.889700  0.543200  1.0  -0.0701
  C  C454  1  0.304590  0.861200  0.527800  1.0  -0.1279
  C  C455  1  0.287050  0.854490  0.448100  1.0  0.1068
  C  C456  1  0.314790  0.874200  0.377300  1.0  -0.1708
  C  C457  1  0.358270  0.901800  0.390100  1.0  -0.0634
  C  C458  1  0.240060  0.827330  0.430000  1.0  -0.0099
  C  C459  1  0.220180  0.845790  0.382300  1.0  -0.1681
  C  C460  1  0.088250  0.276360  0.824630  1.0  0.6584
  C  C461  1  0.041610  0.244260  0.809930  1.0  -0.1104
  C  C462  1  0.014840  0.223030  0.876530  1.0  -0.0702
  C  C463  1  0.971260  0.194530  0.861130  1.0  -0.1279
  C  C464  1  0.953720  0.187820  0.781430  1.0  0.1068
  C  C465  1  0.981460  0.207530  0.710630  1.0  -0.1708
  C  C466  1  0.024940  0.235130  0.723430  1.0  -0.0634
  C  C467  1  0.906730  0.160660  0.763330  1.0  -0.0099
  C  C468  1  0.886850  0.179120  0.715630  1.0  -0.1682
  C  C469  1  0.754910  0.609700  0.157970  1.0  0.6584
  C  C470  1  0.708270  0.577600  0.143270  1.0  -0.1104
  C  C471  1  0.681500  0.556370  0.209870  1.0  -0.0701
  C  C472  1  0.637920  0.527870  0.194470  1.0  -0.1279
  C  C473  1  0.620380  0.521160  0.114770  1.0  0.1068
  C  C474  1  0.648120  0.540870  0.043970  1.0  -0.1708
  C  C475  1  0.691600  0.568470  0.056770  1.0  -0.0634
  C  C476  1  0.573390  0.494000  0.096670  1.0  -0.0099
  C  C477  1  0.553510  0.512460  0.048970  1.0  -0.1681
  C  C478  1  0.056970  0.478550  0.491300  1.0  0.6573
  C  C479  1  0.089070  0.464010  0.476600  1.0  -0.1122
  C  C480  1  0.110300  0.458470  0.543200  1.0  -0.0702
  C  C481  1  0.138800  0.443390  0.527800  1.0  -0.1268
  C  C482  1  0.145510  0.432560  0.448100  1.0  0.1064
  C  C483  1  0.125800  0.440590  0.377300  1.0  -0.1702
  C  C484  1  0.098200  0.456470  0.390100  1.0  -0.0618
  C  C485  1  0.172670  0.412730  0.430000  1.0  -0.0097
  C  C486  1  0.154210  0.374390  0.382300  1.0  -0.17
  C  C487  1  0.723640  0.811880  0.824630  1.0  0.6573
  C  C488  1  0.755740  0.797340  0.809930  1.0  -0.1122
  C  C489  1  0.776970  0.791800  0.876530  1.0  -0.0702
  C  C490  1  0.805470  0.776720  0.861130  1.0  -0.1268
  C  C491  1  0.812180  0.765890  0.781430  1.0  0.1064
  C  C492  1  0.792470  0.773920  0.710630  1.0  -0.1702
  C  C493  1  0.764870  0.789800  0.723430  1.0  -0.0618
  C  C494  1  0.839340  0.746060  0.763330  1.0  -0.0097
  C  C495  1  0.820880  0.707720  0.715630  1.0  -0.17
  C  C496  1  0.390300  0.145220  0.157970  1.0  0.6573
  C  C497  1  0.422400  0.130680  0.143270  1.0  -0.1122
  C  C498  1  0.443630  0.125140  0.209870  1.0  -0.0702
  C  C499  1  0.472130  0.110060  0.194470  1.0  -0.1268
  C  C500  1  0.478840  0.099230  0.114770  1.0  0.1064
  C  C501  1  0.459130  0.107260  0.043970  1.0  -0.1702
  C  C502  1  0.431530  0.123140  0.056770  1.0  -0.0618
  C  C503  1  0.506000  0.079400  0.096670  1.0  -0.0097
  C  C504  1  0.487540  0.041060  0.048970  1.0  -0.1699
  C  C505  1  0.521450  0.578420  0.491300  1.0  0.6599
  C  C506  1  0.535990  0.625060  0.476600  1.0  -0.1091
  C  C507  1  0.541530  0.651830  0.543200  1.0  -0.0708
  C  C508  1  0.556610  0.695410  0.527800  1.0  -0.1279
  C  C509  1  0.567440  0.712950  0.448100  1.0  0.1069
  C  C510  1  0.559410  0.685210  0.377300  1.0  -0.1701
  C  C511  1  0.543530  0.641730  0.390100  1.0  -0.0616
  C  C512  1  0.587270  0.759940  0.430000  1.0  -0.0095
  C  C513  1  0.625610  0.779820  0.382300  1.0  -0.1704
  C  C514  1  0.188120  0.911750  0.824630  1.0  0.6599
  C  C515  1  0.202660  0.958390  0.809930  1.0  -0.1091
  C  C516  1  0.208200  0.985160  0.876530  1.0  -0.0708
  C  C517  1  0.223280  0.028740  0.861130  1.0  -0.1279
  C  C518  1  0.234110  0.046280  0.781430  1.0  0.1069
  C  C519  1  0.226080  0.018540  0.710630  1.0  -0.1701
  C  C520  1  0.210200  0.975060  0.723430  1.0  -0.0616
  C  C521  1  0.253940  0.093270  0.763330  1.0  -0.0095
  C  C522  1  0.292280  0.113150  0.715630  1.0  -0.1705
  C  C523  1  0.854780  0.245090  0.157970  1.0  0.6599
  C  C524  1  0.869320  0.291730  0.143270  1.0  -0.1091
  C  C525  1  0.874860  0.318500  0.209870  1.0  -0.0708
  C  C526  1  0.889940  0.362080  0.194470  1.0  -0.1279
  C  C527  1  0.900770  0.379620  0.114770  1.0  0.1069
  C  C528  1  0.892740  0.351880  0.043970  1.0  -0.1701
  C  C529  1  0.876860  0.308400  0.056770  1.0  -0.0616
  C  C530  1  0.920600  0.426610  0.096670  1.0  -0.0095
  C  C531  1  0.958940  0.446490  0.048970  1.0  -0.1703
  C  C532  1  0.943030  0.421580  0.508700  1.0  0.6599
  C  C533  1  0.910930  0.374940  0.523400  1.0  -0.108
  C  C534  1  0.889700  0.348170  0.456800  1.0  -0.0717
  C  C535  1  0.861200  0.304590  0.472200  1.0  -0.13
  C  C536  1  0.854490  0.287050  0.551900  1.0  0.1063
  C  C537  1  0.874200  0.314790  0.622700  1.0  -0.1717
  C  C538  1  0.901800  0.358270  0.609900  1.0  -0.0606
  C  C539  1  0.827330  0.240060  0.570000  1.0  -0.01
  C  C540  1  0.845790  0.220180  0.617700  1.0  -0.1697
  C  C541  1  0.609700  0.754910  0.842030  1.0  0.6599
  C  C542  1  0.577600  0.708270  0.856730  1.0  -0.108
  C  C543  1  0.556370  0.681500  0.790130  1.0  -0.0717
  C  C544  1  0.527870  0.637920  0.805530  1.0  -0.13
  C  C545  1  0.521160  0.620380  0.885230  1.0  0.1063
  C  C546  1  0.540870  0.648120  0.956030  1.0  -0.1717
  C  C547  1  0.568470  0.691600  0.943230  1.0  -0.0606
  C  C548  1  0.494000  0.573390  0.903330  1.0  -0.01
  C  C549  1  0.512460  0.553510  0.951030  1.0  -0.1698
  C  C550  1  0.276360  0.088250  0.175370  1.0  0.6599
  C  C551  1  0.244260  0.041610  0.190070  1.0  -0.108
  C  C552  1  0.223030  0.014840  0.123470  1.0  -0.0717
  C  C553  1  0.194530  0.971260  0.138870  1.0  -0.13
  C  C554  1  0.187820  0.953720  0.218570  1.0  0.1063
  C  C555  1  0.207530  0.981460  0.289370  1.0  -0.1717
  C  C556  1  0.235130  0.024940  0.276570  1.0  -0.0606
  C  C557  1  0.160660  0.906730  0.236670  1.0  -0.0101
  C  C558  1  0.179120  0.886850  0.284370  1.0  -0.1698
  C  C559  1  0.478550  0.056970  0.508700  1.0  0.6582
  C  C560  1  0.464010  0.089070  0.523400  1.0  -0.1098
  C  C561  1  0.458470  0.110300  0.456800  1.0  -0.0711
  C  C562  1  0.443390  0.138800  0.472200  1.0  -0.128
  C  C563  1  0.432560  0.145510  0.551900  1.0  0.1068
  C  C564  1  0.440590  0.125800  0.622700  1.0  -0.1742
  C  C565  1  0.456470  0.098200  0.609900  1.0  -0.0619
  C  C566  1  0.412730  0.172670  0.570000  1.0  -0.0104
  C  C567  1  0.374390  0.154210  0.617700  1.0  -0.1672
  C  C568  1  0.145220  0.390300  0.842030  1.0  0.6582
  C  C569  1  0.130680  0.422400  0.856730  1.0  -0.1098
  C  C570  1  0.125140  0.443630  0.790130  1.0  -0.0711
  C  C571  1  0.110060  0.472130  0.805530  1.0  -0.128
  C  C572  1  0.099230  0.478840  0.885230  1.0  0.1068
  C  C573  1  0.107260  0.459130  0.956030  1.0  -0.1742
  C  C574  1  0.123140  0.431530  0.943230  1.0  -0.0619
  C  C575  1  0.079400  0.506000  0.903330  1.0  -0.0104
  C  C576  1  0.041060  0.487540  0.951030  1.0  -0.1672
  C  C577  1  0.811880  0.723640  0.175370  1.0  0.6582
  C  C578  1  0.797340  0.755740  0.190070  1.0  -0.1098
  C  C579  1  0.791800  0.776970  0.123470  1.0  -0.0711
  C  C580  1  0.776720  0.805470  0.138870  1.0  -0.128
  C  C581  1  0.765890  0.812180  0.218570  1.0  0.1068
  C  C582  1  0.773920  0.792470  0.289370  1.0  -0.1742
  C  C583  1  0.789800  0.764870  0.276570  1.0  -0.0619
  C  C584  1  0.746060  0.839340  0.236670  1.0  -0.0104
  C  C585  1  0.707720  0.820880  0.284370  1.0  -0.1673
  C  C586  1  0.578420  0.521450  0.508700  1.0  0.6571
  C  C587  1  0.625060  0.535990  0.523400  1.0  -0.1122
  C  C588  1  0.651830  0.541530  0.456800  1.0  -0.0717
  C  C589  1  0.695410  0.556610  0.472200  1.0  -0.1278
  C  C590  1  0.712950  0.567440  0.551900  1.0  0.1058
  C  C591  1  0.685210  0.559410  0.622700  1.0  -0.1727
  C  C592  1  0.641730  0.543530  0.609900  1.0  -0.0626
  C  C593  1  0.759940  0.587270  0.570000  1.0  -0.0101
  C  C594  1  0.779820  0.625610  0.617700  1.0  -0.1701
  C  C595  1  0.245090  0.854780  0.842030  1.0  0.6571
  C  C596  1  0.291730  0.869320  0.856730  1.0  -0.1122
  C  C597  1  0.318500  0.874860  0.790130  1.0  -0.0717
  C  C598  1  0.362080  0.889940  0.805530  1.0  -0.1278
  C  C599  1  0.379620  0.900770  0.885230  1.0  0.1058
  C  C600  1  0.351880  0.892740  0.956030  1.0  -0.1727
  C  C601  1  0.308400  0.876860  0.943230  1.0  -0.0626
  C  C602  1  0.426610  0.920600  0.903330  1.0  -0.0101
  C  C603  1  0.446490  0.958940  0.951030  1.0  -0.17
  C  C604  1  0.911750  0.188120  0.175370  1.0  0.6571
  C  C605  1  0.958390  0.202660  0.190070  1.0  -0.1122
  C  C606  1  0.985160  0.208200  0.123470  1.0  -0.0717
  C  C607  1  0.028740  0.223280  0.138870  1.0  -0.1278
  C  C608  1  0.046280  0.234110  0.218570  1.0  0.1058
  C  C609  1  0.018540  0.226080  0.289370  1.0  -0.1727
  C  C610  1  0.975060  0.210200  0.276570  1.0  -0.0626
  C  C611  1  0.093270  0.253940  0.236670  1.0  -0.0101
  C  C612  1  0.113150  0.292280  0.284370  1.0  -0.1702
  C  C613  1  0.822880  0.177120  0.642600  1.0  -0.0344
  C  C614  1  0.784290  0.215710  0.544800  1.0  0.2016
  C  C615  1  0.747600  0.252400  0.561700  1.0  0.0714
  C  C616  1  0.724900  0.275100  0.518400  1.0  -0.3146
  C  C617  1  0.489550  0.510450  0.975930  1.0  -0.0351
  C  C618  1  0.450960  0.549040  0.878130  1.0  0.2017
  C  C619  1  0.414270  0.585730  0.895030  1.0  0.0714
  C  C620  1  0.391570  0.608430  0.851730  1.0  -0.3146
  C  C621  1  0.156210  0.843790  0.309270  1.0  -0.0344
  C  C622  1  0.117620  0.882380  0.211470  1.0  0.2016
  C  C623  1  0.080930  0.919070  0.228370  1.0  0.0714
  C  C624  1  0.058230  0.941770  0.185070  1.0  -0.3146
  C  C625  1  0.822880  0.645760  0.642600  1.0  -0.0305
  C  C626  1  0.784290  0.568580  0.544800  1.0  0.2026
  C  C627  1  0.747600  0.495200  0.561700  1.0  0.0702
  C  C628  1  0.724900  0.449800  0.518400  1.0  -0.3155
  C  C629  1  0.489550  0.979090  0.975930  1.0  -0.0297
  C  C630  1  0.450960  0.901910  0.878130  1.0  0.2026
  C  C631  1  0.414270  0.828530  0.895030  1.0  0.0702
  C  C632  1  0.391570  0.783130  0.851730  1.0  -0.3155
  C  C633  1  0.156210  0.312430  0.309270  1.0  -0.0305
  C  C634  1  0.117620  0.235250  0.211470  1.0  0.2026
  C  C635  1  0.080930  0.161870  0.228370  1.0  0.0702
  C  C636  1  0.058230  0.116470  0.185070  1.0  -0.3155
  C  C637  1  0.354240  0.177120  0.642600  1.0  -0.0329
  C  C638  1  0.431420  0.215710  0.544800  1.0  0.2031
  C  C639  1  0.504800  0.252400  0.561700  1.0  0.0725
  C  C640  1  0.550200  0.275100  0.518400  1.0  -0.3143
  C  C641  1  0.020910  0.510450  0.975930  1.0  -0.0322
  C  C642  1  0.098090  0.549040  0.878130  1.0  0.203
  C  C643  1  0.171470  0.585730  0.895030  1.0  0.0725
  C  C644  1  0.216870  0.608430  0.851730  1.0  -0.3143
  C  C645  1  0.687570  0.843790  0.309270  1.0  -0.0329
  C  C646  1  0.764750  0.882380  0.211470  1.0  0.2031
  C  C647  1  0.838130  0.919070  0.228370  1.0  0.0725
  C  C648  1  0.883530  0.941770  0.185070  1.0  -0.3143
  C  C649  1  0.177120  0.822880  0.357400  1.0  -0.0341
  C  C650  1  0.215710  0.784290  0.455200  1.0  0.2003
  C  C651  1  0.252400  0.747600  0.438300  1.0  0.0724
  C  C652  1  0.275100  0.724900  0.481600  1.0  -0.3121
  C  C653  1  0.843790  0.156210  0.690730  1.0  -0.0341
  C  C654  1  0.882380  0.117620  0.788530  1.0  0.2003
  C  C655  1  0.919070  0.080930  0.771630  1.0  0.0724
  C  C656  1  0.941770  0.058230  0.814930  1.0  -0.3121
  C  C657  1  0.510450  0.489550  0.024070  1.0  -0.0345
  C  C658  1  0.549040  0.450960  0.121870  1.0  0.2004
  C  C659  1  0.585730  0.414270  0.104970  1.0  0.0724
  C  C660  1  0.608430  0.391570  0.148270  1.0  -0.3121
  C  C661  1  0.645760  0.822880  0.357400  1.0  -0.0333
  C  C662  1  0.568580  0.784290  0.455200  1.0  0.1993
  C  C663  1  0.495200  0.747600  0.438300  1.0  0.0714
  C  C664  1  0.449800  0.724900  0.481600  1.0  -0.3133
  C  C665  1  0.312430  0.156210  0.690730  1.0  -0.0333
  C  C666  1  0.235250  0.117620  0.788530  1.0  0.1993
  C  C667  1  0.161870  0.080930  0.771630  1.0  0.0714
  C  C668  1  0.116470  0.058230  0.814930  1.0  -0.3133
  C  C669  1  0.979090  0.489550  0.024070  1.0  -0.0323
  C  C670  1  0.901910  0.450960  0.121870  1.0  0.1992
  C  C671  1  0.828530  0.414270  0.104970  1.0  0.0714
  C  C672  1  0.783130  0.391570  0.148270  1.0  -0.3133
  C  C673  1  0.177120  0.354240  0.357400  1.0  -0.0305
  C  C674  1  0.215710  0.431420  0.455200  1.0  0.2
  C  C675  1  0.252400  0.504800  0.438300  1.0  0.0674
  C  C676  1  0.275100  0.550200  0.481600  1.0  -0.3154
  C  C677  1  0.843790  0.687570  0.690730  1.0  -0.0305
  C  C678  1  0.882380  0.764750  0.788530  1.0  0.2
  C  C679  1  0.919070  0.838130  0.771630  1.0  0.0675
  C  C680  1  0.941770  0.883530  0.814930  1.0  -0.3154
  C  C681  1  0.510450  0.020910  0.024070  1.0  -0.0299
  C  C682  1  0.549040  0.098090  0.121870  1.0  0.2
  C  C683  1  0.585730  0.171470  0.104970  1.0  0.0674
  C  C684  1  0.608430  0.216870  0.148270  1.0  -0.3154
  O  O685  1  0.557620  0.038400  0.580200  1.0  -0.5785
  O  O686  1  0.564010  0.050790  0.433300  1.0  -0.547
  O  O687  1  0.224290  0.371730  0.913530  1.0  -0.5785
  O  O688  1  0.230680  0.384120  0.766630  1.0  -0.547
  O  O689  1  0.890950  0.705070  0.246870  1.0  -0.5785
  O  O690  1  0.897340  0.717460  0.099970  1.0  -0.547
  O  O691  1  0.961600  0.519220  0.580200  1.0  -0.5787
  O  O692  1  0.949210  0.513220  0.433300  1.0  -0.547
  O  O693  1  0.628270  0.852550  0.913530  1.0  -0.5787
  O  O694  1  0.615880  0.846550  0.766630  1.0  -0.547
  O  O695  1  0.294930  0.185890  0.246870  1.0  -0.5787
  O  O696  1  0.282540  0.179890  0.099970  1.0  -0.547
  O  O697  1  0.480780  0.442380  0.580200  1.0  -0.5773
  O  O698  1  0.486780  0.435990  0.433300  1.0  -0.5465
  O  O699  1  0.147450  0.775710  0.913530  1.0  -0.5773
  O  O700  1  0.153450  0.769320  0.766630  1.0  -0.5465
  O  O701  1  0.814110  0.109050  0.246870  1.0  -0.5773
  O  O702  1  0.820110  0.102660  0.099970  1.0  -0.5465
  O  O703  1  0.038400  0.557620  0.419800  1.0  -0.5764
  O  O704  1  0.050790  0.564010  0.566700  1.0  -0.5461
  O  O705  1  0.705070  0.890950  0.753130  1.0  -0.5764
  O  O706  1  0.717460  0.897340  0.900030  1.0  -0.5461
  O  O707  1  0.371730  0.224290  0.086470  1.0  -0.5764
  O  O708  1  0.384120  0.230680  0.233370  1.0  -0.5461
  O  O709  1  0.519220  0.961600  0.419800  1.0  -0.5772
  O  O710  1  0.513220  0.949210  0.566700  1.0  -0.5471
  O  O711  1  0.185890  0.294930  0.753130  1.0  -0.5772
  O  O712  1  0.179890  0.282540  0.900030  1.0  -0.5471
  O  O713  1  0.852550  0.628270  0.086470  1.0  -0.5771
  O  O714  1  0.846550  0.615880  0.233370  1.0  -0.5471
  O  O715  1  0.442380  0.480780  0.419800  1.0  -0.5773
  O  O716  1  0.435990  0.486780  0.566700  1.0  -0.5467
  O  O717  1  0.109050  0.814110  0.753130  1.0  -0.5773
  O  O718  1  0.102660  0.820110  0.900030  1.0  -0.5467
  O  O719  1  0.775710  0.147450  0.086470  1.0  -0.5774
  O  O720  1  0.769320  0.153450  0.233370  1.0  -0.5467
  O  O721  1  0.442380  0.961600  0.419800  1.0  -0.5768
  O  O722  1  0.435990  0.949210  0.566700  1.0  -0.5473
  O  O723  1  0.109050  0.294930  0.753130  1.0  -0.5768
  O  O724  1  0.102660  0.282540  0.900030  1.0  -0.5473
  O  O725  1  0.775710  0.628270  0.086470  1.0  -0.5768
  O  O726  1  0.769320  0.615880  0.233370  1.0  -0.5473
  O  O727  1  0.038400  0.480780  0.419800  1.0  -0.5777
  O  O728  1  0.050790  0.486780  0.566700  1.0  -0.5461
  O  O729  1  0.705070  0.814110  0.753130  1.0  -0.5777
  O  O730  1  0.717460  0.820110  0.900030  1.0  -0.5461
  O  O731  1  0.371730  0.147450  0.086470  1.0  -0.5775
  O  O732  1  0.384120  0.153450  0.233370  1.0  -0.5461
  O  O733  1  0.519220  0.557620  0.419800  1.0  -0.5763
  O  O734  1  0.513220  0.564010  0.566700  1.0  -0.546
  O  O735  1  0.185890  0.890950  0.753130  1.0  -0.5763
  O  O736  1  0.179890  0.897340  0.900030  1.0  -0.546
  O  O737  1  0.852550  0.224290  0.086470  1.0  -0.5764
  O  O738  1  0.846550  0.230680  0.233370  1.0  -0.546
  O  O739  1  0.961600  0.442380  0.580200  1.0  -0.5778
  O  O740  1  0.949210  0.435990  0.433300  1.0  -0.5464
  O  O741  1  0.628270  0.775710  0.913530  1.0  -0.5778
  O  O742  1  0.615880  0.769320  0.766630  1.0  -0.5464
  O  O743  1  0.294930  0.109050  0.246870  1.0  -0.5778
  O  O744  1  0.282540  0.102660  0.099970  1.0  -0.5464
  O  O745  1  0.480780  0.038400  0.580200  1.0  -0.5786
  O  O746  1  0.486780  0.050790  0.433300  1.0  -0.5473
  O  O747  1  0.147450  0.371730  0.913530  1.0  -0.5785
  O  O748  1  0.153450  0.384120  0.766630  1.0  -0.5473
  O  O749  1  0.814110  0.705070  0.246870  1.0  -0.5786
  O  O750  1  0.820110  0.717460  0.099970  1.0  -0.5473
  O  O751  1  0.557620  0.519220  0.580200  1.0  -0.5793
  O  O752  1  0.564010  0.513220  0.433300  1.0  -0.5464
  O  O753  1  0.224290  0.852550  0.913530  1.0  -0.5793
  O  O754  1  0.230680  0.846550  0.766630  1.0  -0.5464
  O  O755  1  0.890950  0.185890  0.246870  1.0  -0.5793
  O  O756  1  0.897340  0.179890  0.099970  1.0  -0.5464
  O  O757  1  0.765350  0.234650  0.496900  1.0  -0.3152
  O  O758  1  0.432020  0.567980  0.830230  1.0  -0.3152
  O  O759  1  0.098680  0.901320  0.163570  1.0  -0.3154
  O  O760  1  0.765350  0.530700  0.496900  1.0  -0.3166
  O  O761  1  0.432020  0.864030  0.830230  1.0  -0.3166
  O  O762  1  0.098680  0.197370  0.163570  1.0  -0.3166
  O  O763  1  0.469300  0.234650  0.496900  1.0  -0.3156
  O  O764  1  0.135970  0.567980  0.830230  1.0  -0.3156
  O  O765  1  0.802630  0.901320  0.163570  1.0  -0.3156
  O  O766  1  0.234650  0.765350  0.503100  1.0  -0.3211
  O  O767  1  0.901320  0.098680  0.836430  1.0  -0.3213
  O  O768  1  0.567980  0.432020  0.169770  1.0  -0.3211
  O  O769  1  0.530700  0.765350  0.503100  1.0  -0.3231
  O  O770  1  0.197370  0.098680  0.836430  1.0  -0.3231
  O  O771  1  0.864030  0.432020  0.169770  1.0  -0.3231
  O  O772  1  0.234650  0.469300  0.503100  1.0  -0.3233
  O  O773  1  0.901320  0.802630  0.836430  1.0  -0.3233
  O  O774  1  0.567980  0.135970  0.169770  1.0  -0.3233
