# generated using pymatgen
data_CuH15C22O5
_symmetry_space_group_name_H-M   'P 1'
_cell_length_a   34.94430000
_cell_length_b   34.94430000
_cell_length_c   23.43600000
_cell_angle_alpha   90.00000000
_cell_angle_beta   90.00000000
_cell_angle_gamma   120.00000000
_symmetry_Int_Tables_number   1
_chemical_formula_structural   CuH15C22O5
_chemical_formula_sum   'Cu18 H270 C396 O90'
_cell_volume   24783.73811631
_cell_formula_units_Z   18
loop_
 _symmetry_equiv_pos_site_id
 _symmetry_equiv_pos_as_xyz
  1  'x, y, z'
loop_
 _atom_site_type_symbol
 _atom_site_label
 _atom_site_symmetry_multiplicity
 _atom_site_fract_x
 _atom_site_fract_y
 _atom_site_fract_z
 _atom_site_occupancy
 _atom_site_charge
  Cu  Cu1  1  0.350140  0.175070  0.718750  1.0  0.9233
  Cu  Cu2  1  0.016810  0.508400  0.052080  1.0  0.9256
  Cu  Cu3  1  0.683470  0.841740  0.385420  1.0  0.9233
  Cu  Cu4  1  0.824930  0.175070  0.718750  1.0  0.9235
  Cu  Cu5  1  0.491600  0.508400  0.052080  1.0  0.9234
  Cu  Cu6  1  0.158260  0.841740  0.385420  1.0  0.9235
  Cu  Cu7  1  0.824930  0.649860  0.718750  1.0  0.9241
  Cu  Cu8  1  0.491600  0.983190  0.052080  1.0  0.9261
  Cu  Cu9  1  0.158260  0.316530  0.385420  1.0  0.9241
  Cu  Cu10  1  0.175070  0.350140  0.281250  1.0  0.9238
  Cu  Cu11  1  0.841740  0.683470  0.614580  1.0  0.9238
  Cu  Cu12  1  0.508400  0.016810  0.947920  1.0  0.9259
  Cu  Cu13  1  0.175070  0.824930  0.281250  1.0  0.9232
  Cu  Cu14  1  0.841740  0.158260  0.614580  1.0  0.9232
  Cu  Cu15  1  0.508400  0.491600  0.947920  1.0  0.9231
  Cu  Cu16  1  0.649860  0.824930  0.281250  1.0  0.9228
  Cu  Cu17  1  0.316530  0.158260  0.614580  1.0  0.9228
  Cu  Cu18  1  0.983190  0.491600  0.947920  1.0  0.9253
  H  H19  1  0.446100  0.314000  0.698700  1.0  0.1168
  H  H20  1  0.494800  0.385600  0.671100  1.0  0.1079
  H  H21  1  0.447900  0.357600  0.511000  1.0  0.1134
  H  H22  1  0.399000  0.285200  0.538100  1.0  0.1083
  H  H23  1  0.456700  0.429300  0.523900  1.0  0.1097
  H  H24  1  0.565200  0.389700  0.561800  1.0  0.0724
  H  H25  1  0.628000  0.416900  0.646800  1.0  0.1109
  H  H26  1  0.112770  0.647330  0.032030  1.0  0.1168
  H  H27  1  0.161470  0.718930  0.004430  1.0  0.1079
  H  H28  1  0.114570  0.690930  0.844330  1.0  0.1134
  H  H29  1  0.065670  0.618530  0.871430  1.0  0.1083
  H  H30  1  0.123370  0.762630  0.857230  1.0  0.1097
  H  H31  1  0.231870  0.723030  0.895130  1.0  0.0724
  H  H32  1  0.294670  0.750230  0.980130  1.0  0.1109
  H  H33  1  0.779430  0.980670  0.365370  1.0  0.117
  H  H34  1  0.828130  0.052270  0.337770  1.0  0.1079
  H  H35  1  0.781230  0.024270  0.177670  1.0  0.1133
  H  H36  1  0.732330  0.951870  0.204770  1.0  0.1082
  H  H37  1  0.790030  0.095970  0.190570  1.0  0.1097
  H  H38  1  0.898530  0.056370  0.228470  1.0  0.0741
  H  H39  1  0.961330  0.083570  0.313470  1.0  0.1091
  H  H40  1  0.686000  0.132100  0.698700  1.0  0.117
  H  H41  1  0.614400  0.109200  0.671100  1.0  0.1076
  H  H42  1  0.642400  0.090300  0.511000  1.0  0.1135
  H  H43  1  0.714800  0.113800  0.538100  1.0  0.1099
  H  H44  1  0.570700  0.027400  0.523900  1.0  0.1107
  H  H45  1  0.610300  0.175500  0.561800  1.0  0.0687
  H  H46  1  0.583100  0.211100  0.646800  1.0  0.1079
  H  H47  1  0.352670  0.465430  0.032030  1.0  0.117
  H  H48  1  0.281070  0.442530  0.004430  1.0  0.1079
  H  H49  1  0.309070  0.423630  0.844330  1.0  0.1135
  H  H50  1  0.381470  0.447130  0.871430  1.0  0.1099
  H  H51  1  0.237370  0.360730  0.857230  1.0  0.1107
  H  H52  1  0.276970  0.508830  0.895130  1.0  0.0687
  H  H53  1  0.249770  0.544430  0.980130  1.0  0.1079
  H  H54  1  0.019330  0.798770  0.365370  1.0  0.117
  H  H55  1  0.947730  0.775870  0.337770  1.0  0.1077
  H  H56  1  0.975730  0.756970  0.177670  1.0  0.1132
  H  H57  1  0.048130  0.780470  0.204770  1.0  0.109
  H  H58  1  0.904030  0.694070  0.190570  1.0  0.1107
  H  H59  1  0.943630  0.842170  0.228470  1.0  0.0684
  H  H60  1  0.916430  0.877770  0.313470  1.0  0.1062
  H  H61  1  0.867900  0.553900  0.698700  1.0  0.1175
  H  H62  1  0.890800  0.505200  0.671100  1.0  0.1075
  H  H63  1  0.909700  0.552100  0.511000  1.0  0.1126
  H  H64  1  0.886200  0.601000  0.538100  1.0  0.1095
  H  H65  1  0.972600  0.543300  0.523900  1.0  0.1107
  H  H66  1  0.824500  0.434800  0.561800  1.0  0.0744
  H  H67  1  0.788900  0.372000  0.646800  1.0  0.1093
  H  H68  1  0.534570  0.887230  0.032030  1.0  0.1175
  H  H69  1  0.557470  0.838530  0.004430  1.0  0.1078
  H  H70  1  0.576370  0.885430  0.844330  1.0  0.1126
  H  H71  1  0.552870  0.934330  0.871430  1.0  0.1095
  H  H72  1  0.639270  0.876630  0.857230  1.0  0.1107
  H  H73  1  0.491170  0.768130  0.895130  1.0  0.0744
  H  H74  1  0.455570  0.705330  0.980130  1.0  0.1093
  H  H75  1  0.201230  0.220570  0.365370  1.0  0.1172
  H  H76  1  0.224130  0.171870  0.337770  1.0  0.1081
  H  H77  1  0.243030  0.218770  0.177670  1.0  0.1127
  H  H78  1  0.219530  0.267670  0.204770  1.0  0.1093
  H  H79  1  0.305930  0.209970  0.190570  1.0  0.1107
  H  H80  1  0.157830  0.101470  0.228470  1.0  0.073
  H  H81  1  0.122230  0.038670  0.313470  1.0  0.1103
  H  H82  1  0.314000  0.446100  0.301300  1.0  0.1169
  H  H83  1  0.385600  0.494800  0.328900  1.0  0.1079
  H  H84  1  0.357600  0.447900  0.489000  1.0  0.1136
  H  H85  1  0.285200  0.399000  0.461900  1.0  0.109
  H  H86  1  0.429300  0.456700  0.476100  1.0  0.1098
  H  H87  1  0.389700  0.565200  0.438200  1.0  0.0733
  H  H88  1  0.416900  0.628000  0.353200  1.0  0.1099
  H  H89  1  0.980670  0.779430  0.634630  1.0  0.1174
  H  H90  1  0.052270  0.828130  0.662230  1.0  0.1079
  H  H91  1  0.024270  0.781230  0.822330  1.0  0.1135
  H  H92  1  0.951870  0.732330  0.795230  1.0  0.1088
  H  H93  1  0.095970  0.790030  0.809430  1.0  0.1098
  H  H94  1  0.056370  0.898530  0.771530  1.0  0.0744
  H  H95  1  0.083570  0.961330  0.686530  1.0  0.1085
  H  H96  1  0.647330  0.112770  0.967970  1.0  0.1169
  H  H97  1  0.718930  0.161470  0.995570  1.0  0.1079
  H  H98  1  0.690930  0.114570  0.155670  1.0  0.1136
  H  H99  1  0.618530  0.065670  0.128570  1.0  0.109
  H  H100  1  0.762630  0.123370  0.142770  1.0  0.1098
  H  H101  1  0.723030  0.231870  0.104870  1.0  0.0733
  H  H102  1  0.750230  0.294670  0.019870  1.0  0.1099
  H  H103  1  0.132100  0.686000  0.301300  1.0  0.1175
  H  H104  1  0.109200  0.614400  0.328900  1.0  0.1069
  H  H105  1  0.090300  0.642400  0.489000  1.0  0.1131
  H  H106  1  0.113800  0.714800  0.461900  1.0  0.109
  H  H107  1  0.027400  0.570700  0.476100  1.0  0.1097
  H  H108  1  0.175500  0.610300  0.438200  1.0  0.0744
  H  H109  1  0.211100  0.583100  0.353200  1.0  0.1089
  H  H110  1  0.798770  0.019330  0.634630  1.0  0.1175
  H  H111  1  0.775870  0.947730  0.662230  1.0  0.1071
  H  H112  1  0.756970  0.975730  0.822330  1.0  0.1127
  H  H113  1  0.780470  0.048130  0.795230  1.0  0.1083
  H  H114  1  0.694070  0.904030  0.809430  1.0  0.1097
  H  H115  1  0.842170  0.943630  0.771530  1.0  0.0738
  H  H116  1  0.877770  0.916430  0.686530  1.0  0.1077
  H  H117  1  0.465430  0.352670  0.967970  1.0  0.1175
  H  H118  1  0.442530  0.281070  0.995570  1.0  0.1075
  H  H119  1  0.423630  0.309070  0.155670  1.0  0.1131
  H  H120  1  0.447130  0.381470  0.128570  1.0  0.109
  H  H121  1  0.360730  0.237370  0.142770  1.0  0.1097
  H  H122  1  0.508830  0.276970  0.104870  1.0  0.0744
  H  H123  1  0.544430  0.249770  0.019870  1.0  0.1089
  H  H124  1  0.553900  0.867900  0.301300  1.0  0.1173
  H  H125  1  0.505200  0.890800  0.328900  1.0  0.1072
  H  H126  1  0.552100  0.909700  0.489000  1.0  0.1127
  H  H127  1  0.601000  0.886200  0.461900  1.0  0.1094
  H  H128  1  0.543300  0.972600  0.476100  1.0  0.1103
  H  H129  1  0.434800  0.824500  0.438200  1.0  0.0694
  H  H130  1  0.372000  0.788900  0.353200  1.0  0.1048
  H  H131  1  0.220570  0.201230  0.634630  1.0  0.1168
  H  H132  1  0.171870  0.224130  0.662230  1.0  0.1078
  H  H133  1  0.218770  0.243030  0.822330  1.0  0.1128
  H  H134  1  0.267670  0.219530  0.795230  1.0  0.1096
  H  H135  1  0.209970  0.305930  0.809430  1.0  0.1103
  H  H136  1  0.101470  0.157830  0.771530  1.0  0.0674
  H  H137  1  0.038670  0.122230  0.686530  1.0  0.1072
  H  H138  1  0.887230  0.534570  0.967970  1.0  0.1172
  H  H139  1  0.838530  0.557470  0.995570  1.0  0.1078
  H  H140  1  0.885430  0.576370  0.155670  1.0  0.1127
  H  H141  1  0.934330  0.552870  0.128570  1.0  0.1094
  H  H142  1  0.876630  0.639270  0.142770  1.0  0.1103
  H  H143  1  0.768130  0.491170  0.104870  1.0  0.0694
  H  H144  1  0.705330  0.455570  0.019870  1.0  0.1048
  H  H145  1  0.553900  0.686000  0.301300  1.0  0.1167
  H  H146  1  0.505200  0.614400  0.328900  1.0  0.1078
  H  H147  1  0.552100  0.642400  0.489000  1.0  0.1136
  H  H148  1  0.601000  0.714800  0.461900  1.0  0.1086
  H  H149  1  0.543300  0.570700  0.476100  1.0  0.1097
  H  H150  1  0.434800  0.610300  0.438200  1.0  0.0733
  H  H151  1  0.372000  0.583100  0.353200  1.0  0.1096
  H  H152  1  0.220570  0.019330  0.634630  1.0  0.1174
  H  H153  1  0.171870  0.947730  0.662230  1.0  0.1078
  H  H154  1  0.218770  0.975730  0.822330  1.0  0.1135
  H  H155  1  0.267670  0.048130  0.795230  1.0  0.1083
  H  H156  1  0.209970  0.904030  0.809430  1.0  0.1097
  H  H157  1  0.101470  0.943630  0.771530  1.0  0.0745
  H  H158  1  0.038670  0.916430  0.686530  1.0  0.1081
  H  H159  1  0.887230  0.352670  0.967970  1.0  0.1167
  H  H160  1  0.838530  0.281070  0.995570  1.0  0.1078
  H  H161  1  0.885430  0.309070  0.155670  1.0  0.1136
  H  H162  1  0.934330  0.381470  0.128570  1.0  0.1086
  H  H163  1  0.876630  0.237370  0.142770  1.0  0.1097
  H  H164  1  0.768130  0.276970  0.104870  1.0  0.0733
  H  H165  1  0.705330  0.249770  0.019870  1.0  0.1096
  H  H166  1  0.314000  0.867900  0.301300  1.0  0.1174
  H  H167  1  0.385600  0.890800  0.328900  1.0  0.1072
  H  H168  1  0.357600  0.909700  0.489000  1.0  0.1132
  H  H169  1  0.285200  0.886200  0.461900  1.0  0.1093
  H  H170  1  0.429300  0.972600  0.476100  1.0  0.1099
  H  H171  1  0.389700  0.824500  0.438200  1.0  0.0711
  H  H172  1  0.416900  0.788900  0.353200  1.0  0.1005
  H  H173  1  0.980670  0.201230  0.634630  1.0  0.1174
  H  H174  1  0.052270  0.224130  0.662230  1.0  0.1075
  H  H175  1  0.024270  0.243030  0.822330  1.0  0.1129
  H  H176  1  0.951870  0.219530  0.795230  1.0  0.1086
  H  H177  1  0.095970  0.305930  0.809430  1.0  0.1099
  H  H178  1  0.056370  0.157830  0.771530  1.0  0.071
  H  H179  1  0.083570  0.122230  0.686530  1.0  0.0991
  H  H180  1  0.647330  0.534570  0.967970  1.0  0.1174
  H  H181  1  0.718930  0.557470  0.995570  1.0  0.1077
  H  H182  1  0.690930  0.576370  0.155670  1.0  0.1132
  H  H183  1  0.618530  0.552870  0.128570  1.0  0.1093
  H  H184  1  0.762630  0.639270  0.142770  1.0  0.1099
  H  H185  1  0.723030  0.491170  0.104870  1.0  0.0711
  H  H186  1  0.750230  0.455570  0.019870  1.0  0.1005
  H  H187  1  0.132100  0.446100  0.301300  1.0  0.1174
  H  H188  1  0.109200  0.494800  0.328900  1.0  0.1068
  H  H189  1  0.090300  0.447900  0.489000  1.0  0.1126
  H  H190  1  0.113800  0.399000  0.461900  1.0  0.1096
  H  H191  1  0.027400  0.456700  0.476100  1.0  0.1095
  H  H192  1  0.175500  0.565200  0.438200  1.0  0.0738
  H  H193  1  0.211100  0.628000  0.353200  1.0  0.1099
  H  H194  1  0.798770  0.779430  0.634630  1.0  0.1169
  H  H195  1  0.775870  0.828130  0.662230  1.0  0.1075
  H  H196  1  0.756970  0.781230  0.822330  1.0  0.1128
  H  H197  1  0.780470  0.732330  0.795230  1.0  0.1097
  H  H198  1  0.694070  0.790030  0.809430  1.0  0.1095
  H  H199  1  0.842170  0.898530  0.771530  1.0  0.0724
  H  H200  1  0.877770  0.961330  0.686530  1.0  0.1115
  H  H201  1  0.465430  0.112770  0.967970  1.0  0.1173
  H  H202  1  0.442530  0.161470  0.995570  1.0  0.1075
  H  H203  1  0.423630  0.114570  0.155670  1.0  0.1126
  H  H204  1  0.447130  0.065670  0.128570  1.0  0.1096
  H  H205  1  0.360730  0.123370  0.142770  1.0  0.1095
  H  H206  1  0.508830  0.231870  0.104870  1.0  0.0738
  H  H207  1  0.544430  0.294670  0.019870  1.0  0.1099
  H  H208  1  0.686000  0.553900  0.698700  1.0  0.1171
  H  H209  1  0.614400  0.505200  0.671100  1.0  0.1081
  H  H210  1  0.642400  0.552100  0.511000  1.0  0.1131
  H  H211  1  0.714800  0.601000  0.538100  1.0  0.1091
  H  H212  1  0.570700  0.543300  0.523900  1.0  0.11
  H  H213  1  0.610300  0.434800  0.561800  1.0  0.0729
  H  H214  1  0.583100  0.372000  0.646800  1.0  0.1114
  H  H215  1  0.352670  0.887230  0.032030  1.0  0.1171
  H  H216  1  0.281070  0.838530  0.004430  1.0  0.1081
  H  H217  1  0.309070  0.885430  0.844330  1.0  0.1131
  H  H218  1  0.381470  0.934330  0.871430  1.0  0.1091
  H  H219  1  0.237370  0.876630  0.857230  1.0  0.11
  H  H220  1  0.276970  0.768130  0.895130  1.0  0.0729
  H  H221  1  0.249770  0.705330  0.980130  1.0  0.1114
  H  H222  1  0.019330  0.220570  0.365370  1.0  0.1174
  H  H223  1  0.947730  0.171870  0.337770  1.0  0.1081
  H  H224  1  0.975730  0.218770  0.177670  1.0  0.1132
  H  H225  1  0.048130  0.267670  0.204770  1.0  0.1088
  H  H226  1  0.904030  0.209970  0.190570  1.0  0.11
  H  H227  1  0.943630  0.101470  0.228470  1.0  0.0744
  H  H228  1  0.916430  0.038670  0.313470  1.0  0.1089
  H  H229  1  0.867900  0.314000  0.698700  1.0  0.1171
  H  H230  1  0.890800  0.385600  0.671100  1.0  0.1074
  H  H231  1  0.909700  0.357600  0.511000  1.0  0.1133
  H  H232  1  0.886200  0.285200  0.538100  1.0  0.1093
  H  H233  1  0.972600  0.429300  0.523900  1.0  0.1098
  H  H234  1  0.824500  0.389700  0.561800  1.0  0.0724
  H  H235  1  0.788900  0.416900  0.646800  1.0  0.1103
  H  H236  1  0.534570  0.647330  0.032030  1.0  0.1171
  H  H237  1  0.557470  0.718930  0.004430  1.0  0.1077
  H  H238  1  0.576370  0.690930  0.844330  1.0  0.1133
  H  H239  1  0.552870  0.618530  0.871430  1.0  0.1093
  H  H240  1  0.639270  0.762630  0.857230  1.0  0.1098
  H  H241  1  0.491170  0.723030  0.895130  1.0  0.0724
  H  H242  1  0.455570  0.750230  0.980130  1.0  0.1103
  H  H243  1  0.201230  0.980670  0.365370  1.0  0.1171
  H  H244  1  0.224130  0.052270  0.337770  1.0  0.1075
  H  H245  1  0.243030  0.024270  0.177670  1.0  0.113
  H  H246  1  0.219530  0.951870  0.204770  1.0  0.1083
  H  H247  1  0.305930  0.095970  0.190570  1.0  0.1098
  H  H248  1  0.157830  0.056370  0.228470  1.0  0.0721
  H  H249  1  0.122230  0.083570  0.313470  1.0  0.1092
  H  H250  1  0.446100  0.132100  0.698700  1.0  0.1168
  H  H251  1  0.494800  0.109200  0.671100  1.0  0.108
  H  H252  1  0.447900  0.090300  0.511000  1.0  0.1123
  H  H253  1  0.399000  0.113800  0.538100  1.0  0.1095
  H  H254  1  0.456700  0.027400  0.523900  1.0  0.11
  H  H255  1  0.565200  0.175500  0.561800  1.0  0.0706
  H  H256  1  0.628000  0.211100  0.646800  1.0  0.1002
  H  H257  1  0.112770  0.465430  0.032030  1.0  0.1168
  H  H258  1  0.161470  0.442530  0.004430  1.0  0.1082
  H  H259  1  0.114570  0.423630  0.844330  1.0  0.1123
  H  H260  1  0.065670  0.447130  0.871430  1.0  0.1095
  H  H261  1  0.123370  0.360730  0.857230  1.0  0.11
  H  H262  1  0.231870  0.508830  0.895130  1.0  0.0706
  H  H263  1  0.294670  0.544430  0.980130  1.0  0.1002
  H  H264  1  0.779430  0.798770  0.365370  1.0  0.1167
  H  H265  1  0.828130  0.775870  0.337770  1.0  0.1085
  H  H266  1  0.781230  0.756970  0.177670  1.0  0.1124
  H  H267  1  0.732330  0.780470  0.204770  1.0  0.1095
  H  H268  1  0.790030  0.694070  0.190570  1.0  0.11
  H  H269  1  0.898530  0.842170  0.228470  1.0  0.0682
  H  H270  1  0.961330  0.877770  0.313470  1.0  0.1028
  H  H271  1  0.619300  0.380700  0.601100  1.0  0.0976
  H  H272  1  0.285970  0.714030  0.934430  1.0  0.0976
  H  H273  1  0.952630  0.047370  0.267770  1.0  0.0999
  H  H274  1  0.619300  0.238600  0.601100  1.0  0.0997
  H  H275  1  0.285970  0.571930  0.934430  1.0  0.0997
  H  H276  1  0.952630  0.905270  0.267770  1.0  0.1003
  H  H277  1  0.761400  0.380700  0.601100  1.0  0.0945
  H  H278  1  0.428070  0.714030  0.934430  1.0  0.0945
  H  H279  1  0.094730  0.047370  0.267770  1.0  0.0965
  H  H280  1  0.380700  0.619300  0.398900  1.0  0.0955
  H  H281  1  0.047370  0.952630  0.732230  1.0  0.0971
  H  H282  1  0.714030  0.285970  0.065570  1.0  0.0955
  H  H283  1  0.238600  0.619300  0.398900  1.0  0.098
  H  H284  1  0.905270  0.952630  0.732230  1.0  0.0999
  H  H285  1  0.571930  0.285970  0.065570  1.0  0.098
  H  H286  1  0.380700  0.761400  0.398900  1.0  0.0969
  H  H287  1  0.047370  0.094730  0.732230  1.0  0.0969
  H  H288  1  0.714030  0.428070  0.065570  1.0  0.0969
  C  C289  1  0.387210  0.244800  0.638560  1.0  0.6801
  C  C290  1  0.418460  0.291780  0.619970  1.0  -0.1331
  C  C291  1  0.446750  0.322590  0.661040  1.0  -0.0443
  C  C292  1  0.475300  0.365550  0.644530  1.0  -0.1337
  C  C293  1  0.475400  0.379550  0.588710  1.0  0.0598
  C  C294  1  0.447330  0.348940  0.548630  1.0  -0.1342
  C  C295  1  0.418380  0.305260  0.564700  1.0  -0.0482
  C  C296  1  0.503850  0.426450  0.570320  1.0  0.0052
  C  C297  1  0.485930  0.446210  0.535650  1.0  -0.1366
  C  C298  1  0.053880  0.578130  0.971890  1.0  0.6801
  C  C299  1  0.085130  0.625110  0.953300  1.0  -0.1331
  C  C300  1  0.113420  0.655920  0.994370  1.0  -0.0443
  C  C301  1  0.141970  0.698880  0.977860  1.0  -0.1337
  C  C302  1  0.142070  0.712880  0.922040  1.0  0.0598
  C  C303  1  0.114000  0.682270  0.881960  1.0  -0.1342
  C  C304  1  0.085050  0.638590  0.898030  1.0  -0.0482
  C  C305  1  0.170520  0.759780  0.903650  1.0  0.0052
  C  C306  1  0.152600  0.779540  0.868980  1.0  -0.1366
  C  C307  1  0.720540  0.911470  0.305230  1.0  0.6801
  C  C308  1  0.751790  0.958450  0.286640  1.0  -0.1331
  C  C309  1  0.780080  0.989260  0.327710  1.0  -0.0443
  C  C310  1  0.808630  0.032220  0.311200  1.0  -0.1337
  C  C311  1  0.808730  0.046220  0.255380  1.0  0.0598
  C  C312  1  0.780660  0.015610  0.215300  1.0  -0.1342
  C  C313  1  0.751710  0.971930  0.231370  1.0  -0.0482
  C  C314  1  0.837180  0.093120  0.236990  1.0  0.0052
  C  C315  1  0.819260  0.112880  0.202320  1.0  -0.1366
  C  C316  1  0.755200  0.142410  0.638560  1.0  0.6791
  C  C317  1  0.708220  0.126680  0.619970  1.0  -0.1345
  C  C318  1  0.677410  0.124160  0.661040  1.0  -0.045
  C  C319  1  0.634450  0.109750  0.644530  1.0  -0.1317
  C  C320  1  0.620450  0.095850  0.588710  1.0  0.0588
  C  C321  1  0.651060  0.098390  0.548630  1.0  -0.132
  C  C322  1  0.694740  0.113120  0.564700  1.0  -0.0484
  C  C323  1  0.573550  0.077400  0.570320  1.0  0.0061
  C  C324  1  0.553790  0.039720  0.535650  1.0  -0.136
  C  C325  1  0.421870  0.475740  0.971890  1.0  0.679
  C  C326  1  0.374890  0.460010  0.953300  1.0  -0.1345
  C  C327  1  0.344080  0.457490  0.994370  1.0  -0.045
  C  C328  1  0.301120  0.443080  0.977860  1.0  -0.1317
  C  C329  1  0.287120  0.429180  0.922040  1.0  0.0589
  C  C330  1  0.317730  0.431720  0.881960  1.0  -0.132
  C  C331  1  0.361410  0.446450  0.898030  1.0  -0.0484
  C  C332  1  0.240220  0.410730  0.903650  1.0  0.0061
  C  C333  1  0.220460  0.373050  0.868980  1.0  -0.136
  C  C334  1  0.088530  0.809080  0.305230  1.0  0.6791
  C  C335  1  0.041550  0.793350  0.286640  1.0  -0.1345
  C  C336  1  0.010740  0.790830  0.327710  1.0  -0.045
  C  C337  1  0.967780  0.776420  0.311200  1.0  -0.1317
  C  C338  1  0.953780  0.762520  0.255380  1.0  0.0588
  C  C339  1  0.984390  0.765060  0.215300  1.0  -0.132
  C  C340  1  0.028070  0.779790  0.231370  1.0  -0.0484
  C  C341  1  0.906880  0.744070  0.236990  1.0  0.0061
  C  C342  1  0.887120  0.706390  0.202320  1.0  -0.136
  C  C343  1  0.857590  0.612790  0.638560  1.0  0.6805
  C  C344  1  0.873320  0.581540  0.619970  1.0  -0.1332
  C  C345  1  0.875840  0.553250  0.661040  1.0  -0.0456
  C  C346  1  0.890250  0.524700  0.644530  1.0  -0.1312
  C  C347  1  0.904150  0.524600  0.588710  1.0  0.0584
  C  C348  1  0.901610  0.552670  0.548630  1.0  -0.136
  C  C349  1  0.886880  0.581620  0.564700  1.0  -0.0499
  C  C350  1  0.922600  0.496150  0.570320  1.0  0.0055
  C  C351  1  0.960280  0.514070  0.535650  1.0  -0.1313
  C  C352  1  0.524260  0.946120  0.971890  1.0  0.6806
  C  C353  1  0.539990  0.914870  0.953300  1.0  -0.1332
  C  C354  1  0.542510  0.886580  0.994370  1.0  -0.0456
  C  C355  1  0.556920  0.858030  0.977860  1.0  -0.1312
  C  C356  1  0.570820  0.857930  0.922040  1.0  0.0584
  C  C357  1  0.568280  0.886000  0.881960  1.0  -0.136
  C  C358  1  0.553550  0.914950  0.898030  1.0  -0.0499
  C  C359  1  0.589270  0.829480  0.903650  1.0  0.0055
  C  C360  1  0.626950  0.847400  0.868980  1.0  -0.1313
  C  C361  1  0.190920  0.279460  0.305230  1.0  0.6805
  C  C362  1  0.206650  0.248210  0.286640  1.0  -0.1332
  C  C363  1  0.209170  0.219920  0.327710  1.0  -0.0456
  C  C364  1  0.223580  0.191370  0.311200  1.0  -0.1312
  C  C365  1  0.237480  0.191270  0.255380  1.0  0.0584
  C  C366  1  0.234940  0.219340  0.215300  1.0  -0.136
  C  C367  1  0.220210  0.248290  0.231370  1.0  -0.0499
  C  C368  1  0.255930  0.162820  0.236990  1.0  0.0055
  C  C369  1  0.293610  0.180740  0.202320  1.0  -0.1313
  C  C370  1  0.244800  0.387210  0.361440  1.0  0.6801
  C  C371  1  0.291780  0.418460  0.380030  1.0  -0.1335
  C  C372  1  0.322590  0.446750  0.338960  1.0  -0.047
  C  C373  1  0.365550  0.475300  0.355470  1.0  -0.1316
  C  C374  1  0.379550  0.475400  0.411290  1.0  0.0586
  C  C375  1  0.348940  0.447330  0.451370  1.0  -0.1372
  C  C376  1  0.305260  0.418380  0.435300  1.0  -0.0501
  C  C377  1  0.426450  0.503850  0.429680  1.0  0.0047
  C  C378  1  0.446210  0.485930  0.464350  1.0  -0.1336
  C  C379  1  0.911470  0.720540  0.694770  1.0  0.6801
  C  C380  1  0.958450  0.751790  0.713360  1.0  -0.1335
  C  C381  1  0.989260  0.780080  0.672290  1.0  -0.047
  C  C382  1  0.032220  0.808630  0.688800  1.0  -0.1316
  C  C383  1  0.046220  0.808730  0.744620  1.0  0.0586
  C  C384  1  0.015610  0.780660  0.784700  1.0  -0.1372
  C  C385  1  0.971930  0.751710  0.768630  1.0  -0.0501
  C  C386  1  0.093120  0.837180  0.763010  1.0  0.0047
  C  C387  1  0.112880  0.819260  0.797680  1.0  -0.1336
  C  C388  1  0.578130  0.053880  0.028110  1.0  0.6801
  C  C389  1  0.625110  0.085130  0.046700  1.0  -0.1335
  C  C390  1  0.655920  0.113420  0.005630  1.0  -0.047
  C  C391  1  0.698880  0.141970  0.022140  1.0  -0.1316
  C  C392  1  0.712880  0.142070  0.077960  1.0  0.0586
  C  C393  1  0.682270  0.114000  0.118040  1.0  -0.1372
  C  C394  1  0.638590  0.085050  0.101970  1.0  -0.0501
  C  C395  1  0.759780  0.170520  0.096350  1.0  0.0047
  C  C396  1  0.779540  0.152600  0.131020  1.0  -0.1336
  C  C397  1  0.142410  0.755200  0.361440  1.0  0.6807
  C  C398  1  0.126680  0.708220  0.380030  1.0  -0.1324
  C  C399  1  0.124160  0.677410  0.338960  1.0  -0.0478
  C  C400  1  0.109750  0.634450  0.355470  1.0  -0.1331
  C  C401  1  0.095850  0.620450  0.411290  1.0  0.0597
  C  C402  1  0.098390  0.651060  0.451370  1.0  -0.1369
  C  C403  1  0.113120  0.694740  0.435300  1.0  -0.0504
  C  C404  1  0.077400  0.573550  0.429680  1.0  0.0056
  C  C405  1  0.039720  0.553790  0.464350  1.0  -0.1379
  C  C406  1  0.809080  0.088530  0.694770  1.0  0.6807
  C  C407  1  0.793350  0.041550  0.713360  1.0  -0.1324
  C  C408  1  0.790830  0.010740  0.672290  1.0  -0.0478
  C  C409  1  0.776420  0.967780  0.688800  1.0  -0.1331
  C  C410  1  0.762520  0.953780  0.744620  1.0  0.0597
  C  C411  1  0.765060  0.984390  0.784700  1.0  -0.1369
  C  C412  1  0.779790  0.028070  0.768630  1.0  -0.0504
  C  C413  1  0.744070  0.906880  0.763010  1.0  0.0056
  C  C414  1  0.706390  0.887120  0.797680  1.0  -0.1379
  C  C415  1  0.475740  0.421870  0.028110  1.0  0.6807
  C  C416  1  0.460010  0.374890  0.046700  1.0  -0.1324
  C  C417  1  0.457490  0.344080  0.005630  1.0  -0.0478
  C  C418  1  0.443080  0.301120  0.022140  1.0  -0.1331
  C  C419  1  0.429180  0.287120  0.077960  1.0  0.0597
  C  C420  1  0.431720  0.317730  0.118040  1.0  -0.1369
  C  C421  1  0.446450  0.361410  0.101970  1.0  -0.0504
  C  C422  1  0.410730  0.240220  0.096350  1.0  0.0056
  C  C423  1  0.373050  0.220460  0.131020  1.0  -0.1379
  C  C424  1  0.612790  0.857590  0.361440  1.0  0.6787
  C  C425  1  0.581540  0.873320  0.380030  1.0  -0.1342
  C  C426  1  0.553250  0.875840  0.338960  1.0  -0.048
  C  C427  1  0.524700  0.890250  0.355470  1.0  -0.131
  C  C428  1  0.524600  0.904150  0.411290  1.0  0.0592
  C  C429  1  0.552670  0.901610  0.451370  1.0  -0.1352
  C  C430  1  0.581620  0.886880  0.435300  1.0  -0.0479
  C  C431  1  0.496150  0.922600  0.429680  1.0  0.0067
  C  C432  1  0.514070  0.960280  0.464350  1.0  -0.1373
  C  C433  1  0.279460  0.190920  0.694770  1.0  0.6787
  C  C434  1  0.248210  0.206650  0.713360  1.0  -0.1342
  C  C435  1  0.219920  0.209170  0.672290  1.0  -0.048
  C  C436  1  0.191370  0.223580  0.688800  1.0  -0.131
  C  C437  1  0.191270  0.237480  0.744620  1.0  0.0592
  C  C438  1  0.219340  0.234940  0.784700  1.0  -0.1352
  C  C439  1  0.248290  0.220210  0.768630  1.0  -0.0479
  C  C440  1  0.162820  0.255930  0.763010  1.0  0.0067
  C  C441  1  0.180740  0.293610  0.797680  1.0  -0.1373
  C  C442  1  0.946120  0.524260  0.028110  1.0  0.6788
  C  C443  1  0.914870  0.539990  0.046700  1.0  -0.1343
  C  C444  1  0.886580  0.542510  0.005630  1.0  -0.048
  C  C445  1  0.858030  0.556920  0.022140  1.0  -0.131
  C  C446  1  0.857930  0.570820  0.077960  1.0  0.0592
  C  C447  1  0.886000  0.568280  0.118040  1.0  -0.1352
  C  C448  1  0.914950  0.553550  0.101970  1.0  -0.0479
  C  C449  1  0.829480  0.589270  0.096350  1.0  0.0067
  C  C450  1  0.847400  0.626950  0.131020  1.0  -0.1373
  C  C451  1  0.612790  0.755200  0.361440  1.0  0.6806
  C  C452  1  0.581540  0.708220  0.380030  1.0  -0.1327
  C  C453  1  0.553250  0.677410  0.338960  1.0  -0.0473
  C  C454  1  0.524700  0.634450  0.355470  1.0  -0.132
  C  C455  1  0.524600  0.620450  0.411290  1.0  0.0598
  C  C456  1  0.552670  0.651060  0.451370  1.0  -0.1368
  C  C457  1  0.581620  0.694740  0.435300  1.0  -0.0493
  C  C458  1  0.496150  0.573550  0.429680  1.0  0.0065
  C  C459  1  0.514070  0.553790  0.464350  1.0  -0.1358
  C  C460  1  0.279460  0.088530  0.694770  1.0  0.6806
  C  C461  1  0.248210  0.041550  0.713360  1.0  -0.1327
  C  C462  1  0.219920  0.010740  0.672290  1.0  -0.0473
  C  C463  1  0.191370  0.967780  0.688800  1.0  -0.132
  C  C464  1  0.191270  0.953780  0.744620  1.0  0.0598
  C  C465  1  0.219340  0.984390  0.784700  1.0  -0.1368
  C  C466  1  0.248290  0.028070  0.768630  1.0  -0.0493
  C  C467  1  0.162820  0.906880  0.763010  1.0  0.0065
  C  C468  1  0.180740  0.887120  0.797680  1.0  -0.1358
  C  C469  1  0.946120  0.421870  0.028110  1.0  0.6806
  C  C470  1  0.914870  0.374890  0.046700  1.0  -0.1327
  C  C471  1  0.886580  0.344080  0.005630  1.0  -0.0473
  C  C472  1  0.858030  0.301120  0.022140  1.0  -0.132
  C  C473  1  0.857930  0.287120  0.077960  1.0  0.0598
  C  C474  1  0.886000  0.317730  0.118040  1.0  -0.1368
  C  C475  1  0.914950  0.361410  0.101970  1.0  -0.0493
  C  C476  1  0.829480  0.240220  0.096350  1.0  0.0065
  C  C477  1  0.847400  0.220460  0.131020  1.0  -0.1358
  C  C478  1  0.244800  0.857590  0.361440  1.0  0.6799
  C  C479  1  0.291780  0.873320  0.380030  1.0  -0.134
  C  C480  1  0.322590  0.875840  0.338960  1.0  -0.0465
  C  C481  1  0.365550  0.890250  0.355470  1.0  -0.1314
  C  C482  1  0.379550  0.904150  0.411290  1.0  0.0588
  C  C483  1  0.348940  0.901610  0.451370  1.0  -0.1343
  C  C484  1  0.305260  0.886880  0.435300  1.0  -0.0487
  C  C485  1  0.426450  0.922600  0.429680  1.0  0.006
  C  C486  1  0.446210  0.960280  0.464350  1.0  -0.1391
  C  C487  1  0.911470  0.190920  0.694770  1.0  0.6799
  C  C488  1  0.958450  0.206650  0.713360  1.0  -0.134
  C  C489  1  0.989260  0.209170  0.672290  1.0  -0.0465
  C  C490  1  0.032220  0.223580  0.688800  1.0  -0.1314
  C  C491  1  0.046220  0.237480  0.744620  1.0  0.0588
  C  C492  1  0.015610  0.234940  0.784700  1.0  -0.1343
  C  C493  1  0.971930  0.220210  0.768630  1.0  -0.0487
  C  C494  1  0.093120  0.255930  0.763010  1.0  0.006
  C  C495  1  0.112880  0.293610  0.797680  1.0  -0.1391
  C  C496  1  0.578130  0.524260  0.028110  1.0  0.6798
  C  C497  1  0.625110  0.539990  0.046700  1.0  -0.134
  C  C498  1  0.655920  0.542510  0.005630  1.0  -0.0465
  C  C499  1  0.698880  0.556920  0.022140  1.0  -0.1314
  C  C500  1  0.712880  0.570820  0.077960  1.0  0.0588
  C  C501  1  0.682270  0.568280  0.118040  1.0  -0.1343
  C  C502  1  0.638590  0.553550  0.101970  1.0  -0.0487
  C  C503  1  0.759780  0.589270  0.096350  1.0  0.006
  C  C504  1  0.779540  0.626950  0.131020  1.0  -0.1391
  C  C505  1  0.142410  0.387210  0.361440  1.0  0.6796
  C  C506  1  0.126680  0.418460  0.380030  1.0  -0.1339
  C  C507  1  0.124160  0.446750  0.338960  1.0  -0.0479
  C  C508  1  0.109750  0.475300  0.355470  1.0  -0.1309
  C  C509  1  0.095850  0.475400  0.411290  1.0  0.0587
  C  C510  1  0.098390  0.447330  0.451370  1.0  -0.1375
  C  C511  1  0.113120  0.418380  0.435300  1.0  -0.0496
  C  C512  1  0.077400  0.503850  0.429680  1.0  0.0048
  C  C513  1  0.039720  0.485930  0.464350  1.0  -0.1342
  C  C514  1  0.809080  0.720540  0.694770  1.0  0.6796
  C  C515  1  0.793350  0.751790  0.713360  1.0  -0.1339
  C  C516  1  0.790830  0.780080  0.672290  1.0  -0.0479
  C  C517  1  0.776420  0.808630  0.688800  1.0  -0.1309
  C  C518  1  0.762520  0.808730  0.744620  1.0  0.0587
  C  C519  1  0.765060  0.780660  0.784700  1.0  -0.1375
  C  C520  1  0.779790  0.751710  0.768630  1.0  -0.0496
  C  C521  1  0.744070  0.837180  0.763010  1.0  0.0048
  C  C522  1  0.706390  0.819260  0.797680  1.0  -0.1342
  C  C523  1  0.475740  0.053880  0.028110  1.0  0.6797
  C  C524  1  0.460010  0.085130  0.046700  1.0  -0.1339
  C  C525  1  0.457490  0.113420  0.005630  1.0  -0.0479
  C  C526  1  0.443080  0.141970  0.022140  1.0  -0.1309
  C  C527  1  0.429180  0.142070  0.077960  1.0  0.0587
  C  C528  1  0.431720  0.114000  0.118040  1.0  -0.1375
  C  C529  1  0.446450  0.085050  0.101970  1.0  -0.0496
  C  C530  1  0.410730  0.170520  0.096350  1.0  0.0048
  C  C531  1  0.373050  0.152600  0.131020  1.0  -0.1341
  C  C532  1  0.755200  0.612790  0.638560  1.0  0.6801
  C  C533  1  0.708220  0.581540  0.619970  1.0  -0.134
  C  C534  1  0.677410  0.553250  0.661040  1.0  -0.045
  C  C535  1  0.634450  0.524700  0.644530  1.0  -0.1326
  C  C536  1  0.620450  0.524600  0.588710  1.0  0.0586
  C  C537  1  0.651060  0.552670  0.548630  1.0  -0.1356
  C  C538  1  0.694740  0.581620  0.564700  1.0  -0.0509
  C  C539  1  0.573550  0.496150  0.570320  1.0  0.0053
  C  C540  1  0.553790  0.514070  0.535650  1.0  -0.1311
  C  C541  1  0.421870  0.946120  0.971890  1.0  0.6801
  C  C542  1  0.374890  0.914870  0.953300  1.0  -0.134
  C  C543  1  0.344080  0.886580  0.994370  1.0  -0.045
  C  C544  1  0.301120  0.858030  0.977860  1.0  -0.1326
  C  C545  1  0.287120  0.857930  0.922040  1.0  0.0586
  C  C546  1  0.317730  0.886000  0.881960  1.0  -0.1356
  C  C547  1  0.361410  0.914950  0.898030  1.0  -0.0509
  C  C548  1  0.240220  0.829480  0.903650  1.0  0.0053
  C  C549  1  0.220460  0.847400  0.868980  1.0  -0.1311
  C  C550  1  0.088530  0.279460  0.305230  1.0  0.6801
  C  C551  1  0.041550  0.248210  0.286640  1.0  -0.134
  C  C552  1  0.010740  0.219920  0.327710  1.0  -0.045
  C  C553  1  0.967780  0.191370  0.311200  1.0  -0.1326
  C  C554  1  0.953780  0.191270  0.255380  1.0  0.0586
  C  C555  1  0.984390  0.219340  0.215300  1.0  -0.1356
  C  C556  1  0.028070  0.248290  0.231370  1.0  -0.0509
  C  C557  1  0.906880  0.162820  0.236990  1.0  0.0053
  C  C558  1  0.887120  0.180740  0.202320  1.0  -0.1311
  C  C559  1  0.857590  0.244800  0.638560  1.0  0.6801
  C  C560  1  0.873320  0.291780  0.619970  1.0  -0.1335
  C  C561  1  0.875840  0.322590  0.661040  1.0  -0.0449
  C  C562  1  0.890250  0.365550  0.644530  1.0  -0.1332
  C  C563  1  0.904150  0.379550  0.588710  1.0  0.0601
  C  C564  1  0.901610  0.348940  0.548630  1.0  -0.1342
  C  C565  1  0.886880  0.305260  0.564700  1.0  -0.0499
  C  C566  1  0.922600  0.426450  0.570320  1.0  0.0061
  C  C567  1  0.960280  0.446210  0.535650  1.0  -0.1349
  C  C568  1  0.524260  0.578130  0.971890  1.0  0.68
  C  C569  1  0.539990  0.625110  0.953300  1.0  -0.1335
  C  C570  1  0.542510  0.655920  0.994370  1.0  -0.0449
  C  C571  1  0.556920  0.698880  0.977860  1.0  -0.1332
  C  C572  1  0.570820  0.712880  0.922040  1.0  0.0601
  C  C573  1  0.568280  0.682270  0.881960  1.0  -0.1342
  C  C574  1  0.553550  0.638590  0.898030  1.0  -0.0499
  C  C575  1  0.589270  0.759780  0.903650  1.0  0.0061
  C  C576  1  0.626950  0.779540  0.868980  1.0  -0.1349
  C  C577  1  0.190920  0.911470  0.305230  1.0  0.6801
  C  C578  1  0.206650  0.958450  0.286640  1.0  -0.1335
  C  C579  1  0.209170  0.989260  0.327710  1.0  -0.0449
  C  C580  1  0.223580  0.032220  0.311200  1.0  -0.1332
  C  C581  1  0.237480  0.046220  0.255380  1.0  0.0601
  C  C582  1  0.234940  0.015610  0.215300  1.0  -0.1342
  C  C583  1  0.220210  0.971930  0.231370  1.0  -0.0499
  C  C584  1  0.255930  0.093120  0.236990  1.0  0.0061
  C  C585  1  0.293610  0.112880  0.202320  1.0  -0.1349
  C  C586  1  0.387210  0.142410  0.638560  1.0  0.6801
  C  C587  1  0.418460  0.126680  0.619970  1.0  -0.1339
  C  C588  1  0.446750  0.124160  0.661040  1.0  -0.0455
  C  C589  1  0.475300  0.109750  0.644530  1.0  -0.1313
  C  C590  1  0.475400  0.095850  0.588710  1.0  0.0583
  C  C591  1  0.447330  0.098390  0.548630  1.0  -0.1323
  C  C592  1  0.418380  0.113120  0.564700  1.0  -0.0478
  C  C593  1  0.503850  0.077400  0.570320  1.0  0.0054
  C  C594  1  0.485930  0.039720  0.535650  1.0  -0.1379
  C  C595  1  0.053880  0.475740  0.971890  1.0  0.6803
  C  C596  1  0.085130  0.460010  0.953300  1.0  -0.1339
  C  C597  1  0.113420  0.457490  0.994370  1.0  -0.0455
  C  C598  1  0.141970  0.443080  0.977860  1.0  -0.1313
  C  C599  1  0.142070  0.429180  0.922040  1.0  0.0583
  C  C600  1  0.114000  0.431720  0.881960  1.0  -0.1323
  C  C601  1  0.085050  0.446450  0.898030  1.0  -0.0478
  C  C602  1  0.170520  0.410730  0.903650  1.0  0.0054
  C  C603  1  0.152600  0.373050  0.868980  1.0  -0.1379
  C  C604  1  0.720540  0.809080  0.305230  1.0  0.6801
  C  C605  1  0.751790  0.793350  0.286640  1.0  -0.1339
  C  C606  1  0.780080  0.790830  0.327710  1.0  -0.0455
  C  C607  1  0.808630  0.776420  0.311200  1.0  -0.1313
  C  C608  1  0.808730  0.762520  0.255380  1.0  0.0583
  C  C609  1  0.780660  0.765060  0.215300  1.0  -0.1323
  C  C610  1  0.751710  0.779790  0.231370  1.0  -0.0478
  C  C611  1  0.837180  0.744070  0.236990  1.0  0.0054
  C  C612  1  0.819260  0.706390  0.202320  1.0  -0.1379
  C  C613  1  0.509940  0.490060  0.518000  1.0  -0.0513
  C  C614  1  0.548080  0.451920  0.587010  1.0  0.1708
  C  C615  1  0.587430  0.412570  0.586000  1.0  0.1255
  C  C616  1  0.605960  0.394040  0.623200  1.0  -0.3645
  C  C617  1  0.176610  0.823390  0.851330  1.0  -0.0513
  C  C618  1  0.214750  0.785250  0.920340  1.0  0.1708
  C  C619  1  0.254100  0.745900  0.919330  1.0  0.1255
  C  C620  1  0.272630  0.727370  0.956530  1.0  -0.3645
  C  C621  1  0.843270  0.156730  0.184670  1.0  -0.0513
  C  C622  1  0.881410  0.118590  0.253680  1.0  0.1708
  C  C623  1  0.920760  0.079240  0.252670  1.0  0.1255
  C  C624  1  0.939290  0.060710  0.289870  1.0  -0.3645
  C  C625  1  0.509940  0.019880  0.518000  1.0  -0.048
  C  C626  1  0.548080  0.096160  0.587010  1.0  0.1694
  C  C627  1  0.587430  0.174860  0.586000  1.0  0.1203
  C  C628  1  0.605960  0.211920  0.623200  1.0  -0.3672
  C  C629  1  0.176610  0.353210  0.851330  1.0  -0.048
  C  C630  1  0.214750  0.429490  0.920340  1.0  0.1694
  C  C631  1  0.254100  0.508190  0.919330  1.0  0.1203
  C  C632  1  0.272630  0.545250  0.956530  1.0  -0.3672
  C  C633  1  0.843270  0.686550  0.184670  1.0  -0.048
  C  C634  1  0.881410  0.762830  0.253680  1.0  0.1694
  C  C635  1  0.920760  0.841530  0.252670  1.0  0.1203
  C  C636  1  0.939290  0.878590  0.289870  1.0  -0.3672
  C  C637  1  0.980120  0.490060  0.518000  1.0  -0.0508
  C  C638  1  0.903840  0.451920  0.587010  1.0  0.1705
  C  C639  1  0.825140  0.412570  0.586000  1.0  0.125
  C  C640  1  0.788080  0.394040  0.623200  1.0  -0.3673
  C  C641  1  0.646790  0.823390  0.851330  1.0  -0.0508
  C  C642  1  0.570510  0.785250  0.920340  1.0  0.1705
  C  C643  1  0.491810  0.745900  0.919330  1.0  0.125
  C  C644  1  0.454750  0.727370  0.956530  1.0  -0.3673
  C  C645  1  0.313450  0.156730  0.184670  1.0  -0.0508
  C  C646  1  0.237170  0.118590  0.253680  1.0  0.1705
  C  C647  1  0.158470  0.079240  0.252670  1.0  0.125
  C  C648  1  0.121410  0.060710  0.289870  1.0  -0.3673
  C  C649  1  0.490060  0.509940  0.482000  1.0  -0.0499
  C  C650  1  0.451920  0.548080  0.412990  1.0  0.1704
  C  C651  1  0.412570  0.587430  0.414000  1.0  0.1228
  C  C652  1  0.394040  0.605960  0.376800  1.0  -0.3661
  C  C653  1  0.156730  0.843270  0.815330  1.0  -0.0499
  C  C654  1  0.118590  0.881410  0.746320  1.0  0.1704
  C  C655  1  0.079240  0.920760  0.747330  1.0  0.1228
  C  C656  1  0.060710  0.939290  0.710130  1.0  -0.3661
  C  C657  1  0.823390  0.176610  0.148670  1.0  -0.0499
  C  C658  1  0.785250  0.214750  0.079660  1.0  0.1704
  C  C659  1  0.745900  0.254100  0.080670  1.0  0.1228
  C  C660  1  0.727370  0.272630  0.043470  1.0  -0.3661
  C  C661  1  0.019880  0.509940  0.482000  1.0  -0.0528
  C  C662  1  0.096160  0.548080  0.412990  1.0  0.1708
  C  C663  1  0.174860  0.587430  0.414000  1.0  0.1248
  C  C664  1  0.211920  0.605960  0.376800  1.0  -0.3644
  C  C665  1  0.686550  0.843270  0.815330  1.0  -0.0528
  C  C666  1  0.762830  0.881410  0.746320  1.0  0.1708
  C  C667  1  0.841530  0.920760  0.747330  1.0  0.1248
  C  C668  1  0.878590  0.939290  0.710130  1.0  -0.3644
  C  C669  1  0.353210  0.176610  0.148670  1.0  -0.0528
  C  C670  1  0.429490  0.214750  0.079660  1.0  0.1708
  C  C671  1  0.508190  0.254100  0.080670  1.0  0.1248
  C  C672  1  0.545250  0.272630  0.043470  1.0  -0.3644
  C  C673  1  0.490060  0.980120  0.482000  1.0  -0.0475
  C  C674  1  0.451920  0.903840  0.412990  1.0  0.1705
  C  C675  1  0.412570  0.825140  0.414000  1.0  0.1218
  C  C676  1  0.394040  0.788080  0.376800  1.0  -0.3653
  C  C677  1  0.156730  0.313450  0.815330  1.0  -0.0475
  C  C678  1  0.118590  0.237170  0.746320  1.0  0.1705
  C  C679  1  0.079240  0.158470  0.747330  1.0  0.1218
  C  C680  1  0.060710  0.121410  0.710130  1.0  -0.3653
  C  C681  1  0.823390  0.646790  0.148670  1.0  -0.0475
  C  C682  1  0.785250  0.570510  0.079660  1.0  0.1705
  C  C683  1  0.745900  0.491810  0.080670  1.0  0.1218
  C  C684  1  0.727370  0.454750  0.043470  1.0  -0.3653
  O  O685  1  0.361020  0.219790  0.599870  1.0  -0.5667
  O  O686  1  0.389650  0.234210  0.688550  1.0  -0.5611
  O  O687  1  0.027690  0.553120  0.933200  1.0  -0.5667
  O  O688  1  0.056320  0.567540  0.021880  1.0  -0.5611
  O  O689  1  0.694350  0.886460  0.266540  1.0  -0.5664
  O  O690  1  0.722980  0.900880  0.355220  1.0  -0.5589
  O  O691  1  0.780210  0.141230  0.599870  1.0  -0.5662
  O  O692  1  0.765790  0.155440  0.688550  1.0  -0.5601
  O  O693  1  0.446880  0.474560  0.933200  1.0  -0.5662
  O  O694  1  0.432460  0.488770  0.021880  1.0  -0.5601
  O  O695  1  0.113540  0.807900  0.266540  1.0  -0.5662
  O  O696  1  0.099120  0.822110  0.355220  1.0  -0.5601
  O  O697  1  0.858770  0.638980  0.599870  1.0  -0.5664
  O  O698  1  0.844560  0.610350  0.688550  1.0  -0.5602
  O  O699  1  0.525440  0.972310  0.933200  1.0  -0.5662
  O  O700  1  0.511230  0.943680  0.021880  1.0  -0.5602
  O  O701  1  0.192100  0.305650  0.266540  1.0  -0.567
  O  O702  1  0.177890  0.277020  0.355220  1.0  -0.5632
  O  O703  1  0.219790  0.361020  0.400130  1.0  -0.5641
  O  O704  1  0.234210  0.389650  0.311450  1.0  -0.5635
  O  O705  1  0.886460  0.694350  0.733460  1.0  -0.5648
  O  O706  1  0.900880  0.722980  0.644780  1.0  -0.5614
  O  O707  1  0.553120  0.027690  0.066800  1.0  -0.5641
  O  O708  1  0.567540  0.056320  0.978120  1.0  -0.5635
  O  O709  1  0.141230  0.780210  0.400130  1.0  -0.5648
  O  O710  1  0.155440  0.765790  0.311450  1.0  -0.5599
  O  O711  1  0.807900  0.113540  0.733460  1.0  -0.5648
  O  O712  1  0.822110  0.099120  0.644780  1.0  -0.5599
  O  O713  1  0.474560  0.446880  0.066800  1.0  -0.5648
  O  O714  1  0.488770  0.432460  0.978120  1.0  -0.5599
  O  O715  1  0.638980  0.858770  0.400130  1.0  -0.5642
  O  O716  1  0.610350  0.844560  0.311450  1.0  -0.5603
  O  O717  1  0.305650  0.192100  0.733460  1.0  -0.564
  O  O718  1  0.277020  0.177890  0.644780  1.0  -0.5626
  O  O719  1  0.972310  0.525440  0.066800  1.0  -0.564
  O  O720  1  0.943680  0.511230  0.978120  1.0  -0.5603
  O  O721  1  0.638980  0.780210  0.400130  1.0  -0.5629
  O  O722  1  0.610350  0.765790  0.311450  1.0  -0.5621
  O  O723  1  0.305650  0.113540  0.733460  1.0  -0.5635
  O  O724  1  0.277020  0.099120  0.644780  1.0  -0.56
  O  O725  1  0.972310  0.446880  0.066800  1.0  -0.5629
  O  O726  1  0.943680  0.432460  0.978120  1.0  -0.5621
  O  O727  1  0.219790  0.858770  0.400130  1.0  -0.5646
  O  O728  1  0.234210  0.844560  0.311450  1.0  -0.5599
  O  O729  1  0.886460  0.192100  0.733460  1.0  -0.5646
  O  O730  1  0.900880  0.177890  0.644780  1.0  -0.5599
  O  O731  1  0.553120  0.525440  0.066800  1.0  -0.5647
  O  O732  1  0.567540  0.511230  0.978120  1.0  -0.5599
  O  O733  1  0.141230  0.361020  0.400130  1.0  -0.5648
  O  O734  1  0.155440  0.389650  0.311450  1.0  -0.5611
  O  O735  1  0.807900  0.694350  0.733460  1.0  -0.5647
  O  O736  1  0.822110  0.722980  0.644780  1.0  -0.5636
  O  O737  1  0.474560  0.027690  0.066800  1.0  -0.5645
  O  O738  1  0.488770  0.056320  0.978120  1.0  -0.5611
  O  O739  1  0.780210  0.638980  0.599870  1.0  -0.5663
  O  O740  1  0.765790  0.610350  0.688550  1.0  -0.5632
  O  O741  1  0.446880  0.972310  0.933200  1.0  -0.5663
  O  O742  1  0.432460  0.943680  0.021880  1.0  -0.5632
  O  O743  1  0.113540  0.305650  0.266540  1.0  -0.5664
  O  O744  1  0.099120  0.277020  0.355220  1.0  -0.5606
  O  O745  1  0.858770  0.219790  0.599870  1.0  -0.5658
  O  O746  1  0.844560  0.234210  0.688550  1.0  -0.5598
  O  O747  1  0.525440  0.553120  0.933200  1.0  -0.5659
  O  O748  1  0.511230  0.567540  0.021880  1.0  -0.5598
  O  O749  1  0.192100  0.886460  0.266540  1.0  -0.5658
  O  O750  1  0.177890  0.900880  0.355220  1.0  -0.5598
  O  O751  1  0.361020  0.141230  0.599870  1.0  -0.5663
  O  O752  1  0.389650  0.155440  0.688550  1.0  -0.5597
  O  O753  1  0.027690  0.474560  0.933200  1.0  -0.5661
  O  O754  1  0.056320  0.488770  0.021880  1.0  -0.5597
  O  O755  1  0.694350  0.807900  0.266540  1.0  -0.5669
  O  O756  1  0.722980  0.822110  0.355220  1.0  -0.5626
  O  O757  1  0.566830  0.433170  0.621840  1.0  -0.3484
  O  O758  1  0.233500  0.766500  0.955170  1.0  -0.3484
  O  O759  1  0.900160  0.099840  0.288510  1.0  -0.3484
  O  O760  1  0.566830  0.133660  0.621840  1.0  -0.3479
  O  O761  1  0.233500  0.466990  0.955170  1.0  -0.3479
  O  O762  1  0.900160  0.800330  0.288510  1.0  -0.3479
  O  O763  1  0.866340  0.433170  0.621840  1.0  -0.348
  O  O764  1  0.533010  0.766500  0.955170  1.0  -0.348
  O  O765  1  0.199670  0.099840  0.288510  1.0  -0.348
  O  O766  1  0.433170  0.566830  0.378160  1.0  -0.3449
  O  O767  1  0.099840  0.900160  0.711490  1.0  -0.3449
  O  O768  1  0.766500  0.233500  0.044830  1.0  -0.3449
  O  O769  1  0.133660  0.566830  0.378160  1.0  -0.3445
  O  O770  1  0.800330  0.900160  0.711490  1.0  -0.3445
  O  O771  1  0.466990  0.233500  0.044830  1.0  -0.3445
  O  O772  1  0.433170  0.866340  0.378160  1.0  -0.3447
  O  O773  1  0.099840  0.199670  0.711490  1.0  -0.3447
  O  O774  1  0.766500  0.533010  0.044830  1.0  -0.3447
