# generated using pymatgen
data_CuH15C22O5
_symmetry_space_group_name_H-M   'P 1'
_cell_length_a   35.30400000
_cell_length_b   35.30400000
_cell_length_c   20.61710000
_cell_angle_alpha   90.00000000
_cell_angle_beta   90.00000000
_cell_angle_gamma   120.00000000
_symmetry_Int_Tables_number   1
_chemical_formula_structural   CuH15C22O5
_chemical_formula_sum   'Cu18 H270 C396 O90'
_cell_volume   22253.89517353
_cell_formula_units_Z   18
loop_
 _symmetry_equiv_pos_site_id
 _symmetry_equiv_pos_as_xyz
  1  'x, y, z'
loop_
 _atom_site_type_symbol
 _atom_site_label
 _atom_site_symmetry_multiplicity
 _atom_site_fract_x
 _atom_site_fract_y
 _atom_site_fract_z
 _atom_site_occupancy
 _atom_site_charge
  Cu  Cu1  1  0.680890  0.840450  0.392850  1.0  0.9252
  Cu  Cu2  1  0.347560  0.173780  0.726180  1.0  0.9252
  Cu  Cu3  1  0.014220  0.507110  0.059520  1.0  0.9283
  Cu  Cu4  1  0.159550  0.840450  0.392850  1.0  0.9256
  Cu  Cu5  1  0.826220  0.173780  0.726180  1.0  0.9256
  Cu  Cu6  1  0.492890  0.507110  0.059520  1.0  0.9254
  Cu  Cu7  1  0.159550  0.319110  0.392850  1.0  0.9249
  Cu  Cu8  1  0.826220  0.652440  0.726180  1.0  0.9249
  Cu  Cu9  1  0.492890  0.985780  0.059520  1.0  0.9273
  Cu  Cu10  1  0.840450  0.680890  0.607150  1.0  0.9238
  Cu  Cu11  1  0.507110  0.014220  0.940480  1.0  0.9271
  Cu  Cu12  1  0.173780  0.347560  0.273820  1.0  0.9238
  Cu  Cu13  1  0.840450  0.159550  0.607150  1.0  0.9251
  Cu  Cu14  1  0.507110  0.492890  0.940480  1.0  0.9251
  Cu  Cu15  1  0.173780  0.826220  0.273820  1.0  0.9251
  Cu  Cu16  1  0.319110  0.159550  0.607150  1.0  0.9239
  Cu  Cu17  1  0.985780  0.492890  0.940480  1.0  0.9275
  Cu  Cu18  1  0.652440  0.826220  0.273820  1.0  0.9239
  H  H19  1  0.554100  0.688700  0.289100  1.0  0.0992
  H  H20  1  0.506100  0.617500  0.315500  1.0  0.0964
  H  H21  1  0.547900  0.641200  0.499800  1.0  0.1144
  H  H22  1  0.595700  0.713800  0.472000  1.0  0.101
  H  H23  1  0.542300  0.570400  0.475500  1.0  0.1259
  H  H24  1  0.433900  0.610900  0.433500  1.0  0.0857
  H  H25  1  0.375200  0.580400  0.324000  1.0  0.1116
  H  H26  1  0.220770  0.022030  0.622430  1.0  0.1003
  H  H27  1  0.172770  0.950830  0.648830  1.0  0.0964
  H  H28  1  0.214570  0.974530  0.833130  1.0  0.1144
  H  H29  1  0.262370  0.047130  0.805330  1.0  0.102
  H  H30  1  0.208970  0.903730  0.808830  1.0  0.1259
  H  H31  1  0.100570  0.944230  0.766830  1.0  0.0868
  H  H32  1  0.041870  0.913730  0.657330  1.0  0.1101
  H  H33  1  0.887430  0.355370  0.955770  1.0  0.0992
  H  H34  1  0.839430  0.284170  0.982170  1.0  0.0964
  H  H35  1  0.881230  0.307870  0.166470  1.0  0.1144
  H  H36  1  0.929030  0.380470  0.138670  1.0  0.101
  H  H37  1  0.875630  0.237070  0.142170  1.0  0.1259
  H  H38  1  0.767230  0.277570  0.100170  1.0  0.0857
  H  H39  1  0.708530  0.247070  0.990670  1.0  0.1116
  H  H40  1  0.311300  0.865400  0.289100  1.0  0.1004
  H  H41  1  0.382500  0.888600  0.315500  1.0  0.0979
  H  H42  1  0.358800  0.906700  0.499800  1.0  0.1146
  H  H43  1  0.286200  0.881900  0.472000  1.0  0.1022
  H  H44  1  0.429600  0.971900  0.475500  1.0  0.1264
  H  H45  1  0.389100  0.823000  0.433500  1.0  0.0857
  H  H46  1  0.419600  0.794800  0.324000  1.0  0.1098
  H  H47  1  0.977970  0.198730  0.622430  1.0  0.1004
  H  H48  1  0.049170  0.221930  0.648830  1.0  0.0971
  H  H49  1  0.025470  0.240030  0.833130  1.0  0.1146
  H  H50  1  0.952870  0.215230  0.805330  1.0  0.1022
  H  H51  1  0.096270  0.305230  0.808830  1.0  0.1264
  H  H52  1  0.055770  0.156330  0.766830  1.0  0.0864
  H  H53  1  0.086270  0.128130  0.657330  1.0  0.109
  H  H54  1  0.644630  0.532070  0.955770  1.0  0.1005
  H  H55  1  0.715830  0.555270  0.982170  1.0  0.0964
  H  H56  1  0.692130  0.573370  0.166470  1.0  0.1146
  H  H57  1  0.619530  0.548570  0.138670  1.0  0.1022
  H  H58  1  0.762930  0.638570  0.142170  1.0  0.1265
  H  H59  1  0.722430  0.489670  0.100170  1.0  0.0857
  H  H60  1  0.752930  0.461470  0.990670  1.0  0.1098
  H  H61  1  0.134600  0.445900  0.289100  1.0  0.1004
  H  H62  1  0.111400  0.493900  0.315500  1.0  0.0978
  H  H63  1  0.093300  0.452100  0.499800  1.0  0.1144
  H  H64  1  0.118100  0.404300  0.472000  1.0  0.1018
  H  H65  1  0.028100  0.457700  0.475500  1.0  0.1265
  H  H66  1  0.177000  0.566100  0.433500  1.0  0.0886
  H  H67  1  0.205200  0.624800  0.324000  1.0  0.1112
  H  H68  1  0.801270  0.779230  0.622430  1.0  0.0992
  H  H69  1  0.778070  0.827230  0.648830  1.0  0.0961
  H  H70  1  0.759970  0.785430  0.833130  1.0  0.1144
  H  H71  1  0.784770  0.737630  0.805330  1.0  0.1008
  H  H72  1  0.694770  0.791030  0.808830  1.0  0.1265
  H  H73  1  0.843670  0.899430  0.766830  1.0  0.0892
  H  H74  1  0.871870  0.958130  0.657330  1.0  0.1123
  H  H75  1  0.467930  0.112570  0.955770  1.0  0.1004
  H  H76  1  0.444730  0.160570  0.982170  1.0  0.0966
  H  H77  1  0.426630  0.118770  0.166470  1.0  0.1144
  H  H78  1  0.451430  0.070970  0.138670  1.0  0.1018
  H  H79  1  0.361430  0.124370  0.142170  1.0  0.1265
  H  H80  1  0.510330  0.232770  0.100170  1.0  0.0886
  H  H81  1  0.538530  0.291470  0.990670  1.0  0.1112
  H  H82  1  0.688700  0.554100  0.710900  1.0  0.0993
  H  H83  1  0.617500  0.506100  0.684500  1.0  0.0969
  H  H84  1  0.641200  0.547900  0.500200  1.0  0.1145
  H  H85  1  0.713800  0.595700  0.528000  1.0  0.101
  H  H86  1  0.570400  0.542300  0.524500  1.0  0.1267
  H  H87  1  0.610900  0.433900  0.566500  1.0  0.0866
  H  H88  1  0.580400  0.375200  0.676000  1.0  0.1123
  H  H89  1  0.355370  0.887430  0.044230  1.0  0.0993
  H  H90  1  0.284170  0.839430  0.017830  1.0  0.0969
  H  H91  1  0.307870  0.881230  0.833530  1.0  0.1145
  H  H92  1  0.380470  0.929030  0.861330  1.0  0.101
  H  H93  1  0.237070  0.875630  0.857830  1.0  0.1267
  H  H94  1  0.277570  0.767230  0.899830  1.0  0.0866
  H  H95  1  0.247070  0.708530  0.009330  1.0  0.1123
  H  H96  1  0.022030  0.220770  0.377570  1.0  0.1001
  H  H97  1  0.950830  0.172770  0.351170  1.0  0.0969
  H  H98  1  0.974530  0.214570  0.166870  1.0  0.1145
  H  H99  1  0.047130  0.262370  0.194670  1.0  0.102
  H  H100  1  0.903730  0.208970  0.191170  1.0  0.1267
  H  H101  1  0.944230  0.100570  0.233170  1.0  0.0882
  H  H102  1  0.913730  0.041870  0.342670  1.0  0.1107
  H  H103  1  0.865400  0.311300  0.710900  1.0  0.0999
  H  H104  1  0.888600  0.382500  0.684500  1.0  0.0977
  H  H105  1  0.906700  0.358800  0.500200  1.0  0.1147
  H  H106  1  0.881900  0.286200  0.528000  1.0  0.1017
  H  H107  1  0.971900  0.429600  0.524500  1.0  0.1263
  H  H108  1  0.823000  0.389100  0.566500  1.0  0.0854
  H  H109  1  0.794800  0.419600  0.676000  1.0  0.1115
  H  H110  1  0.532070  0.644630  0.044230  1.0  0.1
  H  H111  1  0.555270  0.715830  0.017830  1.0  0.0967
  H  H112  1  0.573370  0.692130  0.833530  1.0  0.1147
  H  H113  1  0.548570  0.619530  0.861330  1.0  0.1017
  H  H114  1  0.638570  0.762930  0.857830  1.0  0.1263
  H  H115  1  0.489670  0.722430  0.899830  1.0  0.0854
  H  H116  1  0.461470  0.752930  0.009330  1.0  0.1115
  H  H117  1  0.198730  0.977970  0.377570  1.0  0.0999
  H  H118  1  0.221930  0.049170  0.351170  1.0  0.0971
  H  H119  1  0.240030  0.025470  0.166870  1.0  0.1143
  H  H120  1  0.215230  0.952870  0.194670  1.0  0.1017
  H  H121  1  0.305230  0.096270  0.191170  1.0  0.1263
  H  H122  1  0.156330  0.055770  0.233170  1.0  0.0862
  H  H123  1  0.128130  0.086270  0.342670  1.0  0.1125
  H  H124  1  0.445900  0.134600  0.710900  1.0  0.0999
  H  H125  1  0.493900  0.111400  0.684500  1.0  0.0993
  H  H126  1  0.452100  0.093300  0.500200  1.0  0.114
  H  H127  1  0.404300  0.118100  0.528000  1.0  0.1021
  H  H128  1  0.457700  0.028100  0.524500  1.0  0.1272
  H  H129  1  0.566100  0.177000  0.566500  1.0  0.0872
  H  H130  1  0.624800  0.205200  0.676000  1.0  0.1076
  H  H131  1  0.112570  0.467930  0.044230  1.0  0.0999
  H  H132  1  0.160570  0.444730  0.017830  1.0  0.0981
  H  H133  1  0.118770  0.426630  0.833530  1.0  0.114
  H  H134  1  0.070970  0.451430  0.861330  1.0  0.1021
  H  H135  1  0.124370  0.361430  0.857830  1.0  0.1272
  H  H136  1  0.232770  0.510330  0.899830  1.0  0.0872
  H  H137  1  0.291470  0.538530  0.009330  1.0  0.1076
  H  H138  1  0.779230  0.801270  0.377570  1.0  0.0989
  H  H139  1  0.827230  0.778070  0.351170  1.0  0.0971
  H  H140  1  0.785430  0.759970  0.166870  1.0  0.1142
  H  H141  1  0.737630  0.784770  0.194670  1.0  0.1009
  H  H142  1  0.791030  0.694770  0.191170  1.0  0.1272
  H  H143  1  0.899430  0.843670  0.233170  1.0  0.0871
  H  H144  1  0.958130  0.871870  0.342670  1.0  0.1086
  H  H145  1  0.445900  0.311300  0.710900  1.0  0.0988
  H  H146  1  0.493900  0.382500  0.684500  1.0  0.0972
  H  H147  1  0.452100  0.358800  0.500200  1.0  0.115
  H  H148  1  0.404300  0.286200  0.528000  1.0  0.1005
  H  H149  1  0.457700  0.429600  0.524500  1.0  0.1263
  H  H150  1  0.566100  0.389100  0.566500  1.0  0.0851
  H  H151  1  0.624800  0.419600  0.676000  1.0  0.1116
  H  H152  1  0.112570  0.644630  0.044230  1.0  0.0988
  H  H153  1  0.160570  0.715830  0.017830  1.0  0.0972
  H  H154  1  0.118770  0.692130  0.833530  1.0  0.115
  H  H155  1  0.070970  0.619530  0.861330  1.0  0.1005
  H  H156  1  0.124370  0.762930  0.857830  1.0  0.1263
  H  H157  1  0.232770  0.722430  0.899830  1.0  0.0851
  H  H158  1  0.291470  0.752930  0.009330  1.0  0.1116
  H  H159  1  0.779230  0.977970  0.377570  1.0  0.0999
  H  H160  1  0.827230  0.049170  0.351170  1.0  0.0972
  H  H161  1  0.785430  0.025470  0.166870  1.0  0.115
  H  H162  1  0.737630  0.952870  0.194670  1.0  0.1017
  H  H163  1  0.791030  0.096270  0.191170  1.0  0.1263
  H  H164  1  0.899430  0.055770  0.233170  1.0  0.0865
  H  H165  1  0.958130  0.086270  0.342670  1.0  0.1104
  H  H166  1  0.688700  0.134600  0.710900  1.0  0.1
  H  H167  1  0.617500  0.111400  0.684500  1.0  0.0975
  H  H168  1  0.641200  0.093300  0.500200  1.0  0.1151
  H  H169  1  0.713800  0.118100  0.528000  1.0  0.1025
  H  H170  1  0.570400  0.028100  0.524500  1.0  0.1268
  H  H171  1  0.610900  0.177000  0.566500  1.0  0.0862
  H  H172  1  0.580400  0.205200  0.676000  1.0  0.1098
  H  H173  1  0.355370  0.467930  0.044230  1.0  0.1001
  H  H174  1  0.284170  0.444730  0.017830  1.0  0.0961
  H  H175  1  0.307870  0.426630  0.833530  1.0  0.1151
  H  H176  1  0.380470  0.451430  0.861330  1.0  0.1025
  H  H177  1  0.237070  0.361430  0.857830  1.0  0.1268
  H  H178  1  0.277570  0.510330  0.899830  1.0  0.0862
  H  H179  1  0.247070  0.538530  0.009330  1.0  0.1098
  H  H180  1  0.022030  0.801270  0.377570  1.0  0.1
  H  H181  1  0.950830  0.778070  0.351170  1.0  0.0971
  H  H182  1  0.974530  0.759970  0.166870  1.0  0.1148
  H  H183  1  0.047130  0.784770  0.194670  1.0  0.1025
  H  H184  1  0.903730  0.694770  0.191170  1.0  0.1268
  H  H185  1  0.944230  0.843670  0.233170  1.0  0.0868
  H  H186  1  0.913730  0.871870  0.342670  1.0  0.1104
  H  H187  1  0.865400  0.554100  0.710900  1.0  0.1003
  H  H188  1  0.888600  0.506100  0.684500  1.0  0.0988
  H  H189  1  0.906700  0.547900  0.500200  1.0  0.1143
  H  H190  1  0.881900  0.595700  0.528000  1.0  0.1018
  H  H191  1  0.971900  0.542300  0.524500  1.0  0.1265
  H  H192  1  0.823000  0.433900  0.566500  1.0  0.0879
  H  H193  1  0.794800  0.375200  0.676000  1.0  0.1111
  H  H194  1  0.532070  0.887430  0.044230  1.0  0.1003
  H  H195  1  0.555270  0.839430  0.017830  1.0  0.0976
  H  H196  1  0.573370  0.881230  0.833530  1.0  0.1143
  H  H197  1  0.548570  0.929030  0.861330  1.0  0.1018
  H  H198  1  0.638570  0.875630  0.857830  1.0  0.1265
  H  H199  1  0.489670  0.767230  0.899830  1.0  0.0879
  H  H200  1  0.461470  0.708530  0.009330  1.0  0.1111
  H  H201  1  0.198730  0.220770  0.377570  1.0  0.0994
  H  H202  1  0.221930  0.172770  0.351170  1.0  0.0967
  H  H203  1  0.240030  0.214570  0.166870  1.0  0.1145
  H  H204  1  0.215230  0.262370  0.194670  1.0  0.1005
  H  H205  1  0.305230  0.208970  0.191170  1.0  0.1265
  H  H206  1  0.156330  0.100570  0.233170  1.0  0.0886
  H  H207  1  0.128130  0.041870  0.342670  1.0  0.1115
  H  H208  1  0.311300  0.445900  0.289100  1.0  0.0995
  H  H209  1  0.382500  0.493900  0.315500  1.0  0.0963
  H  H210  1  0.358800  0.452100  0.499800  1.0  0.1151
  H  H211  1  0.286200  0.404300  0.472000  1.0  0.101
  H  H212  1  0.429600  0.457700  0.475500  1.0  0.1268
  H  H213  1  0.389100  0.566100  0.433500  1.0  0.0879
  H  H214  1  0.419600  0.624800  0.324000  1.0  0.1104
  H  H215  1  0.977970  0.779230  0.622430  1.0  0.1006
  H  H216  1  0.049170  0.827230  0.648830  1.0  0.0963
  H  H217  1  0.025470  0.785430  0.833130  1.0  0.1151
  H  H218  1  0.952870  0.737630  0.805330  1.0  0.1019
  H  H219  1  0.096270  0.791030  0.808830  1.0  0.1268
  H  H220  1  0.055770  0.899430  0.766830  1.0  0.0888
  H  H221  1  0.086270  0.958130  0.657330  1.0  0.109
  H  H222  1  0.644630  0.112570  0.955770  1.0  0.0995
  H  H223  1  0.715830  0.160570  0.982170  1.0  0.0963
  H  H224  1  0.692130  0.118770  0.166470  1.0  0.1151
  H  H225  1  0.619530  0.070970  0.138670  1.0  0.101
  H  H226  1  0.762930  0.124370  0.142170  1.0  0.1268
  H  H227  1  0.722430  0.232770  0.100170  1.0  0.0879
  H  H228  1  0.752930  0.291470  0.990670  1.0  0.1104
  H  H229  1  0.134600  0.688700  0.289100  1.0  0.1001
  H  H230  1  0.111400  0.617500  0.315500  1.0  0.0977
  H  H231  1  0.093300  0.641200  0.499800  1.0  0.1144
  H  H232  1  0.118100  0.713800  0.472000  1.0  0.1021
  H  H233  1  0.028100  0.570400  0.475500  1.0  0.1265
  H  H234  1  0.177000  0.610900  0.433500  1.0  0.0862
  H  H235  1  0.205200  0.580400  0.324000  1.0  0.1117
  H  H236  1  0.801270  0.022030  0.622430  1.0  0.1001
  H  H237  1  0.778070  0.950830  0.648830  1.0  0.097
  H  H238  1  0.759970  0.974530  0.833130  1.0  0.1144
  H  H239  1  0.784770  0.047130  0.805330  1.0  0.1021
  H  H240  1  0.694770  0.903730  0.808830  1.0  0.1265
  H  H241  1  0.843670  0.944230  0.766830  1.0  0.0864
  H  H242  1  0.871870  0.913730  0.657330  1.0  0.1122
  H  H243  1  0.467930  0.355370  0.955770  1.0  0.1002
  H  H244  1  0.444730  0.284170  0.982170  1.0  0.0965
  H  H245  1  0.426630  0.307870  0.166470  1.0  0.1144
  H  H246  1  0.451430  0.380470  0.138670  1.0  0.1021
  H  H247  1  0.361430  0.237070  0.142170  1.0  0.1265
  H  H248  1  0.510330  0.277570  0.100170  1.0  0.0862
  H  H249  1  0.538530  0.247070  0.990670  1.0  0.1117
  H  H250  1  0.554100  0.865400  0.289100  1.0  0.1004
  H  H251  1  0.506100  0.888600  0.315500  1.0  0.0984
  H  H252  1  0.547900  0.906700  0.499800  1.0  0.1143
  H  H253  1  0.595700  0.881900  0.472000  1.0  0.1022
  H  H254  1  0.542300  0.971900  0.475500  1.0  0.1267
  H  H255  1  0.433900  0.823000  0.433500  1.0  0.0867
  H  H256  1  0.375200  0.794800  0.324000  1.0  0.1081
  H  H257  1  0.220770  0.198730  0.622430  1.0  0.0992
  H  H258  1  0.172770  0.221930  0.648830  1.0  0.0966
  H  H259  1  0.214570  0.240030  0.833130  1.0  0.1142
  H  H260  1  0.262370  0.215230  0.805330  1.0  0.1012
  H  H261  1  0.208970  0.305230  0.808830  1.0  0.1267
  H  H262  1  0.100570  0.156330  0.766830  1.0  0.0871
  H  H263  1  0.041870  0.128130  0.657330  1.0  0.109
  H  H264  1  0.887430  0.532070  0.955770  1.0  0.1003
  H  H265  1  0.839430  0.555270  0.982170  1.0  0.0972
  H  H266  1  0.881230  0.573370  0.166470  1.0  0.1143
  H  H267  1  0.929030  0.548570  0.138670  1.0  0.1022
  H  H268  1  0.875630  0.638570  0.142170  1.0  0.1267
  H  H269  1  0.767230  0.489670  0.100170  1.0  0.0867
  H  H270  1  0.708530  0.461470  0.990670  1.0  0.1081
  H  H271  1  0.381000  0.619000  0.368400  1.0  0.12
  H  H272  1  0.047670  0.952330  0.701730  1.0  0.1206
  H  H273  1  0.714330  0.285670  0.035070  1.0  0.12
  H  H274  1  0.381000  0.762000  0.368400  1.0  0.1206
  H  H275  1  0.047670  0.095330  0.701730  1.0  0.1227
  H  H276  1  0.714330  0.428670  0.035070  1.0  0.1206
  H  H277  1  0.238000  0.619000  0.368400  1.0  0.1241
  H  H278  1  0.904670  0.952330  0.701730  1.0  0.1264
  H  H279  1  0.571330  0.285670  0.035070  1.0  0.1241
  H  H280  1  0.619000  0.381000  0.631600  1.0  0.1223
  H  H281  1  0.285670  0.714330  0.964930  1.0  0.1223
  H  H282  1  0.952330  0.047670  0.298270  1.0  0.1241
  H  H283  1  0.762000  0.381000  0.631600  1.0  0.1187
  H  H284  1  0.428670  0.714330  0.964930  1.0  0.1187
  H  H285  1  0.095330  0.047670  0.298270  1.0  0.1217
  H  H286  1  0.619000  0.238000  0.631600  1.0  0.124
  H  H287  1  0.285670  0.571330  0.964930  1.0  0.124
  H  H288  1  0.952330  0.904670  0.298270  1.0  0.1259
  C  C289  1  0.612190  0.755640  0.361110  1.0  0.6702
  C  C290  1  0.579900  0.708780  0.378490  1.0  -0.1368
  C  C291  1  0.552870  0.679280  0.331580  1.0  -0.044
  C  C292  1  0.524420  0.636530  0.347250  1.0  -0.1407
  C  C293  1  0.522510  0.621120  0.409450  1.0  0.0676
  C  C294  1  0.549150  0.650510  0.457300  1.0  -0.1563
  C  C295  1  0.577800  0.694260  0.440380  1.0  -0.0408
  C  C296  1  0.494580  0.574050  0.426930  1.0  0.0132
  C  C297  1  0.512990  0.553850  0.463700  1.0  -0.1251
  C  C298  1  0.278860  0.088970  0.694440  1.0  0.6702
  C  C299  1  0.246570  0.042110  0.711820  1.0  -0.1368
  C  C300  1  0.219540  0.012610  0.664910  1.0  -0.044
  C  C301  1  0.191090  0.969860  0.680580  1.0  -0.1407
  C  C302  1  0.189180  0.954450  0.742780  1.0  0.0676
  C  C303  1  0.215820  0.983840  0.790630  1.0  -0.1563
  C  C304  1  0.244470  0.027590  0.773710  1.0  -0.0408
  C  C305  1  0.161250  0.907380  0.760260  1.0  0.0132
  C  C306  1  0.179660  0.887180  0.797030  1.0  -0.1251
  C  C307  1  0.945520  0.422310  0.027780  1.0  0.6698
  C  C308  1  0.913230  0.375450  0.045160  1.0  -0.1369
  C  C309  1  0.886200  0.345950  0.998250  1.0  -0.044
  C  C310  1  0.857750  0.303200  0.013920  1.0  -0.1407
  C  C311  1  0.855840  0.287790  0.076120  1.0  0.0676
  C  C312  1  0.882480  0.317180  0.123970  1.0  -0.1563
  C  C313  1  0.911130  0.360930  0.107050  1.0  -0.0408
  C  C314  1  0.827910  0.240720  0.093600  1.0  0.0132
  C  C315  1  0.846320  0.220520  0.130370  1.0  -0.1251
  C  C316  1  0.244360  0.856550  0.361110  1.0  0.6689
  C  C317  1  0.291220  0.871120  0.378490  1.0  -0.1371
  C  C318  1  0.320720  0.873590  0.331580  1.0  -0.0444
  C  C319  1  0.363470  0.887890  0.347250  1.0  -0.1401
  C  C320  1  0.378880  0.901390  0.409450  1.0  0.0667
  C  C321  1  0.349490  0.898640  0.457300  1.0  -0.1549
  C  C322  1  0.305740  0.883540  0.440380  1.0  -0.0393
  C  C323  1  0.425950  0.920530  0.426930  1.0  0.0134
  C  C324  1  0.446150  0.959140  0.463700  1.0  -0.1218
  C  C325  1  0.911030  0.189880  0.694440  1.0  0.6689
  C  C326  1  0.957890  0.204450  0.711820  1.0  -0.1371
  C  C327  1  0.987390  0.206920  0.664910  1.0  -0.0444
  C  C328  1  0.030140  0.221220  0.680580  1.0  -0.1401
  C  C329  1  0.045550  0.234720  0.742780  1.0  0.0667
  C  C330  1  0.016160  0.231970  0.790630  1.0  -0.1549
  C  C331  1  0.972410  0.216870  0.773710  1.0  -0.0393
  C  C332  1  0.092620  0.253860  0.760260  1.0  0.0134
  C  C333  1  0.112820  0.292470  0.797030  1.0  -0.1218
  C  C334  1  0.577690  0.523220  0.027780  1.0  0.6692
  C  C335  1  0.624550  0.537790  0.045160  1.0  -0.137
  C  C336  1  0.654050  0.540260  0.998250  1.0  -0.0444
  C  C337  1  0.696800  0.554560  0.013920  1.0  -0.14
  C  C338  1  0.712210  0.568060  0.076120  1.0  0.0667
  C  C339  1  0.682820  0.565310  0.123970  1.0  -0.1549
  C  C340  1  0.639070  0.550210  0.107050  1.0  -0.0393
  C  C341  1  0.759280  0.587200  0.093600  1.0  0.0134
  C  C342  1  0.779480  0.625810  0.130370  1.0  -0.1274
  C  C343  1  0.143450  0.387810  0.361110  1.0  0.6692
  C  C344  1  0.128880  0.420100  0.378490  1.0  -0.1373
  C  C345  1  0.126410  0.447130  0.331580  1.0  -0.0437
  C  C346  1  0.112110  0.475580  0.347250  1.0  -0.1404
  C  C347  1  0.098610  0.477490  0.409450  1.0  0.0663
  C  C348  1  0.101360  0.450850  0.457300  1.0  -0.1581
  C  C349  1  0.116460  0.422200  0.440380  1.0  -0.0408
  C  C350  1  0.079470  0.505420  0.426930  1.0  0.0125
  C  C351  1  0.040860  0.487010  0.463700  1.0  -0.1192
  C  C352  1  0.810120  0.721140  0.694440  1.0  0.6692
  C  C353  1  0.795550  0.753430  0.711820  1.0  -0.1373
  C  C354  1  0.793080  0.780460  0.664910  1.0  -0.0437
  C  C355  1  0.778780  0.808910  0.680580  1.0  -0.1404
  C  C356  1  0.765280  0.810820  0.742780  1.0  0.0663
  C  C357  1  0.768030  0.784180  0.790630  1.0  -0.1581
  C  C358  1  0.783130  0.755530  0.773710  1.0  -0.0408
  C  C359  1  0.746140  0.838750  0.760260  1.0  0.0125
  C  C360  1  0.707530  0.820340  0.797030  1.0  -0.1192
  C  C361  1  0.476780  0.054480  0.027780  1.0  0.6697
  C  C362  1  0.462210  0.086770  0.045160  1.0  -0.1373
  C  C363  1  0.459740  0.113800  0.998250  1.0  -0.0437
  C  C364  1  0.445440  0.142250  0.013920  1.0  -0.1404
  C  C365  1  0.431940  0.144160  0.076120  1.0  0.0663
  C  C366  1  0.434690  0.117520  0.123970  1.0  -0.1581
  C  C367  1  0.449790  0.088870  0.107050  1.0  -0.0408
  C  C368  1  0.412800  0.172090  0.093600  1.0  0.0125
  C  C369  1  0.374190  0.153680  0.130370  1.0  -0.115
  C  C370  1  0.755640  0.612190  0.638890  1.0  0.6699
  C  C371  1  0.708780  0.579900  0.621510  1.0  -0.1375
  C  C372  1  0.679280  0.552870  0.668420  1.0  -0.0418
  C  C373  1  0.636530  0.524420  0.652750  1.0  -0.1405
  C  C374  1  0.621120  0.522510  0.590550  1.0  0.067
  C  C375  1  0.650510  0.549150  0.542700  1.0  -0.1559
  C  C376  1  0.694260  0.577800  0.559620  1.0  -0.0416
  C  C377  1  0.574050  0.494580  0.573070  1.0  0.0122
  C  C378  1  0.553850  0.512990  0.536300  1.0  -0.1209
  C  C379  1  0.422310  0.945520  0.972220  1.0  0.6695
  C  C380  1  0.375450  0.913230  0.954840  1.0  -0.1377
  C  C381  1  0.345950  0.886200  0.001750  1.0  -0.0418
  C  C382  1  0.303200  0.857750  0.986080  1.0  -0.1405
  C  C383  1  0.287790  0.855840  0.923880  1.0  0.067
  C  C384  1  0.317180  0.882480  0.876030  1.0  -0.1559
  C  C385  1  0.360930  0.911130  0.892950  1.0  -0.0416
  C  C386  1  0.240720  0.827910  0.906400  1.0  0.0122
  C  C387  1  0.220520  0.846320  0.869630  1.0  -0.1209
  C  C388  1  0.088970  0.278860  0.305560  1.0  0.6699
  C  C389  1  0.042110  0.246570  0.288180  1.0  -0.1375
  C  C390  1  0.012610  0.219540  0.335090  1.0  -0.0418
  C  C391  1  0.969860  0.191090  0.319420  1.0  -0.1405
  C  C392  1  0.954450  0.189180  0.257220  1.0  0.067
  C  C393  1  0.983840  0.215820  0.209370  1.0  -0.1559
  C  C394  1  0.027590  0.244470  0.226290  1.0  -0.0416
  C  C395  1  0.907380  0.161250  0.239740  1.0  0.0122
  C  C396  1  0.887180  0.179660  0.202970  1.0  -0.1209
  C  C397  1  0.856550  0.244360  0.638890  1.0  0.6692
  C  C398  1  0.871120  0.291220  0.621510  1.0  -0.1369
  C  C399  1  0.873590  0.320720  0.668420  1.0  -0.0428
  C  C400  1  0.887890  0.363470  0.652750  1.0  -0.1417
  C  C401  1  0.901390  0.378880  0.590550  1.0  0.0677
  C  C402  1  0.898640  0.349490  0.542700  1.0  -0.1548
  C  C403  1  0.883540  0.305740  0.559620  1.0  -0.0407
  C  C404  1  0.920530  0.425950  0.573070  1.0  0.0125
  C  C405  1  0.959140  0.446150  0.536300  1.0  -0.1215
  C  C406  1  0.523220  0.577690  0.972220  1.0  0.6695
  C  C407  1  0.537790  0.624550  0.954840  1.0  -0.1369
  C  C408  1  0.540260  0.654050  0.001750  1.0  -0.0428
  C  C409  1  0.554560  0.696800  0.986080  1.0  -0.1416
  C  C410  1  0.568060  0.712210  0.923880  1.0  0.0677
  C  C411  1  0.565310  0.682820  0.876030  1.0  -0.1548
  C  C412  1  0.550210  0.639070  0.892950  1.0  -0.0407
  C  C413  1  0.587200  0.759280  0.906400  1.0  0.0125
  C  C414  1  0.625810  0.779480  0.869630  1.0  -0.1262
  C  C415  1  0.189880  0.911030  0.305560  1.0  0.6692
  C  C416  1  0.204450  0.957890  0.288180  1.0  -0.1369
  C  C417  1  0.206920  0.987390  0.335090  1.0  -0.0428
  C  C418  1  0.221220  0.030140  0.319420  1.0  -0.1417
  C  C419  1  0.234720  0.045550  0.257220  1.0  0.0677
  C  C420  1  0.231970  0.016160  0.209370  1.0  -0.1548
  C  C421  1  0.216870  0.972410  0.226290  1.0  -0.0407
  C  C422  1  0.253860  0.092620  0.239740  1.0  0.0125
  C  C423  1  0.292470  0.112820  0.202970  1.0  -0.1215
  C  C424  1  0.387810  0.143450  0.638890  1.0  0.669
  C  C425  1  0.420100  0.128880  0.621510  1.0  -0.1369
  C  C426  1  0.447130  0.126410  0.668420  1.0  -0.0436
  C  C427  1  0.475580  0.112110  0.652750  1.0  -0.1402
  C  C428  1  0.477490  0.098610  0.590550  1.0  0.0672
  C  C429  1  0.450850  0.101360  0.542700  1.0  -0.1527
  C  C430  1  0.422200  0.116460  0.559620  1.0  -0.0384
  C  C431  1  0.505420  0.079470  0.573070  1.0  0.0127
  C  C432  1  0.487010  0.040860  0.536300  1.0  -0.1282
  C  C433  1  0.054480  0.476780  0.972220  1.0  0.6694
  C  C434  1  0.086770  0.462210  0.954840  1.0  -0.1369
  C  C435  1  0.113800  0.459740  0.001750  1.0  -0.0436
  C  C436  1  0.142250  0.445440  0.986080  1.0  -0.1402
  C  C437  1  0.144160  0.431940  0.923880  1.0  0.0672
  C  C438  1  0.117520  0.434690  0.876030  1.0  -0.1527
  C  C439  1  0.088870  0.449790  0.892950  1.0  -0.0384
  C  C440  1  0.172090  0.412800  0.906400  1.0  0.0127
  C  C441  1  0.153680  0.374190  0.869630  1.0  -0.1226
  C  C442  1  0.721140  0.810120  0.305560  1.0  0.669
  C  C443  1  0.753430  0.795550  0.288180  1.0  -0.1369
  C  C444  1  0.780460  0.793080  0.335090  1.0  -0.0436
  C  C445  1  0.808910  0.778780  0.319420  1.0  -0.1402
  C  C446  1  0.810820  0.765280  0.257220  1.0  0.0672
  C  C447  1  0.784180  0.768030  0.209370  1.0  -0.1527
  C  C448  1  0.755530  0.783130  0.226290  1.0  -0.0384
  C  C449  1  0.838750  0.746140  0.239740  1.0  0.0127
  C  C450  1  0.820340  0.707530  0.202970  1.0  -0.1282
  C  C451  1  0.387810  0.244360  0.638890  1.0  0.6699
  C  C452  1  0.420100  0.291220  0.621510  1.0  -0.1359
  C  C453  1  0.447130  0.320720  0.668420  1.0  -0.0418
  C  C454  1  0.475580  0.363470  0.652750  1.0  -0.1415
  C  C455  1  0.477490  0.378880  0.590550  1.0  0.0678
  C  C456  1  0.450850  0.349490  0.542700  1.0  -0.1541
  C  C457  1  0.422200  0.305740  0.559620  1.0  -0.0399
  C  C458  1  0.505420  0.425950  0.573070  1.0  0.0119
  C  C459  1  0.487010  0.446150  0.536300  1.0  -0.1268
  C  C460  1  0.054480  0.577690  0.972220  1.0  0.6695
  C  C461  1  0.086770  0.624550  0.954840  1.0  -0.1361
  C  C462  1  0.113800  0.654050  0.001750  1.0  -0.0418
  C  C463  1  0.142250  0.696800  0.986080  1.0  -0.1415
  C  C464  1  0.144160  0.712210  0.923880  1.0  0.0678
  C  C465  1  0.117520  0.682820  0.876030  1.0  -0.1541
  C  C466  1  0.088870  0.639070  0.892950  1.0  -0.0399
  C  C467  1  0.172090  0.759280  0.906400  1.0  0.0119
  C  C468  1  0.153680  0.779480  0.869630  1.0  -0.1268
  C  C469  1  0.721140  0.911030  0.305560  1.0  0.6699
  C  C470  1  0.753430  0.957890  0.288180  1.0  -0.1359
  C  C471  1  0.780460  0.987390  0.335090  1.0  -0.0418
  C  C472  1  0.808910  0.030140  0.319420  1.0  -0.1415
  C  C473  1  0.810820  0.045550  0.257220  1.0  0.0678
  C  C474  1  0.784180  0.016160  0.209370  1.0  -0.1541
  C  C475  1  0.755530  0.972410  0.226290  1.0  -0.0399
  C  C476  1  0.838750  0.092620  0.239740  1.0  0.0119
  C  C477  1  0.820340  0.112820  0.202970  1.0  -0.1268
  C  C478  1  0.755640  0.143450  0.638890  1.0  0.6689
  C  C479  1  0.708780  0.128880  0.621510  1.0  -0.1383
  C  C480  1  0.679280  0.126410  0.668420  1.0  -0.0427
  C  C481  1  0.636530  0.112110  0.652750  1.0  -0.1401
  C  C482  1  0.621120  0.098610  0.590550  1.0  0.0671
  C  C483  1  0.650510  0.101360  0.542700  1.0  -0.1535
  C  C484  1  0.694260  0.116460  0.559620  1.0  -0.0385
  C  C485  1  0.574050  0.079470  0.573070  1.0  0.0129
  C  C486  1  0.553850  0.040860  0.536300  1.0  -0.1215
  C  C487  1  0.422310  0.476780  0.972220  1.0  0.6692
  C  C488  1  0.375450  0.462210  0.954840  1.0  -0.1383
  C  C489  1  0.345950  0.459740  0.001750  1.0  -0.0427
  C  C490  1  0.303200  0.445440  0.986080  1.0  -0.1401
  C  C491  1  0.287790  0.431940  0.923880  1.0  0.0671
  C  C492  1  0.317180  0.434690  0.876030  1.0  -0.1535
  C  C493  1  0.360930  0.449790  0.892950  1.0  -0.0385
  C  C494  1  0.240720  0.412800  0.906400  1.0  0.0129
  C  C495  1  0.220520  0.374190  0.869630  1.0  -0.1265
  C  C496  1  0.088970  0.810120  0.305560  1.0  0.6689
  C  C497  1  0.042110  0.795550  0.288180  1.0  -0.1383
  C  C498  1  0.012610  0.793080  0.335090  1.0  -0.0427
  C  C499  1  0.969860  0.778780  0.319420  1.0  -0.1401
  C  C500  1  0.954450  0.765280  0.257220  1.0  0.0671
  C  C501  1  0.983840  0.768030  0.209370  1.0  -0.1535
  C  C502  1  0.027590  0.783130  0.226290  1.0  -0.0385
  C  C503  1  0.907380  0.746140  0.239740  1.0  0.0129
  C  C504  1  0.887180  0.707530  0.202970  1.0  -0.1215
  C  C505  1  0.856550  0.612190  0.638890  1.0  0.6695
  C  C506  1  0.871120  0.579900  0.621510  1.0  -0.1368
  C  C507  1  0.873590  0.552870  0.668420  1.0  -0.0428
  C  C508  1  0.887890  0.524420  0.652750  1.0  -0.1396
  C  C509  1  0.901390  0.522510  0.590550  1.0  0.0669
  C  C510  1  0.898640  0.549150  0.542700  1.0  -0.1558
  C  C511  1  0.883540  0.577800  0.559620  1.0  -0.0412
  C  C512  1  0.920530  0.494580  0.573070  1.0  0.0115
  C  C513  1  0.959140  0.512990  0.536300  1.0  -0.1207
  C  C514  1  0.523220  0.945520  0.972220  1.0  0.6699
  C  C515  1  0.537790  0.913230  0.954840  1.0  -0.1368
  C  C516  1  0.540260  0.886200  0.001750  1.0  -0.0428
  C  C517  1  0.554560  0.857750  0.986080  1.0  -0.1396
  C  C518  1  0.568060  0.855840  0.923880  1.0  0.0669
  C  C519  1  0.565310  0.882480  0.876030  1.0  -0.1558
  C  C520  1  0.550210  0.911130  0.892950  1.0  -0.0412
  C  C521  1  0.587200  0.827910  0.906400  1.0  0.0115
  C  C522  1  0.625810  0.846320  0.869630  1.0  -0.1163
  C  C523  1  0.189880  0.278860  0.305560  1.0  0.6695
  C  C524  1  0.204450  0.246570  0.288180  1.0  -0.1368
  C  C525  1  0.206920  0.219540  0.335090  1.0  -0.0428
  C  C526  1  0.221220  0.191090  0.319420  1.0  -0.1396
  C  C527  1  0.234720  0.189180  0.257220  1.0  0.0669
  C  C528  1  0.231970  0.215820  0.209370  1.0  -0.1558
  C  C529  1  0.216870  0.244470  0.226290  1.0  -0.0412
  C  C530  1  0.253860  0.161250  0.239740  1.0  0.0115
  C  C531  1  0.292470  0.179660  0.202970  1.0  -0.1207
  C  C532  1  0.244360  0.387810  0.361110  1.0  0.6696
  C  C533  1  0.291220  0.420100  0.378490  1.0  -0.1365
  C  C534  1  0.320720  0.447130  0.331580  1.0  -0.0437
  C  C535  1  0.363470  0.475580  0.347250  1.0  -0.1407
  C  C536  1  0.378880  0.477490  0.409450  1.0  0.0665
  C  C537  1  0.349490  0.450850  0.457300  1.0  -0.1578
  C  C538  1  0.305740  0.422200  0.440380  1.0  -0.0418
  C  C539  1  0.425950  0.505420  0.426930  1.0  0.0118
  C  C540  1  0.446150  0.487010  0.463700  1.0  -0.1188
  C  C541  1  0.911030  0.721140  0.694440  1.0  0.6696
  C  C542  1  0.957890  0.753430  0.711820  1.0  -0.1365
  C  C543  1  0.987390  0.780460  0.664910  1.0  -0.0437
  C  C544  1  0.030140  0.808910  0.680580  1.0  -0.1407
  C  C545  1  0.045550  0.810820  0.742780  1.0  0.0665
  C  C546  1  0.016160  0.784180  0.790630  1.0  -0.1578
  C  C547  1  0.972410  0.755530  0.773710  1.0  -0.0418
  C  C548  1  0.092620  0.838750  0.760260  1.0  0.0118
  C  C549  1  0.112820  0.820340  0.797030  1.0  -0.1188
  C  C550  1  0.577690  0.054480  0.027780  1.0  0.6692
  C  C551  1  0.624550  0.086770  0.045160  1.0  -0.1367
  C  C552  1  0.654050  0.113800  0.998250  1.0  -0.0437
  C  C553  1  0.696800  0.142250  0.013920  1.0  -0.1407
  C  C554  1  0.712210  0.144160  0.076120  1.0  0.0665
  C  C555  1  0.682820  0.117520  0.123970  1.0  -0.1578
  C  C556  1  0.639070  0.088870  0.107050  1.0  -0.0418
  C  C557  1  0.759280  0.172090  0.093600  1.0  0.0118
  C  C558  1  0.779480  0.153680  0.130370  1.0  -0.1188
  C  C559  1  0.143450  0.755640  0.361110  1.0  0.6702
  C  C560  1  0.128880  0.708780  0.378490  1.0  -0.1359
  C  C561  1  0.126410  0.679280  0.331580  1.0  -0.0439
  C  C562  1  0.112110  0.636530  0.347250  1.0  -0.1407
  C  C563  1  0.098610  0.621120  0.409450  1.0  0.0676
  C  C564  1  0.101360  0.650510  0.457300  1.0  -0.157
  C  C565  1  0.116460  0.694260  0.440380  1.0  -0.0422
  C  C566  1  0.079470  0.574050  0.426930  1.0  0.0123
  C  C567  1  0.040860  0.553850  0.463700  1.0  -0.121
  C  C568  1  0.810120  0.088970  0.694440  1.0  0.6702
  C  C569  1  0.795550  0.042110  0.711820  1.0  -0.1359
  C  C570  1  0.793080  0.012610  0.664910  1.0  -0.0439
  C  C571  1  0.778780  0.969860  0.680580  1.0  -0.1407
  C  C572  1  0.765280  0.954450  0.742780  1.0  0.0676
  C  C573  1  0.768030  0.983840  0.790630  1.0  -0.157
  C  C574  1  0.783130  0.027590  0.773710  1.0  -0.0422
  C  C575  1  0.746140  0.907380  0.760260  1.0  0.0123
  C  C576  1  0.707530  0.887180  0.797030  1.0  -0.121
  C  C577  1  0.476780  0.422310  0.027780  1.0  0.6705
  C  C578  1  0.462210  0.375450  0.045160  1.0  -0.1359
  C  C579  1  0.459740  0.345950  0.998250  1.0  -0.0439
  C  C580  1  0.445440  0.303200  0.013920  1.0  -0.1406
  C  C581  1  0.431940  0.287790  0.076120  1.0  0.0676
  C  C582  1  0.434690  0.317180  0.123970  1.0  -0.157
  C  C583  1  0.449790  0.360930  0.107050  1.0  -0.0422
  C  C584  1  0.412800  0.240720  0.093600  1.0  0.0123
  C  C585  1  0.374190  0.220520  0.130370  1.0  -0.1263
  C  C586  1  0.612190  0.856550  0.361110  1.0  0.6688
  C  C587  1  0.579900  0.871120  0.378490  1.0  -0.1383
  C  C588  1  0.552870  0.873590  0.331580  1.0  -0.0449
  C  C589  1  0.524420  0.887890  0.347250  1.0  -0.1402
  C  C590  1  0.522510  0.901390  0.409450  1.0  0.0666
  C  C591  1  0.549150  0.898640  0.457300  1.0  -0.1566
  C  C592  1  0.577800  0.883540  0.440380  1.0  -0.039
  C  C593  1  0.494580  0.920530  0.426930  1.0  0.0134
  C  C594  1  0.512990  0.959140  0.463700  1.0  -0.126
  C  C595  1  0.278860  0.189880  0.694440  1.0  0.6688
  C  C596  1  0.246570  0.204450  0.711820  1.0  -0.1383
  C  C597  1  0.219540  0.206920  0.664910  1.0  -0.0449
  C  C598  1  0.191090  0.221220  0.680580  1.0  -0.1402
  C  C599  1  0.189180  0.234720  0.742780  1.0  0.0666
  C  C600  1  0.215820  0.231970  0.790630  1.0  -0.1566
  C  C601  1  0.244470  0.216870  0.773710  1.0  -0.039
  C  C602  1  0.161250  0.253860  0.760260  1.0  0.0134
  C  C603  1  0.179660  0.292470  0.797030  1.0  -0.126
  C  C604  1  0.945520  0.523220  0.027780  1.0  0.6692
  C  C605  1  0.913230  0.537790  0.045160  1.0  -0.1383
  C  C606  1  0.886200  0.540260  0.998250  1.0  -0.0449
  C  C607  1  0.857750  0.554560  0.013920  1.0  -0.1402
  C  C608  1  0.855840  0.568060  0.076120  1.0  0.0666
  C  C609  1  0.882480  0.565310  0.123970  1.0  -0.1566
  C  C610  1  0.911130  0.550210  0.107050  1.0  -0.039
  C  C611  1  0.827910  0.587200  0.093600  1.0  0.0134
  C  C612  1  0.846320  0.625810  0.130370  1.0  -0.121
  C  C613  1  0.489640  0.510360  0.483400  1.0  -0.0412
  C  C614  1  0.450800  0.549200  0.409100  1.0  0.1967
  C  C615  1  0.412740  0.587260  0.406500  1.0  0.0452
  C  C616  1  0.395440  0.604560  0.350300  1.0  -0.3632
  C  C617  1  0.156310  0.843690  0.816730  1.0  -0.0412
  C  C618  1  0.117470  0.882530  0.742430  1.0  0.1967
  C  C619  1  0.079410  0.920590  0.739830  1.0  0.0452
  C  C620  1  0.062110  0.937890  0.683630  1.0  -0.3632
  C  C621  1  0.822970  0.177030  0.150070  1.0  -0.0412
  C  C622  1  0.784130  0.215870  0.075770  1.0  0.1967
  C  C623  1  0.746070  0.253930  0.073170  1.0  0.0452
  C  C624  1  0.728770  0.271230  0.016970  1.0  -0.3632
  C  C625  1  0.489640  0.979280  0.483400  1.0  -0.0441
  C  C626  1  0.450800  0.901600  0.409100  1.0  0.1918
  C  C627  1  0.412740  0.825480  0.406500  1.0  0.0434
  C  C628  1  0.395440  0.790880  0.350300  1.0  -0.3622
  C  C629  1  0.156310  0.312610  0.816730  1.0  -0.0441
  C  C630  1  0.117470  0.234930  0.742430  1.0  0.1918
  C  C631  1  0.079410  0.158810  0.739830  1.0  0.0434
  C  C632  1  0.062110  0.124210  0.683630  1.0  -0.3622
  C  C633  1  0.822970  0.645950  0.150070  1.0  -0.0441
  C  C634  1  0.784130  0.568270  0.075770  1.0  0.1919
  C  C635  1  0.746070  0.492150  0.073170  1.0  0.0434
  C  C636  1  0.728770  0.457550  0.016970  1.0  -0.3622
  C  C637  1  0.020720  0.510360  0.483400  1.0  -0.0454
  C  C638  1  0.098400  0.549200  0.409100  1.0  0.1912
  C  C639  1  0.174520  0.587260  0.406500  1.0  0.0457
  C  C640  1  0.209120  0.604560  0.350300  1.0  -0.3641
  C  C641  1  0.687390  0.843690  0.816730  1.0  -0.0454
  C  C642  1  0.765070  0.882530  0.742430  1.0  0.1912
  C  C643  1  0.841190  0.920590  0.739830  1.0  0.0457
  C  C644  1  0.875790  0.937890  0.683630  1.0  -0.3641
  C  C645  1  0.354050  0.177030  0.150070  1.0  -0.0454
  C  C646  1  0.431730  0.215870  0.075770  1.0  0.1912
  C  C647  1  0.507850  0.253930  0.073170  1.0  0.0457
  C  C648  1  0.542450  0.271230  0.016970  1.0  -0.3641
  C  C649  1  0.510360  0.489640  0.516600  1.0  -0.0411
  C  C650  1  0.549200  0.450800  0.590900  1.0  0.1967
  C  C651  1  0.587260  0.412740  0.593500  1.0  0.0458
  C  C652  1  0.604560  0.395440  0.649700  1.0  -0.362
  C  C653  1  0.177030  0.822970  0.849930  1.0  -0.0411
  C  C654  1  0.215870  0.784130  0.924230  1.0  0.1967
  C  C655  1  0.253930  0.746070  0.926830  1.0  0.0458
  C  C656  1  0.271230  0.728770  0.983030  1.0  -0.362
  C  C657  1  0.843690  0.156310  0.183270  1.0  -0.0411
  C  C658  1  0.882530  0.117470  0.257570  1.0  0.1967
  C  C659  1  0.920590  0.079410  0.260170  1.0  0.0458
  C  C660  1  0.937890  0.062110  0.316370  1.0  -0.362
  C  C661  1  0.979280  0.489640  0.516600  1.0  -0.0457
  C  C662  1  0.901600  0.450800  0.590900  1.0  0.1911
  C  C663  1  0.825480  0.412740  0.593500  1.0  0.046
  C  C664  1  0.790880  0.395440  0.649700  1.0  -0.3623
  C  C665  1  0.645950  0.822970  0.849930  1.0  -0.0457
  C  C666  1  0.568270  0.784130  0.924230  1.0  0.1911
  C  C667  1  0.492150  0.746070  0.926830  1.0  0.046
  C  C668  1  0.457550  0.728770  0.983030  1.0  -0.3623
  C  C669  1  0.312610  0.156310  0.183270  1.0  -0.0457
  C  C670  1  0.234930  0.117470  0.257570  1.0  0.1911
  C  C671  1  0.158810  0.079410  0.260170  1.0  0.046
  C  C672  1  0.124210  0.062110  0.316370  1.0  -0.3623
  C  C673  1  0.510360  0.020720  0.516600  1.0  -0.0446
  C  C674  1  0.549200  0.098400  0.590900  1.0  0.1913
  C  C675  1  0.587260  0.174520  0.593500  1.0  0.0429
  C  C676  1  0.604560  0.209120  0.649700  1.0  -0.3631
  C  C677  1  0.177030  0.354050  0.849930  1.0  -0.0446
  C  C678  1  0.215870  0.431730  0.924230  1.0  0.1913
  C  C679  1  0.253930  0.507850  0.926830  1.0  0.0429
  C  C680  1  0.271230  0.542450  0.983030  1.0  -0.3631
  C  C681  1  0.843690  0.687390  0.183270  1.0  -0.0446
  C  C682  1  0.882530  0.765070  0.257570  1.0  0.1913
  C  C683  1  0.920590  0.841190  0.260170  1.0  0.0429
  C  C684  1  0.937890  0.875790  0.316370  1.0  -0.363
  O  O685  1  0.636490  0.779360  0.406660  1.0  -0.5632
  O  O686  1  0.611590  0.766950  0.302910  1.0  -0.5596
  O  O687  1  0.303160  0.112690  0.739990  1.0  -0.5637
  O  O688  1  0.278260  0.100280  0.636240  1.0  -0.5604
  O  O689  1  0.969820  0.446030  0.073330  1.0  -0.5632
  O  O690  1  0.944920  0.433620  0.969580  1.0  -0.5596
  O  O691  1  0.220640  0.857130  0.406660  1.0  -0.564
  O  O692  1  0.233050  0.844640  0.302910  1.0  -0.5615
  O  O693  1  0.887310  0.190460  0.739990  1.0  -0.5639
  O  O694  1  0.899720  0.177970  0.636240  1.0  -0.5615
  O  O695  1  0.553970  0.523800  0.073330  1.0  -0.564
  O  O696  1  0.566380  0.511310  0.969580  1.0  -0.5615
  O  O697  1  0.142870  0.363510  0.406660  1.0  -0.5645
  O  O698  1  0.155360  0.388410  0.302910  1.0  -0.5605
  O  O699  1  0.809540  0.696840  0.739990  1.0  -0.5656
  O  O700  1  0.822030  0.721740  0.636240  1.0  -0.561
  O  O701  1  0.476200  0.030180  0.073330  1.0  -0.5645
  O  O702  1  0.488690  0.055080  0.969580  1.0  -0.5605
  O  O703  1  0.779360  0.636490  0.593340  1.0  -0.5658
  O  O704  1  0.766950  0.611590  0.697090  1.0  -0.5598
  O  O705  1  0.446030  0.969820  0.926670  1.0  -0.5658
  O  O706  1  0.433620  0.944920  0.030420  1.0  -0.5598
  O  O707  1  0.112690  0.303160  0.260010  1.0  -0.5657
  O  O708  1  0.100280  0.278260  0.363760  1.0  -0.5607
  O  O709  1  0.857130  0.220640  0.593340  1.0  -0.5648
  O  O710  1  0.844640  0.233050  0.697090  1.0  -0.561
  O  O711  1  0.523800  0.553970  0.926670  1.0  -0.5649
  O  O712  1  0.511310  0.566380  0.030420  1.0  -0.561
  O  O713  1  0.190460  0.887310  0.260010  1.0  -0.5648
  O  O714  1  0.177970  0.899720  0.363760  1.0  -0.561
  O  O715  1  0.363510  0.142870  0.593340  1.0  -0.565
  O  O716  1  0.388410  0.155360  0.697090  1.0  -0.5605
  O  O717  1  0.030180  0.476200  0.926670  1.0  -0.565
  O  O718  1  0.055080  0.488690  0.030420  1.0  -0.5605
  O  O719  1  0.696840  0.809540  0.260010  1.0  -0.5665
  O  O720  1  0.721740  0.822030  0.363760  1.0  -0.5609
  O  O721  1  0.363510  0.220640  0.593340  1.0  -0.5649
  O  O722  1  0.388410  0.233050  0.697090  1.0  -0.5589
  O  O723  1  0.030180  0.553970  0.926670  1.0  -0.5649
  O  O724  1  0.055080  0.566380  0.030420  1.0  -0.5589
  O  O725  1  0.696840  0.887310  0.260010  1.0  -0.5646
  O  O726  1  0.721740  0.899720  0.363760  1.0  -0.5599
  O  O727  1  0.779360  0.142870  0.593340  1.0  -0.5645
  O  O728  1  0.766950  0.155360  0.697090  1.0  -0.5611
  O  O729  1  0.446030  0.476200  0.926670  1.0  -0.5645
  O  O730  1  0.433620  0.488690  0.030420  1.0  -0.5611
  O  O731  1  0.112690  0.809540  0.260010  1.0  -0.5644
  O  O732  1  0.100280  0.822030  0.363760  1.0  -0.5611
  O  O733  1  0.857130  0.636490  0.593340  1.0  -0.5648
  O  O734  1  0.844640  0.611590  0.697090  1.0  -0.5603
  O  O735  1  0.523800  0.969820  0.926670  1.0  -0.5648
  O  O736  1  0.511310  0.944920  0.030420  1.0  -0.5603
  O  O737  1  0.190460  0.303160  0.260010  1.0  -0.5663
  O  O738  1  0.177970  0.278260  0.363760  1.0  -0.5609
  O  O739  1  0.220640  0.363510  0.406660  1.0  -0.5646
  O  O740  1  0.233050  0.388410  0.302910  1.0  -0.5598
  O  O741  1  0.887310  0.696840  0.739990  1.0  -0.5648
  O  O742  1  0.899720  0.721740  0.636240  1.0  -0.5602
  O  O743  1  0.553970  0.030180  0.073330  1.0  -0.5646
  O  O744  1  0.566380  0.055080  0.969580  1.0  -0.5598
  O  O745  1  0.142870  0.779360  0.406660  1.0  -0.5648
  O  O746  1  0.155360  0.766950  0.302910  1.0  -0.5604
  O  O747  1  0.809540  0.112690  0.739990  1.0  -0.5647
  O  O748  1  0.822030  0.100280  0.636240  1.0  -0.5604
  O  O749  1  0.476200  0.446030  0.073330  1.0  -0.5648
  O  O750  1  0.488690  0.433620  0.969580  1.0  -0.5604
  O  O751  1  0.636490  0.857130  0.406660  1.0  -0.5637
  O  O752  1  0.611590  0.844640  0.302910  1.0  -0.5613
  O  O753  1  0.303160  0.190460  0.739990  1.0  -0.5646
  O  O754  1  0.278260  0.177970  0.636240  1.0  -0.5614
  O  O755  1  0.969820  0.523800  0.073330  1.0  -0.5637
  O  O756  1  0.944920  0.511310  0.969580  1.0  -0.5613
  O  O757  1  0.432330  0.567670  0.370200  1.0  -0.3205
  O  O758  1  0.099000  0.901000  0.703530  1.0  -0.3205
  O  O759  1  0.765660  0.234340  0.036870  1.0  -0.3205
  O  O760  1  0.432330  0.864660  0.370200  1.0  -0.3194
  O  O761  1  0.099000  0.197990  0.703530  1.0  -0.3194
  O  O762  1  0.765660  0.531330  0.036870  1.0  -0.3194
  O  O763  1  0.135340  0.567670  0.370200  1.0  -0.3207
  O  O764  1  0.802010  0.901000  0.703530  1.0  -0.3207
  O  O765  1  0.468670  0.234340  0.036870  1.0  -0.3207
  O  O766  1  0.567670  0.432330  0.629800  1.0  -0.3242
  O  O767  1  0.234340  0.765660  0.963130  1.0  -0.3242
  O  O768  1  0.901000  0.099000  0.296470  1.0  -0.3242
  O  O769  1  0.864660  0.432330  0.629800  1.0  -0.324
  O  O770  1  0.531330  0.765660  0.963130  1.0  -0.324
  O  O771  1  0.197990  0.099000  0.296470  1.0  -0.324
  O  O772  1  0.567670  0.135340  0.629800  1.0  -0.3225
  O  O773  1  0.234340  0.468670  0.963130  1.0  -0.3225
  O  O774  1  0.901000  0.802010  0.296470  1.0  -0.3225
