# generated using pymatgen
data_CuH15C22O5
_symmetry_space_group_name_H-M   'P 1'
_cell_length_a   35.27950000
_cell_length_b   35.27950000
_cell_length_c   21.02500000
_cell_angle_alpha   90.00000000
_cell_angle_beta   90.00000000
_cell_angle_gamma   120.00000000
_symmetry_Int_Tables_number   1
_chemical_formula_structural   CuH15C22O5
_chemical_formula_sum   'Cu18 H270 C396 O90'
_cell_volume   22662.69109044
_cell_formula_units_Z   18
loop_
 _symmetry_equiv_pos_site_id
 _symmetry_equiv_pos_as_xyz
  1  'x, y, z'
loop_
 _atom_site_type_symbol
 _atom_site_label
 _atom_site_symmetry_multiplicity
 _atom_site_fract_x
 _atom_site_fract_y
 _atom_site_fract_z
 _atom_site_occupancy
 _atom_site_charge
  Cu  Cu1  1  0.507640  0.492360  0.441820  1.0  0.926
  Cu  Cu2  1  0.174310  0.825690  0.775150  1.0  0.926
  Cu  Cu3  1  0.840970  0.159030  0.108490  1.0  0.926
  Cu  Cu4  1  0.507640  0.015280  0.441820  1.0  0.9243
  Cu  Cu5  1  0.174310  0.348610  0.775150  1.0  0.9243
  Cu  Cu6  1  0.840970  0.681950  0.108490  1.0  0.9243
  Cu  Cu7  1  0.984720  0.492360  0.441820  1.0  0.925
  Cu  Cu8  1  0.651390  0.825690  0.775150  1.0  0.925
  Cu  Cu9  1  0.318050  0.159030  0.108490  1.0  0.925
  Cu  Cu10  1  0.492360  0.507640  0.558180  1.0  0.9255
  Cu  Cu11  1  0.159030  0.840970  0.891510  1.0  0.9255
  Cu  Cu12  1  0.825690  0.174310  0.224850  1.0  0.9255
  Cu  Cu13  1  0.015280  0.507640  0.558180  1.0  0.9252
  Cu  Cu14  1  0.681950  0.840970  0.891510  1.0  0.9252
  Cu  Cu15  1  0.348610  0.174310  0.224850  1.0  0.9252
  Cu  Cu16  1  0.492360  0.984720  0.558180  1.0  0.9245
  Cu  Cu17  1  0.159030  0.318050  0.891510  1.0  0.9245
  Cu  Cu18  1  0.825690  0.651390  0.224850  1.0  0.9245
  H  H19  1  0.528700  0.644300  0.540700  1.0  0.1087
  H  H20  1  0.552200  0.716900  0.511300  1.0  0.1058
  H  H21  1  0.576400  0.691800  0.333800  1.0  0.1127
  H  H22  1  0.551900  0.619100  0.362000  1.0  0.1112
  H  H23  1  0.638100  0.762000  0.356300  1.0  0.1094
  H  H24  1  0.488000  0.721300  0.389600  1.0  0.0796
  H  H25  1  0.451700  0.748500  0.488100  1.0  0.114
  H  H26  1  0.195370  0.977630  0.874030  1.0  0.1087
  H  H27  1  0.218870  0.050230  0.844630  1.0  0.1046
  H  H28  1  0.243070  0.025130  0.667130  1.0  0.1135
  H  H29  1  0.218570  0.952430  0.695330  1.0  0.1112
  H  H30  1  0.304770  0.095330  0.689630  1.0  0.1094
  H  H31  1  0.154670  0.054630  0.722930  1.0  0.079
  H  H32  1  0.118370  0.081830  0.821430  1.0  0.1134
  H  H33  1  0.862030  0.310970  0.207370  1.0  0.1087
  H  H34  1  0.885530  0.383570  0.177970  1.0  0.1058
  H  H35  1  0.909730  0.358470  0.000470  1.0  0.1127
  H  H36  1  0.885230  0.285770  0.028670  1.0  0.1112
  H  H37  1  0.971430  0.428670  0.022970  1.0  0.1094
  H  H38  1  0.821330  0.387970  0.056270  1.0  0.0791
  H  H39  1  0.785030  0.415170  0.154770  1.0  0.114
  H  H40  1  0.355700  0.884400  0.540700  1.0  0.109
  H  H41  1  0.283100  0.835300  0.511300  1.0  0.1052
  H  H42  1  0.308200  0.884600  0.333800  1.0  0.1138
  H  H43  1  0.380900  0.932800  0.362000  1.0  0.1115
  H  H44  1  0.238000  0.876100  0.356300  1.0  0.1098
  H  H45  1  0.278700  0.766700  0.389600  1.0  0.0819
  H  H46  1  0.251500  0.703200  0.488100  1.0  0.1153
  H  H47  1  0.022370  0.217730  0.874030  1.0  0.1115
  H  H48  1  0.949770  0.168630  0.844630  1.0  0.1052
  H  H49  1  0.974870  0.217930  0.667130  1.0  0.1138
  H  H50  1  0.047570  0.266130  0.695330  1.0  0.1109
  H  H51  1  0.904670  0.209430  0.689630  1.0  0.1098
  H  H52  1  0.945370  0.100030  0.722930  1.0  0.0791
  H  H53  1  0.918170  0.036530  0.821430  1.0  0.1135
  H  H54  1  0.689030  0.551070  0.207370  1.0  0.109
  H  H55  1  0.616430  0.501970  0.177970  1.0  0.1052
  H  H56  1  0.641530  0.551270  0.000470  1.0  0.1139
  H  H57  1  0.714230  0.599470  0.028670  1.0  0.1114
  H  H58  1  0.571330  0.542770  0.022970  1.0  0.1098
  H  H59  1  0.612030  0.433370  0.056270  1.0  0.0809
  H  H60  1  0.584830  0.369870  0.154770  1.0  0.1153
  H  H61  1  0.115600  0.471300  0.540700  1.0  0.111
  H  H62  1  0.164700  0.447800  0.511300  1.0  0.1051
  H  H63  1  0.115400  0.423600  0.333800  1.0  0.1132
  H  H64  1  0.067200  0.448100  0.362000  1.0  0.1108
  H  H65  1  0.123900  0.361900  0.356300  1.0  0.1104
  H  H66  1  0.233300  0.512000  0.389600  1.0  0.0776
  H  H67  1  0.296800  0.548300  0.488100  1.0  0.1117
  H  H68  1  0.782270  0.804630  0.874030  1.0  0.1084
  H  H69  1  0.831370  0.781130  0.844630  1.0  0.1062
  H  H70  1  0.782070  0.756930  0.667130  1.0  0.1124
  H  H71  1  0.733870  0.781430  0.695330  1.0  0.1114
  H  H72  1  0.790570  0.695230  0.689630  1.0  0.1104
  H  H73  1  0.899970  0.845330  0.722930  1.0  0.0769
  H  H74  1  0.963470  0.881630  0.821430  1.0  0.1129
  H  H75  1  0.448930  0.137970  0.207370  1.0  0.111
  H  H76  1  0.498030  0.114470  0.177970  1.0  0.1051
  H  H77  1  0.448730  0.090270  0.000470  1.0  0.1131
  H  H78  1  0.400530  0.114770  0.028670  1.0  0.1106
  H  H79  1  0.457230  0.028570  0.022970  1.0  0.1104
  H  H80  1  0.566630  0.178670  0.056270  1.0  0.0798
  H  H81  1  0.630130  0.214970  0.154770  1.0  0.1117
  H  H82  1  0.644300  0.528700  0.459300  1.0  0.109
  H  H83  1  0.716900  0.552200  0.488700  1.0  0.1063
  H  H84  1  0.691800  0.576400  0.666200  1.0  0.1128
  H  H85  1  0.619100  0.551900  0.638000  1.0  0.1113
  H  H86  1  0.762000  0.638100  0.643700  1.0  0.1097
  H  H87  1  0.721300  0.488000  0.610400  1.0  0.0778
  H  H88  1  0.748500  0.451700  0.511900  1.0  0.1112
  H  H89  1  0.310970  0.862030  0.792630  1.0  0.109
  H  H90  1  0.383570  0.885530  0.822030  1.0  0.1063
  H  H91  1  0.358470  0.909730  0.999530  1.0  0.1128
  H  H92  1  0.285770  0.885230  0.971330  1.0  0.1113
  H  H93  1  0.428670  0.971430  0.977030  1.0  0.1097
  H  H94  1  0.387970  0.821330  0.943730  1.0  0.0775
  H  H95  1  0.415170  0.785030  0.845230  1.0  0.1112
  H  H96  1  0.977630  0.195370  0.125970  1.0  0.109
  H  H97  1  0.050230  0.218870  0.155370  1.0  0.1051
  H  H98  1  0.025130  0.243070  0.332870  1.0  0.1133
  H  H99  1  0.952430  0.218570  0.304670  1.0  0.1113
  H  H100  1  0.095330  0.304770  0.310370  1.0  0.1097
  H  H101  1  0.054630  0.154670  0.277070  1.0  0.0779
  H  H102  1  0.081830  0.118370  0.178570  1.0  0.1107
  H  H103  1  0.884400  0.355700  0.459300  1.0  0.1091
  H  H104  1  0.835300  0.283100  0.488700  1.0  0.1048
  H  H105  1  0.884600  0.308200  0.666200  1.0  0.113
  H  H106  1  0.932800  0.380900  0.638000  1.0  0.1112
  H  H107  1  0.876100  0.238000  0.643700  1.0  0.1092
  H  H108  1  0.766700  0.278700  0.610400  1.0  0.081
  H  H109  1  0.703200  0.251500  0.511900  1.0  0.1145
  H  H110  1  0.551070  0.689030  0.792630  1.0  0.1091
  H  H111  1  0.501970  0.616430  0.822030  1.0  0.1048
  H  H112  1  0.551270  0.641530  0.999530  1.0  0.1131
  H  H113  1  0.599470  0.714230  0.971330  1.0  0.1112
  H  H114  1  0.542770  0.571330  0.977030  1.0  0.1092
  H  H115  1  0.433370  0.612030  0.943730  1.0  0.081
  H  H116  1  0.369870  0.584830  0.845230  1.0  0.1145
  H  H117  1  0.217730  0.022370  0.125970  1.0  0.1112
  H  H118  1  0.168630  0.949770  0.155370  1.0  0.1048
  H  H119  1  0.217930  0.974870  0.332870  1.0  0.113
  H  H120  1  0.266130  0.047570  0.304670  1.0  0.1107
  H  H121  1  0.209430  0.904670  0.310370  1.0  0.1092
  H  H122  1  0.100030  0.945370  0.277070  1.0  0.0797
  H  H123  1  0.036530  0.918170  0.178570  1.0  0.1134
  H  H124  1  0.471300  0.115600  0.459300  1.0  0.1116
  H  H125  1  0.447800  0.164700  0.488700  1.0  0.1049
  H  H126  1  0.423600  0.115400  0.666200  1.0  0.1134
  H  H127  1  0.448100  0.067200  0.638000  1.0  0.111
  H  H128  1  0.361900  0.123900  0.643700  1.0  0.1091
  H  H129  1  0.512000  0.233300  0.610400  1.0  0.08
  H  H130  1  0.548300  0.296800  0.511900  1.0  0.1153
  H  H131  1  0.137970  0.448930  0.792630  1.0  0.1116
  H  H132  1  0.114470  0.498030  0.822030  1.0  0.1049
  H  H133  1  0.090270  0.448730  0.999530  1.0  0.1133
  H  H134  1  0.114770  0.400530  0.971330  1.0  0.1109
  H  H135  1  0.028570  0.457230  0.977030  1.0  0.1091
  H  H136  1  0.178670  0.566630  0.943730  1.0  0.0834
  H  H137  1  0.214970  0.630130  0.845230  1.0  0.1153
  H  H138  1  0.804630  0.782270  0.125970  1.0  0.1095
  H  H139  1  0.781130  0.831370  0.155370  1.0  0.1058
  H  H140  1  0.756930  0.782070  0.332870  1.0  0.113
  H  H141  1  0.781430  0.733870  0.304670  1.0  0.1115
  H  H142  1  0.695230  0.790570  0.310370  1.0  0.1091
  H  H143  1  0.845330  0.899970  0.277070  1.0  0.0801
  H  H144  1  0.881630  0.963470  0.178570  1.0  0.116
  H  H145  1  0.471300  0.355700  0.459300  1.0  0.1091
  H  H146  1  0.447800  0.283100  0.488700  1.0  0.1061
  H  H147  1  0.423600  0.308200  0.666200  1.0  0.1127
  H  H148  1  0.448100  0.380900  0.638000  1.0  0.111
  H  H149  1  0.361900  0.238000  0.643700  1.0  0.1095
  H  H150  1  0.512000  0.278700  0.610400  1.0  0.081
  H  H151  1  0.548300  0.251500  0.511900  1.0  0.1139
  H  H152  1  0.137970  0.689030  0.792630  1.0  0.1091
  H  H153  1  0.114470  0.616430  0.822030  1.0  0.1061
  H  H154  1  0.090270  0.641530  0.999530  1.0  0.1127
  H  H155  1  0.114770  0.714230  0.971330  1.0  0.111
  H  H156  1  0.028570  0.571330  0.977030  1.0  0.1095
  H  H157  1  0.178670  0.612030  0.943730  1.0  0.0799
  H  H158  1  0.214970  0.584830  0.845230  1.0  0.1139
  H  H159  1  0.804630  0.022370  0.125970  1.0  0.1091
  H  H160  1  0.781130  0.949770  0.155370  1.0  0.1048
  H  H161  1  0.756930  0.974870  0.332870  1.0  0.1133
  H  H162  1  0.781430  0.047570  0.304670  1.0  0.111
  H  H163  1  0.695230  0.904670  0.310370  1.0  0.1095
  H  H164  1  0.845330  0.945370  0.277070  1.0  0.0806
  H  H165  1  0.881630  0.918170  0.178570  1.0  0.1136
  H  H166  1  0.644300  0.115600  0.459300  1.0  0.1093
  H  H167  1  0.716900  0.164700  0.488700  1.0  0.1051
  H  H168  1  0.691800  0.115400  0.666200  1.0  0.114
  H  H169  1  0.619100  0.067200  0.638000  1.0  0.1114
  H  H170  1  0.762000  0.123900  0.643700  1.0  0.1095
  H  H171  1  0.721300  0.233300  0.610400  1.0  0.0823
  H  H172  1  0.748500  0.296800  0.511900  1.0  0.114
  H  H173  1  0.310970  0.448930  0.792630  1.0  0.1093
  H  H174  1  0.383570  0.498030  0.822030  1.0  0.1051
  H  H175  1  0.358470  0.448730  0.999530  1.0  0.114
  H  H176  1  0.285770  0.400530  0.971330  1.0  0.1113
  H  H177  1  0.428670  0.457230  0.977030  1.0  0.1095
  H  H178  1  0.387970  0.566630  0.943730  1.0  0.0823
  H  H179  1  0.415170  0.630130  0.845230  1.0  0.114
  H  H180  1  0.977630  0.782270  0.125970  1.0  0.1115
  H  H181  1  0.050230  0.831370  0.155370  1.0  0.1051
  H  H182  1  0.025130  0.782070  0.332870  1.0  0.114
  H  H183  1  0.952430  0.733870  0.304670  1.0  0.1109
  H  H184  1  0.095330  0.790570  0.310370  1.0  0.1095
  H  H185  1  0.054630  0.899970  0.277070  1.0  0.0807
  H  H186  1  0.081830  0.963470  0.178570  1.0  0.1128
  H  H187  1  0.884400  0.528700  0.459300  1.0  0.1106
  H  H188  1  0.835300  0.552200  0.488700  1.0  0.1055
  H  H189  1  0.884600  0.576400  0.666200  1.0  0.1135
  H  H190  1  0.932800  0.551900  0.638000  1.0  0.111
  H  H191  1  0.876100  0.638100  0.643700  1.0  0.1098
  H  H192  1  0.766700  0.488000  0.610400  1.0  0.0786
  H  H193  1  0.703200  0.451700  0.511900  1.0  0.1111
  H  H194  1  0.551070  0.862030  0.792630  1.0  0.1106
  H  H195  1  0.501970  0.885530  0.822030  1.0  0.1055
  H  H196  1  0.551270  0.909730  0.999530  1.0  0.1134
  H  H197  1  0.599470  0.885230  0.971330  1.0  0.1109
  H  H198  1  0.542770  0.971430  0.977030  1.0  0.1098
  H  H199  1  0.433370  0.821330  0.943730  1.0  0.0809
  H  H200  1  0.369870  0.785030  0.845230  1.0  0.1111
  H  H201  1  0.217730  0.195370  0.125970  1.0  0.1085
  H  H202  1  0.168630  0.218870  0.155370  1.0  0.1063
  H  H203  1  0.217930  0.243070  0.332870  1.0  0.1131
  H  H204  1  0.266130  0.218570  0.304670  1.0  0.1116
  H  H205  1  0.209430  0.304770  0.310370  1.0  0.1098
  H  H206  1  0.100030  0.154670  0.277070  1.0  0.0776
  H  H207  1  0.036530  0.118370  0.178570  1.0  0.1128
  H  H208  1  0.355700  0.471300  0.540700  1.0  0.1083
  H  H209  1  0.283100  0.447800  0.511300  1.0  0.1065
  H  H210  1  0.308200  0.423600  0.333800  1.0  0.1131
  H  H211  1  0.380900  0.448100  0.362000  1.0  0.1119
  H  H212  1  0.238000  0.361900  0.356300  1.0  0.1098
  H  H213  1  0.278700  0.512000  0.389600  1.0  0.0776
  H  H214  1  0.251500  0.548300  0.488100  1.0  0.1119
  H  H215  1  0.022370  0.804630  0.874030  1.0  0.1083
  H  H216  1  0.949770  0.781130  0.844630  1.0  0.1051
  H  H217  1  0.974870  0.756930  0.667130  1.0  0.114
  H  H218  1  0.047570  0.781430  0.695330  1.0  0.1119
  H  H219  1  0.904670  0.695230  0.689630  1.0  0.1098
  H  H220  1  0.945370  0.845330  0.722930  1.0  0.0786
  H  H221  1  0.918170  0.881630  0.821430  1.0  0.1115
  H  H222  1  0.689030  0.137970  0.207370  1.0  0.1083
  H  H223  1  0.616430  0.114470  0.177970  1.0  0.1065
  H  H224  1  0.641530  0.090270  0.000470  1.0  0.1131
  H  H225  1  0.714230  0.114770  0.028670  1.0  0.1119
  H  H226  1  0.571330  0.028570  0.022970  1.0  0.1098
  H  H227  1  0.612030  0.178670  0.056270  1.0  0.0777
  H  H228  1  0.584830  0.214970  0.154770  1.0  0.1119
  H  H229  1  0.115600  0.644300  0.540700  1.0  0.1085
  H  H230  1  0.164700  0.716900  0.511300  1.0  0.1047
  H  H231  1  0.115400  0.691800  0.333800  1.0  0.1136
  H  H232  1  0.067200  0.619100  0.362000  1.0  0.111
  H  H233  1  0.123900  0.762000  0.356300  1.0  0.1091
  H  H234  1  0.233300  0.721300  0.389600  1.0  0.0812
  H  H235  1  0.296800  0.748500  0.488100  1.0  0.1148
  H  H236  1  0.782270  0.977630  0.874030  1.0  0.1111
  H  H237  1  0.831370  0.050230  0.844630  1.0  0.1047
  H  H238  1  0.782070  0.025130  0.667130  1.0  0.1136
  H  H239  1  0.733870  0.952430  0.695330  1.0  0.1105
  H  H240  1  0.790570  0.095330  0.689630  1.0  0.1091
  H  H241  1  0.899970  0.054630  0.722930  1.0  0.0788
  H  H242  1  0.963470  0.081830  0.821430  1.0  0.1135
  H  H243  1  0.448930  0.310970  0.207370  1.0  0.1085
  H  H244  1  0.498030  0.383570  0.177970  1.0  0.1047
  H  H245  1  0.448730  0.358470  0.000470  1.0  0.1137
  H  H246  1  0.400530  0.285770  0.028670  1.0  0.1111
  H  H247  1  0.457230  0.428670  0.022970  1.0  0.1091
  H  H248  1  0.566630  0.387970  0.056270  1.0  0.0813
  H  H249  1  0.630130  0.415170  0.154770  1.0  0.1148
  H  H250  1  0.528700  0.884400  0.540700  1.0  0.1112
  H  H251  1  0.552200  0.835300  0.511300  1.0  0.105
  H  H252  1  0.576400  0.884600  0.333800  1.0  0.1138
  H  H253  1  0.551900  0.932800  0.362000  1.0  0.1103
  H  H254  1  0.638100  0.876100  0.356300  1.0  0.1098
  H  H255  1  0.488000  0.766700  0.389600  1.0  0.079
  H  H256  1  0.451700  0.703200  0.488100  1.0  0.1136
  H  H257  1  0.195370  0.217730  0.874030  1.0  0.1089
  H  H258  1  0.218870  0.168630  0.844630  1.0  0.1061
  H  H259  1  0.243070  0.217930  0.667130  1.0  0.113
  H  H260  1  0.218570  0.266130  0.695330  1.0  0.111
  H  H261  1  0.304770  0.209430  0.689630  1.0  0.1098
  H  H262  1  0.154670  0.100030  0.722930  1.0  0.0785
  H  H263  1  0.118370  0.036530  0.821430  1.0  0.1151
  H  H264  1  0.862030  0.551070  0.207370  1.0  0.1112
  H  H265  1  0.885530  0.501970  0.177970  1.0  0.105
  H  H266  1  0.909730  0.551270  0.000470  1.0  0.1138
  H  H267  1  0.885230  0.599470  0.028670  1.0  0.1103
  H  H268  1  0.971430  0.542770  0.022970  1.0  0.1098
  H  H269  1  0.821330  0.433370  0.056270  1.0  0.0826
  H  H270  1  0.785030  0.369870  0.154770  1.0  0.1136
  H  H271  1  0.423500  0.711750  0.436400  1.0  0.1197
  H  H272  1  0.090170  0.045080  0.769730  1.0  0.1189
  H  H273  1  0.756830  0.378420  0.103070  1.0  0.1207
  H  H274  1  0.288250  0.711750  0.436400  1.0  0.1202
  H  H275  1  0.954920  0.045080  0.769730  1.0  0.12
  H  H276  1  0.621580  0.378420  0.103070  1.0  0.1205
  H  H277  1  0.288250  0.576500  0.436400  1.0  0.122
  H  H278  1  0.954920  0.909830  0.769730  1.0  0.1215
  H  H279  1  0.621580  0.243170  0.103070  1.0  0.1225
  H  H280  1  0.711750  0.423500  0.563600  1.0  0.1193
  H  H281  1  0.378420  0.756830  0.896930  1.0  0.1204
  H  H282  1  0.045080  0.090170  0.230270  1.0  0.1188
  H  H283  1  0.711750  0.288250  0.563600  1.0  0.1183
  H  H284  1  0.378420  0.621580  0.896930  1.0  0.1185
  H  H285  1  0.045080  0.954920  0.230270  1.0  0.1185
  H  H286  1  0.576500  0.288250  0.563600  1.0  0.1217
  H  H287  1  0.243170  0.621580  0.896930  1.0  0.1224
  H  H288  1  0.909830  0.954920  0.230270  1.0  0.1207
  C  C289  1  0.523040  0.577810  0.472270  1.0  0.6765
  C  C290  1  0.538060  0.624790  0.453390  1.0  -0.1197
  C  C291  1  0.538210  0.653830  0.498490  1.0  -0.0768
  C  C292  1  0.552580  0.697170  0.480870  1.0  -0.1231
  C  C293  1  0.567160  0.711610  0.420470  1.0  0.0421
  C  C294  1  0.566710  0.682240  0.375950  1.0  -0.1557
  C  C295  1  0.552110  0.638940  0.392730  1.0  -0.0362
  C  C296  1  0.586270  0.758680  0.402010  1.0  -0.0219
  C  C297  1  0.625090  0.778950  0.367930  1.0  -0.1378
  C  C298  1  0.189710  0.911140  0.805600  1.0  0.6765
  C  C299  1  0.204730  0.958120  0.786720  1.0  -0.1197
  C  C300  1  0.204880  0.987160  0.831820  1.0  -0.0766
  C  C301  1  0.219250  0.030500  0.814200  1.0  -0.1231
  C  C302  1  0.233830  0.044940  0.753800  1.0  0.0421
  C  C303  1  0.233380  0.015570  0.709280  1.0  -0.1557
  C  C304  1  0.218780  0.972270  0.726060  1.0  -0.0362
  C  C305  1  0.252940  0.092010  0.735340  1.0  -0.0219
  C  C306  1  0.291760  0.112280  0.701260  1.0  -0.139
  C  C307  1  0.856370  0.244480  0.138940  1.0  0.6765
  C  C308  1  0.871390  0.291460  0.120060  1.0  -0.1197
  C  C309  1  0.871540  0.320500  0.165160  1.0  -0.0768
  C  C310  1  0.885910  0.363840  0.147540  1.0  -0.1231
  C  C311  1  0.900490  0.378280  0.087140  1.0  0.0421
  C  C312  1  0.900040  0.348910  0.042620  1.0  -0.1557
  C  C313  1  0.885440  0.305610  0.059400  1.0  -0.0362
  C  C314  1  0.919600  0.425350  0.068680  1.0  -0.0217
  C  C315  1  0.958420  0.445620  0.034600  1.0  -0.1375
  C  C316  1  0.422190  0.945230  0.472270  1.0  0.6763
  C  C317  1  0.375210  0.913270  0.453390  1.0  -0.1208
  C  C318  1  0.346170  0.884380  0.498490  1.0  -0.0766
  C  C319  1  0.302830  0.855410  0.480870  1.0  -0.1225
  C  C320  1  0.288390  0.855550  0.420470  1.0  0.043
  C  C321  1  0.317760  0.884470  0.375950  1.0  -0.1558
  C  C322  1  0.361060  0.913170  0.392730  1.0  -0.0364
  C  C323  1  0.241320  0.827590  0.402010  1.0  -0.0227
  C  C324  1  0.221050  0.846140  0.367930  1.0  -0.1354
  C  C325  1  0.088860  0.278560  0.805600  1.0  0.6763
  C  C326  1  0.041880  0.246600  0.786720  1.0  -0.1208
  C  C327  1  0.012840  0.217710  0.831820  1.0  -0.0767
  C  C328  1  0.969500  0.188740  0.814200  1.0  -0.1224
  C  C329  1  0.955060  0.188880  0.753800  1.0  0.043
  C  C330  1  0.984430  0.217800  0.709280  1.0  -0.1558
  C  C331  1  0.027730  0.246500  0.726060  1.0  -0.0364
  C  C332  1  0.907990  0.160920  0.735340  1.0  -0.0227
  C  C333  1  0.887720  0.179470  0.701260  1.0  -0.1353
  C  C334  1  0.755520  0.611900  0.138940  1.0  0.6763
  C  C335  1  0.708540  0.579940  0.120060  1.0  -0.1208
  C  C336  1  0.679500  0.551050  0.165160  1.0  -0.0766
  C  C337  1  0.636160  0.522080  0.147540  1.0  -0.1225
  C  C338  1  0.621720  0.522220  0.087140  1.0  0.043
  C  C339  1  0.651090  0.551140  0.042620  1.0  -0.1558
  C  C340  1  0.694390  0.579840  0.059400  1.0  -0.0364
  C  C341  1  0.574650  0.494260  0.068680  1.0  -0.0238
  C  C342  1  0.554380  0.512810  0.034600  1.0  -0.1353
  C  C343  1  0.054770  0.476960  0.472270  1.0  0.6765
  C  C344  1  0.086730  0.461940  0.453390  1.0  -0.1191
  C  C345  1  0.115620  0.461790  0.498490  1.0  -0.0773
  C  C346  1  0.144590  0.447420  0.480870  1.0  -0.1226
  C  C347  1  0.144450  0.432840  0.420470  1.0  0.0418
  C  C348  1  0.115530  0.433290  0.375950  1.0  -0.1533
  C  C349  1  0.086830  0.447890  0.392730  1.0  -0.0341
  C  C350  1  0.172410  0.413730  0.402010  1.0  -0.0216
  C  C351  1  0.153860  0.374910  0.367930  1.0  -0.139
  C  C352  1  0.721440  0.810290  0.805600  1.0  0.6765
  C  C353  1  0.753400  0.795270  0.786720  1.0  -0.1191
  C  C354  1  0.782290  0.795120  0.831820  1.0  -0.0772
  C  C355  1  0.811260  0.780750  0.814200  1.0  -0.1225
  C  C356  1  0.811120  0.766170  0.753800  1.0  0.0418
  C  C357  1  0.782200  0.766620  0.709280  1.0  -0.1533
  C  C358  1  0.753500  0.781220  0.726060  1.0  -0.0341
  C  C359  1  0.839080  0.747060  0.735340  1.0  -0.0216
  C  C360  1  0.820530  0.708240  0.701260  1.0  -0.1376
  C  C361  1  0.388100  0.143630  0.138940  1.0  0.6765
  C  C362  1  0.420060  0.128610  0.120060  1.0  -0.1191
  C  C363  1  0.448950  0.128460  0.165160  1.0  -0.077
  C  C364  1  0.477920  0.114090  0.147540  1.0  -0.1226
  C  C365  1  0.477780  0.099510  0.087140  1.0  0.0418
  C  C366  1  0.448860  0.099960  0.042620  1.0  -0.1533
  C  C367  1  0.420160  0.114560  0.059400  1.0  -0.0341
  C  C368  1  0.505740  0.080400  0.068680  1.0  -0.0219
  C  C369  1  0.487190  0.041580  0.034600  1.0  -0.1389
  C  C370  1  0.577810  0.523040  0.527730  1.0  0.6762
  C  C371  1  0.624790  0.538060  0.546610  1.0  -0.1193
  C  C372  1  0.653830  0.538210  0.501510  1.0  -0.0753
  C  C373  1  0.697170  0.552580  0.519130  1.0  -0.1202
  C  C374  1  0.711610  0.567160  0.579530  1.0  0.0418
  C  C375  1  0.682240  0.566710  0.624050  1.0  -0.1546
  C  C376  1  0.638940  0.552110  0.607270  1.0  -0.0339
  C  C377  1  0.758680  0.586270  0.597990  1.0  -0.021
  C  C378  1  0.778950  0.625090  0.632070  1.0  -0.1396
  C  C379  1  0.244480  0.856370  0.861060  1.0  0.6762
  C  C380  1  0.291460  0.871390  0.879940  1.0  -0.1193
  C  C381  1  0.320500  0.871540  0.834840  1.0  -0.0753
  C  C382  1  0.363840  0.885910  0.852460  1.0  -0.1201
  C  C383  1  0.378280  0.900490  0.912860  1.0  0.0418
  C  C384  1  0.348910  0.900040  0.957380  1.0  -0.1546
  C  C385  1  0.305610  0.885440  0.940600  1.0  -0.0339
  C  C386  1  0.425350  0.919600  0.931320  1.0  -0.0208
  C  C387  1  0.445620  0.958420  0.965400  1.0  -0.1394
  C  C388  1  0.911140  0.189710  0.194400  1.0  0.6762
  C  C389  1  0.958120  0.204730  0.213280  1.0  -0.1193
  C  C390  1  0.987160  0.204880  0.168180  1.0  -0.0752
  C  C391  1  0.030500  0.219250  0.185800  1.0  -0.1202
  C  C392  1  0.044940  0.233830  0.246200  1.0  0.0418
  C  C393  1  0.015570  0.233380  0.290720  1.0  -0.1546
  C  C394  1  0.972270  0.218780  0.273940  1.0  -0.0339
  C  C395  1  0.092010  0.252940  0.264660  1.0  -0.021
  C  C396  1  0.112280  0.291760  0.298740  1.0  -0.1408
  C  C397  1  0.945230  0.422190  0.527730  1.0  0.6767
  C  C398  1  0.913270  0.375210  0.546610  1.0  -0.1197
  C  C399  1  0.884380  0.346170  0.501510  1.0  -0.0756
  C  C400  1  0.855410  0.302830  0.519130  1.0  -0.1211
  C  C401  1  0.855550  0.288390  0.579530  1.0  0.0418
  C  C402  1  0.884470  0.317760  0.624050  1.0  -0.1559
  C  C403  1  0.913170  0.361060  0.607270  1.0  -0.0342
  C  C404  1  0.827590  0.241320  0.597990  1.0  -0.0208
  C  C405  1  0.846140  0.221050  0.632070  1.0  -0.1391
  C  C406  1  0.611900  0.755520  0.861060  1.0  0.6767
  C  C407  1  0.579940  0.708540  0.879940  1.0  -0.1197
  C  C408  1  0.551050  0.679500  0.834840  1.0  -0.0756
  C  C409  1  0.522080  0.636160  0.852460  1.0  -0.1211
  C  C410  1  0.522220  0.621720  0.912860  1.0  0.0418
  C  C411  1  0.551140  0.651090  0.957380  1.0  -0.1559
  C  C412  1  0.579840  0.694390  0.940600  1.0  -0.0342
  C  C413  1  0.494260  0.574650  0.931320  1.0  -0.0218
  C  C414  1  0.512810  0.554380  0.965400  1.0  -0.1392
  C  C415  1  0.278560  0.088860  0.194400  1.0  0.6767
  C  C416  1  0.246600  0.041880  0.213280  1.0  -0.1197
  C  C417  1  0.217710  0.012840  0.168180  1.0  -0.0758
  C  C418  1  0.188740  0.969500  0.185800  1.0  -0.1211
  C  C419  1  0.188880  0.955060  0.246200  1.0  0.0418
  C  C420  1  0.217800  0.984430  0.290720  1.0  -0.1559
  C  C421  1  0.246500  0.027730  0.273940  1.0  -0.0342
  C  C422  1  0.160920  0.907990  0.264660  1.0  -0.0208
  C  C423  1  0.179470  0.887720  0.298740  1.0  -0.1391
  C  C424  1  0.476960  0.054770  0.527730  1.0  0.6761
  C  C425  1  0.461940  0.086730  0.546610  1.0  -0.1206
  C  C426  1  0.461790  0.115620  0.501510  1.0  -0.077
  C  C427  1  0.447420  0.144590  0.519130  1.0  -0.1198
  C  C428  1  0.432840  0.144450  0.579530  1.0  0.0428
  C  C429  1  0.433290  0.115530  0.624050  1.0  -0.1581
  C  C430  1  0.447890  0.086830  0.607270  1.0  -0.0352
  C  C431  1  0.413730  0.172410  0.597990  1.0  -0.023
  C  C432  1  0.374910  0.153860  0.632070  1.0  -0.1381
  C  C433  1  0.143630  0.388100  0.861060  1.0  0.6761
  C  C434  1  0.128610  0.420060  0.879940  1.0  -0.1206
  C  C435  1  0.128460  0.448950  0.834840  1.0  -0.0766
  C  C436  1  0.114090  0.477920  0.852460  1.0  -0.1199
  C  C437  1  0.099510  0.477780  0.912860  1.0  0.0427
  C  C438  1  0.099960  0.448860  0.957380  1.0  -0.1581
  C  C439  1  0.114560  0.420160  0.940600  1.0  -0.0352
  C  C440  1  0.080400  0.505740  0.931320  1.0  -0.0232
  C  C441  1  0.041580  0.487190  0.965400  1.0  -0.138
  C  C442  1  0.810290  0.721440  0.194400  1.0  0.6761
  C  C443  1  0.795270  0.753400  0.213280  1.0  -0.1206
  C  C444  1  0.795120  0.782290  0.168180  1.0  -0.0767
  C  C445  1  0.780750  0.811260  0.185800  1.0  -0.1198
  C  C446  1  0.766170  0.811120  0.246200  1.0  0.0428
  C  C447  1  0.766620  0.782200  0.290720  1.0  -0.1581
  C  C448  1  0.781220  0.753500  0.273940  1.0  -0.0352
  C  C449  1  0.747060  0.839080  0.264660  1.0  -0.023
  C  C450  1  0.708240  0.820530  0.298740  1.0  -0.1368
  C  C451  1  0.476960  0.422190  0.527730  1.0  0.677
  C  C452  1  0.461940  0.375210  0.546610  1.0  -0.1193
  C  C453  1  0.461790  0.346170  0.501510  1.0  -0.0768
  C  C454  1  0.447420  0.302830  0.519130  1.0  -0.122
  C  C455  1  0.432840  0.288390  0.579530  1.0  0.0427
  C  C456  1  0.433290  0.317760  0.624050  1.0  -0.1569
  C  C457  1  0.447890  0.361060  0.607270  1.0  -0.0356
  C  C458  1  0.413730  0.241320  0.597990  1.0  -0.0216
  C  C459  1  0.374910  0.221050  0.632070  1.0  -0.1386
  C  C460  1  0.143630  0.755520  0.861060  1.0  0.677
  C  C461  1  0.128610  0.708540  0.879940  1.0  -0.1193
  C  C462  1  0.128460  0.679500  0.834840  1.0  -0.0768
  C  C463  1  0.114090  0.636160  0.852460  1.0  -0.122
  C  C464  1  0.099510  0.621720  0.912860  1.0  0.0427
  C  C465  1  0.099960  0.651090  0.957380  1.0  -0.1569
  C  C466  1  0.114560  0.694390  0.940600  1.0  -0.0356
  C  C467  1  0.080400  0.574650  0.931320  1.0  -0.0213
  C  C468  1  0.041580  0.554380  0.965400  1.0  -0.1385
  C  C469  1  0.810290  0.088860  0.194400  1.0  0.677
  C  C470  1  0.795270  0.041880  0.213280  1.0  -0.1193
  C  C471  1  0.795120  0.012840  0.168180  1.0  -0.0767
  C  C472  1  0.780750  0.969500  0.185800  1.0  -0.1221
  C  C473  1  0.766170  0.955060  0.246200  1.0  0.0427
  C  C474  1  0.766620  0.984430  0.290720  1.0  -0.1569
  C  C475  1  0.781220  0.027730  0.273940  1.0  -0.0356
  C  C476  1  0.747060  0.907990  0.264660  1.0  -0.0216
  C  C477  1  0.708240  0.887720  0.298740  1.0  -0.1398
  C  C478  1  0.577810  0.054770  0.527730  1.0  0.6767
  C  C479  1  0.624790  0.086730  0.546610  1.0  -0.1198
  C  C480  1  0.653830  0.115620  0.501510  1.0  -0.0751
  C  C481  1  0.697170  0.144590  0.519130  1.0  -0.1204
  C  C482  1  0.711610  0.144450  0.579530  1.0  0.0429
  C  C483  1  0.682240  0.115530  0.624050  1.0  -0.157
  C  C484  1  0.638940  0.086830  0.607270  1.0  -0.0359
  C  C485  1  0.758680  0.172410  0.597990  1.0  -0.023
  C  C486  1  0.778950  0.153860  0.632070  1.0  -0.1376
  C  C487  1  0.244480  0.388100  0.861060  1.0  0.6767
  C  C488  1  0.291460  0.420060  0.879940  1.0  -0.1198
  C  C489  1  0.320500  0.448950  0.834840  1.0  -0.0751
  C  C490  1  0.363840  0.477920  0.852460  1.0  -0.1204
  C  C491  1  0.378280  0.477780  0.912860  1.0  0.0428
  C  C492  1  0.348910  0.448860  0.957380  1.0  -0.157
  C  C493  1  0.305610  0.420160  0.940600  1.0  -0.0359
  C  C494  1  0.425350  0.505740  0.931320  1.0  -0.024
  C  C495  1  0.445620  0.487190  0.965400  1.0  -0.1375
  C  C496  1  0.911140  0.721440  0.194400  1.0  0.6767
  C  C497  1  0.958120  0.753400  0.213280  1.0  -0.1198
  C  C498  1  0.987160  0.782290  0.168180  1.0  -0.0753
  C  C499  1  0.030500  0.811260  0.185800  1.0  -0.1204
  C  C500  1  0.044940  0.811120  0.246200  1.0  0.0429
  C  C501  1  0.015570  0.782200  0.290720  1.0  -0.157
  C  C502  1  0.972270  0.753500  0.273940  1.0  -0.0359
  C  C503  1  0.092010  0.839080  0.264660  1.0  -0.023
  C  C504  1  0.112280  0.820530  0.298740  1.0  -0.1376
  C  C505  1  0.945230  0.523040  0.527730  1.0  0.6757
  C  C506  1  0.913270  0.538060  0.546610  1.0  -0.1199
  C  C507  1  0.884380  0.538210  0.501510  1.0  -0.0774
  C  C508  1  0.855410  0.552580  0.519130  1.0  -0.1201
  C  C509  1  0.855550  0.567160  0.579530  1.0  0.0419
  C  C510  1  0.884470  0.566710  0.624050  1.0  -0.1548
  C  C511  1  0.913170  0.552110  0.607270  1.0  -0.0332
  C  C512  1  0.827590  0.586270  0.597990  1.0  -0.0202
  C  C513  1  0.846140  0.625090  0.632070  1.0  -0.1394
  C  C514  1  0.611900  0.856370  0.861060  1.0  0.6757
  C  C515  1  0.579940  0.871390  0.879940  1.0  -0.1199
  C  C516  1  0.551050  0.871540  0.834840  1.0  -0.0771
  C  C517  1  0.522080  0.885910  0.852460  1.0  -0.1201
  C  C518  1  0.522220  0.900490  0.912860  1.0  0.0419
  C  C519  1  0.551140  0.900040  0.957380  1.0  -0.1548
  C  C520  1  0.579840  0.885440  0.940600  1.0  -0.0332
  C  C521  1  0.494260  0.919600  0.931320  1.0  -0.0204
  C  C522  1  0.512810  0.958420  0.965400  1.0  -0.1392
  C  C523  1  0.278560  0.189710  0.194400  1.0  0.6757
  C  C524  1  0.246600  0.204730  0.213280  1.0  -0.1199
  C  C525  1  0.217710  0.204880  0.168180  1.0  -0.0772
  C  C526  1  0.188740  0.219250  0.185800  1.0  -0.1201
  C  C527  1  0.188880  0.233830  0.246200  1.0  0.0419
  C  C528  1  0.217800  0.233380  0.290720  1.0  -0.1548
  C  C529  1  0.246500  0.218780  0.273940  1.0  -0.0332
  C  C530  1  0.160920  0.252940  0.264660  1.0  -0.0202
  C  C531  1  0.179470  0.291760  0.298740  1.0  -0.1384
  C  C532  1  0.422190  0.476960  0.472270  1.0  0.676
  C  C533  1  0.375210  0.461940  0.453390  1.0  -0.1203
  C  C534  1  0.346170  0.461790  0.498490  1.0  -0.0771
  C  C535  1  0.302830  0.447420  0.480870  1.0  -0.1222
  C  C536  1  0.288390  0.432840  0.420470  1.0  0.0417
  C  C537  1  0.317760  0.433290  0.375950  1.0  -0.153
  C  C538  1  0.361060  0.447890  0.392730  1.0  -0.0345
  C  C539  1  0.241320  0.413730  0.402010  1.0  -0.0213
  C  C540  1  0.221050  0.374910  0.367930  1.0  -0.1381
  C  C541  1  0.088860  0.810290  0.805600  1.0  0.676
  C  C542  1  0.041880  0.795270  0.786720  1.0  -0.1203
  C  C543  1  0.012840  0.795120  0.831820  1.0  -0.077
  C  C544  1  0.969500  0.780750  0.814200  1.0  -0.1222
  C  C545  1  0.955060  0.766170  0.753800  1.0  0.0417
  C  C546  1  0.984430  0.766620  0.709280  1.0  -0.153
  C  C547  1  0.027730  0.781220  0.726060  1.0  -0.0345
  C  C548  1  0.907990  0.747060  0.735340  1.0  -0.0213
  C  C549  1  0.887720  0.708240  0.701260  1.0  -0.1389
  C  C550  1  0.755520  0.143630  0.138940  1.0  0.676
  C  C551  1  0.708540  0.128610  0.120060  1.0  -0.1203
  C  C552  1  0.679500  0.128460  0.165160  1.0  -0.0771
  C  C553  1  0.636160  0.114090  0.147540  1.0  -0.1221
  C  C554  1  0.621720  0.099510  0.087140  1.0  0.0417
  C  C555  1  0.651090  0.099960  0.042620  1.0  -0.153
  C  C556  1  0.694390  0.114560  0.059400  1.0  -0.0345
  C  C557  1  0.574650  0.080400  0.068680  1.0  -0.0211
  C  C558  1  0.554380  0.041580  0.034600  1.0  -0.1378
  C  C559  1  0.054770  0.577810  0.472270  1.0  0.6768
  C  C560  1  0.086730  0.624790  0.453390  1.0  -0.1193
  C  C561  1  0.115620  0.653830  0.498490  1.0  -0.0761
  C  C562  1  0.144590  0.697170  0.480870  1.0  -0.1239
  C  C563  1  0.144450  0.711610  0.420470  1.0  0.0427
  C  C564  1  0.115530  0.682240  0.375950  1.0  -0.1558
  C  C565  1  0.086830  0.638940  0.392730  1.0  -0.0353
  C  C566  1  0.172410  0.758680  0.402010  1.0  -0.0222
  C  C567  1  0.153860  0.778950  0.367930  1.0  -0.1394
  C  C568  1  0.721440  0.911140  0.805600  1.0  0.6768
  C  C569  1  0.753400  0.958120  0.786720  1.0  -0.1193
  C  C570  1  0.782290  0.987160  0.831820  1.0  -0.0762
  C  C571  1  0.811260  0.030500  0.814200  1.0  -0.1239
  C  C572  1  0.811120  0.044940  0.753800  1.0  0.0427
  C  C573  1  0.782200  0.015570  0.709280  1.0  -0.1558
  C  C574  1  0.753500  0.972270  0.726060  1.0  -0.0353
  C  C575  1  0.839080  0.092010  0.735340  1.0  -0.0222
  C  C576  1  0.820530  0.112280  0.701260  1.0  -0.1393
  C  C577  1  0.388100  0.244480  0.138940  1.0  0.6768
  C  C578  1  0.420060  0.291460  0.120060  1.0  -0.1193
  C  C579  1  0.448950  0.320500  0.165160  1.0  -0.0761
  C  C580  1  0.477920  0.363840  0.147540  1.0  -0.1239
  C  C581  1  0.477780  0.378280  0.087140  1.0  0.0427
  C  C582  1  0.448860  0.348910  0.042620  1.0  -0.1558
  C  C583  1  0.420160  0.305610  0.059400  1.0  -0.0353
  C  C584  1  0.505740  0.425350  0.068680  1.0  -0.023
  C  C585  1  0.487190  0.445620  0.034600  1.0  -0.1393
  C  C586  1  0.523040  0.945230  0.472270  1.0  0.6767
  C  C587  1  0.538060  0.913270  0.453390  1.0  -0.1196
  C  C588  1  0.538210  0.884380  0.498490  1.0  -0.0771
  C  C589  1  0.552580  0.855410  0.480870  1.0  -0.1219
  C  C590  1  0.567160  0.855550  0.420470  1.0  0.0433
  C  C591  1  0.566710  0.884470  0.375950  1.0  -0.1555
  C  C592  1  0.552110  0.913170  0.392730  1.0  -0.0358
  C  C593  1  0.586270  0.827590  0.402010  1.0  -0.0224
  C  C594  1  0.625090  0.846140  0.367930  1.0  -0.1363
  C  C595  1  0.189710  0.278560  0.805600  1.0  0.6767
  C  C596  1  0.204730  0.246600  0.786720  1.0  -0.1196
  C  C597  1  0.204880  0.217710  0.831820  1.0  -0.0768
  C  C598  1  0.219250  0.188740  0.814200  1.0  -0.1218
  C  C599  1  0.233830  0.188880  0.753800  1.0  0.0433
  C  C600  1  0.233380  0.217800  0.709280  1.0  -0.1555
  C  C601  1  0.218780  0.246500  0.726060  1.0  -0.0358
  C  C602  1  0.252940  0.160920  0.735340  1.0  -0.0224
  C  C603  1  0.291760  0.179470  0.701260  1.0  -0.135
  C  C604  1  0.856370  0.611900  0.138940  1.0  0.6767
  C  C605  1  0.871390  0.579940  0.120060  1.0  -0.1196
  C  C606  1  0.871540  0.551050  0.165160  1.0  -0.0767
  C  C607  1  0.885910  0.522080  0.147540  1.0  -0.1219
  C  C608  1  0.900490  0.522220  0.087140  1.0  0.0432
  C  C609  1  0.900040  0.551140  0.042620  1.0  -0.1555
  C  C610  1  0.885440  0.579840  0.059400  1.0  -0.0358
  C  C611  1  0.919600  0.494260  0.068680  1.0  -0.0227
  C  C612  1  0.958420  0.512810  0.034600  1.0  -0.1362
  C  C613  1  0.646280  0.823140  0.349500  1.0  0.0028
  C  C614  1  0.566710  0.783360  0.418400  1.0  0.1617
  C  C615  1  0.488950  0.744480  0.417100  1.0  0.1042
  C  C616  1  0.450700  0.725350  0.461200  1.0  -0.3733
  C  C617  1  0.312950  0.156470  0.682830  1.0  0.0028
  C  C618  1  0.233380  0.116690  0.751730  1.0  0.1617
  C  C619  1  0.155620  0.077810  0.750430  1.0  0.1042
  C  C620  1  0.117370  0.058680  0.794530  1.0  -0.3733
  C  C621  1  0.979610  0.489810  0.016170  1.0  0.0047
  C  C622  1  0.900040  0.450020  0.085070  1.0  0.1615
  C  C623  1  0.822280  0.411140  0.083770  1.0  0.1042
  C  C624  1  0.784030  0.392020  0.127870  1.0  -0.3733
  C  C625  1  0.176860  0.823140  0.349500  1.0  0.0081
  C  C626  1  0.216640  0.783360  0.418400  1.0  0.1609
  C  C627  1  0.255520  0.744470  0.417100  1.0  0.1044
  C  C628  1  0.274650  0.725350  0.461200  1.0  -0.3723
  C  C629  1  0.843530  0.156470  0.682830  1.0  0.0081
  C  C630  1  0.883310  0.116690  0.751730  1.0  0.1609
  C  C631  1  0.922190  0.077810  0.750430  1.0  0.1016
  C  C632  1  0.941320  0.058680  0.794530  1.0  -0.3724
  C  C633  1  0.510190  0.489810  0.016170  1.0  0.0075
  C  C634  1  0.549980  0.450020  0.085070  1.0  0.1602
  C  C635  1  0.588860  0.411140  0.083770  1.0  0.1045
  C  C636  1  0.607980  0.392020  0.127870  1.0  -0.3723
  C  C637  1  0.176860  0.353720  0.349500  1.0  0.0043
  C  C638  1  0.216640  0.433290  0.418400  1.0  0.161
  C  C639  1  0.255530  0.511050  0.417100  1.0  0.1008
  C  C640  1  0.274650  0.549300  0.461200  1.0  -0.3749
  C  C641  1  0.843530  0.687050  0.682830  1.0  0.0043
  C  C642  1  0.883310  0.766620  0.751730  1.0  0.161
  C  C643  1  0.922190  0.844380  0.750430  1.0  0.1008
  C  C644  1  0.941320  0.882630  0.794530  1.0  -0.3749
  C  C645  1  0.510190  0.020390  0.016170  1.0  0.0061
  C  C646  1  0.549980  0.099960  0.085070  1.0  0.161
  C  C647  1  0.588860  0.177720  0.083770  1.0  0.1008
  C  C648  1  0.607980  0.215970  0.127870  1.0  -0.3749
  C  C649  1  0.823140  0.646280  0.650500  1.0  0.0043
  C  C650  1  0.783360  0.566710  0.581600  1.0  0.161
  C  C651  1  0.744470  0.488950  0.582900  1.0  0.1013
  C  C652  1  0.725350  0.450700  0.538800  1.0  -0.3734
  C  C653  1  0.489810  0.979610  0.983830  1.0  0.0061
  C  C654  1  0.450020  0.900040  0.914930  1.0  0.161
  C  C655  1  0.411140  0.822280  0.916230  1.0  0.1013
  C  C656  1  0.392020  0.784030  0.872130  1.0  -0.3734
  C  C657  1  0.156470  0.312950  0.317170  1.0  0.0043
  C  C658  1  0.116690  0.233380  0.248270  1.0  0.161
  C  C659  1  0.077810  0.155620  0.249570  1.0  0.1013
  C  C660  1  0.058680  0.117370  0.205470  1.0  -0.3734
  C  C661  1  0.823140  0.176860  0.650500  1.0  0.0069
  C  C662  1  0.783360  0.216640  0.581600  1.0  0.1618
  C  C663  1  0.744470  0.255530  0.582900  1.0  0.1025
  C  C664  1  0.725350  0.274650  0.538800  1.0  -0.372
  C  C665  1  0.489810  0.510190  0.983830  1.0  0.0063
  C  C666  1  0.450020  0.549980  0.914930  1.0  0.1613
  C  C667  1  0.411140  0.588860  0.916230  1.0  0.1025
  C  C668  1  0.392020  0.607980  0.872130  1.0  -0.372
  C  C669  1  0.156470  0.843530  0.317170  1.0  0.0069
  C  C670  1  0.116690  0.883310  0.248270  1.0  0.1618
  C  C671  1  0.077810  0.922190  0.249570  1.0  0.0996
  C  C672  1  0.058680  0.941320  0.205470  1.0  -0.3722
  C  C673  1  0.353720  0.176860  0.650500  1.0  0.0035
  C  C674  1  0.433290  0.216640  0.581600  1.0  0.1609
  C  C675  1  0.511050  0.255520  0.582900  1.0  0.1034
  C  C676  1  0.549300  0.274650  0.538800  1.0  -0.3722
  C  C677  1  0.020390  0.510190  0.983830  1.0  0.0053
  C  C678  1  0.099960  0.549980  0.914930  1.0  0.1609
  C  C679  1  0.177720  0.588860  0.916230  1.0  0.1034
  C  C680  1  0.215970  0.607980  0.872130  1.0  -0.3722
  C  C681  1  0.687050  0.843530  0.317170  1.0  0.0035
  C  C682  1  0.766620  0.883310  0.248270  1.0  0.1609
  C  C683  1  0.844380  0.922190  0.249570  1.0  0.1034
  C  C684  1  0.882630  0.941320  0.205470  1.0  -0.3722
  O  O685  1  0.524430  0.553760  0.428490  1.0  -0.5637
  O  O686  1  0.511160  0.566880  0.528940  1.0  -0.5568
  O  O687  1  0.191100  0.887090  0.761820  1.0  -0.5637
  O  O688  1  0.177830  0.900210  0.862270  1.0  -0.5568
  O  O689  1  0.857760  0.220430  0.095160  1.0  -0.5637
  O  O690  1  0.844490  0.233550  0.195610  1.0  -0.5568
  O  O691  1  0.446240  0.970670  0.428490  1.0  -0.5625
  O  O692  1  0.433120  0.944280  0.528940  1.0  -0.5564
  O  O693  1  0.112910  0.304000  0.761820  1.0  -0.5625
  O  O694  1  0.099790  0.277610  0.862270  1.0  -0.5561
  O  O695  1  0.779570  0.637340  0.095160  1.0  -0.5637
  O  O696  1  0.766450  0.610950  0.195610  1.0  -0.5564
  O  O697  1  0.029330  0.475570  0.428490  1.0  -0.5635
  O  O698  1  0.055720  0.488840  0.528940  1.0  -0.5554
  O  O699  1  0.696000  0.808900  0.761820  1.0  -0.5635
  O  O700  1  0.722390  0.822170  0.862270  1.0  -0.5561
  O  O701  1  0.362660  0.142240  0.095160  1.0  -0.5626
  O  O702  1  0.389050  0.155510  0.195610  1.0  -0.5554
  O  O703  1  0.553760  0.524430  0.571510  1.0  -0.5625
  O  O704  1  0.566880  0.511160  0.471060  1.0  -0.5579
  O  O705  1  0.220430  0.857760  0.904840  1.0  -0.5625
  O  O706  1  0.233550  0.844490  0.804390  1.0  -0.5579
  O  O707  1  0.887090  0.191100  0.238180  1.0  -0.5625
  O  O708  1  0.900210  0.177830  0.137730  1.0  -0.5579
  O  O709  1  0.970670  0.446240  0.571510  1.0  -0.5604
  O  O710  1  0.944280  0.433120  0.471060  1.0  -0.5566
  O  O711  1  0.637340  0.779570  0.904840  1.0  -0.5619
  O  O712  1  0.610950  0.766450  0.804390  1.0  -0.5566
  O  O713  1  0.304000  0.112910  0.238180  1.0  -0.5604
  O  O714  1  0.277610  0.099790  0.137730  1.0  -0.5559
  O  O715  1  0.475570  0.029330  0.571510  1.0  -0.5629
  O  O716  1  0.488840  0.055720  0.471060  1.0  -0.5561
  O  O717  1  0.142240  0.362660  0.904840  1.0  -0.5622
  O  O718  1  0.155510  0.389050  0.804390  1.0  -0.5561
  O  O719  1  0.808900  0.696000  0.238180  1.0  -0.5629
  O  O720  1  0.822170  0.722390  0.137730  1.0  -0.5571
  O  O721  1  0.475570  0.446240  0.571510  1.0  -0.5624
  O  O722  1  0.488840  0.433120  0.471060  1.0  -0.5567
  O  O723  1  0.142240  0.779570  0.904840  1.0  -0.5624
  O  O724  1  0.155510  0.766450  0.804390  1.0  -0.5567
  O  O725  1  0.808900  0.112910  0.238180  1.0  -0.5624
  O  O726  1  0.822170  0.099790  0.137730  1.0  -0.5567
  O  O727  1  0.553760  0.029330  0.571510  1.0  -0.5615
  O  O728  1  0.566880  0.055720  0.471060  1.0  -0.5573
  O  O729  1  0.220430  0.362660  0.904840  1.0  -0.5629
  O  O730  1  0.233550  0.389050  0.804390  1.0  -0.5573
  O  O731  1  0.887090  0.696000  0.238180  1.0  -0.5615
  O  O732  1  0.900210  0.722390  0.137730  1.0  -0.5562
  O  O733  1  0.970670  0.524430  0.571510  1.0  -0.5625
  O  O734  1  0.944280  0.511160  0.471060  1.0  -0.5567
  O  O735  1  0.637340  0.857760  0.904840  1.0  -0.5612
  O  O736  1  0.610950  0.844490  0.804390  1.0  -0.5567
  O  O737  1  0.304000  0.191100  0.238180  1.0  -0.5625
  O  O738  1  0.277610  0.177830  0.137730  1.0  -0.5577
  O  O739  1  0.446240  0.475570  0.428490  1.0  -0.5639
  O  O740  1  0.433120  0.488840  0.528940  1.0  -0.5573
  O  O741  1  0.112910  0.808900  0.761820  1.0  -0.5639
  O  O742  1  0.099790  0.822170  0.862270  1.0  -0.5573
  O  O743  1  0.779570  0.142240  0.095160  1.0  -0.5639
  O  O744  1  0.766450  0.155510  0.195610  1.0  -0.5573
  O  O745  1  0.029330  0.553760  0.428490  1.0  -0.562
  O  O746  1  0.055720  0.566880  0.528940  1.0  -0.5557
  O  O747  1  0.696000  0.887090  0.761820  1.0  -0.562
  O  O748  1  0.722390  0.900210  0.862270  1.0  -0.555
  O  O749  1  0.362660  0.220430  0.095160  1.0  -0.5634
  O  O750  1  0.389050  0.233550  0.195610  1.0  -0.5557
  O  O751  1  0.524430  0.970670  0.428490  1.0  -0.5638
  O  O752  1  0.511160  0.944280  0.528940  1.0  -0.5557
  O  O753  1  0.191100  0.304000  0.761820  1.0  -0.5638
  O  O754  1  0.177830  0.277610  0.862270  1.0  -0.5565
  O  O755  1  0.857760  0.637340  0.095160  1.0  -0.5629
  O  O756  1  0.844490  0.610950  0.195610  1.0  -0.5557
  O  O757  1  0.527680  0.763840  0.453650  1.0  -0.2897
  O  O758  1  0.194350  0.097170  0.786980  1.0  -0.2897
  O  O759  1  0.861010  0.430510  0.120320  1.0  -0.2897
  O  O760  1  0.236160  0.763840  0.453650  1.0  -0.2893
  O  O761  1  0.902830  0.097170  0.786980  1.0  -0.2893
  O  O762  1  0.569490  0.430510  0.120320  1.0  -0.2897
  O  O763  1  0.236160  0.472320  0.453650  1.0  -0.2888
  O  O764  1  0.902830  0.805650  0.786980  1.0  -0.2888
  O  O765  1  0.569490  0.138990  0.120320  1.0  -0.2888
  O  O766  1  0.763840  0.527680  0.546350  1.0  -0.2863
  O  O767  1  0.430510  0.861010  0.879680  1.0  -0.2863
  O  O768  1  0.097170  0.194350  0.213020  1.0  -0.2863
  O  O769  1  0.763840  0.236160  0.546350  1.0  -0.2862
  O  O770  1  0.430510  0.569490  0.879680  1.0  -0.2865
  O  O771  1  0.097170  0.902830  0.213020  1.0  -0.2862
  O  O772  1  0.472320  0.236160  0.546350  1.0  -0.286
  O  O773  1  0.138990  0.569490  0.879680  1.0  -0.286
  O  O774  1  0.805650  0.902830  0.213020  1.0  -0.286
