# generated using pymatgen
data_CuH15C22O5
_symmetry_space_group_name_H-M   'P 1'
_cell_length_a   35.82730000
_cell_length_b   35.82730000
_cell_length_c   15.38700000
_cell_angle_alpha   90.00000000
_cell_angle_beta   90.00000000
_cell_angle_gamma   120.00000000
_symmetry_Int_Tables_number   1
_chemical_formula_structural   CuH15C22O5
_chemical_formula_sum   'Cu18 H270 C396 O90'
_cell_volume   17104.59305463
_cell_formula_units_Z   18
loop_
 _symmetry_equiv_pos_site_id
 _symmetry_equiv_pos_as_xyz
  1  'x, y, z'
loop_
 _atom_site_type_symbol
 _atom_site_label
 _atom_site_symmetry_multiplicity
 _atom_site_fract_x
 _atom_site_fract_y
 _atom_site_fract_z
 _atom_site_occupancy
 _atom_site_charge
  Cu  Cu1  1  0.503420  0.006840  0.415130  1.0  0.893
  Cu  Cu2  1  0.170090  0.340170  0.748460  1.0  0.893
  Cu  Cu3  1  0.836750  0.673510  0.081800  1.0  0.893
  Cu  Cu4  1  0.993160  0.496580  0.415130  1.0  0.8921
  Cu  Cu5  1  0.659830  0.829910  0.748460  1.0  0.8921
  Cu  Cu6  1  0.326490  0.163250  0.081800  1.0  0.8921
  Cu  Cu7  1  0.503420  0.496580  0.415130  1.0  0.8926
  Cu  Cu8  1  0.170090  0.829910  0.748460  1.0  0.8926
  Cu  Cu9  1  0.836750  0.163250  0.081800  1.0  0.8926
  Cu  Cu10  1  0.006840  0.503420  0.584870  1.0  0.8925
  Cu  Cu11  1  0.673510  0.836750  0.918200  1.0  0.8925
  Cu  Cu12  1  0.340170  0.170090  0.251540  1.0  0.8925
  Cu  Cu13  1  0.496580  0.993160  0.584870  1.0  0.8925
  Cu  Cu14  1  0.163250  0.326490  0.918200  1.0  0.8926
  Cu  Cu15  1  0.829910  0.659830  0.251540  1.0  0.8925
  Cu  Cu16  1  0.496580  0.503420  0.584870  1.0  0.8915
  Cu  Cu17  1  0.163250  0.836750  0.918200  1.0  0.8915
  Cu  Cu18  1  0.829910  0.170090  0.251540  1.0  0.8915
  H  H19  1  0.641900  0.105000  0.399100  1.0  0.0973
  H  H20  1  0.713600  0.153300  0.423300  1.0  0.1025
  H  H21  1  0.695900  0.131100  0.677700  1.0  0.1028
  H  H22  1  0.623600  0.085900  0.655200  1.0  0.1152
  H  H23  1  0.763600  0.125400  0.633400  1.0  0.1149
  H  H24  1  0.769600  0.274200  0.595500  1.0  0.088
  H  H25  1  0.746200  0.297500  0.474700  1.0  0.1267
  H  H26  1  0.308570  0.438330  0.732430  1.0  0.0973
  H  H27  1  0.380270  0.486630  0.756630  1.0  0.1025
  H  H28  1  0.362570  0.464430  0.011030  1.0  0.1028
  H  H29  1  0.290270  0.419230  0.988530  1.0  0.1152
  H  H30  1  0.430270  0.458730  0.966730  1.0  0.115
  H  H31  1  0.436270  0.607530  0.928830  1.0  0.088
  H  H32  1  0.412870  0.630830  0.808030  1.0  0.1267
  H  H33  1  0.975230  0.771670  0.065770  1.0  0.0988
  H  H34  1  0.046930  0.819970  0.089970  1.0  0.1026
  H  H35  1  0.029230  0.797770  0.344370  1.0  0.1028
  H  H36  1  0.956930  0.752570  0.321870  1.0  0.1144
  H  H37  1  0.096930  0.792070  0.300070  1.0  0.115
  H  H38  1  0.102930  0.940870  0.262170  1.0  0.0839
  H  H39  1  0.079530  0.964170  0.141370  1.0  0.1273
  H  H40  1  0.895000  0.536900  0.399100  1.0  0.0985
  H  H41  1  0.846700  0.560300  0.423300  1.0  0.1021
  H  H42  1  0.868900  0.564800  0.677700  1.0  0.1024
  H  H43  1  0.914100  0.537700  0.655200  1.0  0.1134
  H  H44  1  0.874600  0.638200  0.633400  1.0  0.115
  H  H45  1  0.725800  0.495400  0.595500  1.0  0.0885
  H  H46  1  0.702500  0.448700  0.474700  1.0  0.125
  H  H47  1  0.561670  0.870230  0.732430  1.0  0.0985
  H  H48  1  0.513370  0.893630  0.756630  1.0  0.1021
  H  H49  1  0.535570  0.898130  0.011030  1.0  0.1025
  H  H50  1  0.580770  0.871030  0.988530  1.0  0.1134
  H  H51  1  0.541270  0.971530  0.966730  1.0  0.1147
  H  H52  1  0.392470  0.828730  0.928830  1.0  0.0885
  H  H53  1  0.369170  0.782030  0.808030  1.0  0.125
  H  H54  1  0.228330  0.203570  0.065770  1.0  0.0978
  H  H55  1  0.180030  0.226970  0.089970  1.0  0.1033
  H  H56  1  0.202230  0.231470  0.344370  1.0  0.1096
  H  H57  1  0.247430  0.204370  0.321870  1.0  0.1147
  H  H58  1  0.207930  0.304870  0.300070  1.0  0.115
  H  H59  1  0.059130  0.162070  0.262170  1.0  0.0865
  H  H60  1  0.035830  0.115370  0.141370  1.0  0.1247
  H  H61  1  0.463100  0.358100  0.399100  1.0  0.0974
  H  H62  1  0.439700  0.286400  0.423300  1.0  0.1036
  H  H63  1  0.435200  0.304100  0.677700  1.0  0.1093
  H  H64  1  0.462300  0.376400  0.655200  1.0  0.1143
  H  H65  1  0.361800  0.236400  0.633400  1.0  0.1147
  H  H66  1  0.504600  0.230400  0.595500  1.0  0.0845
  H  H67  1  0.551300  0.253800  0.474700  1.0  0.129
  H  H68  1  0.129770  0.691430  0.732430  1.0  0.0974
  H  H69  1  0.106370  0.619730  0.756630  1.0  0.1036
  H  H70  1  0.101870  0.637430  0.011030  1.0  0.1093
  H  H71  1  0.128970  0.709730  0.988530  1.0  0.1143
  H  H72  1  0.028470  0.569730  0.966730  1.0  0.1149
  H  H73  1  0.171270  0.563730  0.928830  1.0  0.0845
  H  H74  1  0.217970  0.587130  0.808030  1.0  0.129
  H  H75  1  0.796430  0.024770  0.065770  1.0  0.0969
  H  H76  1  0.773030  0.953070  0.089970  1.0  0.1023
  H  H77  1  0.768530  0.970770  0.344370  1.0  0.1021
  H  H78  1  0.795630  0.043070  0.321870  1.0  0.1143
  H  H79  1  0.695130  0.903070  0.300070  1.0  0.1146
  H  H80  1  0.837930  0.897070  0.262170  1.0  0.0901
  H  H81  1  0.884630  0.920470  0.141370  1.0  0.1275
  H  H82  1  0.105000  0.641900  0.600900  1.0  0.0972
  H  H83  1  0.153300  0.713600  0.576700  1.0  0.102
  H  H84  1  0.131100  0.695900  0.322300  1.0  0.1023
  H  H85  1  0.085900  0.623600  0.344800  1.0  0.1142
  H  H86  1  0.125400  0.763600  0.366600  1.0  0.1148
  H  H87  1  0.274200  0.769600  0.404500  1.0  0.0891
  H  H88  1  0.297500  0.746200  0.525300  1.0  0.1271
  H  H89  1  0.771670  0.975230  0.934230  1.0  0.0986
  H  H90  1  0.819970  0.046930  0.910030  1.0  0.1021
  H  H91  1  0.797770  0.029230  0.655630  1.0  0.1023
  H  H92  1  0.752570  0.956930  0.678130  1.0  0.1134
  H  H93  1  0.792070  0.096930  0.699930  1.0  0.1149
  H  H94  1  0.940870  0.102930  0.737830  1.0  0.0852
  H  H95  1  0.964170  0.079530  0.858630  1.0  0.1276
  H  H96  1  0.438330  0.308570  0.267570  1.0  0.0972
  H  H97  1  0.486630  0.380270  0.243370  1.0  0.102
  H  H98  1  0.464430  0.362570  0.988970  1.0  0.1022
  H  H99  1  0.419230  0.290270  0.011470  1.0  0.1142
  H  H100  1  0.458730  0.430270  0.033270  1.0  0.1149
  H  H101  1  0.607530  0.436270  0.071170  1.0  0.0891
  H  H102  1  0.630830  0.412870  0.191970  1.0  0.1271
  H  H103  1  0.536900  0.895000  0.600900  1.0  0.0984
  H  H104  1  0.560300  0.846700  0.576700  1.0  0.102
  H  H105  1  0.564800  0.868900  0.322300  1.0  0.1023
  H  H106  1  0.537700  0.914100  0.344800  1.0  0.1134
  H  H107  1  0.638200  0.874600  0.366600  1.0  0.1165
  H  H108  1  0.495400  0.725800  0.404500  1.0  0.0884
  H  H109  1  0.448700  0.702500  0.525300  1.0  0.1272
  H  H110  1  0.203570  0.228330  0.934230  1.0  0.0978
  H  H111  1  0.226970  0.180030  0.910030  1.0  0.1033
  H  H112  1  0.231470  0.202230  0.655630  1.0  0.1092
  H  H113  1  0.204370  0.247430  0.678130  1.0  0.1148
  H  H114  1  0.304870  0.207930  0.699930  1.0  0.1165
  H  H115  1  0.162070  0.059130  0.737830  1.0  0.0873
  H  H116  1  0.115370  0.035830  0.858630  1.0  0.1267
  H  H117  1  0.870230  0.561670  0.267570  1.0  0.0984
  H  H118  1  0.893630  0.513370  0.243370  1.0  0.102
  H  H119  1  0.898130  0.535570  0.988970  1.0  0.1023
  H  H120  1  0.871030  0.580770  0.011470  1.0  0.1134
  H  H121  1  0.971530  0.541270  0.033270  1.0  0.1162
  H  H122  1  0.828730  0.392470  0.071170  1.0  0.0884
  H  H123  1  0.782030  0.369170  0.191970  1.0  0.1272
  H  H124  1  0.358100  0.463100  0.600900  1.0  0.0979
  H  H125  1  0.286400  0.439700  0.576700  1.0  0.1034
  H  H126  1  0.304100  0.435200  0.322300  1.0  0.1096
  H  H127  1  0.376400  0.462300  0.344800  1.0  0.1148
  H  H128  1  0.236400  0.361800  0.366600  1.0  0.1156
  H  H129  1  0.230400  0.504600  0.404500  1.0  0.0833
  H  H130  1  0.253800  0.551300  0.525300  1.0  0.1278
  H  H131  1  0.024770  0.796430  0.934230  1.0  0.0975
  H  H132  1  0.953070  0.773030  0.910030  1.0  0.1021
  H  H133  1  0.970770  0.768530  0.655630  1.0  0.1028
  H  H134  1  0.043070  0.795630  0.678130  1.0  0.1148
  H  H135  1  0.903070  0.695130  0.699930  1.0  0.1155
  H  H136  1  0.897070  0.837930  0.737830  1.0  0.089
  H  H137  1  0.920470  0.884630  0.858630  1.0  0.1269
  H  H138  1  0.691430  0.129770  0.267570  1.0  0.0979
  H  H139  1  0.619730  0.106370  0.243370  1.0  0.1034
  H  H140  1  0.637430  0.101870  0.988970  1.0  0.1096
  H  H141  1  0.709730  0.128970  0.011470  1.0  0.1148
  H  H142  1  0.569730  0.028470  0.033270  1.0  0.1157
  H  H143  1  0.563730  0.171270  0.071170  1.0  0.0833
  H  H144  1  0.587130  0.217970  0.191970  1.0  0.1278
  H  H145  1  0.358100  0.895000  0.600900  1.0  0.0976
  H  H146  1  0.286400  0.846700  0.576700  1.0  0.1019
  H  H147  1  0.304100  0.868900  0.322300  1.0  0.1025
  H  H148  1  0.376400  0.914100  0.344800  1.0  0.1149
  H  H149  1  0.236400  0.874600  0.366600  1.0  0.1153
  H  H150  1  0.230400  0.725800  0.404500  1.0  0.0888
  H  H151  1  0.253800  0.702500  0.525300  1.0  0.1273
  H  H152  1  0.024770  0.228330  0.934230  1.0  0.0989
  H  H153  1  0.953070  0.180030  0.910030  1.0  0.102
  H  H154  1  0.970770  0.202230  0.655630  1.0  0.1025
  H  H155  1  0.043070  0.247430  0.678130  1.0  0.1137
  H  H156  1  0.903070  0.207930  0.699930  1.0  0.1154
  H  H157  1  0.897070  0.059130  0.737830  1.0  0.085
  H  H158  1  0.920470  0.035830  0.858630  1.0  0.1274
  H  H159  1  0.691430  0.561670  0.267570  1.0  0.0976
  H  H160  1  0.619730  0.513370  0.243370  1.0  0.1019
  H  H161  1  0.637430  0.535570  0.988970  1.0  0.1025
  H  H162  1  0.709730  0.580770  0.011470  1.0  0.1149
  H  H163  1  0.569730  0.541270  0.033270  1.0  0.1153
  H  H164  1  0.563730  0.392470  0.071170  1.0  0.0888
  H  H165  1  0.587130  0.369170  0.191970  1.0  0.1273
  H  H166  1  0.105000  0.463100  0.600900  1.0  0.0987
  H  H167  1  0.153300  0.439700  0.576700  1.0  0.1023
  H  H168  1  0.131100  0.435200  0.322300  1.0  0.1024
  H  H169  1  0.085900  0.462300  0.344800  1.0  0.1133
  H  H170  1  0.125400  0.361800  0.366600  1.0  0.1151
  H  H171  1  0.274200  0.504600  0.404500  1.0  0.0871
  H  H172  1  0.297500  0.551300  0.525300  1.0  0.1251
  H  H173  1  0.771670  0.796430  0.934230  1.0  0.098
  H  H174  1  0.819970  0.773030  0.910030  1.0  0.1034
  H  H175  1  0.797770  0.768530  0.655630  1.0  0.1094
  H  H176  1  0.752570  0.795630  0.678130  1.0  0.1147
  H  H177  1  0.792070  0.695130  0.699930  1.0  0.1151
  H  H178  1  0.940870  0.837930  0.737830  1.0  0.0856
  H  H179  1  0.964170  0.884630  0.858630  1.0  0.1246
  H  H180  1  0.438330  0.129770  0.267570  1.0  0.0987
  H  H181  1  0.486630  0.106370  0.243370  1.0  0.1023
  H  H182  1  0.464430  0.101870  0.988970  1.0  0.1024
  H  H183  1  0.419230  0.128970  0.011470  1.0  0.1133
  H  H184  1  0.458730  0.028470  0.033270  1.0  0.1147
  H  H185  1  0.607530  0.171270  0.071170  1.0  0.0871
  H  H186  1  0.630830  0.217970  0.191970  1.0  0.1251
  H  H187  1  0.536900  0.641900  0.600900  1.0  0.0974
  H  H188  1  0.560300  0.713600  0.576700  1.0  0.1035
  H  H189  1  0.564800  0.695900  0.322300  1.0  0.1089
  H  H190  1  0.537700  0.623600  0.344800  1.0  0.1139
  H  H191  1  0.638200  0.763600  0.366600  1.0  0.1146
  H  H192  1  0.495400  0.769600  0.404500  1.0  0.0855
  H  H193  1  0.448700  0.746200  0.525300  1.0  0.1278
  H  H194  1  0.203570  0.975230  0.934230  1.0  0.0969
  H  H195  1  0.226970  0.046930  0.910030  1.0  0.1022
  H  H196  1  0.231470  0.029230  0.655630  1.0  0.1025
  H  H197  1  0.204370  0.956930  0.678130  1.0  0.1139
  H  H198  1  0.304870  0.096930  0.699930  1.0  0.1146
  H  H199  1  0.162070  0.102930  0.737830  1.0  0.09
  H  H200  1  0.115370  0.079530  0.858630  1.0  0.1269
  H  H201  1  0.870230  0.308570  0.267570  1.0  0.0974
  H  H202  1  0.893630  0.380270  0.243370  1.0  0.1035
  H  H203  1  0.898130  0.362570  0.988970  1.0  0.1089
  H  H204  1  0.871030  0.290270  0.011470  1.0  0.1139
  H  H205  1  0.971530  0.430270  0.033270  1.0  0.1148
  H  H206  1  0.828730  0.436270  0.071170  1.0  0.0855
  H  H207  1  0.782030  0.412870  0.191970  1.0  0.1278
  H  H208  1  0.895000  0.358100  0.399100  1.0  0.0969
  H  H209  1  0.846700  0.286400  0.423300  1.0  0.1023
  H  H210  1  0.868900  0.304100  0.677700  1.0  0.1018
  H  H211  1  0.914100  0.376400  0.655200  1.0  0.1143
  H  H212  1  0.874600  0.236400  0.633400  1.0  0.115
  H  H213  1  0.725800  0.230400  0.595500  1.0  0.0886
  H  H214  1  0.702500  0.253800  0.474700  1.0  0.1245
  H  H215  1  0.561670  0.691430  0.732430  1.0  0.0969
  H  H216  1  0.513370  0.619730  0.756630  1.0  0.1023
  H  H217  1  0.535570  0.637430  0.011030  1.0  0.1018
  H  H218  1  0.580770  0.709730  0.988530  1.0  0.1143
  H  H219  1  0.541270  0.569730  0.966730  1.0  0.115
  H  H220  1  0.392470  0.563730  0.928830  1.0  0.0886
  H  H221  1  0.369170  0.587130  0.808030  1.0  0.1245
  H  H222  1  0.228330  0.024770  0.065770  1.0  0.0984
  H  H223  1  0.180030  0.953070  0.089970  1.0  0.1024
  H  H224  1  0.202230  0.970770  0.344370  1.0  0.1018
  H  H225  1  0.247430  0.043070  0.321870  1.0  0.1133
  H  H226  1  0.207930  0.903070  0.300070  1.0  0.1151
  H  H227  1  0.059130  0.897070  0.262170  1.0  0.085
  H  H228  1  0.035830  0.920470  0.141370  1.0  0.1258
  H  H229  1  0.463100  0.105000  0.399100  1.0  0.0984
  H  H230  1  0.439700  0.153300  0.423300  1.0  0.1023
  H  H231  1  0.435200  0.131100  0.677700  1.0  0.1024
  H  H232  1  0.462300  0.085900  0.655200  1.0  0.1139
  H  H233  1  0.361800  0.125400  0.633400  1.0  0.1161
  H  H234  1  0.504600  0.274200  0.595500  1.0  0.0904
  H  H235  1  0.551300  0.297500  0.474700  1.0  0.1294
  H  H236  1  0.129770  0.438330  0.732430  1.0  0.0984
  H  H237  1  0.106370  0.486630  0.756630  1.0  0.1023
  H  H238  1  0.101870  0.464430  0.011030  1.0  0.1025
  H  H239  1  0.128970  0.419230  0.988530  1.0  0.1139
  H  H240  1  0.028470  0.458730  0.966730  1.0  0.1158
  H  H241  1  0.171270  0.607530  0.928830  1.0  0.0904
  H  H242  1  0.217970  0.630830  0.808030  1.0  0.1294
  H  H243  1  0.796430  0.771670  0.065770  1.0  0.0979
  H  H244  1  0.773030  0.819970  0.089970  1.0  0.1035
  H  H245  1  0.768530  0.797770  0.344370  1.0  0.1093
  H  H246  1  0.795630  0.752570  0.321870  1.0  0.1152
  H  H247  1  0.695130  0.792070  0.300070  1.0  0.1161
  H  H248  1  0.837930  0.940870  0.262170  1.0  0.0889
  H  H249  1  0.884630  0.964170  0.141370  1.0  0.1284
  H  H250  1  0.641900  0.536900  0.399100  1.0  0.098
  H  H251  1  0.713600  0.560300  0.423300  1.0  0.1035
  H  H252  1  0.695900  0.564800  0.677700  1.0  0.11
  H  H253  1  0.623600  0.537700  0.655200  1.0  0.1149
  H  H254  1  0.763600  0.638200  0.633400  1.0  0.1154
  H  H255  1  0.769600  0.495400  0.595500  1.0  0.0807
  H  H256  1  0.746200  0.448700  0.474700  1.0  0.1253
  H  H257  1  0.308570  0.870230  0.732430  1.0  0.098
  H  H258  1  0.380270  0.893630  0.756630  1.0  0.1035
  H  H259  1  0.362570  0.898130  0.011030  1.0  0.11
  H  H260  1  0.290270  0.871030  0.988530  1.0  0.1149
  H  H261  1  0.430270  0.971530  0.966730  1.0  0.1156
  H  H262  1  0.436270  0.828730  0.928830  1.0  0.0807
  H  H263  1  0.412870  0.782030  0.808030  1.0  0.1253
  H  H264  1  0.975230  0.203570  0.065770  1.0  0.0975
  H  H265  1  0.046930  0.226970  0.089970  1.0  0.1022
  H  H266  1  0.029230  0.231470  0.344370  1.0  0.1024
  H  H267  1  0.956930  0.204370  0.321870  1.0  0.1149
  H  H268  1  0.096930  0.304870  0.300070  1.0  0.1153
  H  H269  1  0.102930  0.162070  0.262170  1.0  0.0862
  H  H270  1  0.079530  0.115370  0.141370  1.0  0.1246
  H  H271  1  0.713800  0.286200  0.552000  1.0  0.128
  H  H272  1  0.380470  0.619530  0.885330  1.0  0.128
  H  H273  1  0.047130  0.952870  0.218670  1.0  0.1295
  H  H274  1  0.713800  0.427600  0.552000  1.0  0.1297
  H  H275  1  0.380470  0.760930  0.885330  1.0  0.1297
  H  H276  1  0.047130  0.094270  0.218670  1.0  0.1289
  H  H277  1  0.572400  0.286200  0.552000  1.0  0.131
  H  H278  1  0.239070  0.619530  0.885330  1.0  0.131
  H  H279  1  0.905730  0.952870  0.218670  1.0  0.1299
  H  H280  1  0.286200  0.713800  0.448000  1.0  0.1279
  H  H281  1  0.952870  0.047130  0.781330  1.0  0.1292
  H  H282  1  0.619530  0.380470  0.114670  1.0  0.1279
  H  H283  1  0.427600  0.713800  0.448000  1.0  0.1287
  H  H284  1  0.094270  0.047130  0.781330  1.0  0.1266
  H  H285  1  0.760930  0.380470  0.114670  1.0  0.1287
  H  H286  1  0.286200  0.572400  0.448000  1.0  0.1305
  H  H287  1  0.952870  0.905730  0.781330  1.0  0.1286
  H  H288  1  0.619530  0.239070  0.114670  1.0  0.1305
  C  C289  1  0.578550  0.056920  0.509500  1.0  0.6781
  C  C290  1  0.625250  0.088980  0.523000  1.0  -0.1318
  C  C291  1  0.652560  0.109980  0.455600  1.0  -0.0464
  C  C292  1  0.695880  0.138540  0.470000  1.0  -0.131
  C  C293  1  0.713140  0.145470  0.552100  1.0  0.0539
  C  C294  1  0.685150  0.125700  0.621300  1.0  -0.1754
  C  C295  1  0.641900  0.098290  0.607900  1.0  -0.0563
  C  C296  1  0.760170  0.172500  0.569500  1.0  -0.0141
  C  C297  1  0.779970  0.154170  0.617100  1.0  -0.0919
  C  C298  1  0.245220  0.390250  0.842830  1.0  0.6781
  C  C299  1  0.291920  0.422310  0.856330  1.0  -0.1318
  C  C300  1  0.319230  0.443310  0.788930  1.0  -0.0464
  C  C301  1  0.362550  0.471870  0.803330  1.0  -0.131
  C  C302  1  0.379810  0.478800  0.885430  1.0  0.0539
  C  C303  1  0.351820  0.459030  0.954630  1.0  -0.1754
  C  C304  1  0.308570  0.431620  0.941230  1.0  -0.0564
  C  C305  1  0.426840  0.505830  0.902830  1.0  -0.0141
  C  C306  1  0.446640  0.487500  0.950430  1.0  -0.092
  C  C307  1  0.911880  0.723590  0.176170  1.0  0.6781
  C  C308  1  0.958580  0.755650  0.189670  1.0  -0.1318
  C  C309  1  0.985890  0.776650  0.122270  1.0  -0.0466
  C  C310  1  0.029210  0.805210  0.136670  1.0  -0.1312
  C  C311  1  0.046470  0.812140  0.218770  1.0  0.0539
  C  C312  1  0.018480  0.792370  0.287970  1.0  -0.1754
  C  C313  1  0.975230  0.764960  0.274570  1.0  -0.0563
  C  C314  1  0.093500  0.839170  0.236170  1.0  -0.0141
  C  C315  1  0.113300  0.820840  0.283770  1.0  -0.0919
  C  C316  1  0.943080  0.521630  0.509500  1.0  0.6764
  C  C317  1  0.911020  0.536270  0.523000  1.0  -0.1321
  C  C318  1  0.890020  0.542580  0.455600  1.0  -0.0476
  C  C319  1  0.861460  0.557340  0.470000  1.0  -0.1312
  C  C320  1  0.854530  0.567670  0.552100  1.0  0.0542
  C  C321  1  0.874300  0.559450  0.621300  1.0  -0.1742
  C  C322  1  0.901710  0.543610  0.607900  1.0  -0.0543
  C  C323  1  0.827500  0.587670  0.569500  1.0  -0.0137
  C  C324  1  0.845830  0.625800  0.617100  1.0  -0.0956
  C  C325  1  0.609750  0.854960  0.842830  1.0  0.6764
  C  C326  1  0.577690  0.869600  0.856330  1.0  -0.1321
  C  C327  1  0.556690  0.875910  0.788930  1.0  -0.0476
  C  C328  1  0.528130  0.890670  0.803330  1.0  -0.1312
  C  C329  1  0.521200  0.901000  0.885430  1.0  0.0542
  C  C330  1  0.540970  0.892780  0.954630  1.0  -0.1742
  C  C331  1  0.568380  0.876940  0.941230  1.0  -0.0543
  C  C332  1  0.494170  0.921000  0.902830  1.0  -0.0137
  C  C333  1  0.512500  0.959130  0.950430  1.0  -0.0956
  C  C334  1  0.276410  0.188300  0.176170  1.0  0.6764
  C  C335  1  0.244350  0.202940  0.189670  1.0  -0.1321
  C  C336  1  0.223350  0.209250  0.122270  1.0  -0.0477
  C  C337  1  0.194790  0.224010  0.136670  1.0  -0.1312
  C  C338  1  0.187860  0.234340  0.218770  1.0  0.0542
  C  C339  1  0.207630  0.226120  0.287970  1.0  -0.1742
  C  C340  1  0.235040  0.210280  0.274570  1.0  -0.0543
  C  C341  1  0.160830  0.254340  0.236170  1.0  -0.0137
  C  C342  1  0.179160  0.292470  0.283770  1.0  -0.0956
  C  C343  1  0.478370  0.421450  0.509500  1.0  0.6786
  C  C344  1  0.463730  0.374750  0.523000  1.0  -0.1319
  C  C345  1  0.457420  0.347440  0.455600  1.0  -0.0467
  C  C346  1  0.442660  0.304120  0.470000  1.0  -0.1315
  C  C347  1  0.432330  0.286860  0.552100  1.0  0.0554
  C  C348  1  0.440550  0.314850  0.621300  1.0  -0.1738
  C  C349  1  0.456390  0.358100  0.607900  1.0  -0.0564
  C  C350  1  0.412330  0.239830  0.569500  1.0  -0.0151
  C  C351  1  0.374200  0.220030  0.617100  1.0  -0.0944
  C  C352  1  0.145040  0.754780  0.842830  1.0  0.6786
  C  C353  1  0.130400  0.708080  0.856330  1.0  -0.1319
  C  C354  1  0.124090  0.680770  0.788930  1.0  -0.0467
  C  C355  1  0.109330  0.637450  0.803330  1.0  -0.1315
  C  C356  1  0.099000  0.620190  0.885430  1.0  0.0554
  C  C357  1  0.107220  0.648180  0.954630  1.0  -0.1738
  C  C358  1  0.123060  0.691430  0.941230  1.0  -0.0564
  C  C359  1  0.079000  0.573160  0.902830  1.0  -0.0151
  C  C360  1  0.040870  0.553360  0.950430  1.0  -0.0943
  C  C361  1  0.811700  0.088120  0.176170  1.0  0.6786
  C  C362  1  0.797060  0.041420  0.189670  1.0  -0.1319
  C  C363  1  0.790750  0.014110  0.122270  1.0  -0.0467
  C  C364  1  0.775990  0.970790  0.136670  1.0  -0.1313
  C  C365  1  0.765660  0.953530  0.218770  1.0  0.0554
  C  C366  1  0.773880  0.981520  0.287970  1.0  -0.1738
  C  C367  1  0.789720  0.024770  0.274570  1.0  -0.0564
  C  C368  1  0.745660  0.906500  0.236170  1.0  -0.0151
  C  C369  1  0.707530  0.886700  0.283770  1.0  -0.0944
  C  C370  1  0.056920  0.578550  0.490500  1.0  0.6782
  C  C371  1  0.088980  0.625250  0.477000  1.0  -0.1312
  C  C372  1  0.109980  0.652560  0.544400  1.0  -0.048
  C  C373  1  0.138540  0.695880  0.530000  1.0  -0.1303
  C  C374  1  0.145470  0.713140  0.447900  1.0  0.0555
  C  C375  1  0.125700  0.685150  0.378700  1.0  -0.1737
  C  C376  1  0.098290  0.641900  0.392100  1.0  -0.0544
  C  C377  1  0.172500  0.760170  0.430500  1.0  -0.0143
  C  C378  1  0.154170  0.779970  0.382900  1.0  -0.095
  C  C379  1  0.723590  0.911880  0.823830  1.0  0.6782
  C  C380  1  0.755650  0.958580  0.810330  1.0  -0.1312
  C  C381  1  0.776650  0.985890  0.877730  1.0  -0.0482
  C  C382  1  0.805210  0.029210  0.863330  1.0  -0.1305
  C  C383  1  0.812140  0.046470  0.781230  1.0  0.0555
  C  C384  1  0.792370  0.018480  0.712030  1.0  -0.1737
  C  C385  1  0.764960  0.975230  0.725430  1.0  -0.0544
  C  C386  1  0.839170  0.093500  0.763830  1.0  -0.0143
  C  C387  1  0.820840  0.113300  0.716230  1.0  -0.095
  C  C388  1  0.390250  0.245220  0.157170  1.0  0.6782
  C  C389  1  0.422310  0.291920  0.143670  1.0  -0.1312
  C  C390  1  0.443310  0.319230  0.211070  1.0  -0.048
  C  C391  1  0.471870  0.362550  0.196670  1.0  -0.1303
  C  C392  1  0.478800  0.379810  0.114570  1.0  0.0555
  C  C393  1  0.459030  0.351820  0.045370  1.0  -0.1737
  C  C394  1  0.431620  0.308570  0.058770  1.0  -0.0545
  C  C395  1  0.505830  0.426840  0.097170  1.0  -0.0143
  C  C396  1  0.487500  0.446640  0.049570  1.0  -0.0951
  C  C397  1  0.521630  0.943080  0.490500  1.0  0.6784
  C  C398  1  0.536270  0.911020  0.477000  1.0  -0.1321
  C  C399  1  0.542580  0.890020  0.544400  1.0  -0.0481
  C  C400  1  0.557340  0.861460  0.530000  1.0  -0.1304
  C  C401  1  0.567670  0.854530  0.447900  1.0  0.0546
  C  C402  1  0.559450  0.874300  0.378700  1.0  -0.1739
  C  C403  1  0.543610  0.901710  0.392100  1.0  -0.0561
  C  C404  1  0.587670  0.827500  0.430500  1.0  -0.0136
  C  C405  1  0.625800  0.845830  0.382900  1.0  -0.0945
  C  C406  1  0.188300  0.276410  0.823830  1.0  0.6784
  C  C407  1  0.202940  0.244350  0.810330  1.0  -0.1321
  C  C408  1  0.209250  0.223350  0.877730  1.0  -0.0481
  C  C409  1  0.224010  0.194790  0.863330  1.0  -0.1304
  C  C410  1  0.234340  0.187860  0.781230  1.0  0.0546
  C  C411  1  0.226120  0.207630  0.712030  1.0  -0.1739
  C  C412  1  0.210280  0.235040  0.725430  1.0  -0.0561
  C  C413  1  0.254340  0.160830  0.763830  1.0  -0.0136
  C  C414  1  0.292470  0.179160  0.716230  1.0  -0.0945
  C  C415  1  0.854960  0.609750  0.157170  1.0  0.6784
  C  C416  1  0.869600  0.577690  0.143670  1.0  -0.1321
  C  C417  1  0.875910  0.556690  0.211070  1.0  -0.0481
  C  C418  1  0.890670  0.528130  0.196670  1.0  -0.1304
  C  C419  1  0.901000  0.521200  0.114570  1.0  0.0546
  C  C420  1  0.892780  0.540970  0.045370  1.0  -0.1739
  C  C421  1  0.876940  0.568380  0.058770  1.0  -0.0561
  C  C422  1  0.921000  0.494170  0.097170  1.0  -0.0136
  C  C423  1  0.959130  0.512500  0.049570  1.0  -0.0944
  C  C424  1  0.421450  0.478370  0.490500  1.0  0.6766
  C  C425  1  0.374750  0.463730  0.477000  1.0  -0.1324
  C  C426  1  0.347440  0.457420  0.544400  1.0  -0.0485
  C  C427  1  0.304120  0.442660  0.530000  1.0  -0.1311
  C  C428  1  0.286860  0.432330  0.447900  1.0  0.0542
  C  C429  1  0.314850  0.440550  0.378700  1.0  -0.1726
  C  C430  1  0.358100  0.456390  0.392100  1.0  -0.0559
  C  C431  1  0.239830  0.412330  0.430500  1.0  -0.0128
  C  C432  1  0.220030  0.374200  0.382900  1.0  -0.096
  C  C433  1  0.088120  0.811700  0.823830  1.0  0.6766
  C  C434  1  0.041420  0.797060  0.810330  1.0  -0.1324
  C  C435  1  0.014110  0.790750  0.877730  1.0  -0.0485
  C  C436  1  0.970790  0.775990  0.863330  1.0  -0.1308
  C  C437  1  0.953530  0.765660  0.781230  1.0  0.0542
  C  C438  1  0.981520  0.773880  0.712030  1.0  -0.1726
  C  C439  1  0.024770  0.789720  0.725430  1.0  -0.0559
  C  C440  1  0.906500  0.745660  0.763830  1.0  -0.0128
  C  C441  1  0.886700  0.707530  0.716230  1.0  -0.096
  C  C442  1  0.754780  0.145040  0.157170  1.0  0.6766
  C  C443  1  0.708080  0.130400  0.143670  1.0  -0.1324
  C  C444  1  0.680770  0.124090  0.211070  1.0  -0.0485
  C  C445  1  0.637450  0.109330  0.196670  1.0  -0.1311
  C  C446  1  0.620190  0.099000  0.114570  1.0  0.0542
  C  C447  1  0.648180  0.107220  0.045370  1.0  -0.1726
  C  C448  1  0.691430  0.123060  0.058770  1.0  -0.0559
  C  C449  1  0.573160  0.079000  0.097170  1.0  -0.0128
  C  C450  1  0.553360  0.040870  0.049570  1.0  -0.096
  C  C451  1  0.421450  0.943080  0.490500  1.0  0.6775
  C  C452  1  0.374750  0.911020  0.477000  1.0  -0.1332
  C  C453  1  0.347440  0.890020  0.544400  1.0  -0.0475
  C  C454  1  0.304120  0.861460  0.530000  1.0  -0.1309
  C  C455  1  0.286860  0.854530  0.447900  1.0  0.0555
  C  C456  1  0.314850  0.874300  0.378700  1.0  -0.1733
  C  C457  1  0.358100  0.901710  0.392100  1.0  -0.0572
  C  C458  1  0.239830  0.827500  0.430500  1.0  -0.0142
  C  C459  1  0.220030  0.845830  0.382900  1.0  -0.0938
  C  C460  1  0.088120  0.276410  0.823830  1.0  0.6775
  C  C461  1  0.041420  0.244350  0.810330  1.0  -0.1332
  C  C462  1  0.014110  0.223350  0.877730  1.0  -0.0478
  C  C463  1  0.970790  0.194790  0.863330  1.0  -0.1311
  C  C464  1  0.953530  0.187860  0.781230  1.0  0.0555
  C  C465  1  0.981520  0.207630  0.712030  1.0  -0.1733
  C  C466  1  0.024770  0.235040  0.725430  1.0  -0.0572
  C  C467  1  0.906500  0.160830  0.763830  1.0  -0.0142
  C  C468  1  0.886700  0.179160  0.716230  1.0  -0.0938
  C  C469  1  0.754780  0.609750  0.157170  1.0  0.6775
  C  C470  1  0.708080  0.577690  0.143670  1.0  -0.1332
  C  C471  1  0.680770  0.556690  0.211070  1.0  -0.0475
  C  C472  1  0.637450  0.528130  0.196670  1.0  -0.1309
  C  C473  1  0.620190  0.521200  0.114570  1.0  0.0555
  C  C474  1  0.648180  0.540970  0.045370  1.0  -0.1733
  C  C475  1  0.691430  0.568380  0.058770  1.0  -0.0573
  C  C476  1  0.573160  0.494170  0.097170  1.0  -0.0141
  C  C477  1  0.553360  0.512500  0.049570  1.0  -0.0939
  C  C478  1  0.056920  0.478370  0.490500  1.0  0.6765
  C  C479  1  0.088980  0.463730  0.477000  1.0  -0.1316
  C  C480  1  0.109980  0.457420  0.544400  1.0  -0.0485
  C  C481  1  0.138540  0.442660  0.530000  1.0  -0.1305
  C  C482  1  0.145470  0.432330  0.447900  1.0  0.0542
  C  C483  1  0.125700  0.440550  0.378700  1.0  -0.1728
  C  C484  1  0.098290  0.456390  0.392100  1.0  -0.0549
  C  C485  1  0.172500  0.412330  0.430500  1.0  -0.0135
  C  C486  1  0.154170  0.374200  0.382900  1.0  -0.0954
  C  C487  1  0.723590  0.811700  0.823830  1.0  0.6765
  C  C488  1  0.755650  0.797060  0.810330  1.0  -0.1316
  C  C489  1  0.776650  0.790750  0.877730  1.0  -0.0486
  C  C490  1  0.805210  0.775990  0.863330  1.0  -0.1305
  C  C491  1  0.812140  0.765660  0.781230  1.0  0.0542
  C  C492  1  0.792370  0.773880  0.712030  1.0  -0.1728
  C  C493  1  0.764960  0.789720  0.725430  1.0  -0.0549
  C  C494  1  0.839170  0.745660  0.763830  1.0  -0.0135
  C  C495  1  0.820840  0.707530  0.716230  1.0  -0.0954
  C  C496  1  0.390250  0.145040  0.157170  1.0  0.6765
  C  C497  1  0.422310  0.130400  0.143670  1.0  -0.1316
  C  C498  1  0.443310  0.124090  0.211070  1.0  -0.0485
  C  C499  1  0.471870  0.109330  0.196670  1.0  -0.1305
  C  C500  1  0.478800  0.099000  0.114570  1.0  0.0542
  C  C501  1  0.459030  0.107220  0.045370  1.0  -0.1728
  C  C502  1  0.431620  0.123060  0.058770  1.0  -0.0549
  C  C503  1  0.505830  0.079000  0.097170  1.0  -0.0135
  C  C504  1  0.487500  0.040870  0.049570  1.0  -0.0954
  C  C505  1  0.521630  0.578550  0.490500  1.0  0.6778
  C  C506  1  0.536270  0.625250  0.477000  1.0  -0.1321
  C  C507  1  0.542580  0.652560  0.544400  1.0  -0.0476
  C  C508  1  0.557340  0.695880  0.530000  1.0  -0.1311
  C  C509  1  0.567670  0.713140  0.447900  1.0  0.0546
  C  C510  1  0.559450  0.685150  0.378700  1.0  -0.1728
  C  C511  1  0.543610  0.641900  0.392100  1.0  -0.0552
  C  C512  1  0.587670  0.760170  0.430500  1.0  -0.0127
  C  C513  1  0.625800  0.779970  0.382900  1.0  -0.0952
  C  C514  1  0.188300  0.911880  0.823830  1.0  0.6778
  C  C515  1  0.202940  0.958580  0.810330  1.0  -0.1321
  C  C516  1  0.209250  0.985890  0.877730  1.0  -0.0475
  C  C517  1  0.224010  0.029210  0.863330  1.0  -0.1309
  C  C518  1  0.234340  0.046470  0.781230  1.0  0.0546
  C  C519  1  0.226120  0.018480  0.712030  1.0  -0.1728
  C  C520  1  0.210280  0.975230  0.725430  1.0  -0.0552
  C  C521  1  0.254340  0.093500  0.763830  1.0  -0.0127
  C  C522  1  0.292470  0.113300  0.716230  1.0  -0.0952
  C  C523  1  0.854960  0.245220  0.157170  1.0  0.6778
  C  C524  1  0.869600  0.291920  0.143670  1.0  -0.1321
  C  C525  1  0.875910  0.319230  0.211070  1.0  -0.0476
  C  C526  1  0.890670  0.362550  0.196670  1.0  -0.1311
  C  C527  1  0.901000  0.379810  0.114570  1.0  0.0546
  C  C528  1  0.892780  0.351820  0.045370  1.0  -0.1728
  C  C529  1  0.876940  0.308570  0.058770  1.0  -0.0552
  C  C530  1  0.921000  0.426840  0.097170  1.0  -0.0127
  C  C531  1  0.959130  0.446640  0.049570  1.0  -0.0951
  C  C532  1  0.943080  0.421450  0.509500  1.0  0.6782
  C  C533  1  0.911020  0.374750  0.523000  1.0  -0.1326
  C  C534  1  0.890020  0.347440  0.455600  1.0  -0.0474
  C  C535  1  0.861460  0.304120  0.470000  1.0  -0.1314
  C  C536  1  0.854530  0.286860  0.552100  1.0  0.0546
  C  C537  1  0.874300  0.314850  0.621300  1.0  -0.1735
  C  C538  1  0.901710  0.358100  0.607900  1.0  -0.0545
  C  C539  1  0.827500  0.239830  0.569500  1.0  -0.0133
  C  C540  1  0.845830  0.220030  0.617100  1.0  -0.0947
  C  C541  1  0.609750  0.754780  0.842830  1.0  0.6782
  C  C542  1  0.577690  0.708080  0.856330  1.0  -0.1326
  C  C543  1  0.556690  0.680770  0.788930  1.0  -0.0474
  C  C544  1  0.528130  0.637450  0.803330  1.0  -0.1314
  C  C545  1  0.521200  0.620190  0.885430  1.0  0.0546
  C  C546  1  0.540970  0.648180  0.954630  1.0  -0.1735
  C  C547  1  0.568380  0.691430  0.941230  1.0  -0.0546
  C  C548  1  0.494170  0.573160  0.902830  1.0  -0.0132
  C  C549  1  0.512500  0.553360  0.950430  1.0  -0.0948
  C  C550  1  0.276410  0.088120  0.176170  1.0  0.6782
  C  C551  1  0.244350  0.041420  0.189670  1.0  -0.1326
  C  C552  1  0.223350  0.014110  0.122270  1.0  -0.0476
  C  C553  1  0.194790  0.970790  0.136670  1.0  -0.1316
  C  C554  1  0.187860  0.953530  0.218770  1.0  0.0546
  C  C555  1  0.207630  0.981520  0.287970  1.0  -0.1735
  C  C556  1  0.235040  0.024770  0.274570  1.0  -0.0545
  C  C557  1  0.160830  0.906500  0.236170  1.0  -0.0133
  C  C558  1  0.179160  0.886700  0.283770  1.0  -0.0947
  C  C559  1  0.478370  0.056920  0.509500  1.0  0.6772
  C  C560  1  0.463730  0.088980  0.523000  1.0  -0.1321
  C  C561  1  0.457420  0.109980  0.455600  1.0  -0.0467
  C  C562  1  0.442660  0.138540  0.470000  1.0  -0.1305
  C  C563  1  0.432330  0.145470  0.552100  1.0  0.0547
  C  C564  1  0.440550  0.125700  0.621300  1.0  -0.1757
  C  C565  1  0.456390  0.098290  0.607900  1.0  -0.0554
  C  C566  1  0.412330  0.172500  0.569500  1.0  -0.0144
  C  C567  1  0.374200  0.154170  0.617100  1.0  -0.0924
  C  C568  1  0.145040  0.390250  0.842830  1.0  0.6772
  C  C569  1  0.130400  0.422310  0.856330  1.0  -0.1321
  C  C570  1  0.124090  0.443310  0.788930  1.0  -0.0467
  C  C571  1  0.109330  0.471870  0.803330  1.0  -0.1305
  C  C572  1  0.099000  0.478800  0.885430  1.0  0.0547
  C  C573  1  0.107220  0.459030  0.954630  1.0  -0.1757
  C  C574  1  0.123060  0.431620  0.941230  1.0  -0.0554
  C  C575  1  0.079000  0.505830  0.902830  1.0  -0.0144
  C  C576  1  0.040870  0.487500  0.950430  1.0  -0.0924
  C  C577  1  0.811700  0.723590  0.176170  1.0  0.6772
  C  C578  1  0.797060  0.755650  0.189670  1.0  -0.1321
  C  C579  1  0.790750  0.776650  0.122270  1.0  -0.0468
  C  C580  1  0.775990  0.805210  0.136670  1.0  -0.1305
  C  C581  1  0.765660  0.812140  0.218770  1.0  0.0547
  C  C582  1  0.773880  0.792370  0.287970  1.0  -0.1757
  C  C583  1  0.789720  0.764960  0.274570  1.0  -0.0554
  C  C584  1  0.745660  0.839170  0.236170  1.0  -0.0144
  C  C585  1  0.707530  0.820840  0.283770  1.0  -0.0924
  C  C586  1  0.578550  0.521630  0.509500  1.0  0.6762
  C  C587  1  0.625250  0.536270  0.523000  1.0  -0.1316
  C  C588  1  0.652560  0.542580  0.455600  1.0  -0.0467
  C  C589  1  0.695880  0.557340  0.470000  1.0  -0.1314
  C  C590  1  0.713140  0.567670  0.552100  1.0  0.054
  C  C591  1  0.685150  0.559450  0.621300  1.0  -0.1746
  C  C592  1  0.641900  0.543610  0.607900  1.0  -0.0554
  C  C593  1  0.760170  0.587670  0.569500  1.0  -0.0143
  C  C594  1  0.779970  0.625800  0.617100  1.0  -0.0965
  C  C595  1  0.245220  0.854960  0.842830  1.0  0.6762
  C  C596  1  0.291920  0.869600  0.856330  1.0  -0.1316
  C  C597  1  0.319230  0.875910  0.788930  1.0  -0.0467
  C  C598  1  0.362550  0.890670  0.803330  1.0  -0.1314
  C  C599  1  0.379810  0.901000  0.885430  1.0  0.054
  C  C600  1  0.351820  0.892780  0.954630  1.0  -0.1746
  C  C601  1  0.308570  0.876940  0.941230  1.0  -0.0554
  C  C602  1  0.426840  0.921000  0.902830  1.0  -0.0143
  C  C603  1  0.446640  0.959130  0.950430  1.0  -0.0964
  C  C604  1  0.911880  0.188300  0.176170  1.0  0.6762
  C  C605  1  0.958580  0.202940  0.189670  1.0  -0.1316
  C  C606  1  0.985890  0.209250  0.122270  1.0  -0.0468
  C  C607  1  0.029210  0.224010  0.136670  1.0  -0.1312
  C  C608  1  0.046470  0.234340  0.218770  1.0  0.054
  C  C609  1  0.018480  0.226120  0.287970  1.0  -0.1746
  C  C610  1  0.975230  0.210280  0.274570  1.0  -0.0554
  C  C611  1  0.093500  0.254340  0.236170  1.0  -0.0143
  C  C612  1  0.113300  0.292470  0.283770  1.0  -0.0965
  C  C613  1  0.823010  0.176990  0.641200  1.0  -0.0078
  C  C614  1  0.784590  0.215410  0.544500  1.0  0.1716
  C  C615  1  0.746900  0.253100  0.558500  1.0  0.1062
  C  C616  1  0.725300  0.274700  0.510500  1.0  -0.3272
  C  C617  1  0.489680  0.510320  0.974530  1.0  -0.0083
  C  C618  1  0.451260  0.548740  0.877830  1.0  0.1716
  C  C619  1  0.413570  0.586430  0.891830  1.0  0.1062
  C  C620  1  0.391970  0.608030  0.843830  1.0  -0.3272
  C  C621  1  0.156340  0.843660  0.307870  1.0  -0.0078
  C  C622  1  0.117920  0.882080  0.211170  1.0  0.1716
  C  C623  1  0.080230  0.919770  0.225170  1.0  0.1062
  C  C624  1  0.058630  0.941370  0.177170  1.0  -0.3272
  C  C625  1  0.823010  0.646020  0.641200  1.0  -0.0056
  C  C626  1  0.784590  0.569180  0.544500  1.0  0.1733
  C  C627  1  0.746900  0.493800  0.558500  1.0  0.1039
  C  C628  1  0.725300  0.450600  0.510500  1.0  -0.3281
  C  C629  1  0.489680  0.979350  0.974530  1.0  -0.0056
  C  C630  1  0.451260  0.902510  0.877830  1.0  0.1733
  C  C631  1  0.413570  0.827130  0.891830  1.0  0.1039
  C  C632  1  0.391970  0.783930  0.843830  1.0  -0.3281
  C  C633  1  0.156340  0.312690  0.307870  1.0  -0.0056
  C  C634  1  0.117920  0.235850  0.211170  1.0  0.1733
  C  C635  1  0.080230  0.160470  0.225170  1.0  0.1038
  C  C636  1  0.058630  0.117270  0.177170  1.0  -0.3282
  C  C637  1  0.353980  0.176990  0.641200  1.0  -0.0086
  C  C638  1  0.430820  0.215410  0.544500  1.0  0.1737
  C  C639  1  0.506200  0.253100  0.558500  1.0  0.1073
  C  C640  1  0.549400  0.274700  0.510500  1.0  -0.3281
  C  C641  1  0.020650  0.510320  0.974530  1.0  -0.0086
  C  C642  1  0.097490  0.548740  0.877830  1.0  0.1737
  C  C643  1  0.172870  0.586430  0.891830  1.0  0.1073
  C  C644  1  0.216070  0.608030  0.843830  1.0  -0.3281
  C  C645  1  0.687310  0.843660  0.307870  1.0  -0.0086
  C  C646  1  0.764150  0.882080  0.211170  1.0  0.1737
  C  C647  1  0.839530  0.919770  0.225170  1.0  0.1073
  C  C648  1  0.882730  0.941370  0.177170  1.0  -0.3281
  C  C649  1  0.176990  0.823010  0.358800  1.0  -0.0081
  C  C650  1  0.215410  0.784590  0.455500  1.0  0.1726
  C  C651  1  0.253100  0.746900  0.441500  1.0  0.1059
  C  C652  1  0.274700  0.725300  0.489500  1.0  -0.3261
  C  C653  1  0.843660  0.156340  0.692130  1.0  -0.008
  C  C654  1  0.882080  0.117920  0.788830  1.0  0.1726
  C  C655  1  0.919770  0.080230  0.774830  1.0  0.1059
  C  C656  1  0.941370  0.058630  0.822830  1.0  -0.3261
  C  C657  1  0.510320  0.489680  0.025470  1.0  -0.0085
  C  C658  1  0.548740  0.451260  0.122170  1.0  0.1726
  C  C659  1  0.586430  0.413570  0.108170  1.0  0.1059
  C  C660  1  0.608030  0.391970  0.156170  1.0  -0.3261
  C  C661  1  0.646020  0.823010  0.358800  1.0  -0.0081
  C  C662  1  0.569180  0.784590  0.455500  1.0  0.1732
  C  C663  1  0.493800  0.746900  0.441500  1.0  0.1058
  C  C664  1  0.450600  0.725300  0.489500  1.0  -0.3261
  C  C665  1  0.312690  0.156340  0.692130  1.0  -0.0081
  C  C666  1  0.235850  0.117920  0.788830  1.0  0.1732
  C  C667  1  0.160470  0.080230  0.774830  1.0  0.1058
  C  C668  1  0.117270  0.058630  0.822830  1.0  -0.3261
  C  C669  1  0.979350  0.489680  0.025470  1.0  -0.008
  C  C670  1  0.902510  0.451260  0.122170  1.0  0.1732
  C  C671  1  0.827130  0.413570  0.108170  1.0  0.1058
  C  C672  1  0.783930  0.391970  0.156170  1.0  -0.3261
  C  C673  1  0.176990  0.353980  0.358800  1.0  -0.0056
  C  C674  1  0.215410  0.430820  0.455500  1.0  0.1739
  C  C675  1  0.253100  0.506200  0.441500  1.0  0.1008
  C  C676  1  0.274700  0.549400  0.489500  1.0  -0.3299
  C  C677  1  0.843660  0.687310  0.692130  1.0  -0.0056
  C  C678  1  0.882080  0.764150  0.788830  1.0  0.1739
  C  C679  1  0.919770  0.839530  0.774830  1.0  0.1008
  C  C680  1  0.941370  0.882730  0.822830  1.0  -0.33
  C  C681  1  0.510320  0.020650  0.025470  1.0  -0.0055
  C  C682  1  0.548740  0.097490  0.122170  1.0  0.1739
  C  C683  1  0.586430  0.172870  0.108170  1.0  0.1008
  C  C684  1  0.608030  0.216070  0.156170  1.0  -0.3299
  O  O685  1  0.557650  0.038180  0.578430  1.0  -0.5828
  O  O686  1  0.564110  0.050750  0.434040  1.0  -0.558
  O  O687  1  0.224320  0.371510  0.911760  1.0  -0.5828
  O  O688  1  0.230780  0.384080  0.767370  1.0  -0.558
  O  O689  1  0.890980  0.704850  0.245100  1.0  -0.5828
  O  O690  1  0.897440  0.717420  0.100710  1.0  -0.5574
  O  O691  1  0.961820  0.519470  0.578430  1.0  -0.5828
  O  O692  1  0.949250  0.513360  0.434040  1.0  -0.557
  O  O693  1  0.628490  0.852800  0.911760  1.0  -0.5828
  O  O694  1  0.615920  0.846690  0.767370  1.0  -0.557
  O  O695  1  0.295150  0.186140  0.245100  1.0  -0.5828
  O  O696  1  0.282580  0.180030  0.100710  1.0  -0.5579
  O  O697  1  0.480530  0.442350  0.578430  1.0  -0.5816
  O  O698  1  0.486640  0.435890  0.434040  1.0  -0.5579
  O  O699  1  0.147200  0.775680  0.911760  1.0  -0.5816
  O  O700  1  0.153310  0.769220  0.767370  1.0  -0.5579
  O  O701  1  0.813860  0.109020  0.245100  1.0  -0.5816
  O  O702  1  0.819970  0.102560  0.100710  1.0  -0.5579
  O  O703  1  0.038180  0.557650  0.421570  1.0  -0.5819
  O  O704  1  0.050750  0.564110  0.565960  1.0  -0.558
  O  O705  1  0.704850  0.890980  0.754900  1.0  -0.5819
  O  O706  1  0.717420  0.897440  0.899290  1.0  -0.5571
  O  O707  1  0.371510  0.224320  0.088240  1.0  -0.5819
  O  O708  1  0.384080  0.230780  0.232630  1.0  -0.558
  O  O709  1  0.519470  0.961820  0.421570  1.0  -0.5826
  O  O710  1  0.513360  0.949250  0.565960  1.0  -0.5573
  O  O711  1  0.186140  0.295150  0.754900  1.0  -0.5826
  O  O712  1  0.180030  0.282580  0.899290  1.0  -0.5585
  O  O713  1  0.852800  0.628490  0.088240  1.0  -0.5826
  O  O714  1  0.846690  0.615920  0.232630  1.0  -0.5573
  O  O715  1  0.442350  0.480530  0.421570  1.0  -0.5831
  O  O716  1  0.435890  0.486640  0.565960  1.0  -0.5584
  O  O717  1  0.109020  0.813860  0.754900  1.0  -0.5831
  O  O718  1  0.102560  0.819970  0.899290  1.0  -0.5584
  O  O719  1  0.775680  0.147200  0.088240  1.0  -0.5831
  O  O720  1  0.769220  0.153310  0.232630  1.0  -0.5584
  O  O721  1  0.442350  0.961820  0.421570  1.0  -0.5826
  O  O722  1  0.435890  0.949250  0.565960  1.0  -0.5598
  O  O723  1  0.109020  0.295150  0.754900  1.0  -0.5826
  O  O724  1  0.102560  0.282580  0.899290  1.0  -0.5588
  O  O725  1  0.775680  0.628490  0.088240  1.0  -0.5826
  O  O726  1  0.769220  0.615920  0.232630  1.0  -0.5598
  O  O727  1  0.038180  0.480530  0.421570  1.0  -0.5832
  O  O728  1  0.050750  0.486640  0.565960  1.0  -0.5575
  O  O729  1  0.704850  0.813860  0.754900  1.0  -0.5832
  O  O730  1  0.717420  0.819970  0.899290  1.0  -0.5584
  O  O731  1  0.371510  0.147200  0.088240  1.0  -0.5832
  O  O732  1  0.384080  0.153310  0.232630  1.0  -0.5575
  O  O733  1  0.519470  0.557650  0.421570  1.0  -0.5821
  O  O734  1  0.513360  0.564110  0.565960  1.0  -0.5583
  O  O735  1  0.186140  0.890980  0.754900  1.0  -0.5821
  O  O736  1  0.180030  0.897440  0.899290  1.0  -0.5583
  O  O737  1  0.852800  0.224320  0.088240  1.0  -0.5821
  O  O738  1  0.846690  0.230780  0.232630  1.0  -0.5583
  O  O739  1  0.961820  0.442350  0.578430  1.0  -0.5826
  O  O740  1  0.949250  0.435890  0.434040  1.0  -0.5577
  O  O741  1  0.628490  0.775680  0.911760  1.0  -0.5826
  O  O742  1  0.615920  0.769220  0.767370  1.0  -0.5577
  O  O743  1  0.295150  0.109020  0.245100  1.0  -0.5826
  O  O744  1  0.282580  0.102560  0.100710  1.0  -0.5572
  O  O745  1  0.480530  0.038180  0.578430  1.0  -0.5833
  O  O746  1  0.486640  0.050750  0.434040  1.0  -0.5577
  O  O747  1  0.147200  0.371510  0.911760  1.0  -0.5833
  O  O748  1  0.153310  0.384080  0.767370  1.0  -0.5577
  O  O749  1  0.813860  0.704850  0.245100  1.0  -0.5833
  O  O750  1  0.819970  0.717420  0.100710  1.0  -0.5588
  O  O751  1  0.557650  0.519470  0.578430  1.0  -0.5832
  O  O752  1  0.564110  0.513360  0.434040  1.0  -0.558
  O  O753  1  0.224320  0.852800  0.911760  1.0  -0.5832
  O  O754  1  0.230780  0.846690  0.767370  1.0  -0.558
  O  O755  1  0.890980  0.186140  0.245100  1.0  -0.5832
  O  O756  1  0.897440  0.180030  0.100710  1.0  -0.558
  O  O757  1  0.765480  0.234520  0.498800  1.0  -0.3447
  O  O758  1  0.432150  0.567850  0.832130  1.0  -0.3447
  O  O759  1  0.098810  0.901190  0.165470  1.0  -0.3447
  O  O760  1  0.765480  0.530960  0.498800  1.0  -0.3444
  O  O761  1  0.432150  0.864290  0.832130  1.0  -0.3444
  O  O762  1  0.098810  0.197630  0.165470  1.0  -0.3444
  O  O763  1  0.469040  0.234520  0.498800  1.0  -0.345
  O  O764  1  0.135710  0.567850  0.832130  1.0  -0.345
  O  O765  1  0.802370  0.901190  0.165470  1.0  -0.345
  O  O766  1  0.234520  0.765480  0.501200  1.0  -0.3501
  O  O767  1  0.901190  0.098810  0.834530  1.0  -0.3501
  O  O768  1  0.567850  0.432150  0.167870  1.0  -0.3501
  O  O769  1  0.530960  0.765480  0.501200  1.0  -0.3502
  O  O770  1  0.197630  0.098810  0.834530  1.0  -0.3502
  O  O771  1  0.864290  0.432150  0.167870  1.0  -0.3502
  O  O772  1  0.234520  0.469040  0.501200  1.0  -0.3501
  O  O773  1  0.901190  0.802370  0.834530  1.0  -0.3501
  O  O774  1  0.567850  0.135710  0.167870  1.0  -0.3501
