# generated using pymatgen
data_CuH15C22O5
_symmetry_space_group_name_H-M   'P 1'
_cell_length_a   34.94470000
_cell_length_b   34.94470000
_cell_length_c   23.33300000
_cell_angle_alpha   90.00000000
_cell_angle_beta   90.00000000
_cell_angle_gamma   120.00000000
_symmetry_Int_Tables_number   1
_chemical_formula_structural   CuH15C22O5
_chemical_formula_sum   'Cu18 H270 C396 O90'
_cell_volume   24675.37977544
_cell_formula_units_Z   18
loop_
 _symmetry_equiv_pos_site_id
 _symmetry_equiv_pos_as_xyz
  1  'x, y, z'
loop_
 _atom_site_type_symbol
 _atom_site_label
 _atom_site_symmetry_multiplicity
 _atom_site_fract_x
 _atom_site_fract_y
 _atom_site_fract_z
 _atom_site_occupancy
 _atom_site_charge
  Cu  Cu1  1  0.508370  0.016740  0.447650  1.0  0.929
  Cu  Cu2  1  0.175040  0.350070  0.780980  1.0  0.929
  Cu  Cu3  1  0.841700  0.683410  0.114320  1.0  0.929
  Cu  Cu4  1  0.983260  0.491630  0.447650  1.0  0.9284
  Cu  Cu5  1  0.649930  0.824960  0.780980  1.0  0.9284
  Cu  Cu6  1  0.316590  0.158300  0.114320  1.0  0.9284
  Cu  Cu7  1  0.508370  0.491630  0.447650  1.0  0.9289
  Cu  Cu8  1  0.175040  0.824960  0.780980  1.0  0.9289
  Cu  Cu9  1  0.841700  0.158300  0.114320  1.0  0.9289
  Cu  Cu10  1  0.016740  0.508370  0.552350  1.0  0.9285
  Cu  Cu11  1  0.683410  0.841700  0.885680  1.0  0.9285
  Cu  Cu12  1  0.350070  0.175040  0.219020  1.0  0.9285
  Cu  Cu13  1  0.491630  0.983260  0.552350  1.0  0.9294
  Cu  Cu14  1  0.158300  0.316590  0.885680  1.0  0.9294
  Cu  Cu15  1  0.824960  0.649930  0.219020  1.0  0.9294
  Cu  Cu16  1  0.491630  0.508370  0.552350  1.0  0.929
  Cu  Cu17  1  0.158300  0.841700  0.885680  1.0  0.929
  Cu  Cu18  1  0.824960  0.175040  0.219020  1.0  0.929
  H  H19  1  0.647300  0.113100  0.467000  1.0  0.1251
  H  H20  1  0.719100  0.161600  0.495300  1.0  0.1096
  H  H21  1  0.691200  0.114600  0.655400  1.0  0.118
  H  H22  1  0.618500  0.066000  0.628700  1.0  0.1165
  H  H23  1  0.762700  0.123500  0.642800  1.0  0.1117
  H  H24  1  0.723100  0.232000  0.604400  1.0  0.0757
  H  H25  1  0.749100  0.295800  0.523600  1.0  0.1089
  H  H26  1  0.313970  0.446430  0.800330  1.0  0.1251
  H  H27  1  0.385770  0.494930  0.828630  1.0  0.1096
  H  H28  1  0.357870  0.447930  0.988730  1.0  0.118
  H  H29  1  0.285170  0.399330  0.962030  1.0  0.1169
  H  H30  1  0.429370  0.456830  0.976130  1.0  0.1118
  H  H31  1  0.389770  0.565330  0.937730  1.0  0.0756
  H  H32  1  0.415770  0.629130  0.856930  1.0  0.1089
  H  H33  1  0.980630  0.779770  0.133670  1.0  0.124
  H  H34  1  0.052430  0.828270  0.161970  1.0  0.1096
  H  H35  1  0.024530  0.781270  0.322070  1.0  0.1181
  H  H36  1  0.951830  0.732670  0.295370  1.0  0.1167
  H  H37  1  0.096030  0.790170  0.309470  1.0  0.1117
  H  H38  1  0.056430  0.898670  0.271070  1.0  0.0762
  H  H39  1  0.082430  0.962470  0.190270  1.0  0.1086
  H  H40  1  0.886900  0.534200  0.467000  1.0  0.1238
  H  H41  1  0.838400  0.557500  0.495300  1.0  0.1099
  H  H42  1  0.885400  0.576600  0.655400  1.0  0.1171
  H  H43  1  0.934000  0.552500  0.628700  1.0  0.116
  H  H44  1  0.876500  0.639200  0.642800  1.0  0.1108
  H  H45  1  0.768000  0.491100  0.604400  1.0  0.0727
  H  H46  1  0.704200  0.453300  0.523600  1.0  0.1089
  H  H47  1  0.553570  0.867530  0.800330  1.0  0.1238
  H  H48  1  0.505070  0.890830  0.828630  1.0  0.1099
  H  H49  1  0.552070  0.909930  0.988730  1.0  0.1171
  H  H50  1  0.600670  0.885830  0.962030  1.0  0.1161
  H  H51  1  0.543170  0.972530  0.976130  1.0  0.1105
  H  H52  1  0.434670  0.824430  0.937730  1.0  0.0719
  H  H53  1  0.370870  0.786630  0.856930  1.0  0.1089
  H  H54  1  0.220230  0.200870  0.133670  1.0  0.1248
  H  H55  1  0.171730  0.224170  0.161970  1.0  0.1098
  H  H56  1  0.218730  0.243270  0.322070  1.0  0.1176
  H  H57  1  0.267330  0.219170  0.295370  1.0  0.1166
  H  H58  1  0.209830  0.305870  0.309470  1.0  0.1108
  H  H59  1  0.101330  0.157770  0.271070  1.0  0.0737
  H  H60  1  0.037530  0.119970  0.190270  1.0  0.1062
  H  H61  1  0.465800  0.352700  0.467000  1.0  0.1252
  H  H62  1  0.442500  0.280900  0.495300  1.0  0.1094
  H  H63  1  0.423400  0.308800  0.655400  1.0  0.1183
  H  H64  1  0.447500  0.381500  0.628700  1.0  0.1164
  H  H65  1  0.360800  0.237300  0.642800  1.0  0.1103
  H  H66  1  0.508900  0.276900  0.604400  1.0  0.0784
  H  H67  1  0.546700  0.250900  0.523600  1.0  0.1104
  H  H68  1  0.132470  0.686030  0.800330  1.0  0.1252
  H  H69  1  0.109170  0.614230  0.828630  1.0  0.1094
  H  H70  1  0.090070  0.642130  0.988730  1.0  0.1183
  H  H71  1  0.114170  0.714830  0.962030  1.0  0.1163
  H  H72  1  0.027470  0.570630  0.976130  1.0  0.1102
  H  H73  1  0.175570  0.610230  0.937730  1.0  0.0766
  H  H74  1  0.213370  0.584230  0.856930  1.0  0.1104
  H  H75  1  0.799130  0.019370  0.133670  1.0  0.1252
  H  H76  1  0.775830  0.947570  0.161970  1.0  0.1095
  H  H77  1  0.756730  0.975470  0.322070  1.0  0.1177
  H  H78  1  0.780830  0.048170  0.295370  1.0  0.1164
  H  H79  1  0.694130  0.903970  0.309470  1.0  0.1103
  H  H80  1  0.842230  0.943570  0.271070  1.0  0.0754
  H  H81  1  0.880030  0.917570  0.190270  1.0  0.1108
  H  H82  1  0.113100  0.647300  0.533000  1.0  0.1249
  H  H83  1  0.161600  0.719100  0.504700  1.0  0.1102
  H  H84  1  0.114600  0.691200  0.344600  1.0  0.1175
  H  H85  1  0.066000  0.618500  0.371300  1.0  0.1155
  H  H86  1  0.123500  0.762700  0.357200  1.0  0.1107
  H  H87  1  0.232000  0.723100  0.395600  1.0  0.0772
  H  H88  1  0.295800  0.749100  0.476400  1.0  0.1102
  H  H89  1  0.779770  0.980630  0.866330  1.0  0.1242
  H  H90  1  0.828270  0.052430  0.838030  1.0  0.1102
  H  H91  1  0.781270  0.024530  0.677930  1.0  0.1175
  H  H92  1  0.732670  0.951830  0.704630  1.0  0.1155
  H  H93  1  0.790170  0.096030  0.690530  1.0  0.1107
  H  H94  1  0.898670  0.056430  0.728930  1.0  0.0775
  H  H95  1  0.962470  0.082430  0.809730  1.0  0.1105
  H  H96  1  0.446430  0.313970  0.199670  1.0  0.1249
  H  H97  1  0.494930  0.385770  0.171370  1.0  0.1102
  H  H98  1  0.447930  0.357870  0.011270  1.0  0.1175
  H  H99  1  0.399330  0.285170  0.037970  1.0  0.1157
  H  H100  1  0.456830  0.429370  0.023870  1.0  0.1108
  H  H101  1  0.565330  0.389770  0.062270  1.0  0.0775
  H  H102  1  0.629130  0.415770  0.143070  1.0  0.1102
  H  H103  1  0.534200  0.886900  0.533000  1.0  0.1244
  H  H104  1  0.557500  0.838400  0.504700  1.0  0.1102
  H  H105  1  0.576600  0.885400  0.344600  1.0  0.1172
  H  H106  1  0.552500  0.934000  0.371300  1.0  0.1155
  H  H107  1  0.639200  0.876500  0.357200  1.0  0.1122
  H  H108  1  0.491100  0.768000  0.395600  1.0  0.0758
  H  H109  1  0.453300  0.704200  0.476400  1.0  0.1111
  H  H110  1  0.200870  0.220230  0.866330  1.0  0.1252
  H  H111  1  0.224170  0.171730  0.838030  1.0  0.1103
  H  H112  1  0.243270  0.218730  0.677930  1.0  0.1177
  H  H113  1  0.219170  0.267330  0.704630  1.0  0.1162
  H  H114  1  0.305870  0.209830  0.690530  1.0  0.1122
  H  H115  1  0.157770  0.101330  0.728930  1.0  0.0765
  H  H116  1  0.119970  0.037530  0.809730  1.0  0.1104
  H  H117  1  0.867530  0.553570  0.199670  1.0  0.1244
  H  H118  1  0.890830  0.505070  0.171370  1.0  0.1102
  H  H119  1  0.909930  0.552070  0.011270  1.0  0.1172
  H  H120  1  0.885830  0.600670  0.037970  1.0  0.1157
  H  H121  1  0.972530  0.543170  0.023870  1.0  0.112
  H  H122  1  0.824430  0.434670  0.062270  1.0  0.0746
  H  H123  1  0.786630  0.370870  0.143070  1.0  0.1111
  H  H124  1  0.352700  0.465800  0.533000  1.0  0.1247
  H  H125  1  0.280900  0.442500  0.504700  1.0  0.1099
  H  H126  1  0.308800  0.423400  0.344600  1.0  0.1183
  H  H127  1  0.381500  0.447500  0.371300  1.0  0.1169
  H  H128  1  0.237300  0.360800  0.357200  1.0  0.1118
  H  H129  1  0.276900  0.508900  0.395600  1.0  0.075
  H  H130  1  0.250900  0.546700  0.476400  1.0  0.107
  H  H131  1  0.019370  0.799130  0.866330  1.0  0.1247
  H  H132  1  0.947570  0.775830  0.838030  1.0  0.1102
  H  H133  1  0.975470  0.756730  0.677930  1.0  0.1177
  H  H134  1  0.048170  0.780830  0.704630  1.0  0.1169
  H  H135  1  0.903970  0.694130  0.690530  1.0  0.1118
  H  H136  1  0.943570  0.842230  0.728930  1.0  0.0718
  H  H137  1  0.917570  0.880030  0.809730  1.0  0.1079
  H  H138  1  0.686030  0.132470  0.199670  1.0  0.1247
  H  H139  1  0.614230  0.109170  0.171370  1.0  0.1099
  H  H140  1  0.642130  0.090070  0.011270  1.0  0.1183
  H  H141  1  0.714830  0.114170  0.037970  1.0  0.1165
  H  H142  1  0.570630  0.027470  0.023870  1.0  0.1117
  H  H143  1  0.610230  0.175570  0.062270  1.0  0.0734
  H  H144  1  0.584230  0.213370  0.143070  1.0  0.107
  H  H145  1  0.352700  0.886900  0.533000  1.0  0.1251
  H  H146  1  0.280900  0.838400  0.504700  1.0  0.1102
  H  H147  1  0.308800  0.885400  0.344600  1.0  0.1176
  H  H148  1  0.381500  0.934000  0.371300  1.0  0.1162
  H  H149  1  0.237300  0.876500  0.357200  1.0  0.1112
  H  H150  1  0.276900  0.768000  0.395600  1.0  0.0765
  H  H151  1  0.250900  0.704200  0.476400  1.0  0.1101
  H  H152  1  0.019370  0.220230  0.866330  1.0  0.1243
  H  H153  1  0.947570  0.171730  0.838030  1.0  0.1102
  H  H154  1  0.975470  0.218730  0.677930  1.0  0.1177
  H  H155  1  0.048170  0.267330  0.704630  1.0  0.1162
  H  H156  1  0.903970  0.209830  0.690530  1.0  0.1112
  H  H157  1  0.943570  0.101330  0.728930  1.0  0.0766
  H  H158  1  0.917570  0.037530  0.809730  1.0  0.1105
  H  H159  1  0.686030  0.553570  0.199670  1.0  0.1251
  H  H160  1  0.614230  0.505070  0.171370  1.0  0.1102
  H  H161  1  0.642130  0.552070  0.011270  1.0  0.1176
  H  H162  1  0.714830  0.600670  0.037970  1.0  0.1163
  H  H163  1  0.570630  0.543170  0.023870  1.0  0.1113
  H  H164  1  0.610230  0.434670  0.062270  1.0  0.0766
  H  H165  1  0.584230  0.370870  0.143070  1.0  0.1101
  H  H166  1  0.113100  0.465800  0.533000  1.0  0.1238
  H  H167  1  0.161600  0.442500  0.504700  1.0  0.1107
  H  H168  1  0.114600  0.423400  0.344600  1.0  0.1168
  H  H169  1  0.066000  0.447500  0.371300  1.0  0.1156
  H  H170  1  0.123500  0.360800  0.357200  1.0  0.1111
  H  H171  1  0.232000  0.508900  0.395600  1.0  0.073
  H  H172  1  0.295800  0.546700  0.476400  1.0  0.1036
  H  H173  1  0.779770  0.799130  0.866330  1.0  0.1246
  H  H174  1  0.828270  0.775830  0.838030  1.0  0.1105
  H  H175  1  0.781270  0.756730  0.677930  1.0  0.1173
  H  H176  1  0.732670  0.780830  0.704630  1.0  0.1164
  H  H177  1  0.790170  0.694130  0.690530  1.0  0.1111
  H  H178  1  0.898670  0.842230  0.728930  1.0  0.0737
  H  H179  1  0.962470  0.880030  0.809730  1.0  0.1017
  H  H180  1  0.446430  0.132470  0.199670  1.0  0.1238
  H  H181  1  0.494930  0.109170  0.171370  1.0  0.1107
  H  H182  1  0.447930  0.090070  0.011270  1.0  0.1168
  H  H183  1  0.399330  0.114170  0.037970  1.0  0.1157
  H  H184  1  0.456830  0.027470  0.023870  1.0  0.1109
  H  H185  1  0.565330  0.175570  0.062270  1.0  0.072
  H  H186  1  0.629130  0.213370  0.143070  1.0  0.1036
  H  H187  1  0.534200  0.647300  0.533000  1.0  0.1251
  H  H188  1  0.557500  0.719100  0.504700  1.0  0.1097
  H  H189  1  0.576600  0.691200  0.344600  1.0  0.1183
  H  H190  1  0.552500  0.618500  0.371300  1.0  0.1161
  H  H191  1  0.639200  0.762700  0.357200  1.0  0.1109
  H  H192  1  0.491100  0.723100  0.395600  1.0  0.0768
  H  H193  1  0.453300  0.749100  0.476400  1.0  0.1108
  H  H194  1  0.200870  0.980630  0.866330  1.0  0.1251
  H  H195  1  0.224170  0.052430  0.838030  1.0  0.1098
  H  H196  1  0.243270  0.024530  0.677930  1.0  0.1179
  H  H197  1  0.219170  0.951830  0.704630  1.0  0.1161
  H  H198  1  0.305870  0.096030  0.690530  1.0  0.1109
  H  H199  1  0.157770  0.056430  0.728930  1.0  0.0734
  H  H200  1  0.119970  0.082430  0.809730  1.0  0.1111
  H  H201  1  0.867530  0.313970  0.199670  1.0  0.1251
  H  H202  1  0.890830  0.385770  0.171370  1.0  0.1097
  H  H203  1  0.909930  0.357870  0.011270  1.0  0.1183
  H  H204  1  0.885830  0.285170  0.037970  1.0  0.1159
  H  H205  1  0.972530  0.429370  0.023870  1.0  0.1108
  H  H206  1  0.824430  0.389770  0.062270  1.0  0.0748
  H  H207  1  0.786630  0.415770  0.143070  1.0  0.1108
  H  H208  1  0.886900  0.352700  0.467000  1.0  0.1252
  H  H209  1  0.838400  0.280900  0.495300  1.0  0.1094
  H  H210  1  0.885400  0.308800  0.655400  1.0  0.1177
  H  H211  1  0.934000  0.381500  0.628700  1.0  0.1158
  H  H212  1  0.876500  0.237300  0.642800  1.0  0.1105
  H  H213  1  0.768000  0.276900  0.604400  1.0  0.0756
  H  H214  1  0.704200  0.250900  0.523600  1.0  0.1105
  H  H215  1  0.553570  0.686030  0.800330  1.0  0.1252
  H  H216  1  0.505070  0.614230  0.828630  1.0  0.1094
  H  H217  1  0.552070  0.642130  0.988730  1.0  0.1177
  H  H218  1  0.600670  0.714830  0.962030  1.0  0.1162
  H  H219  1  0.543170  0.570630  0.976130  1.0  0.1107
  H  H220  1  0.434670  0.610230  0.937730  1.0  0.0758
  H  H221  1  0.370870  0.584230  0.856930  1.0  0.1105
  H  H222  1  0.220230  0.019370  0.133670  1.0  0.1241
  H  H223  1  0.171730  0.947570  0.161970  1.0  0.1094
  H  H224  1  0.218730  0.975470  0.322070  1.0  0.1177
  H  H225  1  0.267330  0.048170  0.295370  1.0  0.116
  H  H226  1  0.209830  0.903970  0.309470  1.0  0.1105
  H  H227  1  0.101330  0.943570  0.271070  1.0  0.0763
  H  H228  1  0.037530  0.917570  0.190270  1.0  0.1103
  H  H229  1  0.465800  0.113100  0.467000  1.0  0.1242
  H  H230  1  0.442500  0.161600  0.495300  1.0  0.1094
  H  H231  1  0.423400  0.114600  0.655400  1.0  0.1175
  H  H232  1  0.447500  0.066000  0.628700  1.0  0.1164
  H  H233  1  0.360800  0.123500  0.642800  1.0  0.1116
  H  H234  1  0.508900  0.232000  0.604400  1.0  0.0753
  H  H235  1  0.546700  0.295800  0.523600  1.0  0.1116
  H  H236  1  0.132470  0.446430  0.800330  1.0  0.1242
  H  H237  1  0.109170  0.494930  0.828630  1.0  0.1094
  H  H238  1  0.090070  0.447930  0.988730  1.0  0.1176
  H  H239  1  0.114170  0.399330  0.962030  1.0  0.1165
  H  H240  1  0.027470  0.456830  0.976130  1.0  0.1114
  H  H241  1  0.175570  0.565330  0.937730  1.0  0.074
  H  H242  1  0.213370  0.629130  0.856930  1.0  0.1116
  H  H243  1  0.799130  0.779770  0.133670  1.0  0.1251
  H  H244  1  0.775830  0.828270  0.161970  1.0  0.1096
  H  H245  1  0.756730  0.781270  0.322070  1.0  0.118
  H  H246  1  0.780830  0.732670  0.295370  1.0  0.117
  H  H247  1  0.694130  0.790170  0.309470  1.0  0.1116
  H  H248  1  0.842230  0.898670  0.271070  1.0  0.0764
  H  H249  1  0.880030  0.962470  0.190270  1.0  0.1097
  H  H250  1  0.647300  0.534200  0.467000  1.0  0.125
  H  H251  1  0.719100  0.557500  0.495300  1.0  0.1096
  H  H252  1  0.691200  0.576600  0.655400  1.0  0.1179
  H  H253  1  0.618500  0.552500  0.628700  1.0  0.1168
  H  H254  1  0.762700  0.639200  0.642800  1.0  0.1108
  H  H255  1  0.723100  0.491100  0.604400  1.0  0.0764
  H  H256  1  0.749100  0.453300  0.523600  1.0  0.1008
  H  H257  1  0.313970  0.867530  0.800330  1.0  0.125
  H  H258  1  0.385770  0.890830  0.828630  1.0  0.1096
  H  H259  1  0.357870  0.909930  0.988730  1.0  0.1179
  H  H260  1  0.285170  0.885830  0.962030  1.0  0.1166
  H  H261  1  0.429370  0.972530  0.976130  1.0  0.1107
  H  H262  1  0.389770  0.824430  0.937730  1.0  0.0739
  H  H263  1  0.415770  0.786630  0.856930  1.0  0.1008
  H  H264  1  0.980630  0.200870  0.133670  1.0  0.125
  H  H265  1  0.052430  0.224170  0.161970  1.0  0.1097
  H  H266  1  0.024530  0.243270  0.322070  1.0  0.1173
  H  H267  1  0.951830  0.219170  0.295370  1.0  0.1168
  H  H268  1  0.096030  0.305870  0.309470  1.0  0.1108
  H  H269  1  0.056430  0.157770  0.271070  1.0  0.0732
  H  H270  1  0.082430  0.119970  0.190270  1.0  0.1012
  H  H271  1  0.714200  0.285800  0.572000  1.0  0.0985
  H  H272  1  0.380870  0.619130  0.905330  1.0  0.0989
  H  H273  1  0.047530  0.952470  0.238670  1.0  0.0991
  H  H274  1  0.714200  0.428400  0.572000  1.0  0.0985
  H  H275  1  0.380870  0.761730  0.905330  1.0  0.0996
  H  H276  1  0.047530  0.095070  0.238670  1.0  0.1009
  H  H277  1  0.571600  0.285800  0.572000  1.0  0.0983
  H  H278  1  0.238270  0.619130  0.905330  1.0  0.1004
  H  H279  1  0.904930  0.952470  0.238670  1.0  0.1003
  H  H280  1  0.285800  0.714200  0.428000  1.0  0.0994
  H  H281  1  0.952470  0.047530  0.761330  1.0  0.0974
  H  H282  1  0.619130  0.380870  0.094670  1.0  0.0986
  H  H283  1  0.428400  0.714200  0.428000  1.0  0.0955
  H  H284  1  0.095070  0.047530  0.761330  1.0  0.097
  H  H285  1  0.761730  0.380870  0.094670  1.0  0.0973
  H  H286  1  0.285800  0.571600  0.428000  1.0  0.1003
  H  H287  1  0.952470  0.904930  0.761330  1.0  0.1025
  H  H288  1  0.619130  0.238270  0.094670  1.0  0.1013
  C  C289  1  0.578170  0.053980  0.527590  1.0  0.6786
  C  C290  1  0.625230  0.085340  0.546350  1.0  -0.117
  C  C291  1  0.655920  0.113610  0.504890  1.0  -0.0722
  C  C292  1  0.698970  0.142010  0.521920  1.0  -0.112
  C  C293  1  0.712870  0.142100  0.577130  1.0  0.015
  C  C294  1  0.682360  0.114050  0.617720  1.0  -0.1343
  C  C295  1  0.638610  0.085240  0.601870  1.0  -0.0463
  C  C296  1  0.759810  0.170580  0.596780  1.0  -0.0256
  C  C297  1  0.779540  0.152680  0.630710  1.0  -0.0901
  C  C298  1  0.244840  0.387310  0.860920  1.0  0.6786
  C  C299  1  0.291900  0.418670  0.879680  1.0  -0.117
  C  C300  1  0.322590  0.446940  0.838220  1.0  -0.0722
  C  C301  1  0.365640  0.475340  0.855250  1.0  -0.112
  C  C302  1  0.379540  0.475430  0.910460  1.0  0.015
  C  C303  1  0.349030  0.447380  0.951050  1.0  -0.1341
  C  C304  1  0.305280  0.418570  0.935200  1.0  -0.0463
  C  C305  1  0.426480  0.503910  0.930110  1.0  -0.0256
  C  C306  1  0.446210  0.486010  0.964040  1.0  -0.0901
  C  C307  1  0.911500  0.720650  0.194260  1.0  0.6786
  C  C308  1  0.958560  0.752010  0.213020  1.0  -0.117
  C  C309  1  0.989250  0.780280  0.171560  1.0  -0.0722
  C  C310  1  0.032300  0.808680  0.188590  1.0  -0.1119
  C  C311  1  0.046200  0.808770  0.243800  1.0  0.015
  C  C312  1  0.015690  0.780720  0.284390  1.0  -0.1343
  C  C313  1  0.971940  0.751910  0.268540  1.0  -0.0463
  C  C314  1  0.093140  0.837250  0.263450  1.0  -0.0256
  C  C315  1  0.112870  0.819350  0.297380  1.0  -0.0901
  C  C316  1  0.946020  0.524190  0.527590  1.0  0.6779
  C  C317  1  0.914660  0.539890  0.546350  1.0  -0.1179
  C  C318  1  0.886390  0.542310  0.504890  1.0  -0.0726
  C  C319  1  0.857990  0.556960  0.521920  1.0  -0.1125
  C  C320  1  0.857900  0.570770  0.577130  1.0  0.0154
  C  C321  1  0.885950  0.568310  0.617720  1.0  -0.1321
  C  C322  1  0.914760  0.553370  0.601870  1.0  -0.0444
  C  C323  1  0.829420  0.589230  0.596780  1.0  -0.0238
  C  C324  1  0.847320  0.626860  0.630710  1.0  -0.0942
  C  C325  1  0.612690  0.857520  0.860920  1.0  0.6779
  C  C326  1  0.581330  0.873220  0.879680  1.0  -0.1179
  C  C327  1  0.553060  0.875640  0.838220  1.0  -0.0726
  C  C328  1  0.524660  0.890290  0.855250  1.0  -0.1127
  C  C329  1  0.524570  0.904100  0.910460  1.0  0.0154
  C  C330  1  0.552620  0.901640  0.951050  1.0  -0.1321
  C  C331  1  0.581430  0.886700  0.935200  1.0  -0.0445
  C  C332  1  0.496090  0.922560  0.930110  1.0  -0.0238
  C  C333  1  0.513990  0.960190  0.964040  1.0  -0.0943
  C  C334  1  0.279350  0.190860  0.194260  1.0  0.6779
  C  C335  1  0.247990  0.206560  0.213020  1.0  -0.1179
  C  C336  1  0.219720  0.208980  0.171560  1.0  -0.0726
  C  C337  1  0.191320  0.223630  0.188590  1.0  -0.1125
  C  C338  1  0.191230  0.237440  0.243800  1.0  0.0154
  C  C339  1  0.219280  0.234980  0.284390  1.0  -0.1321
  C  C340  1  0.248090  0.220040  0.268540  1.0  -0.0444
  C  C341  1  0.162750  0.255900  0.263450  1.0  -0.0238
  C  C342  1  0.180650  0.293530  0.297380  1.0  -0.0942
  C  C343  1  0.475810  0.421830  0.527590  1.0  0.6793
  C  C344  1  0.460110  0.374770  0.546350  1.0  -0.1154
  C  C345  1  0.457690  0.344080  0.504890  1.0  -0.0736
  C  C346  1  0.443040  0.301030  0.521920  1.0  -0.114
  C  C347  1  0.429230  0.287130  0.577130  1.0  0.016
  C  C348  1  0.431690  0.317640  0.617720  1.0  -0.1332
  C  C349  1  0.446630  0.361390  0.601870  1.0  -0.0467
  C  C350  1  0.410770  0.240190  0.596780  1.0  -0.0246
  C  C351  1  0.373140  0.220460  0.630710  1.0  -0.0936
  C  C352  1  0.142480  0.755160  0.860920  1.0  0.6793
  C  C353  1  0.126780  0.708100  0.879680  1.0  -0.1154
  C  C354  1  0.124360  0.677410  0.838220  1.0  -0.0736
  C  C355  1  0.109710  0.634360  0.855250  1.0  -0.114
  C  C356  1  0.095900  0.620460  0.910460  1.0  0.016
  C  C357  1  0.098360  0.650970  0.951050  1.0  -0.1332
  C  C358  1  0.113300  0.694720  0.935200  1.0  -0.0465
  C  C359  1  0.077440  0.573520  0.930110  1.0  -0.0246
  C  C360  1  0.039810  0.553790  0.964040  1.0  -0.0923
  C  C361  1  0.809140  0.088500  0.194260  1.0  0.6793
  C  C362  1  0.793440  0.041440  0.213020  1.0  -0.1154
  C  C363  1  0.791020  0.010750  0.171560  1.0  -0.0736
  C  C364  1  0.776370  0.967700  0.188590  1.0  -0.114
  C  C365  1  0.762560  0.953800  0.243800  1.0  0.016
  C  C366  1  0.765020  0.984310  0.284390  1.0  -0.1332
  C  C367  1  0.779960  0.028060  0.268540  1.0  -0.0467
  C  C368  1  0.744100  0.906860  0.263450  1.0  -0.0246
  C  C369  1  0.706470  0.887130  0.297380  1.0  -0.0936
  C  C370  1  0.053980  0.578170  0.472410  1.0  0.6789
  C  C371  1  0.085340  0.625230  0.453650  1.0  -0.116
  C  C372  1  0.113610  0.655920  0.495110  1.0  -0.0695
  C  C373  1  0.142010  0.698970  0.478080  1.0  -0.1142
  C  C374  1  0.142100  0.712870  0.422870  1.0  0.0157
  C  C375  1  0.114050  0.682360  0.382280  1.0  -0.1303
  C  C376  1  0.085240  0.638610  0.398130  1.0  -0.0453
  C  C377  1  0.170580  0.759810  0.403220  1.0  -0.0252
  C  C378  1  0.152680  0.779540  0.369290  1.0  -0.0942
  C  C379  1  0.720650  0.911500  0.805740  1.0  0.6789
  C  C380  1  0.752010  0.958560  0.786980  1.0  -0.116
  C  C381  1  0.780280  0.989250  0.828440  1.0  -0.0695
  C  C382  1  0.808680  0.032300  0.811410  1.0  -0.1142
  C  C383  1  0.808770  0.046200  0.756200  1.0  0.0157
  C  C384  1  0.780720  0.015690  0.715610  1.0  -0.1303
  C  C385  1  0.751910  0.971940  0.731460  1.0  -0.0453
  C  C386  1  0.837250  0.093140  0.736550  1.0  -0.0252
  C  C387  1  0.819350  0.112870  0.702620  1.0  -0.0942
  C  C388  1  0.387310  0.244840  0.139080  1.0  0.6789
  C  C389  1  0.418670  0.291900  0.120320  1.0  -0.116
  C  C390  1  0.446940  0.322590  0.161780  1.0  -0.0695
  C  C391  1  0.475340  0.365640  0.144750  1.0  -0.1142
  C  C392  1  0.475430  0.379540  0.089540  1.0  0.0157
  C  C393  1  0.447380  0.349030  0.048950  1.0  -0.1303
  C  C394  1  0.418570  0.305280  0.064800  1.0  -0.0453
  C  C395  1  0.503910  0.426480  0.069890  1.0  -0.0252
  C  C396  1  0.486010  0.446210  0.035960  1.0  -0.0942
  C  C397  1  0.524190  0.946020  0.472410  1.0  0.6789
  C  C398  1  0.539890  0.914660  0.453650  1.0  -0.1167
  C  C399  1  0.542310  0.886390  0.495110  1.0  -0.071
  C  C400  1  0.556960  0.857990  0.478080  1.0  -0.1115
  C  C401  1  0.570770  0.857900  0.422870  1.0  0.0154
  C  C402  1  0.568310  0.885950  0.382280  1.0  -0.1311
  C  C403  1  0.553370  0.914760  0.398130  1.0  -0.0466
  C  C404  1  0.589230  0.829420  0.403220  1.0  -0.025
  C  C405  1  0.626860  0.847320  0.369290  1.0  -0.0917
  C  C406  1  0.190860  0.279350  0.805740  1.0  0.6789
  C  C407  1  0.206560  0.247990  0.786980  1.0  -0.1167
  C  C408  1  0.208980  0.219720  0.828440  1.0  -0.071
  C  C409  1  0.223630  0.191320  0.811410  1.0  -0.1115
  C  C410  1  0.237440  0.191230  0.756200  1.0  0.0154
  C  C411  1  0.234980  0.219280  0.715610  1.0  -0.1311
  C  C412  1  0.220040  0.248090  0.731460  1.0  -0.0466
  C  C413  1  0.255900  0.162750  0.736550  1.0  -0.025
  C  C414  1  0.293530  0.180650  0.702620  1.0  -0.0917
  C  C415  1  0.857520  0.612690  0.139080  1.0  0.6789
  C  C416  1  0.873220  0.581330  0.120320  1.0  -0.1167
  C  C417  1  0.875640  0.553060  0.161780  1.0  -0.071
  C  C418  1  0.890290  0.524660  0.144750  1.0  -0.1116
  C  C419  1  0.904100  0.524570  0.089540  1.0  0.0154
  C  C420  1  0.901640  0.552620  0.048950  1.0  -0.1311
  C  C421  1  0.886700  0.581430  0.064800  1.0  -0.0467
  C  C422  1  0.922560  0.496090  0.069890  1.0  -0.025
  C  C423  1  0.960190  0.513990  0.035960  1.0  -0.0918
  C  C424  1  0.421830  0.475810  0.472410  1.0  0.6782
  C  C425  1  0.374770  0.460110  0.453650  1.0  -0.1179
  C  C426  1  0.344080  0.457690  0.495110  1.0  -0.0692
  C  C427  1  0.301030  0.443040  0.478080  1.0  -0.1134
  C  C428  1  0.287130  0.429230  0.422870  1.0  0.0149
  C  C429  1  0.317640  0.431690  0.382280  1.0  -0.1284
  C  C430  1  0.361390  0.446630  0.398130  1.0  -0.0453
  C  C431  1  0.240190  0.410770  0.403220  1.0  -0.0239
  C  C432  1  0.220460  0.373140  0.369290  1.0  -0.0952
  C  C433  1  0.088500  0.809140  0.805740  1.0  0.6782
  C  C434  1  0.041440  0.793440  0.786980  1.0  -0.1179
  C  C435  1  0.010750  0.791020  0.828440  1.0  -0.0692
  C  C436  1  0.967700  0.776370  0.811410  1.0  -0.1134
  C  C437  1  0.953800  0.762560  0.756200  1.0  0.0149
  C  C438  1  0.984310  0.765020  0.715610  1.0  -0.1284
  C  C439  1  0.028060  0.779960  0.731460  1.0  -0.0453
  C  C440  1  0.906860  0.744100  0.736550  1.0  -0.0239
  C  C441  1  0.887130  0.706470  0.702620  1.0  -0.0952
  C  C442  1  0.755160  0.142480  0.139080  1.0  0.6782
  C  C443  1  0.708100  0.126780  0.120320  1.0  -0.1179
  C  C444  1  0.677410  0.124360  0.161780  1.0  -0.0692
  C  C445  1  0.634360  0.109710  0.144750  1.0  -0.1135
  C  C446  1  0.620460  0.095900  0.089540  1.0  0.0149
  C  C447  1  0.650970  0.098360  0.048950  1.0  -0.1284
  C  C448  1  0.694720  0.113300  0.064800  1.0  -0.0452
  C  C449  1  0.573520  0.077440  0.069890  1.0  -0.0239
  C  C450  1  0.553790  0.039810  0.035960  1.0  -0.094
  C  C451  1  0.421830  0.946020  0.472410  1.0  0.6787
  C  C452  1  0.374770  0.914660  0.453650  1.0  -0.1176
  C  C453  1  0.344080  0.886390  0.495110  1.0  -0.0702
  C  C454  1  0.301030  0.857990  0.478080  1.0  -0.1125
  C  C455  1  0.287130  0.857900  0.422870  1.0  0.0152
  C  C456  1  0.317640  0.885950  0.382280  1.0  -0.1312
  C  C457  1  0.361390  0.914760  0.398130  1.0  -0.0476
  C  C458  1  0.240190  0.829420  0.403220  1.0  -0.0248
  C  C459  1  0.220460  0.847320  0.369290  1.0  -0.0905
  C  C460  1  0.088500  0.279350  0.805740  1.0  0.6787
  C  C461  1  0.041440  0.247990  0.786980  1.0  -0.1176
  C  C462  1  0.010750  0.219720  0.828440  1.0  -0.0702
  C  C463  1  0.967700  0.191320  0.811410  1.0  -0.1125
  C  C464  1  0.953800  0.191230  0.756200  1.0  0.0152
  C  C465  1  0.984310  0.219280  0.715610  1.0  -0.1312
  C  C466  1  0.028060  0.248090  0.731460  1.0  -0.0476
  C  C467  1  0.906860  0.162750  0.736550  1.0  -0.0248
  C  C468  1  0.887130  0.180650  0.702620  1.0  -0.0905
  C  C469  1  0.755160  0.612690  0.139080  1.0  0.6787
  C  C470  1  0.708100  0.581330  0.120320  1.0  -0.1176
  C  C471  1  0.677410  0.553060  0.161780  1.0  -0.0702
  C  C472  1  0.634360  0.524660  0.144750  1.0  -0.1125
  C  C473  1  0.620460  0.524570  0.089540  1.0  0.0152
  C  C474  1  0.650970  0.552620  0.048950  1.0  -0.1312
  C  C475  1  0.694720  0.581430  0.064800  1.0  -0.0476
  C  C476  1  0.573520  0.496090  0.069890  1.0  -0.0248
  C  C477  1  0.553790  0.513990  0.035960  1.0  -0.0905
  C  C478  1  0.053980  0.475810  0.472410  1.0  0.679
  C  C479  1  0.085340  0.460110  0.453650  1.0  -0.1176
  C  C480  1  0.113610  0.457690  0.495110  1.0  -0.0699
  C  C481  1  0.142010  0.443040  0.478080  1.0  -0.1124
  C  C482  1  0.142100  0.429230  0.422870  1.0  0.0141
  C  C483  1  0.114050  0.431690  0.382280  1.0  -0.1276
  C  C484  1  0.085240  0.446630  0.398130  1.0  -0.0445
  C  C485  1  0.170580  0.410770  0.403220  1.0  -0.0249
  C  C486  1  0.152680  0.373140  0.369290  1.0  -0.0952
  C  C487  1  0.720650  0.809140  0.805740  1.0  0.679
  C  C488  1  0.752010  0.793440  0.786980  1.0  -0.1176
  C  C489  1  0.780280  0.791020  0.828440  1.0  -0.0699
  C  C490  1  0.808680  0.776370  0.811410  1.0  -0.1124
  C  C491  1  0.808770  0.762560  0.756200  1.0  0.0141
  C  C492  1  0.780720  0.765020  0.715610  1.0  -0.1276
  C  C493  1  0.751910  0.779960  0.731460  1.0  -0.0445
  C  C494  1  0.837250  0.744100  0.736550  1.0  -0.0249
  C  C495  1  0.819350  0.706470  0.702620  1.0  -0.0952
  C  C496  1  0.387310  0.142480  0.139080  1.0  0.679
  C  C497  1  0.418670  0.126780  0.120320  1.0  -0.1176
  C  C498  1  0.446940  0.124360  0.161780  1.0  -0.0699
  C  C499  1  0.475340  0.109710  0.144750  1.0  -0.1126
  C  C500  1  0.475430  0.095900  0.089540  1.0  0.0141
  C  C501  1  0.447380  0.098360  0.048950  1.0  -0.1276
  C  C502  1  0.418570  0.113300  0.064800  1.0  -0.0446
  C  C503  1  0.503910  0.077440  0.069890  1.0  -0.025
  C  C504  1  0.486010  0.039810  0.035960  1.0  -0.0953
  C  C505  1  0.524190  0.578170  0.472410  1.0  0.6788
  C  C506  1  0.539890  0.625230  0.453650  1.0  -0.1166
  C  C507  1  0.542310  0.655920  0.495110  1.0  -0.0702
  C  C508  1  0.556960  0.698970  0.478080  1.0  -0.1138
  C  C509  1  0.570770  0.712870  0.422870  1.0  0.0157
  C  C510  1  0.568310  0.682360  0.382280  1.0  -0.1304
  C  C511  1  0.553370  0.638610  0.398130  1.0  -0.047
  C  C512  1  0.589230  0.759810  0.403220  1.0  -0.0244
  C  C513  1  0.626860  0.779540  0.369290  1.0  -0.094
  C  C514  1  0.190860  0.911500  0.805740  1.0  0.6788
  C  C515  1  0.206560  0.958560  0.786980  1.0  -0.1166
  C  C516  1  0.208980  0.989250  0.828440  1.0  -0.0702
  C  C517  1  0.223630  0.032300  0.811410  1.0  -0.1138
  C  C518  1  0.237440  0.046200  0.756200  1.0  0.0157
  C  C519  1  0.234980  0.015690  0.715610  1.0  -0.1304
  C  C520  1  0.220040  0.971940  0.731460  1.0  -0.047
  C  C521  1  0.255900  0.093140  0.736550  1.0  -0.0244
  C  C522  1  0.293530  0.112870  0.702620  1.0  -0.094
  C  C523  1  0.857520  0.244840  0.139080  1.0  0.6788
  C  C524  1  0.873220  0.291900  0.120320  1.0  -0.1166
  C  C525  1  0.875640  0.322590  0.161780  1.0  -0.0702
  C  C526  1  0.890290  0.365640  0.144750  1.0  -0.1138
  C  C527  1  0.904100  0.379540  0.089540  1.0  0.0157
  C  C528  1  0.901640  0.349030  0.048950  1.0  -0.1304
  C  C529  1  0.886700  0.305280  0.064800  1.0  -0.0469
  C  C530  1  0.922560  0.426480  0.069890  1.0  -0.0244
  C  C531  1  0.960190  0.446210  0.035960  1.0  -0.0928
  C  C532  1  0.946020  0.421830  0.527590  1.0  0.6792
  C  C533  1  0.914660  0.374770  0.546350  1.0  -0.1157
  C  C534  1  0.886390  0.344080  0.504890  1.0  -0.0728
  C  C535  1  0.857990  0.301030  0.521920  1.0  -0.1132
  C  C536  1  0.857900  0.287130  0.577130  1.0  0.0165
  C  C537  1  0.885950  0.317640  0.617720  1.0  -0.133
  C  C538  1  0.914760  0.361390  0.601870  1.0  -0.0458
  C  C539  1  0.829420  0.240190  0.596780  1.0  -0.0239
  C  C540  1  0.847320  0.220460  0.630710  1.0  -0.0932
  C  C541  1  0.612690  0.755160  0.860920  1.0  0.6792
  C  C542  1  0.581330  0.708100  0.879680  1.0  -0.1157
  C  C543  1  0.553060  0.677410  0.838220  1.0  -0.0728
  C  C544  1  0.524660  0.634360  0.855250  1.0  -0.1132
  C  C545  1  0.524570  0.620460  0.910460  1.0  0.0165
  C  C546  1  0.552620  0.650970  0.951050  1.0  -0.1329
  C  C547  1  0.581430  0.694720  0.935200  1.0  -0.0458
  C  C548  1  0.496090  0.573520  0.930110  1.0  -0.0239
  C  C549  1  0.513990  0.553790  0.964040  1.0  -0.0932
  C  C550  1  0.279350  0.088500  0.194260  1.0  0.6792
  C  C551  1  0.247990  0.041440  0.213020  1.0  -0.1157
  C  C552  1  0.219720  0.010750  0.171560  1.0  -0.0728
  C  C553  1  0.191320  0.967700  0.188590  1.0  -0.1132
  C  C554  1  0.191230  0.953800  0.243800  1.0  0.0165
  C  C555  1  0.219280  0.984310  0.284390  1.0  -0.133
  C  C556  1  0.248090  0.028060  0.268540  1.0  -0.0458
  C  C557  1  0.162750  0.906860  0.263450  1.0  -0.0239
  C  C558  1  0.180650  0.887130  0.297380  1.0  -0.0932
  C  C559  1  0.475810  0.053980  0.527590  1.0  0.6783
  C  C560  1  0.460110  0.085340  0.546350  1.0  -0.1175
  C  C561  1  0.457690  0.113610  0.504890  1.0  -0.073
  C  C562  1  0.443040  0.142010  0.521920  1.0  -0.1116
  C  C563  1  0.429230  0.142100  0.577130  1.0  0.0145
  C  C564  1  0.431690  0.114050  0.617720  1.0  -0.135
  C  C565  1  0.446630  0.085240  0.601870  1.0  -0.0461
  C  C566  1  0.410770  0.170580  0.596780  1.0  -0.0249
  C  C567  1  0.373140  0.152680  0.630710  1.0  -0.0895
  C  C568  1  0.142480  0.387310  0.860920  1.0  0.6783
  C  C569  1  0.126780  0.418670  0.879680  1.0  -0.1175
  C  C570  1  0.124360  0.446940  0.838220  1.0  -0.073
  C  C571  1  0.109710  0.475340  0.855250  1.0  -0.1118
  C  C572  1  0.095900  0.475430  0.910460  1.0  0.0145
  C  C573  1  0.098360  0.447380  0.951050  1.0  -0.135
  C  C574  1  0.113300  0.418570  0.935200  1.0  -0.0461
  C  C575  1  0.077440  0.503910  0.930110  1.0  -0.0249
  C  C576  1  0.039810  0.486010  0.964040  1.0  -0.0896
  C  C577  1  0.809140  0.720650  0.194260  1.0  0.6783
  C  C578  1  0.793440  0.752010  0.213020  1.0  -0.1175
  C  C579  1  0.791020  0.780280  0.171560  1.0  -0.073
  C  C580  1  0.776370  0.808680  0.188590  1.0  -0.1116
  C  C581  1  0.762560  0.808770  0.243800  1.0  0.0145
  C  C582  1  0.765020  0.780720  0.284390  1.0  -0.135
  C  C583  1  0.779960  0.751910  0.268540  1.0  -0.0461
  C  C584  1  0.744100  0.837250  0.263450  1.0  -0.0249
  C  C585  1  0.706470  0.819350  0.297380  1.0  -0.0894
  C  C586  1  0.578170  0.524190  0.527590  1.0  0.6788
  C  C587  1  0.625230  0.539890  0.546350  1.0  -0.118
  C  C588  1  0.655920  0.542310  0.504890  1.0  -0.0716
  C  C589  1  0.698970  0.556960  0.521920  1.0  -0.1121
  C  C590  1  0.712870  0.570770  0.577130  1.0  0.0146
  C  C591  1  0.682360  0.568310  0.617720  1.0  -0.1304
  C  C592  1  0.638610  0.553370  0.601870  1.0  -0.0449
  C  C593  1  0.759810  0.589230  0.596780  1.0  -0.0248
  C  C594  1  0.779540  0.626860  0.630710  1.0  -0.0948
  C  C595  1  0.244840  0.857520  0.860920  1.0  0.6788
  C  C596  1  0.291900  0.873220  0.879680  1.0  -0.118
  C  C597  1  0.322590  0.875640  0.838220  1.0  -0.0716
  C  C598  1  0.365640  0.890290  0.855250  1.0  -0.1122
  C  C599  1  0.379540  0.904100  0.910460  1.0  0.0146
  C  C600  1  0.349030  0.901640  0.951050  1.0  -0.1304
  C  C601  1  0.305280  0.886700  0.935200  1.0  -0.0448
  C  C602  1  0.426480  0.922560  0.930110  1.0  -0.0248
  C  C603  1  0.446210  0.960190  0.964040  1.0  -0.0935
  C  C604  1  0.911500  0.190860  0.194260  1.0  0.6788
  C  C605  1  0.958560  0.206560  0.213020  1.0  -0.118
  C  C606  1  0.989250  0.208980  0.171560  1.0  -0.0716
  C  C607  1  0.032300  0.223630  0.188590  1.0  -0.1121
  C  C608  1  0.046200  0.237440  0.243800  1.0  0.0146
  C  C609  1  0.015690  0.234980  0.284390  1.0  -0.1304
  C  C610  1  0.971940  0.220040  0.268540  1.0  -0.0449
  C  C611  1  0.093140  0.255900  0.263450  1.0  -0.0248
  C  C612  1  0.112870  0.293530  0.297380  1.0  -0.0948
  C  C613  1  0.823360  0.176640  0.647200  1.0  -0.0461
  C  C614  1  0.785140  0.214860  0.580100  1.0  0.174
  C  C615  1  0.745610  0.254390  0.579900  1.0  0.1398
  C  C616  1  0.726870  0.273130  0.547400  1.0  -0.374
  C  C617  1  0.490030  0.509970  0.980530  1.0  -0.048
  C  C618  1  0.451810  0.548190  0.913430  1.0  0.174
  C  C619  1  0.412280  0.587720  0.913230  1.0  0.1398
  C  C620  1  0.393540  0.606460  0.880730  1.0  -0.374
  C  C621  1  0.156690  0.843310  0.313870  1.0  -0.0461
  C  C622  1  0.118470  0.881530  0.246770  1.0  0.174
  C  C623  1  0.078940  0.921060  0.246570  1.0  0.1398
  C  C624  1  0.060200  0.939800  0.214070  1.0  -0.374
  C  C625  1  0.823360  0.646720  0.647200  1.0  -0.0445
  C  C626  1  0.785140  0.570280  0.580100  1.0  0.1738
  C  C627  1  0.745610  0.491220  0.579900  1.0  0.1371
  C  C628  1  0.726870  0.453740  0.547400  1.0  -0.3724
  C  C629  1  0.490030  0.980050  0.980530  1.0  -0.0402
  C  C630  1  0.451810  0.903610  0.913430  1.0  0.1737
  C  C631  1  0.412280  0.824550  0.913230  1.0  0.1371
  C  C632  1  0.393540  0.787070  0.880730  1.0  -0.3724
  C  C633  1  0.156690  0.313390  0.313870  1.0  -0.0445
  C  C634  1  0.118470  0.236950  0.246770  1.0  0.1738
  C  C635  1  0.078940  0.157890  0.246570  1.0  0.1371
  C  C636  1  0.060200  0.120410  0.214070  1.0  -0.3724
  C  C637  1  0.353280  0.176640  0.647200  1.0  -0.0474
  C  C638  1  0.429720  0.214860  0.580100  1.0  0.1742
  C  C639  1  0.508780  0.254390  0.579900  1.0  0.1413
  C  C640  1  0.546260  0.273130  0.547400  1.0  -0.3718
  C  C641  1  0.019950  0.509970  0.980530  1.0  -0.0431
  C  C642  1  0.096390  0.548190  0.913430  1.0  0.1742
  C  C643  1  0.175450  0.587720  0.913230  1.0  0.1413
  C  C644  1  0.212930  0.606460  0.880730  1.0  -0.3718
  C  C645  1  0.686610  0.843310  0.313870  1.0  -0.0474
  C  C646  1  0.763050  0.881530  0.246770  1.0  0.1742
  C  C647  1  0.842110  0.921060  0.246570  1.0  0.1413
  C  C648  1  0.879590  0.939800  0.214070  1.0  -0.3718
  C  C649  1  0.176640  0.823360  0.352800  1.0  -0.0443
  C  C650  1  0.214860  0.785140  0.419900  1.0  0.1736
  C  C651  1  0.254390  0.745610  0.420100  1.0  0.141
  C  C652  1  0.273130  0.726870  0.452600  1.0  -0.374
  C  C653  1  0.843310  0.156690  0.686130  1.0  -0.0443
  C  C654  1  0.881530  0.118470  0.753230  1.0  0.1736
  C  C655  1  0.921060  0.078940  0.753430  1.0  0.141
  C  C656  1  0.939800  0.060200  0.785930  1.0  -0.374
  C  C657  1  0.509970  0.490030  0.019470  1.0  -0.0463
  C  C658  1  0.548190  0.451810  0.086570  1.0  0.1736
  C  C659  1  0.587720  0.412280  0.086770  1.0  0.141
  C  C660  1  0.606460  0.393540  0.119270  1.0  -0.374
  C  C661  1  0.646720  0.823360  0.352800  1.0  -0.0481
  C  C662  1  0.570280  0.785140  0.419900  1.0  0.1735
  C  C663  1  0.491220  0.745610  0.420100  1.0  0.141
  C  C664  1  0.453740  0.726870  0.452600  1.0  -0.3758
  C  C665  1  0.313390  0.156690  0.686130  1.0  -0.0481
  C  C666  1  0.236950  0.118470  0.753230  1.0  0.1735
  C  C667  1  0.157890  0.078940  0.753430  1.0  0.141
  C  C668  1  0.120410  0.060200  0.785930  1.0  -0.3758
  C  C669  1  0.980050  0.490030  0.019470  1.0  -0.0437
  C  C670  1  0.903610  0.451810  0.086570  1.0  0.1735
  C  C671  1  0.824550  0.412280  0.086770  1.0  0.141
  C  C672  1  0.787070  0.393540  0.119270  1.0  -0.3758
  C  C673  1  0.176640  0.353280  0.352800  1.0  -0.0444
  C  C674  1  0.214860  0.429720  0.419900  1.0  0.1729
  C  C675  1  0.254390  0.508780  0.420100  1.0  0.1351
  C  C676  1  0.273130  0.546260  0.452600  1.0  -0.3748
  C  C677  1  0.843310  0.686610  0.686130  1.0  -0.0444
  C  C678  1  0.881530  0.763050  0.753230  1.0  0.1729
  C  C679  1  0.921060  0.842110  0.753430  1.0  0.1351
  C  C680  1  0.939800  0.879590  0.785930  1.0  -0.3748
  C  C681  1  0.509970  0.019950  0.019470  1.0  -0.0399
  C  C682  1  0.548190  0.096390  0.086570  1.0  0.1729
  C  C683  1  0.587720  0.175450  0.086770  1.0  0.1351
  C  C684  1  0.606460  0.212930  0.119270  1.0  -0.3748
  O  O685  1  0.553230  0.027710  0.566900  1.0  -0.5841
  O  O686  1  0.567400  0.056230  0.477910  1.0  -0.565
  O  O687  1  0.219900  0.361040  0.900230  1.0  -0.5843
  O  O688  1  0.234070  0.389560  0.811240  1.0  -0.565
  O  O689  1  0.886560  0.694380  0.233570  1.0  -0.5841
  O  O690  1  0.900730  0.722900  0.144580  1.0  -0.567
  O  O691  1  0.972290  0.525520  0.566900  1.0  -0.5836
  O  O692  1  0.943770  0.511170  0.477910  1.0  -0.5653
  O  O693  1  0.638960  0.858850  0.900230  1.0  -0.584
  O  O694  1  0.610440  0.844500  0.811240  1.0  -0.5653
  O  O695  1  0.305620  0.192190  0.233570  1.0  -0.5836
  O  O696  1  0.277100  0.177840  0.144580  1.0  -0.5635
  O  O697  1  0.474480  0.446770  0.566900  1.0  -0.5844
  O  O698  1  0.488830  0.432600  0.477910  1.0  -0.5632
  O  O699  1  0.141150  0.780100  0.900230  1.0  -0.5844
  O  O700  1  0.155500  0.765930  0.811240  1.0  -0.5632
  O  O701  1  0.807810  0.113440  0.233570  1.0  -0.5844
  O  O702  1  0.822160  0.099270  0.144580  1.0  -0.5632
  O  O703  1  0.027710  0.553230  0.433100  1.0  -0.5862
  O  O704  1  0.056230  0.567400  0.522090  1.0  -0.562
  O  O705  1  0.694380  0.886560  0.766430  1.0  -0.5862
  O  O706  1  0.722900  0.900730  0.855420  1.0  -0.564
  O  O707  1  0.361040  0.219900  0.099770  1.0  -0.5858
  O  O708  1  0.389560  0.234070  0.188760  1.0  -0.562
  O  O709  1  0.525520  0.972290  0.433100  1.0  -0.5855
  O  O710  1  0.511170  0.943770  0.522090  1.0  -0.566
  O  O711  1  0.192190  0.305620  0.766430  1.0  -0.5855
  O  O712  1  0.177840  0.277100  0.855420  1.0  -0.5632
  O  O713  1  0.858850  0.638960  0.099770  1.0  -0.5869
  O  O714  1  0.844500  0.610440  0.188760  1.0  -0.566
  O  O715  1  0.446770  0.474480  0.433100  1.0  -0.5854
  O  O716  1  0.432600  0.488830  0.522090  1.0  -0.5636
  O  O717  1  0.113440  0.807810  0.766430  1.0  -0.5854
  O  O718  1  0.099270  0.822160  0.855420  1.0  -0.5636
  O  O719  1  0.780100  0.141150  0.099770  1.0  -0.5854
  O  O720  1  0.765930  0.155500  0.188760  1.0  -0.5636
  O  O721  1  0.446770  0.972290  0.433100  1.0  -0.5856
  O  O722  1  0.432600  0.943770  0.522090  1.0  -0.563
  O  O723  1  0.113440  0.305620  0.766430  1.0  -0.5856
  O  O724  1  0.099270  0.277100  0.855420  1.0  -0.5656
  O  O725  1  0.780100  0.638960  0.099770  1.0  -0.5851
  O  O726  1  0.765930  0.610440  0.188760  1.0  -0.563
  O  O727  1  0.027710  0.474480  0.433100  1.0  -0.5849
  O  O728  1  0.056230  0.488830  0.522090  1.0  -0.5652
  O  O729  1  0.694380  0.807810  0.766430  1.0  -0.5849
  O  O730  1  0.722900  0.822160  0.855420  1.0  -0.5627
  O  O731  1  0.361040  0.141150  0.099770  1.0  -0.5861
  O  O732  1  0.389560  0.155500  0.188760  1.0  -0.5652
  O  O733  1  0.525520  0.553230  0.433100  1.0  -0.5847
  O  O734  1  0.511170  0.567400  0.522090  1.0  -0.5627
  O  O735  1  0.192190  0.886560  0.766430  1.0  -0.5847
  O  O736  1  0.177840  0.900730  0.855420  1.0  -0.5627
  O  O737  1  0.858850  0.219900  0.099770  1.0  -0.5847
  O  O738  1  0.844500  0.234070  0.188760  1.0  -0.5627
  O  O739  1  0.972290  0.446770  0.566900  1.0  -0.583
  O  O740  1  0.943770  0.432600  0.477910  1.0  -0.5633
  O  O741  1  0.638960  0.780100  0.900230  1.0  -0.5831
  O  O742  1  0.610440  0.765930  0.811240  1.0  -0.5633
  O  O743  1  0.305620  0.113440  0.233570  1.0  -0.583
  O  O744  1  0.277100  0.099270  0.144580  1.0  -0.5647
  O  O745  1  0.474480  0.027710  0.566900  1.0  -0.5841
  O  O746  1  0.488830  0.056230  0.477910  1.0  -0.5666
  O  O747  1  0.141150  0.361040  0.900230  1.0  -0.585
  O  O748  1  0.155500  0.389560  0.811240  1.0  -0.5666
  O  O749  1  0.807810  0.694380  0.233570  1.0  -0.5841
  O  O750  1  0.822160  0.722900  0.144580  1.0  -0.5647
  O  O751  1  0.553230  0.525520  0.566900  1.0  -0.5837
  O  O752  1  0.567400  0.511170  0.477910  1.0  -0.5637
  O  O753  1  0.219900  0.858850  0.900230  1.0  -0.5837
  O  O754  1  0.234070  0.844500  0.811240  1.0  -0.5637
  O  O755  1  0.886560  0.192190  0.233570  1.0  -0.5837
  O  O756  1  0.900730  0.177840  0.144580  1.0  -0.5637
  O  O757  1  0.766430  0.233570  0.544670  1.0  -0.3462
  O  O758  1  0.433100  0.566900  0.878000  1.0  -0.3462
  O  O759  1  0.099760  0.900240  0.211340  1.0  -0.3462
  O  O760  1  0.766430  0.532860  0.544670  1.0  -0.3459
  O  O761  1  0.433100  0.866190  0.878000  1.0  -0.3459
  O  O762  1  0.099760  0.199530  0.211340  1.0  -0.3459
  O  O763  1  0.467140  0.233570  0.544670  1.0  -0.3463
  O  O764  1  0.133810  0.566900  0.878000  1.0  -0.3463
  O  O765  1  0.800470  0.900240  0.211340  1.0  -0.3463
  O  O766  1  0.233570  0.766430  0.455330  1.0  -0.3488
  O  O767  1  0.900240  0.099760  0.788660  1.0  -0.3488
  O  O768  1  0.566900  0.433100  0.122000  1.0  -0.3488
  O  O769  1  0.532860  0.766430  0.455330  1.0  -0.3481
  O  O770  1  0.199530  0.099760  0.788660  1.0  -0.3481
  O  O771  1  0.866190  0.433100  0.122000  1.0  -0.3481
  O  O772  1  0.233570  0.467140  0.455330  1.0  -0.3475
  O  O773  1  0.900240  0.800470  0.788660  1.0  -0.3475
  O  O774  1  0.566900  0.133810  0.122000  1.0  -0.3475
