# generated using pymatgen
data_CuH15C22O5
_symmetry_space_group_name_H-M   'P 1'
_cell_length_a   35.78550000
_cell_length_b   35.78550000
_cell_length_c   15.05800000
_cell_angle_alpha   90.00000000
_cell_angle_beta   90.00000000
_cell_angle_gamma   120.00000000
_symmetry_Int_Tables_number   1
_chemical_formula_structural   CuH15C22O5
_chemical_formula_sum   'Cu18 H270 C396 O90'
_cell_volume   16699.83205984
_cell_formula_units_Z   18
loop_
 _symmetry_equiv_pos_site_id
 _symmetry_equiv_pos_as_xyz
  1  'x, y, z'
loop_
 _atom_site_type_symbol
 _atom_site_label
 _atom_site_symmetry_multiplicity
 _atom_site_fract_x
 _atom_site_fract_y
 _atom_site_fract_z
 _atom_site_occupancy
 _atom_site_charge
  Cu  Cu1  1  0.503330  0.006660  0.914110  1.0  0.9138
  Cu  Cu2  1  0.170000  0.339990  0.247440  1.0  0.9138
  Cu  Cu3  1  0.836660  0.673330  0.580780  1.0  0.9138
  Cu  Cu4  1  0.993340  0.496670  0.914110  1.0  0.9145
  Cu  Cu5  1  0.660010  0.830000  0.247440  1.0  0.9145
  Cu  Cu6  1  0.326670  0.163340  0.580780  1.0  0.9145
  Cu  Cu7  1  0.503330  0.496670  0.914110  1.0  0.9138
  Cu  Cu8  1  0.170000  0.830000  0.247440  1.0  0.9138
  Cu  Cu9  1  0.836660  0.163340  0.580780  1.0  0.9136
  Cu  Cu10  1  0.006660  0.503330  0.085890  1.0  0.9127
  Cu  Cu11  1  0.673330  0.836660  0.419220  1.0  0.9127
  Cu  Cu12  1  0.339990  0.170000  0.752560  1.0  0.9127
  Cu  Cu13  1  0.496670  0.993340  0.085890  1.0  0.9127
  Cu  Cu14  1  0.163340  0.326670  0.419220  1.0  0.9127
  Cu  Cu15  1  0.830000  0.660010  0.752560  1.0  0.9127
  Cu  Cu16  1  0.496670  0.503330  0.085890  1.0  0.9134
  Cu  Cu17  1  0.163340  0.836660  0.419220  1.0  0.9132
  Cu  Cu18  1  0.830000  0.170000  0.752560  1.0  0.9134
  H  H19  1  0.640100  0.105400  0.899200  1.0  0.0915
  H  H20  1  0.712500  0.154200  0.922900  1.0  0.094
  H  H21  1  0.696600  0.133800  0.179700  1.0  0.1124
  H  H22  1  0.622600  0.085000  0.158000  1.0  0.1262
  H  H23  1  0.763400  0.125400  0.135700  1.0  0.1224
  H  H24  1  0.771200  0.272600  0.094800  1.0  0.076
  H  H25  1  0.702500  0.253700  0.974900  1.0  0.1297
  H  H26  1  0.306770  0.438730  0.232530  1.0  0.0915
  H  H27  1  0.379170  0.487530  0.256230  1.0  0.094
  H  H28  1  0.363270  0.467130  0.513030  1.0  0.1123
  H  H29  1  0.289270  0.418330  0.491330  1.0  0.1262
  H  H30  1  0.430070  0.458730  0.469030  1.0  0.1224
  H  H31  1  0.437870  0.605930  0.428130  1.0  0.076
  H  H32  1  0.369170  0.587030  0.308230  1.0  0.1297
  H  H33  1  0.973430  0.772070  0.565870  1.0  0.0918
  H  H34  1  0.045830  0.820870  0.589570  1.0  0.0939
  H  H35  1  0.029930  0.800470  0.846370  1.0  0.1124
  H  H36  1  0.955930  0.751670  0.824670  1.0  0.1276
  H  H37  1  0.096730  0.792070  0.802370  1.0  0.1224
  H  H38  1  0.104530  0.939270  0.761470  1.0  0.076
  H  H39  1  0.035830  0.920370  0.641570  1.0  0.1285
  H  H40  1  0.894600  0.534700  0.899200  1.0  0.0918
  H  H41  1  0.845800  0.558300  0.922900  1.0  0.0938
  H  H42  1  0.866200  0.562800  0.179700  1.0  0.1118
  H  H43  1  0.915000  0.537600  0.158000  1.0  0.1276
  H  H44  1  0.874600  0.638000  0.135700  1.0  0.1206
  H  H45  1  0.727400  0.498600  0.094800  1.0  0.0759
  H  H46  1  0.746300  0.448800  0.974900  1.0  0.1279
  H  H47  1  0.561270  0.868030  0.232530  1.0  0.0918
  H  H48  1  0.512470  0.891630  0.256230  1.0  0.0938
  H  H49  1  0.532870  0.896130  0.513030  1.0  0.1119
  H  H50  1  0.581670  0.870930  0.491330  1.0  0.1276
  H  H51  1  0.541270  0.971330  0.469030  1.0  0.1206
  H  H52  1  0.394070  0.831930  0.428130  1.0  0.0759
  H  H53  1  0.412970  0.782130  0.308230  1.0  0.1279
  H  H54  1  0.227930  0.201370  0.565870  1.0  0.0916
  H  H55  1  0.179130  0.224970  0.589570  1.0  0.0937
  H  H56  1  0.199530  0.229470  0.846370  1.0  0.1115
  H  H57  1  0.248330  0.204270  0.824670  1.0  0.1261
  H  H58  1  0.207930  0.304670  0.802370  1.0  0.1206
  H  H59  1  0.060730  0.165270  0.761470  1.0  0.0758
  H  H60  1  0.079630  0.115470  0.641570  1.0  0.1284
  H  H61  1  0.465300  0.359900  0.899200  1.0  0.0916
  H  H62  1  0.441700  0.287500  0.922900  1.0  0.0935
  H  H63  1  0.437200  0.303400  0.179700  1.0  0.1116
  H  H64  1  0.462400  0.377400  0.158000  1.0  0.1255
  H  H65  1  0.362000  0.236600  0.135700  1.0  0.1205
  H  H66  1  0.501400  0.228800  0.094800  1.0  0.0774
  H  H67  1  0.551200  0.297500  0.974900  1.0  0.1327
  H  H68  1  0.131970  0.693230  0.232530  1.0  0.0916
  H  H69  1  0.108370  0.620830  0.256230  1.0  0.0935
  H  H70  1  0.103870  0.636730  0.513030  1.0  0.1116
  H  H71  1  0.129070  0.710730  0.491330  1.0  0.1255
  H  H72  1  0.028670  0.569930  0.469030  1.0  0.1205
  H  H73  1  0.168070  0.562130  0.428130  1.0  0.0774
  H  H74  1  0.217870  0.630830  0.308230  1.0  0.1327
  H  H75  1  0.798630  0.026570  0.565870  1.0  0.0916
  H  H76  1  0.775030  0.954170  0.589570  1.0  0.0936
  H  H77  1  0.770530  0.970070  0.846370  1.0  0.1115
  H  H78  1  0.795730  0.044070  0.824670  1.0  0.1255
  H  H79  1  0.695330  0.903270  0.802370  1.0  0.1204
  H  H80  1  0.834730  0.895470  0.761470  1.0  0.0768
  H  H81  1  0.884530  0.964170  0.641570  1.0  0.1326
  H  H82  1  0.105400  0.640100  0.100800  1.0  0.0918
  H  H83  1  0.154200  0.712500  0.077100  1.0  0.0934
  H  H84  1  0.133800  0.696600  0.820300  1.0  0.1119
  H  H85  1  0.085000  0.622600  0.842000  1.0  0.1252
  H  H86  1  0.125400  0.763400  0.864300  1.0  0.1222
  H  H87  1  0.272600  0.771200  0.905200  1.0  0.0766
  H  H88  1  0.253700  0.702500  0.025100  1.0  0.1318
  H  H89  1  0.772070  0.973430  0.434130  1.0  0.0923
  H  H90  1  0.820870  0.045830  0.410430  1.0  0.0934
  H  H91  1  0.800470  0.029930  0.153630  1.0  0.1119
  H  H92  1  0.751670  0.955930  0.175330  1.0  0.1263
  H  H93  1  0.792070  0.096730  0.197630  1.0  0.1222
  H  H94  1  0.939270  0.104530  0.238530  1.0  0.0766
  H  H95  1  0.920370  0.035830  0.358430  1.0  0.1295
  H  H96  1  0.438730  0.306770  0.767470  1.0  0.0918
  H  H97  1  0.487530  0.379170  0.743770  1.0  0.0934
  H  H98  1  0.467130  0.363270  0.486970  1.0  0.1118
  H  H99  1  0.418330  0.289270  0.508670  1.0  0.1252
  H  H100  1  0.458730  0.430070  0.530970  1.0  0.1221
  H  H101  1  0.605930  0.437870  0.571870  1.0  0.0766
  H  H102  1  0.587030  0.369170  0.691770  1.0  0.1318
  H  H103  1  0.534700  0.894600  0.100800  1.0  0.0915
  H  H104  1  0.558300  0.845800  0.077100  1.0  0.0934
  H  H105  1  0.562800  0.866200  0.820300  1.0  0.112
  H  H106  1  0.537600  0.915000  0.842000  1.0  0.1269
  H  H107  1  0.638000  0.874600  0.864300  1.0  0.1237
  H  H108  1  0.498600  0.727400  0.905200  1.0  0.0752
  H  H109  1  0.448800  0.746300  0.025100  1.0  0.1307
  H  H110  1  0.201370  0.227930  0.434130  1.0  0.0911
  H  H111  1  0.224970  0.179130  0.410430  1.0  0.0934
  H  H112  1  0.229470  0.199530  0.153630  1.0  0.1116
  H  H113  1  0.204270  0.248330  0.175330  1.0  0.1256
  H  H114  1  0.304670  0.207930  0.197630  1.0  0.1237
  H  H115  1  0.165270  0.060730  0.238530  1.0  0.0742
  H  H116  1  0.115470  0.079630  0.358430  1.0  0.1309
  H  H117  1  0.868030  0.561270  0.767470  1.0  0.0915
  H  H118  1  0.891630  0.512470  0.743770  1.0  0.0934
  H  H119  1  0.896130  0.532870  0.486970  1.0  0.1121
  H  H120  1  0.870930  0.581670  0.508670  1.0  0.1269
  H  H121  1  0.971330  0.541270  0.530970  1.0  0.1237
  H  H122  1  0.831930  0.394070  0.571870  1.0  0.0752
  H  H123  1  0.782130  0.412970  0.691770  1.0  0.1307
  H  H124  1  0.359900  0.465300  0.100800  1.0  0.0912
  H  H125  1  0.287500  0.441700  0.077100  1.0  0.0934
  H  H126  1  0.303400  0.437200  0.820300  1.0  0.1116
  H  H127  1  0.377400  0.462400  0.842000  1.0  0.1257
  H  H128  1  0.236600  0.362000  0.864300  1.0  0.1226
  H  H129  1  0.228800  0.501400  0.905200  1.0  0.0747
  H  H130  1  0.297500  0.551200  0.025100  1.0  0.1282
  H  H131  1  0.026570  0.798630  0.434130  1.0  0.0912
  H  H132  1  0.954170  0.775030  0.410430  1.0  0.0935
  H  H133  1  0.970070  0.770530  0.153630  1.0  0.1118
  H  H134  1  0.044070  0.795730  0.175330  1.0  0.1257
  H  H135  1  0.903270  0.695330  0.197630  1.0  0.1226
  H  H136  1  0.895470  0.834730  0.238530  1.0  0.0754
  H  H137  1  0.964170  0.884530  0.358430  1.0  0.1287
  H  H138  1  0.693230  0.131970  0.767470  1.0  0.0912
  H  H139  1  0.620830  0.108370  0.743770  1.0  0.0934
  H  H140  1  0.636730  0.103870  0.486970  1.0  0.1116
  H  H141  1  0.710730  0.129070  0.508670  1.0  0.1257
  H  H142  1  0.569930  0.028670  0.530970  1.0  0.1226
  H  H143  1  0.562130  0.168070  0.571870  1.0  0.0747
  H  H144  1  0.630830  0.217870  0.691770  1.0  0.1282
  H  H145  1  0.359900  0.894600  0.100800  1.0  0.0916
  H  H146  1  0.287500  0.845800  0.077100  1.0  0.0934
  H  H147  1  0.303400  0.866200  0.820300  1.0  0.1119
  H  H148  1  0.377400  0.915000  0.842000  1.0  0.126
  H  H149  1  0.236600  0.874600  0.864300  1.0  0.1224
  H  H150  1  0.228800  0.727400  0.905200  1.0  0.0761
  H  H151  1  0.297500  0.746300  0.025100  1.0  0.1313
  H  H152  1  0.026570  0.227930  0.434130  1.0  0.092
  H  H153  1  0.954170  0.179130  0.410430  1.0  0.0934
  H  H154  1  0.970070  0.199530  0.153630  1.0  0.1119
  H  H155  1  0.044070  0.248330  0.175330  1.0  0.127
  H  H156  1  0.903270  0.207930  0.197630  1.0  0.1224
  H  H157  1  0.895470  0.060730  0.238530  1.0  0.0761
  H  H158  1  0.964170  0.079630  0.358430  1.0  0.1293
  H  H159  1  0.693230  0.561270  0.767470  1.0  0.0916
  H  H160  1  0.620830  0.512470  0.743770  1.0  0.0934
  H  H161  1  0.636730  0.532870  0.486970  1.0  0.1117
  H  H162  1  0.710730  0.581670  0.508670  1.0  0.126
  H  H163  1  0.569930  0.541270  0.530970  1.0  0.1223
  H  H164  1  0.562130  0.394070  0.571870  1.0  0.0761
  H  H165  1  0.630830  0.412970  0.691770  1.0  0.1313
  H  H166  1  0.105400  0.465300  0.100800  1.0  0.0915
  H  H167  1  0.154200  0.441700  0.077100  1.0  0.0937
  H  H168  1  0.133800  0.437200  0.820300  1.0  0.1123
  H  H169  1  0.085000  0.462400  0.842000  1.0  0.1268
  H  H170  1  0.125400  0.362000  0.864300  1.0  0.1209
  H  H171  1  0.272600  0.501400  0.905200  1.0  0.0753
  H  H172  1  0.253700  0.551200  0.025100  1.0  0.1291
  H  H173  1  0.772070  0.798630  0.434130  1.0  0.0913
  H  H174  1  0.820870  0.775030  0.410430  1.0  0.0937
  H  H175  1  0.800470  0.770530  0.153630  1.0  0.1117
  H  H176  1  0.751670  0.795730  0.175330  1.0  0.1256
  H  H177  1  0.792070  0.695330  0.197630  1.0  0.1209
  H  H178  1  0.939270  0.834730  0.238530  1.0  0.0743
  H  H179  1  0.920370  0.884530  0.358430  1.0  0.1294
  H  H180  1  0.438730  0.131970  0.767470  1.0  0.0915
  H  H181  1  0.487530  0.108370  0.743770  1.0  0.0937
  H  H182  1  0.467130  0.103870  0.486970  1.0  0.1125
  H  H183  1  0.418330  0.129070  0.508670  1.0  0.1268
  H  H184  1  0.458730  0.028670  0.530970  1.0  0.121
  H  H185  1  0.605930  0.168070  0.571870  1.0  0.0753
  H  H186  1  0.587030  0.217870  0.691770  1.0  0.1291
  H  H187  1  0.534700  0.640100  0.100800  1.0  0.0914
  H  H188  1  0.558300  0.712500  0.077100  1.0  0.0935
  H  H189  1  0.562800  0.696600  0.820300  1.0  0.1113
  H  H190  1  0.537600  0.622600  0.842000  1.0  0.1251
  H  H191  1  0.638000  0.763400  0.864300  1.0  0.1208
  H  H192  1  0.498600  0.771200  0.905200  1.0  0.0764
  H  H193  1  0.448800  0.702500  0.025100  1.0  0.1316
  H  H194  1  0.201370  0.973430  0.434130  1.0  0.0914
  H  H195  1  0.224970  0.045830  0.410430  1.0  0.0935
  H  H196  1  0.229470  0.029930  0.153630  1.0  0.1115
  H  H197  1  0.204270  0.955930  0.175330  1.0  0.1251
  H  H198  1  0.304670  0.096730  0.197630  1.0  0.1208
  H  H199  1  0.165270  0.104530  0.238530  1.0  0.0769
  H  H200  1  0.115470  0.035830  0.358430  1.0  0.1321
  H  H201  1  0.868030  0.306770  0.767470  1.0  0.0914
  H  H202  1  0.891630  0.379170  0.743770  1.0  0.0935
  H  H203  1  0.896130  0.363270  0.486970  1.0  0.1113
  H  H204  1  0.870930  0.289270  0.508670  1.0  0.1251
  H  H205  1  0.971330  0.430070  0.530970  1.0  0.1208
  H  H206  1  0.831930  0.437870  0.571870  1.0  0.0764
  H  H207  1  0.782130  0.369170  0.691770  1.0  0.1316
  H  H208  1  0.894600  0.359900  0.899200  1.0  0.0911
  H  H209  1  0.845800  0.287500  0.922900  1.0  0.0937
  H  H210  1  0.866200  0.303400  0.179700  1.0  0.1112
  H  H211  1  0.915000  0.377400  0.158000  1.0  0.1256
  H  H212  1  0.874600  0.236600  0.135700  1.0  0.1222
  H  H213  1  0.727400  0.228800  0.094800  1.0  0.0774
  H  H214  1  0.746300  0.297500  0.974900  1.0  0.1316
  H  H215  1  0.561270  0.693230  0.232530  1.0  0.0911
  H  H216  1  0.512470  0.620830  0.256230  1.0  0.0937
  H  H217  1  0.532870  0.636730  0.513030  1.0  0.1111
  H  H218  1  0.581670  0.710730  0.491330  1.0  0.1256
  H  H219  1  0.541270  0.569930  0.469030  1.0  0.1221
  H  H220  1  0.394070  0.562130  0.428130  1.0  0.0774
  H  H221  1  0.412970  0.630830  0.308230  1.0  0.1316
  H  H222  1  0.227930  0.026570  0.565870  1.0  0.0914
  H  H223  1  0.179130  0.954170  0.589570  1.0  0.0937
  H  H224  1  0.199530  0.970070  0.846370  1.0  0.1112
  H  H225  1  0.248330  0.044070  0.824670  1.0  0.1269
  H  H226  1  0.207930  0.903270  0.802370  1.0  0.1222
  H  H227  1  0.060730  0.895470  0.761470  1.0  0.0774
  H  H228  1  0.079630  0.964170  0.641570  1.0  0.1299
  H  H229  1  0.465300  0.105400  0.899200  1.0  0.0921
  H  H230  1  0.441700  0.154200  0.922900  1.0  0.0939
  H  H231  1  0.437200  0.133800  0.179700  1.0  0.1117
  H  H232  1  0.462400  0.085000  0.158000  1.0  0.1279
  H  H233  1  0.362000  0.125400  0.135700  1.0  0.1243
  H  H234  1  0.501400  0.272600  0.094800  1.0  0.0767
  H  H235  1  0.551200  0.253700  0.974900  1.0  0.1307
  H  H236  1  0.131970  0.438730  0.232530  1.0  0.0921
  H  H237  1  0.108370  0.487530  0.256230  1.0  0.0939
  H  H238  1  0.103870  0.467130  0.513030  1.0  0.1118
  H  H239  1  0.129070  0.418330  0.491330  1.0  0.1279
  H  H240  1  0.028670  0.458730  0.469030  1.0  0.1243
  H  H241  1  0.168070  0.605930  0.428130  1.0  0.0767
  H  H242  1  0.217870  0.587030  0.308230  1.0  0.1307
  H  H243  1  0.798630  0.772070  0.565870  1.0  0.092
  H  H244  1  0.775030  0.820870  0.589570  1.0  0.0939
  H  H245  1  0.770530  0.800470  0.846370  1.0  0.1115
  H  H246  1  0.795730  0.751670  0.824670  1.0  0.1265
  H  H247  1  0.695330  0.792070  0.802370  1.0  0.1243
  H  H248  1  0.834730  0.939270  0.761470  1.0  0.0769
  H  H249  1  0.884530  0.920370  0.641570  1.0  0.131
  H  H250  1  0.640100  0.534700  0.899200  1.0  0.0916
  H  H251  1  0.712500  0.558300  0.922900  1.0  0.0938
  H  H252  1  0.696600  0.562800  0.179700  1.0  0.1123
  H  H253  1  0.622600  0.537600  0.158000  1.0  0.1258
  H  H254  1  0.763400  0.638000  0.135700  1.0  0.122
  H  H255  1  0.771200  0.498600  0.094800  1.0  0.0759
  H  H256  1  0.702500  0.448800  0.974900  1.0  0.1285
  H  H257  1  0.306770  0.868030  0.232530  1.0  0.0916
  H  H258  1  0.379170  0.891630  0.256230  1.0  0.0938
  H  H259  1  0.363270  0.896130  0.513030  1.0  0.1123
  H  H260  1  0.289270  0.870930  0.491330  1.0  0.1258
  H  H261  1  0.430070  0.971330  0.469030  1.0  0.122
  H  H262  1  0.437870  0.831930  0.428130  1.0  0.0759
  H  H263  1  0.369170  0.782130  0.308230  1.0  0.1285
  H  H264  1  0.973430  0.201370  0.565870  1.0  0.0916
  H  H265  1  0.045830  0.224970  0.589570  1.0  0.0939
  H  H266  1  0.029930  0.229470  0.846370  1.0  0.1123
  H  H267  1  0.955930  0.204270  0.824670  1.0  0.1258
  H  H268  1  0.096730  0.304670  0.802370  1.0  0.122
  H  H269  1  0.104530  0.165270  0.761470  1.0  0.0762
  H  H270  1  0.035830  0.115470  0.641570  1.0  0.1285
  H  H271  1  0.714600  0.285400  0.055600  1.0  0.1282
  H  H272  1  0.381270  0.618730  0.388930  1.0  0.1282
  H  H273  1  0.047930  0.952070  0.722270  1.0  0.1252
  H  H274  1  0.714600  0.429200  0.055600  1.0  0.1238
  H  H275  1  0.381270  0.762530  0.388930  1.0  0.1238
  H  H276  1  0.047930  0.095870  0.722270  1.0  0.1233
  H  H277  1  0.570800  0.285400  0.055600  1.0  0.1275
  H  H278  1  0.237470  0.618730  0.388930  1.0  0.1275
  H  H279  1  0.904130  0.952070  0.722270  1.0  0.1265
  H  H280  1  0.285400  0.714600  0.944400  1.0  0.1274
  H  H281  1  0.952070  0.047930  0.277730  1.0  0.1234
  H  H282  1  0.618730  0.381270  0.611070  1.0  0.1274
  H  H283  1  0.429200  0.714600  0.944400  1.0  0.1251
  H  H284  1  0.095870  0.047930  0.277730  1.0  0.1237
  H  H285  1  0.762530  0.381270  0.611070  1.0  0.1251
  H  H286  1  0.285400  0.570800  0.944400  1.0  0.1255
  H  H287  1  0.952070  0.904130  0.277730  1.0  0.1246
  H  H288  1  0.618730  0.237470  0.611070  1.0  0.1255
  C  C289  1  0.578100  0.056690  0.008900  1.0  0.6474
  C  C290  1  0.625010  0.089100  0.023600  1.0  -0.1117
  C  C291  1  0.651100  0.110000  0.956700  1.0  -0.0589
  C  C292  1  0.695200  0.139100  0.970900  1.0  -0.153
  C  C293  1  0.712590  0.145540  0.050900  1.0  0.0856
  C  C294  1  0.685500  0.127100  0.122400  1.0  -0.1912
  C  C295  1  0.640900  0.097900  0.109800  1.0  -0.0714
  C  C296  1  0.760100  0.172510  0.069400  1.0  0.0093
  C  C297  1  0.779760  0.154120  0.118700  1.0  -0.1009
  C  C298  1  0.244770  0.390020  0.342230  1.0  0.6474
  C  C299  1  0.291680  0.422430  0.356930  1.0  -0.1117
  C  C300  1  0.317770  0.443330  0.290030  1.0  -0.0589
  C  C301  1  0.361870  0.472430  0.304230  1.0  -0.153
  C  C302  1  0.379260  0.478870  0.384230  1.0  0.0856
  C  C303  1  0.352170  0.460430  0.455730  1.0  -0.1914
  C  C304  1  0.307570  0.431230  0.443130  1.0  -0.0715
  C  C305  1  0.426770  0.505840  0.402730  1.0  0.0093
  C  C306  1  0.446430  0.487450  0.452030  1.0  -0.101
  C  C307  1  0.911430  0.723360  0.675570  1.0  0.6474
  C  C308  1  0.958340  0.755770  0.690270  1.0  -0.1117
  C  C309  1  0.984430  0.776670  0.623370  1.0  -0.0587
  C  C310  1  0.028530  0.805770  0.637570  1.0  -0.1529
  C  C311  1  0.045920  0.812210  0.717570  1.0  0.0856
  C  C312  1  0.018830  0.793770  0.789070  1.0  -0.1912
  C  C313  1  0.974230  0.764570  0.776470  1.0  -0.0714
  C  C314  1  0.093430  0.839180  0.736070  1.0  0.0092
  C  C315  1  0.113090  0.820790  0.785370  1.0  -0.1009
  C  C316  1  0.943310  0.521410  0.008900  1.0  0.6461
  C  C317  1  0.910900  0.535910  0.023600  1.0  -0.1107
  C  C318  1  0.890000  0.541100  0.956700  1.0  -0.0599
  C  C319  1  0.860900  0.556100  0.970900  1.0  -0.1529
  C  C320  1  0.854460  0.567050  0.050900  1.0  0.0851
  C  C321  1  0.872900  0.558400  0.122400  1.0  -0.191
  C  C322  1  0.902100  0.543000  0.109800  1.0  -0.0695
  C  C323  1  0.827490  0.587590  0.069400  1.0  0.0099
  C  C324  1  0.845880  0.625640  0.118700  1.0  -0.1052
  C  C325  1  0.609980  0.854740  0.342230  1.0  0.6461
  C  C326  1  0.577570  0.869240  0.356930  1.0  -0.1107
  C  C327  1  0.556670  0.874430  0.290030  1.0  -0.0599
  C  C328  1  0.527570  0.889430  0.304230  1.0  -0.1529
  C  C329  1  0.521130  0.900380  0.384230  1.0  0.0851
  C  C330  1  0.539570  0.891730  0.455730  1.0  -0.1908
  C  C331  1  0.568770  0.876330  0.443130  1.0  -0.0695
  C  C332  1  0.494160  0.920920  0.402730  1.0  0.0099
  C  C333  1  0.512550  0.958970  0.452030  1.0  -0.105
  C  C334  1  0.276640  0.188080  0.675570  1.0  0.6461
  C  C335  1  0.244230  0.202580  0.690270  1.0  -0.1107
  C  C336  1  0.223330  0.207770  0.623370  1.0  -0.06
  C  C337  1  0.194230  0.222770  0.637570  1.0  -0.1528
  C  C338  1  0.187790  0.233720  0.717570  1.0  0.0851
  C  C339  1  0.206230  0.225070  0.789070  1.0  -0.191
  C  C340  1  0.235430  0.209670  0.776470  1.0  -0.0695
  C  C341  1  0.160820  0.254260  0.736070  1.0  0.01
  C  C342  1  0.179210  0.292310  0.785370  1.0  -0.1052
  C  C343  1  0.478590  0.421900  0.008900  1.0  0.648
  C  C344  1  0.464090  0.374990  0.023600  1.0  -0.1077
  C  C345  1  0.458900  0.348900  0.956700  1.0  -0.0603
  C  C346  1  0.443900  0.304800  0.970900  1.0  -0.1546
  C  C347  1  0.432950  0.287410  0.050900  1.0  0.0844
  C  C348  1  0.441600  0.314500  0.122400  1.0  -0.1893
  C  C349  1  0.457000  0.359100  0.109800  1.0  -0.0714
  C  C350  1  0.412410  0.239900  0.069400  1.0  0.0082
  C  C351  1  0.374360  0.220240  0.118700  1.0  -0.1016
  C  C352  1  0.145260  0.755230  0.342230  1.0  0.648
  C  C353  1  0.130760  0.708320  0.356930  1.0  -0.1077
  C  C354  1  0.125570  0.682230  0.290030  1.0  -0.0603
  C  C355  1  0.110570  0.638130  0.304230  1.0  -0.1546
  C  C356  1  0.099620  0.620740  0.384230  1.0  0.0844
  C  C357  1  0.108270  0.647830  0.455730  1.0  -0.1893
  C  C358  1  0.123670  0.692430  0.443130  1.0  -0.0714
  C  C359  1  0.079080  0.573230  0.402730  1.0  0.0082
  C  C360  1  0.041030  0.553570  0.452030  1.0  -0.1014
  C  C361  1  0.811920  0.088570  0.675570  1.0  0.648
  C  C362  1  0.797420  0.041660  0.690270  1.0  -0.1077
  C  C363  1  0.792230  0.015570  0.623370  1.0  -0.0602
  C  C364  1  0.777230  0.971470  0.637570  1.0  -0.1545
  C  C365  1  0.766280  0.954080  0.717570  1.0  0.0844
  C  C366  1  0.774930  0.981170  0.789070  1.0  -0.1893
  C  C367  1  0.790330  0.025770  0.776470  1.0  -0.0714
  C  C368  1  0.745740  0.906570  0.736070  1.0  0.0082
  C  C369  1  0.707690  0.886910  0.785370  1.0  -0.1014
  C  C370  1  0.056690  0.578100  0.991100  1.0  0.6474
  C  C371  1  0.089100  0.625010  0.976400  1.0  -0.1083
  C  C372  1  0.110000  0.651100  0.043300  1.0  -0.0587
  C  C373  1  0.139100  0.695200  0.029100  1.0  -0.154
  C  C374  1  0.145540  0.712590  0.949100  1.0  0.0848
  C  C375  1  0.127100  0.685500  0.877600  1.0  -0.1892
  C  C376  1  0.097900  0.640900  0.890200  1.0  -0.0692
  C  C377  1  0.172510  0.760100  0.930600  1.0  0.0083
  C  C378  1  0.154120  0.779760  0.881300  1.0  -0.1035
  C  C379  1  0.723360  0.911430  0.324430  1.0  0.6474
  C  C380  1  0.755770  0.958340  0.309730  1.0  -0.1083
  C  C381  1  0.776670  0.984430  0.376630  1.0  -0.0586
  C  C382  1  0.805770  0.028530  0.362430  1.0  -0.154
  C  C383  1  0.812210  0.045920  0.282430  1.0  0.0848
  C  C384  1  0.793770  0.018830  0.210930  1.0  -0.1892
  C  C385  1  0.764570  0.974230  0.223530  1.0  -0.0692
  C  C386  1  0.839180  0.093430  0.263930  1.0  0.0082
  C  C387  1  0.820790  0.113090  0.214630  1.0  -0.1035
  C  C388  1  0.390020  0.244770  0.657770  1.0  0.6474
  C  C389  1  0.422430  0.291680  0.643070  1.0  -0.1083
  C  C390  1  0.443330  0.317770  0.709970  1.0  -0.0587
  C  C391  1  0.472430  0.361870  0.695770  1.0  -0.154
  C  C392  1  0.478870  0.379260  0.615770  1.0  0.0848
  C  C393  1  0.460430  0.352170  0.544270  1.0  -0.1894
  C  C394  1  0.431230  0.307570  0.556870  1.0  -0.0692
  C  C395  1  0.505840  0.426770  0.597270  1.0  0.0083
  C  C396  1  0.487450  0.446430  0.547970  1.0  -0.1036
  C  C397  1  0.521410  0.943310  0.991100  1.0  0.6474
  C  C398  1  0.535910  0.910900  0.976400  1.0  -0.1105
  C  C399  1  0.541100  0.890000  0.043300  1.0  -0.0579
  C  C400  1  0.556100  0.860900  0.029100  1.0  -0.1542
  C  C401  1  0.567050  0.854460  0.949100  1.0  0.0856
  C  C402  1  0.558400  0.872900  0.877600  1.0  -0.1902
  C  C403  1  0.543000  0.902100  0.890200  1.0  -0.0686
  C  C404  1  0.587590  0.827490  0.930600  1.0  0.0092
  C  C405  1  0.625640  0.845880  0.881300  1.0  -0.1025
  C  C406  1  0.188080  0.276640  0.324430  1.0  0.6474
  C  C407  1  0.202580  0.244230  0.309730  1.0  -0.1105
  C  C408  1  0.207770  0.223330  0.376630  1.0  -0.058
  C  C409  1  0.222770  0.194230  0.362430  1.0  -0.1542
  C  C410  1  0.233720  0.187790  0.282430  1.0  0.0856
  C  C411  1  0.225070  0.206230  0.210930  1.0  -0.1902
  C  C412  1  0.209670  0.235430  0.223530  1.0  -0.0686
  C  C413  1  0.254260  0.160820  0.263930  1.0  0.0092
  C  C414  1  0.292310  0.179210  0.214630  1.0  -0.1025
  C  C415  1  0.854740  0.609980  0.657770  1.0  0.6474
  C  C416  1  0.869240  0.577570  0.643070  1.0  -0.1105
  C  C417  1  0.874430  0.556670  0.709970  1.0  -0.0579
  C  C418  1  0.889430  0.527570  0.695770  1.0  -0.1541
  C  C419  1  0.900380  0.521130  0.615770  1.0  0.0856
  C  C420  1  0.891730  0.539570  0.544270  1.0  -0.1899
  C  C421  1  0.876330  0.568770  0.556870  1.0  -0.0686
  C  C422  1  0.920920  0.494160  0.597270  1.0  0.0092
  C  C423  1  0.958970  0.512550  0.547970  1.0  -0.1024
  C  C424  1  0.421900  0.478590  0.991100  1.0  0.6462
  C  C425  1  0.374990  0.464090  0.976400  1.0  -0.1103
  C  C426  1  0.348900  0.458900  0.043300  1.0  -0.0582
  C  C427  1  0.304800  0.443900  0.029100  1.0  -0.1528
  C  C428  1  0.287410  0.432950  0.949100  1.0  0.085
  C  C429  1  0.314500  0.441600  0.877600  1.0  -0.1895
  C  C430  1  0.359100  0.457000  0.890200  1.0  -0.0691
  C  C431  1  0.239900  0.412410  0.930600  1.0  0.01
  C  C432  1  0.220240  0.374360  0.881300  1.0  -0.1063
  C  C433  1  0.088570  0.811920  0.324430  1.0  0.6462
  C  C434  1  0.041660  0.797420  0.309730  1.0  -0.1103
  C  C435  1  0.015570  0.792230  0.376630  1.0  -0.0581
  C  C436  1  0.971470  0.777230  0.362430  1.0  -0.1528
  C  C437  1  0.954080  0.766280  0.282430  1.0  0.085
  C  C438  1  0.981170  0.774930  0.210930  1.0  -0.1895
  C  C439  1  0.025770  0.790330  0.223530  1.0  -0.0691
  C  C440  1  0.906570  0.745740  0.263930  1.0  0.01
  C  C441  1  0.886910  0.707690  0.214630  1.0  -0.1061
  C  C442  1  0.755230  0.145260  0.657770  1.0  0.6462
  C  C443  1  0.708320  0.130760  0.643070  1.0  -0.1103
  C  C444  1  0.682230  0.125570  0.709970  1.0  -0.0582
  C  C445  1  0.638130  0.110570  0.695770  1.0  -0.1528
  C  C446  1  0.620740  0.099620  0.615770  1.0  0.085
  C  C447  1  0.647830  0.108270  0.544270  1.0  -0.1895
  C  C448  1  0.692430  0.123670  0.556870  1.0  -0.0691
  C  C449  1  0.573230  0.079080  0.597270  1.0  0.01
  C  C450  1  0.553570  0.041030  0.547970  1.0  -0.1061
  C  C451  1  0.421900  0.943310  0.991100  1.0  0.6469
  C  C452  1  0.374990  0.910900  0.976400  1.0  -0.1101
  C  C453  1  0.348900  0.890000  0.043300  1.0  -0.0583
  C  C454  1  0.304800  0.860900  0.029100  1.0  -0.1545
  C  C455  1  0.287410  0.854460  0.949100  1.0  0.0864
  C  C456  1  0.314500  0.872900  0.877600  1.0  -0.1899
  C  C457  1  0.359100  0.902100  0.890200  1.0  -0.0698
  C  C458  1  0.239900  0.827490  0.930600  1.0  0.0093
  C  C459  1  0.220240  0.845880  0.881300  1.0  -0.1013
  C  C460  1  0.088570  0.276640  0.324430  1.0  0.6469
  C  C461  1  0.041660  0.244230  0.309730  1.0  -0.1101
  C  C462  1  0.015570  0.223330  0.376630  1.0  -0.0582
  C  C463  1  0.971470  0.194230  0.362430  1.0  -0.1545
  C  C464  1  0.954080  0.187790  0.282430  1.0  0.0864
  C  C465  1  0.981170  0.206230  0.210930  1.0  -0.1899
  C  C466  1  0.025770  0.235430  0.223530  1.0  -0.0698
  C  C467  1  0.906570  0.160820  0.263930  1.0  0.0092
  C  C468  1  0.886910  0.179210  0.214630  1.0  -0.1013
  C  C469  1  0.755230  0.609980  0.657770  1.0  0.6469
  C  C470  1  0.708320  0.577570  0.643070  1.0  -0.1101
  C  C471  1  0.682230  0.556670  0.709970  1.0  -0.0583
  C  C472  1  0.638130  0.527570  0.695770  1.0  -0.1545
  C  C473  1  0.620740  0.521130  0.615770  1.0  0.0864
  C  C474  1  0.647830  0.539570  0.544270  1.0  -0.1902
  C  C475  1  0.692430  0.568770  0.556870  1.0  -0.0698
  C  C476  1  0.573230  0.494160  0.597270  1.0  0.0094
  C  C477  1  0.553570  0.512550  0.547970  1.0  -0.1014
  C  C478  1  0.056690  0.478590  0.991100  1.0  0.6469
  C  C479  1  0.089100  0.464090  0.976400  1.0  -0.1144
  C  C480  1  0.110000  0.458900  0.043300  1.0  -0.0575
  C  C481  1  0.139100  0.443900  0.029100  1.0  -0.1525
  C  C482  1  0.145540  0.432950  0.949100  1.0  0.085
  C  C483  1  0.127100  0.441600  0.877600  1.0  -0.1894
  C  C484  1  0.097900  0.457000  0.890200  1.0  -0.0685
  C  C485  1  0.172510  0.412410  0.930600  1.0  0.0094
  C  C486  1  0.154120  0.374360  0.881300  1.0  -0.1042
  C  C487  1  0.723360  0.811920  0.324430  1.0  0.6469
  C  C488  1  0.755770  0.797420  0.309730  1.0  -0.1144
  C  C489  1  0.776670  0.792230  0.376630  1.0  -0.0576
  C  C490  1  0.805770  0.777230  0.362430  1.0  -0.1525
  C  C491  1  0.812210  0.766280  0.282430  1.0  0.085
  C  C492  1  0.793770  0.774930  0.210930  1.0  -0.1894
  C  C493  1  0.764570  0.790330  0.223530  1.0  -0.0685
  C  C494  1  0.839180  0.745740  0.263930  1.0  0.0094
  C  C495  1  0.820790  0.707690  0.214630  1.0  -0.1042
  C  C496  1  0.390020  0.145260  0.657770  1.0  0.6469
  C  C497  1  0.422430  0.130760  0.643070  1.0  -0.1144
  C  C498  1  0.443330  0.125570  0.709970  1.0  -0.0575
  C  C499  1  0.472430  0.110570  0.695770  1.0  -0.1525
  C  C500  1  0.478870  0.099620  0.615770  1.0  0.085
  C  C501  1  0.460430  0.108270  0.544270  1.0  -0.1891
  C  C502  1  0.431230  0.123670  0.556870  1.0  -0.0685
  C  C503  1  0.505840  0.079080  0.597270  1.0  0.0094
  C  C504  1  0.487450  0.041030  0.547970  1.0  -0.104
  C  C505  1  0.521410  0.578100  0.991100  1.0  0.6477
  C  C506  1  0.535910  0.625010  0.976400  1.0  -0.1091
  C  C507  1  0.541100  0.651100  0.043300  1.0  -0.0589
  C  C508  1  0.556100  0.695200  0.029100  1.0  -0.1545
  C  C509  1  0.567050  0.712590  0.949100  1.0  0.0847
  C  C510  1  0.558400  0.685500  0.877600  1.0  -0.19
  C  C511  1  0.543000  0.640900  0.890200  1.0  -0.0693
  C  C512  1  0.587590  0.760100  0.930600  1.0  0.0095
  C  C513  1  0.625640  0.779760  0.881300  1.0  -0.1052
  C  C514  1  0.188080  0.911430  0.324430  1.0  0.6477
  C  C515  1  0.202580  0.958340  0.309730  1.0  -0.1091
  C  C516  1  0.207770  0.984430  0.376630  1.0  -0.0588
  C  C517  1  0.222770  0.028530  0.362430  1.0  -0.1545
  C  C518  1  0.233720  0.045920  0.282430  1.0  0.0847
  C  C519  1  0.225070  0.018830  0.210930  1.0  -0.19
  C  C520  1  0.209670  0.974230  0.223530  1.0  -0.0693
  C  C521  1  0.254260  0.093430  0.263930  1.0  0.0095
  C  C522  1  0.292310  0.113090  0.214630  1.0  -0.1051
  C  C523  1  0.854740  0.244770  0.657770  1.0  0.6477
  C  C524  1  0.869240  0.291680  0.643070  1.0  -0.1091
  C  C525  1  0.874430  0.317770  0.709970  1.0  -0.0589
  C  C526  1  0.889430  0.361870  0.695770  1.0  -0.1545
  C  C527  1  0.900380  0.379260  0.615770  1.0  0.0847
  C  C528  1  0.891730  0.352170  0.544270  1.0  -0.19
  C  C529  1  0.876330  0.307570  0.556870  1.0  -0.0693
  C  C530  1  0.920920  0.426770  0.597270  1.0  0.0095
  C  C531  1  0.958970  0.446430  0.547970  1.0  -0.1051
  C  C532  1  0.943310  0.421900  0.008900  1.0  0.6483
  C  C533  1  0.910900  0.374990  0.023600  1.0  -0.109
  C  C534  1  0.890000  0.348900  0.956700  1.0  -0.0603
  C  C535  1  0.860900  0.304800  0.970900  1.0  -0.1552
  C  C536  1  0.854460  0.287410  0.050900  1.0  0.084
  C  C537  1  0.872900  0.314500  0.122400  1.0  -0.1895
  C  C538  1  0.902100  0.359100  0.109800  1.0  -0.0697
  C  C539  1  0.827490  0.239900  0.069400  1.0  0.0095
  C  C540  1  0.845880  0.220240  0.118700  1.0  -0.1039
  C  C541  1  0.609980  0.755230  0.342230  1.0  0.6483
  C  C542  1  0.577570  0.708320  0.356930  1.0  -0.109
  C  C543  1  0.556670  0.682230  0.290030  1.0  -0.0603
  C  C544  1  0.527570  0.638130  0.304230  1.0  -0.1552
  C  C545  1  0.521130  0.620740  0.384230  1.0  0.084
  C  C546  1  0.539570  0.647830  0.455730  1.0  -0.1897
  C  C547  1  0.568770  0.692430  0.443130  1.0  -0.0697
  C  C548  1  0.494160  0.573230  0.402730  1.0  0.0095
  C  C549  1  0.512550  0.553570  0.452030  1.0  -0.1041
  C  C550  1  0.276640  0.088570  0.675570  1.0  0.6483
  C  C551  1  0.244230  0.041660  0.690270  1.0  -0.109
  C  C552  1  0.223330  0.015570  0.623370  1.0  -0.0602
  C  C553  1  0.194230  0.971470  0.637570  1.0  -0.1551
  C  C554  1  0.187790  0.954080  0.717570  1.0  0.084
  C  C555  1  0.206230  0.981170  0.789070  1.0  -0.1895
  C  C556  1  0.235430  0.025770  0.776470  1.0  -0.0697
  C  C557  1  0.160820  0.906570  0.736070  1.0  0.0094
  C  C558  1  0.179210  0.886910  0.785370  1.0  -0.1039
  C  C559  1  0.478590  0.056690  0.008900  1.0  0.6469
  C  C560  1  0.464090  0.089100  0.023600  1.0  -0.1107
  C  C561  1  0.458900  0.110000  0.956700  1.0  -0.06
  C  C562  1  0.443900  0.139100  0.970900  1.0  -0.1529
  C  C563  1  0.432950  0.145540  0.050900  1.0  0.0862
  C  C564  1  0.441600  0.127100  0.122400  1.0  -0.1927
  C  C565  1  0.457000  0.097900  0.109800  1.0  -0.0705
  C  C566  1  0.412410  0.172510  0.069400  1.0  0.0097
  C  C567  1  0.374360  0.154120  0.118700  1.0  -0.1006
  C  C568  1  0.145260  0.390020  0.342230  1.0  0.6469
  C  C569  1  0.130760  0.422430  0.356930  1.0  -0.1107
  C  C570  1  0.125570  0.443330  0.290030  1.0  -0.06
  C  C571  1  0.110570  0.472430  0.304230  1.0  -0.1529
  C  C572  1  0.099620  0.478870  0.384230  1.0  0.0862
  C  C573  1  0.108270  0.460430  0.455730  1.0  -0.1925
  C  C574  1  0.123670  0.431230  0.443130  1.0  -0.0705
  C  C575  1  0.079080  0.505840  0.402730  1.0  0.0097
  C  C576  1  0.041030  0.487450  0.452030  1.0  -0.1005
  C  C577  1  0.811920  0.723360  0.675570  1.0  0.6469
  C  C578  1  0.797420  0.755770  0.690270  1.0  -0.1107
  C  C579  1  0.792230  0.776670  0.623370  1.0  -0.0601
  C  C580  1  0.777230  0.805770  0.637570  1.0  -0.1528
  C  C581  1  0.766280  0.812210  0.717570  1.0  0.0862
  C  C582  1  0.774930  0.793770  0.789070  1.0  -0.1927
  C  C583  1  0.790330  0.764570  0.776470  1.0  -0.0705
  C  C584  1  0.745740  0.839180  0.736070  1.0  0.0097
  C  C585  1  0.707690  0.820790  0.785370  1.0  -0.1006
  C  C586  1  0.578100  0.521410  0.008900  1.0  0.6468
  C  C587  1  0.625010  0.535910  0.023600  1.0  -0.1149
  C  C588  1  0.651100  0.541100  0.956700  1.0  -0.0592
  C  C589  1  0.695200  0.556100  0.970900  1.0  -0.1525
  C  C590  1  0.712590  0.567050  0.050900  1.0  0.0848
  C  C591  1  0.685500  0.558400  0.122400  1.0  -0.1897
  C  C592  1  0.640900  0.543000  0.109800  1.0  -0.0706
  C  C593  1  0.760100  0.587590  0.069400  1.0  0.0094
  C  C594  1  0.779760  0.625640  0.118700  1.0  -0.1039
  C  C595  1  0.244770  0.854740  0.342230  1.0  0.6468
  C  C596  1  0.291680  0.869240  0.356930  1.0  -0.1149
  C  C597  1  0.317770  0.874430  0.290030  1.0  -0.0592
  C  C598  1  0.361870  0.889430  0.304230  1.0  -0.1525
  C  C599  1  0.379260  0.900380  0.384230  1.0  0.0848
  C  C600  1  0.352170  0.891730  0.455730  1.0  -0.1897
  C  C601  1  0.307570  0.876330  0.443130  1.0  -0.0706
  C  C602  1  0.426770  0.920920  0.402730  1.0  0.0094
  C  C603  1  0.446430  0.958970  0.452030  1.0  -0.1038
  C  C604  1  0.911430  0.188080  0.675570  1.0  0.6468
  C  C605  1  0.958340  0.202580  0.690270  1.0  -0.1149
  C  C606  1  0.984430  0.207770  0.623370  1.0  -0.0591
  C  C607  1  0.028530  0.222770  0.637570  1.0  -0.1524
  C  C608  1  0.045920  0.233720  0.717570  1.0  0.0848
  C  C609  1  0.018830  0.225070  0.789070  1.0  -0.1897
  C  C610  1  0.974230  0.209670  0.776470  1.0  -0.0706
  C  C611  1  0.093430  0.254260  0.736070  1.0  0.0093
  C  C612  1  0.113090  0.292310  0.785370  1.0  -0.1037
  C  C613  1  0.822790  0.177210  0.143200  1.0  -0.0474
  C  C614  1  0.784050  0.215950  0.044700  1.0  0.1559
  C  C615  1  0.748100  0.251900  0.057200  1.0  0.1342
  C  C616  1  0.725800  0.274200  0.011300  1.0  -0.3409
  C  C617  1  0.489460  0.510540  0.476530  1.0  -0.048
  C  C618  1  0.450720  0.549280  0.378030  1.0  0.1559
  C  C619  1  0.414770  0.585230  0.390530  1.0  0.1342
  C  C620  1  0.392470  0.607530  0.344630  1.0  -0.3409
  C  C621  1  0.156120  0.843880  0.809870  1.0  -0.0474
  C  C622  1  0.117380  0.882620  0.711370  1.0  0.1559
  C  C623  1  0.081430  0.918570  0.723870  1.0  0.1342
  C  C624  1  0.059130  0.940870  0.677970  1.0  -0.3409
  C  C625  1  0.822790  0.645580  0.143200  1.0  -0.046
  C  C626  1  0.784050  0.568100  0.044700  1.0  0.1571
  C  C627  1  0.748100  0.496200  0.057200  1.0  0.1327
  C  C628  1  0.725800  0.451600  0.011300  1.0  -0.3424
  C  C629  1  0.489460  0.978910  0.476530  1.0  -0.0464
  C  C630  1  0.450720  0.901430  0.378030  1.0  0.1571
  C  C631  1  0.414770  0.829530  0.390530  1.0  0.1327
  C  C632  1  0.392470  0.784930  0.344630  1.0  -0.3424
  C  C633  1  0.156120  0.312250  0.809870  1.0  -0.046
  C  C634  1  0.117380  0.234770  0.711370  1.0  0.1571
  C  C635  1  0.081430  0.162870  0.723870  1.0  0.1327
  C  C636  1  0.059130  0.118270  0.677970  1.0  -0.3424
  C  C637  1  0.354420  0.177210  0.143200  1.0  -0.0493
  C  C638  1  0.431900  0.215950  0.044700  1.0  0.1567
  C  C639  1  0.503800  0.251900  0.057200  1.0  0.1349
  C  C640  1  0.548400  0.274200  0.011300  1.0  -0.3414
  C  C641  1  0.021090  0.510540  0.476530  1.0  -0.0497
  C  C642  1  0.098570  0.549280  0.378030  1.0  0.1567
  C  C643  1  0.170470  0.585230  0.390530  1.0  0.1349
  C  C644  1  0.215070  0.607530  0.344630  1.0  -0.3414
  C  C645  1  0.687750  0.843880  0.809870  1.0  -0.0492
  C  C646  1  0.765230  0.882620  0.711370  1.0  0.1567
  C  C647  1  0.837130  0.918570  0.723870  1.0  0.1349
  C  C648  1  0.881730  0.940870  0.677970  1.0  -0.3414
  C  C649  1  0.177210  0.822790  0.856800  1.0  -0.0475
  C  C650  1  0.215950  0.784050  0.955300  1.0  0.1547
  C  C651  1  0.251900  0.748100  0.942800  1.0  0.1338
  C  C652  1  0.274200  0.725800  0.988700  1.0  -0.3388
  C  C653  1  0.843880  0.156120  0.190130  1.0  -0.0475
  C  C654  1  0.882620  0.117380  0.288630  1.0  0.1547
  C  C655  1  0.918570  0.081430  0.276130  1.0  0.1338
  C  C656  1  0.940870  0.059130  0.322030  1.0  -0.3388
  C  C657  1  0.510540  0.489460  0.523470  1.0  -0.0481
  C  C658  1  0.549280  0.450720  0.621970  1.0  0.1547
  C  C659  1  0.585230  0.414770  0.609470  1.0  0.1338
  C  C660  1  0.607530  0.392470  0.655370  1.0  -0.3388
  C  C661  1  0.645580  0.822790  0.856800  1.0  -0.0481
  C  C662  1  0.568100  0.784050  0.955300  1.0  0.1544
  C  C663  1  0.496200  0.748100  0.942800  1.0  0.1329
  C  C664  1  0.451600  0.725800  0.988700  1.0  -0.3391
  C  C665  1  0.312250  0.156120  0.190130  1.0  -0.0481
  C  C666  1  0.234770  0.117380  0.288630  1.0  0.1544
  C  C667  1  0.162870  0.081430  0.276130  1.0  0.1329
  C  C668  1  0.118270  0.059130  0.322030  1.0  -0.3391
  C  C669  1  0.978910  0.489460  0.523470  1.0  -0.0486
  C  C670  1  0.901430  0.450720  0.621970  1.0  0.1544
  C  C671  1  0.829530  0.414770  0.609470  1.0  0.1329
  C  C672  1  0.784930  0.392470  0.655370  1.0  -0.3391
  C  C673  1  0.177210  0.354420  0.856800  1.0  -0.0452
  C  C674  1  0.215950  0.431900  0.955300  1.0  0.1558
  C  C675  1  0.251900  0.503800  0.942800  1.0  0.13
  C  C676  1  0.274200  0.548400  0.988700  1.0  -0.3419
  C  C677  1  0.843880  0.687750  0.190130  1.0  -0.0451
  C  C678  1  0.882620  0.765230  0.288630  1.0  0.1558
  C  C679  1  0.918570  0.837130  0.276130  1.0  0.13
  C  C680  1  0.940870  0.881730  0.322030  1.0  -0.342
  C  C681  1  0.510540  0.021090  0.523470  1.0  -0.0456
  C  C682  1  0.549280  0.098570  0.621970  1.0  0.1558
  C  C683  1  0.585230  0.170470  0.609470  1.0  0.13
  C  C684  1  0.607530  0.215070  0.655370  1.0  -0.3419
  O  O685  1  0.557600  0.038350  0.082300  1.0  -0.5745
  O  O686  1  0.564130  0.050670  0.931900  1.0  -0.5526
  O  O687  1  0.224270  0.371680  0.415630  1.0  -0.5745
  O  O688  1  0.230800  0.384000  0.265230  1.0  -0.5526
  O  O689  1  0.890930  0.705020  0.748970  1.0  -0.5745
  O  O690  1  0.897460  0.717340  0.598570  1.0  -0.5526
  O  O691  1  0.961650  0.519250  0.082300  1.0  -0.5751
  O  O692  1  0.949330  0.513460  0.931900  1.0  -0.5516
  O  O693  1  0.628320  0.852580  0.415630  1.0  -0.5751
  O  O694  1  0.616000  0.846790  0.265230  1.0  -0.5516
  O  O695  1  0.294980  0.185920  0.748970  1.0  -0.5751
  O  O696  1  0.282660  0.180130  0.598570  1.0  -0.5516
  O  O697  1  0.480750  0.442400  0.082300  1.0  -0.5732
  O  O698  1  0.486540  0.435870  0.931900  1.0  -0.5509
  O  O699  1  0.147420  0.775730  0.415630  1.0  -0.5732
  O  O700  1  0.153210  0.769200  0.265230  1.0  -0.5509
  O  O701  1  0.814080  0.109070  0.748970  1.0  -0.5732
  O  O702  1  0.819870  0.102540  0.598570  1.0  -0.5509
  O  O703  1  0.038350  0.557600  0.917700  1.0  -0.5728
  O  O704  1  0.050670  0.564130  0.068100  1.0  -0.5515
  O  O705  1  0.705020  0.890930  0.251030  1.0  -0.5728
  O  O706  1  0.717340  0.897460  0.401430  1.0  -0.5515
  O  O707  1  0.371680  0.224270  0.584370  1.0  -0.5728
  O  O708  1  0.384000  0.230800  0.734770  1.0  -0.5515
  O  O709  1  0.519250  0.961650  0.917700  1.0  -0.5739
  O  O710  1  0.513460  0.949330  0.068100  1.0  -0.5528
  O  O711  1  0.185920  0.294980  0.251030  1.0  -0.5739
  O  O712  1  0.180130  0.282660  0.401430  1.0  -0.5528
  O  O713  1  0.852580  0.628320  0.584370  1.0  -0.5739
  O  O714  1  0.846790  0.616000  0.734770  1.0  -0.5528
  O  O715  1  0.442400  0.480750  0.917700  1.0  -0.5744
  O  O716  1  0.435870  0.486540  0.068100  1.0  -0.552
  O  O717  1  0.109070  0.814080  0.251030  1.0  -0.5744
  O  O718  1  0.102540  0.819870  0.401430  1.0  -0.552
  O  O719  1  0.775730  0.147420  0.584370  1.0  -0.5744
  O  O720  1  0.769200  0.153210  0.734770  1.0  -0.552
  O  O721  1  0.442400  0.961650  0.917700  1.0  -0.574
  O  O722  1  0.435870  0.949330  0.068100  1.0  -0.5523
  O  O723  1  0.109070  0.294980  0.251030  1.0  -0.574
  O  O724  1  0.102540  0.282660  0.401430  1.0  -0.5523
  O  O725  1  0.775730  0.628320  0.584370  1.0  -0.574
  O  O726  1  0.769200  0.616000  0.734770  1.0  -0.5523
  O  O727  1  0.038350  0.480750  0.917700  1.0  -0.5744
  O  O728  1  0.050670  0.486540  0.068100  1.0  -0.5513
  O  O729  1  0.705020  0.814080  0.251030  1.0  -0.5744
  O  O730  1  0.717340  0.819870  0.401430  1.0  -0.5513
  O  O731  1  0.371680  0.147420  0.584370  1.0  -0.5744
  O  O732  1  0.384000  0.153210  0.734770  1.0  -0.5513
  O  O733  1  0.519250  0.557600  0.917700  1.0  -0.5733
  O  O734  1  0.513460  0.564130  0.068100  1.0  -0.5511
  O  O735  1  0.185920  0.890930  0.251030  1.0  -0.5733
  O  O736  1  0.180130  0.897460  0.401430  1.0  -0.5511
  O  O737  1  0.852580  0.224270  0.584370  1.0  -0.5733
  O  O738  1  0.846790  0.230800  0.734770  1.0  -0.5511
  O  O739  1  0.961650  0.442400  0.082300  1.0  -0.5746
  O  O740  1  0.949330  0.435870  0.931900  1.0  -0.5504
  O  O741  1  0.628320  0.775730  0.415630  1.0  -0.5746
  O  O742  1  0.616000  0.769200  0.265230  1.0  -0.5504
  O  O743  1  0.294980  0.109070  0.748970  1.0  -0.5746
  O  O744  1  0.282660  0.102540  0.598570  1.0  -0.5504
  O  O745  1  0.480750  0.038350  0.082300  1.0  -0.5752
  O  O746  1  0.486540  0.050670  0.931900  1.0  -0.5519
  O  O747  1  0.147420  0.371680  0.415630  1.0  -0.5752
  O  O748  1  0.153210  0.384000  0.265230  1.0  -0.5519
  O  O749  1  0.814080  0.705020  0.748970  1.0  -0.5752
  O  O750  1  0.819870  0.717340  0.598570  1.0  -0.5519
  O  O751  1  0.557600  0.519250  0.082300  1.0  -0.5756
  O  O752  1  0.564130  0.513460  0.931900  1.0  -0.5508
  O  O753  1  0.224270  0.852580  0.415630  1.0  -0.5756
  O  O754  1  0.230800  0.846790  0.265230  1.0  -0.5508
  O  O755  1  0.890930  0.185920  0.748970  1.0  -0.5756
  O  O756  1  0.897460  0.180130  0.598570  1.0  -0.5508
  O  O757  1  0.765420  0.234580  0.994700  1.0  -0.2957
  O  O758  1  0.432090  0.567910  0.328030  1.0  -0.2957
  O  O759  1  0.098750  0.901250  0.661370  1.0  -0.2957
  O  O760  1  0.765420  0.530840  0.994700  1.0  -0.3006
  O  O761  1  0.432090  0.864170  0.328030  1.0  -0.3006
  O  O762  1  0.098750  0.197510  0.661370  1.0  -0.3006
  O  O763  1  0.469160  0.234580  0.994700  1.0  -0.3006
  O  O764  1  0.135830  0.567910  0.328030  1.0  -0.3006
  O  O765  1  0.802490  0.901250  0.661370  1.0  -0.3006
  O  O766  1  0.234580  0.765420  0.005300  1.0  -0.3006
  O  O767  1  0.901250  0.098750  0.338630  1.0  -0.3006
  O  O768  1  0.567910  0.432090  0.671970  1.0  -0.3006
  O  O769  1  0.530840  0.765420  0.005300  1.0  -0.3061
  O  O770  1  0.197510  0.098750  0.338630  1.0  -0.3061
  O  O771  1  0.864170  0.432090  0.671970  1.0  -0.3061
  O  O772  1  0.234580  0.469160  0.005300  1.0  -0.3057
  O  O773  1  0.901250  0.802490  0.338630  1.0  -0.3057
  O  O774  1  0.567910  0.135830  0.671970  1.0  -0.3057
