# generated using pymatgen
data_CuH15C22O5
_symmetry_space_group_name_H-M   'P 1'
_cell_length_a   35.13970000
_cell_length_b   35.13970000
_cell_length_c   21.87900000
_cell_angle_alpha   90.00000000
_cell_angle_beta   90.00000000
_cell_angle_gamma   120.00000000
_symmetry_Int_Tables_number   1
_chemical_formula_structural   CuH15C22O5
_chemical_formula_sum   'Cu18 H270 C396 O90'
_cell_volume   23396.67804386
_cell_formula_units_Z   18
loop_
 _symmetry_equiv_pos_site_id
 _symmetry_equiv_pos_as_xyz
  1  'x, y, z'
loop_
 _atom_site_type_symbol
 _atom_site_label
 _atom_site_symmetry_multiplicity
 _atom_site_fract_x
 _atom_site_fract_y
 _atom_site_fract_z
 _atom_site_occupancy
 _atom_site_charge
  Cu  Cu1  1  0.682230  0.841110  0.389630  1.0  0.9174
  Cu  Cu2  1  0.348900  0.174450  0.722960  1.0  0.9175
  Cu  Cu3  1  0.015560  0.507780  0.056300  1.0  0.9199
  Cu  Cu4  1  0.158890  0.841110  0.389630  1.0  0.9174
  Cu  Cu5  1  0.825550  0.174450  0.722960  1.0  0.9174
  Cu  Cu6  1  0.492220  0.507780  0.056300  1.0  0.9173
  Cu  Cu7  1  0.158890  0.317770  0.389630  1.0  0.9178
  Cu  Cu8  1  0.825550  0.651100  0.722960  1.0  0.9179
  Cu  Cu9  1  0.492220  0.984440  0.056300  1.0  0.9198
  Cu  Cu10  1  0.841110  0.682230  0.610370  1.0  0.9172
  Cu  Cu11  1  0.507780  0.015560  0.943700  1.0  0.9194
  Cu  Cu12  1  0.174450  0.348900  0.277040  1.0  0.9173
  Cu  Cu13  1  0.841110  0.158890  0.610370  1.0  0.9167
  Cu  Cu14  1  0.507780  0.492220  0.943700  1.0  0.9166
  Cu  Cu15  1  0.174450  0.825550  0.277040  1.0  0.9167
  Cu  Cu16  1  0.317770  0.158890  0.610370  1.0  0.9161
  Cu  Cu17  1  0.984440  0.492220  0.943700  1.0  0.9188
  Cu  Cu18  1  0.651100  0.825550  0.277040  1.0  0.9161
  H  H19  1  0.553400  0.687900  0.295100  1.0  0.1232
  H  H20  1  0.505700  0.615900  0.323100  1.0  0.0954
  H  H21  1  0.549200  0.641500  0.494900  1.0  0.1305
  H  H22  1  0.598100  0.714600  0.466300  1.0  0.1062
  H  H23  1  0.542400  0.570900  0.475900  1.0  0.1131
  H  H24  1  0.375800  0.579500  0.333200  1.0  0.1132
  H  H25  1  0.433000  0.612400  0.441700  1.0  0.1162
  H  H26  1  0.220070  0.021230  0.628430  1.0  0.1239
  H  H27  1  0.172370  0.949230  0.656430  1.0  0.0954
  H  H28  1  0.215870  0.974830  0.828230  1.0  0.1305
  H  H29  1  0.264770  0.047930  0.799630  1.0  0.1064
  H  H30  1  0.209070  0.904230  0.809230  1.0  0.1131
  H  H31  1  0.042470  0.912830  0.666530  1.0  0.1146
  H  H32  1  0.099670  0.945730  0.775030  1.0  0.1172
  H  H33  1  0.886730  0.354570  0.961770  1.0  0.1232
  H  H34  1  0.839030  0.282570  0.989770  1.0  0.0954
  H  H35  1  0.882530  0.308170  0.161570  1.0  0.1305
  H  H36  1  0.931430  0.381270  0.132970  1.0  0.1062
  H  H37  1  0.875730  0.237570  0.142570  1.0  0.1131
  H  H38  1  0.709130  0.246170  0.999870  1.0  0.1132
  H  H39  1  0.766330  0.279070  0.108370  1.0  0.1162
  H  H40  1  0.312100  0.865500  0.295100  1.0  0.1237
  H  H41  1  0.384100  0.889800  0.323100  1.0  0.0944
  H  H42  1  0.358500  0.907700  0.494900  1.0  0.1307
  H  H43  1  0.285400  0.883500  0.466300  1.0  0.1066
  H  H44  1  0.429100  0.971500  0.475900  1.0  0.1136
  H  H45  1  0.420500  0.796300  0.333200  1.0  0.1113
  H  H46  1  0.387600  0.820600  0.441700  1.0  0.1181
  H  H47  1  0.978770  0.198830  0.628430  1.0  0.1237
  H  H48  1  0.050770  0.223130  0.656430  1.0  0.0944
  H  H49  1  0.025170  0.241030  0.828230  1.0  0.1312
  H  H50  1  0.952070  0.216830  0.799630  1.0  0.1069
  H  H51  1  0.095770  0.304830  0.809230  1.0  0.1136
  H  H52  1  0.087170  0.129630  0.666530  1.0  0.1118
  H  H53  1  0.054270  0.153930  0.775030  1.0  0.117
  H  H54  1  0.645430  0.532170  0.961770  1.0  0.1237
  H  H55  1  0.717430  0.556470  0.989770  1.0  0.0954
  H  H56  1  0.691830  0.574370  0.161570  1.0  0.1307
  H  H57  1  0.618730  0.550170  0.132970  1.0  0.1066
  H  H58  1  0.762430  0.638170  0.142570  1.0  0.1136
  H  H59  1  0.753830  0.462970  0.999870  1.0  0.1113
  H  H60  1  0.720930  0.487270  0.108370  1.0  0.1181
  H  H61  1  0.134500  0.446600  0.295100  1.0  0.1237
  H  H62  1  0.110200  0.494300  0.323100  1.0  0.0952
  H  H63  1  0.092300  0.450800  0.494900  1.0  0.131
  H  H64  1  0.116500  0.401900  0.466300  1.0  0.1067
  H  H65  1  0.028500  0.457600  0.475900  1.0  0.1139
  H  H66  1  0.203700  0.624200  0.333200  1.0  0.1168
  H  H67  1  0.179400  0.567000  0.441700  1.0  0.1179
  H  H68  1  0.801170  0.779930  0.628430  1.0  0.1234
  H  H69  1  0.776870  0.827630  0.656430  1.0  0.0951
  H  H70  1  0.758970  0.784130  0.828230  1.0  0.1305
  H  H71  1  0.783170  0.735230  0.799630  1.0  0.1064
  H  H72  1  0.695170  0.790930  0.809230  1.0  0.1139
  H  H73  1  0.870370  0.957530  0.666530  1.0  0.1155
  H  H74  1  0.846070  0.900330  0.775030  1.0  0.1186
  H  H75  1  0.467830  0.113270  0.961770  1.0  0.1237
  H  H76  1  0.443530  0.160970  0.989770  1.0  0.0942
  H  H77  1  0.425630  0.117470  0.161570  1.0  0.131
  H  H78  1  0.449830  0.068570  0.132970  1.0  0.1067
  H  H79  1  0.361830  0.124270  0.142570  1.0  0.1139
  H  H80  1  0.537030  0.290870  0.999870  1.0  0.1168
  H  H81  1  0.512730  0.233670  0.108370  1.0  0.1179
  H  H82  1  0.687900  0.553400  0.704900  1.0  0.1236
  H  H83  1  0.615900  0.505700  0.676900  1.0  0.0951
  H  H84  1  0.641500  0.549200  0.505100  1.0  0.13
  H  H85  1  0.714600  0.598100  0.533700  1.0  0.1064
  H  H86  1  0.570900  0.542400  0.524100  1.0  0.1131
  H  H87  1  0.579500  0.375800  0.666800  1.0  0.1153
  H  H88  1  0.612400  0.433000  0.558300  1.0  0.1172
  H  H89  1  0.354570  0.886730  0.038230  1.0  0.1236
  H  H90  1  0.282570  0.839030  0.010230  1.0  0.0951
  H  H91  1  0.308170  0.882530  0.838430  1.0  0.13
  H  H92  1  0.381270  0.931430  0.867030  1.0  0.1064
  H  H93  1  0.237570  0.875730  0.857430  1.0  0.1131
  H  H94  1  0.246170  0.709130  0.000130  1.0  0.1153
  H  H95  1  0.279070  0.766330  0.891630  1.0  0.1172
  H  H96  1  0.021230  0.220070  0.371570  1.0  0.1238
  H  H97  1  0.949230  0.172370  0.343570  1.0  0.0951
  H  H98  1  0.974830  0.215870  0.171770  1.0  0.13
  H  H99  1  0.047930  0.264770  0.200370  1.0  0.1068
  H  H100  1  0.904230  0.209070  0.190770  1.0  0.1131
  H  H101  1  0.912830  0.042470  0.333470  1.0  0.1164
  H  H102  1  0.945730  0.099670  0.224970  1.0  0.1182
  H  H103  1  0.865500  0.312100  0.704900  1.0  0.1235
  H  H104  1  0.889800  0.384100  0.676900  1.0  0.0942
  H  H105  1  0.907700  0.358500  0.505100  1.0  0.1297
  H  H106  1  0.883500  0.285400  0.533700  1.0  0.1063
  H  H107  1  0.971500  0.429100  0.524100  1.0  0.1128
  H  H108  1  0.796300  0.420500  0.666800  1.0  0.1144
  H  H109  1  0.820600  0.387600  0.558300  1.0  0.1168
  H  H110  1  0.532170  0.645430  0.038230  1.0  0.1235
  H  H111  1  0.556470  0.717430  0.010230  1.0  0.095
  H  H112  1  0.574370  0.691830  0.838430  1.0  0.1297
  H  H113  1  0.550170  0.618730  0.867030  1.0  0.1063
  H  H114  1  0.638170  0.762430  0.857430  1.0  0.1128
  H  H115  1  0.462970  0.753830  0.000130  1.0  0.1144
  H  H116  1  0.487270  0.720930  0.891630  1.0  0.1168
  H  H117  1  0.198830  0.978770  0.371570  1.0  0.1235
  H  H118  1  0.223130  0.050770  0.343570  1.0  0.0944
  H  H119  1  0.241030  0.025170  0.171770  1.0  0.1304
  H  H120  1  0.216830  0.952070  0.200370  1.0  0.1065
  H  H121  1  0.304830  0.095770  0.190770  1.0  0.1128
  H  H122  1  0.129630  0.087170  0.333470  1.0  0.1149
  H  H123  1  0.153930  0.054270  0.224970  1.0  0.1148
  H  H124  1  0.446600  0.134500  0.704900  1.0  0.1236
  H  H125  1  0.494300  0.110200  0.676900  1.0  0.096
  H  H126  1  0.450800  0.092300  0.505100  1.0  0.1301
  H  H127  1  0.401900  0.116500  0.533700  1.0  0.1065
  H  H128  1  0.457600  0.028500  0.524100  1.0  0.1138
  H  H129  1  0.624200  0.203700  0.666800  1.0  0.1129
  H  H130  1  0.567000  0.179400  0.558300  1.0  0.1164
  H  H131  1  0.113270  0.467830  0.038230  1.0  0.1236
  H  H132  1  0.160970  0.443530  0.010230  1.0  0.0952
  H  H133  1  0.117470  0.425630  0.838430  1.0  0.1301
  H  H134  1  0.068570  0.449830  0.867030  1.0  0.1065
  H  H135  1  0.124270  0.361830  0.857430  1.0  0.1138
  H  H136  1  0.290870  0.537030  0.000130  1.0  0.1129
  H  H137  1  0.233670  0.512730  0.891630  1.0  0.1164
  H  H138  1  0.779930  0.801170  0.371570  1.0  0.1233
  H  H139  1  0.827630  0.776870  0.343570  1.0  0.0956
  H  H140  1  0.784130  0.758970  0.171770  1.0  0.1295
  H  H141  1  0.735230  0.783170  0.200370  1.0  0.1059
  H  H142  1  0.790930  0.695170  0.190770  1.0  0.1138
  H  H143  1  0.957530  0.870370  0.333470  1.0  0.1113
  H  H144  1  0.900330  0.846070  0.224970  1.0  0.1176
  H  H145  1  0.446600  0.312100  0.704900  1.0  0.1233
  H  H146  1  0.494300  0.384100  0.676900  1.0  0.0951
  H  H147  1  0.450800  0.358500  0.505100  1.0  0.1301
  H  H148  1  0.401900  0.285400  0.533700  1.0  0.1057
  H  H149  1  0.457600  0.429100  0.524100  1.0  0.1129
  H  H150  1  0.624200  0.420500  0.666800  1.0  0.115
  H  H151  1  0.567000  0.387600  0.558300  1.0  0.1161
  H  H152  1  0.113270  0.645430  0.038230  1.0  0.1233
  H  H153  1  0.160970  0.717430  0.010230  1.0  0.0951
  H  H154  1  0.117470  0.691830  0.838430  1.0  0.1301
  H  H155  1  0.068570  0.618730  0.867030  1.0  0.1057
  H  H156  1  0.124270  0.762430  0.857430  1.0  0.1129
  H  H157  1  0.290870  0.753830  0.000130  1.0  0.115
  H  H158  1  0.233670  0.720930  0.891630  1.0  0.1161
  H  H159  1  0.779930  0.978770  0.371570  1.0  0.1235
  H  H160  1  0.827630  0.050770  0.343570  1.0  0.0951
  H  H161  1  0.784130  0.025170  0.171770  1.0  0.1301
  H  H162  1  0.735230  0.952070  0.200370  1.0  0.1062
  H  H163  1  0.790930  0.095770  0.190770  1.0  0.1129
  H  H164  1  0.957530  0.087170  0.333470  1.0  0.1161
  H  H165  1  0.900330  0.054270  0.224970  1.0  0.1173
  H  H166  1  0.687900  0.134500  0.704900  1.0  0.1235
  H  H167  1  0.615900  0.110200  0.676900  1.0  0.0943
  H  H168  1  0.641500  0.092300  0.505100  1.0  0.1303
  H  H169  1  0.714600  0.116500  0.533700  1.0  0.1067
  H  H170  1  0.570900  0.028500  0.524100  1.0  0.1138
  H  H171  1  0.579500  0.203700  0.666800  1.0  0.1141
  H  H172  1  0.612400  0.179400  0.558300  1.0  0.1189
  H  H173  1  0.354570  0.467830  0.038230  1.0  0.1235
  H  H174  1  0.282570  0.443530  0.010230  1.0  0.0951
  H  H175  1  0.308170  0.425630  0.838430  1.0  0.1303
  H  H176  1  0.381270  0.449830  0.867030  1.0  0.1067
  H  H177  1  0.237570  0.361830  0.857430  1.0  0.1138
  H  H178  1  0.246170  0.537030  0.000130  1.0  0.1141
  H  H179  1  0.279070  0.512730  0.891630  1.0  0.1189
  H  H180  1  0.021230  0.801170  0.371570  1.0  0.1235
  H  H181  1  0.949230  0.776870  0.343570  1.0  0.0946
  H  H182  1  0.974830  0.758970  0.171770  1.0  0.1309
  H  H183  1  0.047930  0.783170  0.200370  1.0  0.107
  H  H184  1  0.904230  0.695170  0.190770  1.0  0.1138
  H  H185  1  0.912830  0.870370  0.333470  1.0  0.1142
  H  H186  1  0.945730  0.846070  0.224970  1.0  0.1177
  H  H187  1  0.865500  0.553400  0.704900  1.0  0.1241
  H  H188  1  0.889800  0.505700  0.676900  1.0  0.0951
  H  H189  1  0.907700  0.549200  0.505100  1.0  0.1302
  H  H190  1  0.883500  0.598100  0.533700  1.0  0.1064
  H  H191  1  0.971500  0.542400  0.524100  1.0  0.1134
  H  H192  1  0.796300  0.375800  0.666800  1.0  0.1159
  H  H193  1  0.820600  0.433000  0.558300  1.0  0.1167
  H  H194  1  0.532170  0.886730  0.038230  1.0  0.1241
  H  H195  1  0.556470  0.839030  0.010230  1.0  0.0946
  H  H196  1  0.574370  0.882530  0.838430  1.0  0.1302
  H  H197  1  0.550170  0.931430  0.867030  1.0  0.1064
  H  H198  1  0.638170  0.875730  0.857430  1.0  0.1134
  H  H199  1  0.462970  0.709130  0.000130  1.0  0.1159
  H  H200  1  0.487270  0.766330  0.891630  1.0  0.1167
  H  H201  1  0.198830  0.220070  0.371570  1.0  0.1238
  H  H202  1  0.223130  0.172370  0.343570  1.0  0.0948
  H  H203  1  0.241030  0.215870  0.171770  1.0  0.1296
  H  H204  1  0.216830  0.264770  0.200370  1.0  0.1059
  H  H205  1  0.304830  0.209070  0.190770  1.0  0.1134
  H  H206  1  0.129630  0.042470  0.333470  1.0  0.1141
  H  H207  1  0.153930  0.099670  0.224970  1.0  0.1181
  H  H208  1  0.312100  0.446600  0.295100  1.0  0.1236
  H  H209  1  0.384100  0.494300  0.323100  1.0  0.0953
  H  H210  1  0.358500  0.450800  0.494900  1.0  0.1311
  H  H211  1  0.285400  0.401900  0.466300  1.0  0.1067
  H  H212  1  0.429100  0.457600  0.475900  1.0  0.114
  H  H213  1  0.420500  0.624200  0.333200  1.0  0.113
  H  H214  1  0.387600  0.567000  0.441700  1.0  0.1181
  H  H215  1  0.978770  0.779930  0.628430  1.0  0.124
  H  H216  1  0.050770  0.827630  0.656430  1.0  0.0953
  H  H217  1  0.025170  0.784130  0.828230  1.0  0.1311
  H  H218  1  0.952070  0.735230  0.799630  1.0  0.1068
  H  H219  1  0.095770  0.790930  0.809230  1.0  0.114
  H  H220  1  0.087170  0.957530  0.666530  1.0  0.1145
  H  H221  1  0.054270  0.900330  0.775030  1.0  0.1187
  H  H222  1  0.645430  0.113270  0.961770  1.0  0.1236
  H  H223  1  0.717430  0.160970  0.989770  1.0  0.0953
  H  H224  1  0.691830  0.117470  0.161570  1.0  0.1311
  H  H225  1  0.618730  0.068570  0.132970  1.0  0.1067
  H  H226  1  0.762430  0.124270  0.142570  1.0  0.114
  H  H227  1  0.753830  0.290870  0.999870  1.0  0.113
  H  H228  1  0.720930  0.233670  0.108370  1.0  0.1181
  H  H229  1  0.134500  0.687900  0.295100  1.0  0.1237
  H  H230  1  0.110200  0.615900  0.323100  1.0  0.0942
  H  H231  1  0.092300  0.641500  0.494900  1.0  0.1306
  H  H232  1  0.116500  0.714600  0.466300  1.0  0.1065
  H  H233  1  0.028500  0.570900  0.475900  1.0  0.113
  H  H234  1  0.203700  0.579500  0.333200  1.0  0.1139
  H  H235  1  0.179400  0.612400  0.441700  1.0  0.1169
  H  H236  1  0.801170  0.021230  0.628430  1.0  0.1237
  H  H237  1  0.776870  0.949230  0.656430  1.0  0.0944
  H  H238  1  0.758970  0.974830  0.828230  1.0  0.1311
  H  H239  1  0.783170  0.047930  0.799630  1.0  0.1067
  H  H240  1  0.695170  0.904230  0.809230  1.0  0.113
  H  H241  1  0.870370  0.912830  0.666530  1.0  0.1144
  H  H242  1  0.846070  0.945730  0.775030  1.0  0.1155
  H  H243  1  0.467830  0.354570  0.961770  1.0  0.1237
  H  H244  1  0.443530  0.282570  0.989770  1.0  0.0951
  H  H245  1  0.425630  0.308170  0.161570  1.0  0.1306
  H  H246  1  0.449830  0.381270  0.132970  1.0  0.1065
  H  H247  1  0.361830  0.237570  0.142570  1.0  0.113
  H  H248  1  0.537030  0.246170  0.999870  1.0  0.1139
  H  H249  1  0.512730  0.279070  0.108370  1.0  0.1169
  H  H250  1  0.553400  0.865500  0.295100  1.0  0.1233
  H  H251  1  0.505700  0.889800  0.323100  1.0  0.0958
  H  H252  1  0.549200  0.907700  0.494900  1.0  0.1307
  H  H253  1  0.598100  0.883500  0.466300  1.0  0.1067
  H  H254  1  0.542400  0.971500  0.475900  1.0  0.1138
  H  H255  1  0.375800  0.796300  0.333200  1.0  0.1142
  H  H256  1  0.433000  0.820600  0.441700  1.0  0.1186
  H  H257  1  0.220070  0.198830  0.628430  1.0  0.1228
  H  H258  1  0.172370  0.223130  0.656430  1.0  0.0958
  H  H259  1  0.215870  0.241030  0.828230  1.0  0.1302
  H  H260  1  0.264770  0.216830  0.799630  1.0  0.1064
  H  H261  1  0.209070  0.304830  0.809230  1.0  0.1138
  H  H262  1  0.042470  0.129630  0.666530  1.0  0.113
  H  H263  1  0.099670  0.153930  0.775030  1.0  0.1192
  H  H264  1  0.886730  0.532170  0.961770  1.0  0.1233
  H  H265  1  0.839030  0.556470  0.989770  1.0  0.0949
  H  H266  1  0.882530  0.574370  0.161570  1.0  0.1307
  H  H267  1  0.931430  0.550170  0.132970  1.0  0.1067
  H  H268  1  0.875730  0.638170  0.142570  1.0  0.1138
  H  H269  1  0.709130  0.462970  0.999870  1.0  0.1142
  H  H270  1  0.766330  0.487270  0.108370  1.0  0.1186
  H  H271  1  0.380400  0.619600  0.370800  1.0  0.1391
  H  H272  1  0.047070  0.952930  0.704130  1.0  0.1347
  H  H273  1  0.713730  0.286270  0.037470  1.0  0.1391
  H  H274  1  0.380400  0.760800  0.370800  1.0  0.1386
  H  H275  1  0.047070  0.094130  0.704130  1.0  0.1409
  H  H276  1  0.713730  0.427470  0.037470  1.0  0.1386
  H  H277  1  0.239200  0.619600  0.370800  1.0  0.1418
  H  H278  1  0.905870  0.952930  0.704130  1.0  0.144
  H  H279  1  0.572530  0.286270  0.037470  1.0  0.1418
  H  H280  1  0.619600  0.380400  0.629200  1.0  0.1423
  H  H281  1  0.286270  0.713730  0.962530  1.0  0.1423
  H  H282  1  0.952930  0.047070  0.295870  1.0  0.1375
  H  H283  1  0.760800  0.380400  0.629200  1.0  0.1375
  H  H284  1  0.427470  0.713730  0.962530  1.0  0.1375
  H  H285  1  0.094130  0.047070  0.295870  1.0  0.1385
  H  H286  1  0.619600  0.239200  0.629200  1.0  0.1407
  H  H287  1  0.286270  0.572530  0.962530  1.0  0.1407
  H  H288  1  0.952930  0.905870  0.295870  1.0  0.143
  C  C289  1  0.612690  0.755500  0.360850  1.0  0.6853
  C  C290  1  0.580580  0.708240  0.379200  1.0  -0.1401
  C  C291  1  0.552950  0.678840  0.335140  1.0  -0.0609
  C  C292  1  0.524550  0.635460  0.352400  1.0  -0.1059
  C  C293  1  0.523160  0.620650  0.409400  1.0  0.0903
  C  C294  1  0.550360  0.650530  0.454700  1.0  -0.1809
  C  C295  1  0.579450  0.694630  0.437200  1.0  -0.0281
  C  C296  1  0.495360  0.573610  0.428600  1.0  -0.038
  C  C297  1  0.513290  0.554000  0.463600  1.0  -0.0935
  C  C298  1  0.279360  0.088830  0.694180  1.0  0.6853
  C  C299  1  0.247250  0.041570  0.712530  1.0  -0.1401
  C  C300  1  0.219620  0.012170  0.668470  1.0  -0.0609
  C  C301  1  0.191220  0.968790  0.685730  1.0  -0.1059
  C  C302  1  0.189830  0.953980  0.742730  1.0  0.0903
  C  C303  1  0.217030  0.983860  0.788030  1.0  -0.1809
  C  C304  1  0.246120  0.027960  0.770530  1.0  -0.0281
  C  C305  1  0.162030  0.906940  0.761930  1.0  -0.038
  C  C306  1  0.179960  0.887330  0.796930  1.0  -0.0935
  C  C307  1  0.946020  0.422170  0.027520  1.0  0.6853
  C  C308  1  0.913910  0.374910  0.045870  1.0  -0.1401
  C  C309  1  0.886280  0.345510  0.001810  1.0  -0.0608
  C  C310  1  0.857880  0.302130  0.019070  1.0  -0.106
  C  C311  1  0.856490  0.287320  0.076070  1.0  0.0903
  C  C312  1  0.883690  0.317200  0.121370  1.0  -0.1809
  C  C313  1  0.912780  0.361300  0.103870  1.0  -0.0281
  C  C314  1  0.828690  0.240280  0.095270  1.0  -0.038
  C  C315  1  0.846620  0.220670  0.130270  1.0  -0.0935
  C  C316  1  0.244500  0.857190  0.360850  1.0  0.6842
  C  C317  1  0.291760  0.872340  0.379200  1.0  -0.141
  C  C318  1  0.321160  0.874110  0.335140  1.0  -0.0602
  C  C319  1  0.364540  0.889090  0.352400  1.0  -0.1053
  C  C320  1  0.379350  0.902510  0.409400  1.0  0.0902
  C  C321  1  0.349470  0.899830  0.454700  1.0  -0.1794
  C  C322  1  0.305370  0.884820  0.437200  1.0  -0.0273
  C  C323  1  0.426390  0.921750  0.428600  1.0  -0.0396
  C  C324  1  0.446000  0.959290  0.463600  1.0  -0.0962
  C  C325  1  0.911170  0.190520  0.694180  1.0  0.6842
  C  C326  1  0.958430  0.205670  0.712530  1.0  -0.141
  C  C327  1  0.987830  0.207440  0.668470  1.0  -0.0602
  C  C328  1  0.031210  0.222420  0.685730  1.0  -0.1053
  C  C329  1  0.046020  0.235840  0.742730  1.0  0.0902
  C  C330  1  0.016140  0.233160  0.788030  1.0  -0.1794
  C  C331  1  0.972040  0.218150  0.770530  1.0  -0.0273
  C  C332  1  0.093060  0.255080  0.761930  1.0  -0.0396
  C  C333  1  0.112670  0.292620  0.796930  1.0  -0.0962
  C  C334  1  0.577830  0.523860  0.027520  1.0  0.6842
  C  C335  1  0.625090  0.539010  0.045870  1.0  -0.141
  C  C336  1  0.654490  0.540780  0.001810  1.0  -0.0602
  C  C337  1  0.697870  0.555760  0.019070  1.0  -0.1053
  C  C338  1  0.712680  0.569180  0.076070  1.0  0.0902
  C  C339  1  0.682800  0.566500  0.121370  1.0  -0.1794
  C  C340  1  0.638700  0.551490  0.103870  1.0  -0.0273
  C  C341  1  0.759720  0.588420  0.095270  1.0  -0.0396
  C  C342  1  0.779330  0.625960  0.130270  1.0  -0.0962
  C  C343  1  0.142810  0.387310  0.360850  1.0  0.6845
  C  C344  1  0.127660  0.419420  0.379200  1.0  -0.1408
  C  C345  1  0.125890  0.447050  0.335140  1.0  -0.0618
  C  C346  1  0.110910  0.475450  0.352400  1.0  -0.1041
  C  C347  1  0.097490  0.476840  0.409400  1.0  0.0909
  C  C348  1  0.100170  0.449640  0.454700  1.0  -0.1825
  C  C349  1  0.115180  0.420550  0.437200  1.0  -0.0287
  C  C350  1  0.078250  0.504640  0.428600  1.0  -0.0402
  C  C351  1  0.040710  0.486710  0.463600  1.0  -0.0888
  C  C352  1  0.809480  0.720640  0.694180  1.0  0.6845
  C  C353  1  0.794330  0.752750  0.712530  1.0  -0.1408
  C  C354  1  0.792560  0.780380  0.668470  1.0  -0.0618
  C  C355  1  0.777580  0.808780  0.685730  1.0  -0.1041
  C  C356  1  0.764160  0.810170  0.742730  1.0  0.0909
  C  C357  1  0.766840  0.782970  0.788030  1.0  -0.1825
  C  C358  1  0.781850  0.753880  0.770530  1.0  -0.0287
  C  C359  1  0.744920  0.837970  0.761930  1.0  -0.0402
  C  C360  1  0.707380  0.820040  0.796930  1.0  -0.0888
  C  C361  1  0.476140  0.053980  0.027520  1.0  0.6844
  C  C362  1  0.460990  0.086090  0.045870  1.0  -0.1408
  C  C363  1  0.459220  0.113720  0.001810  1.0  -0.0619
  C  C364  1  0.444240  0.142120  0.019070  1.0  -0.1041
  C  C365  1  0.430820  0.143510  0.076070  1.0  0.0909
  C  C366  1  0.433500  0.116310  0.121370  1.0  -0.1825
  C  C367  1  0.448510  0.087220  0.103870  1.0  -0.0287
  C  C368  1  0.411580  0.171310  0.095270  1.0  -0.0403
  C  C369  1  0.374040  0.153380  0.130270  1.0  -0.0888
  C  C370  1  0.755500  0.612690  0.639150  1.0  0.6848
  C  C371  1  0.708240  0.580580  0.620800  1.0  -0.1409
  C  C372  1  0.678840  0.552950  0.664860  1.0  -0.0614
  C  C373  1  0.635460  0.524550  0.647600  1.0  -0.1033
  C  C374  1  0.620650  0.523160  0.590600  1.0  0.0912
  C  C375  1  0.650530  0.550360  0.545300  1.0  -0.1769
  C  C376  1  0.694630  0.579450  0.562800  1.0  -0.0311
  C  C377  1  0.573610  0.495360  0.571400  1.0  -0.0401
  C  C378  1  0.554000  0.513290  0.536400  1.0  -0.0914
  C  C379  1  0.422170  0.946020  0.972480  1.0  0.6848
  C  C380  1  0.374910  0.913910  0.954130  1.0  -0.1409
  C  C381  1  0.345510  0.886280  0.998190  1.0  -0.0613
  C  C382  1  0.302130  0.857880  0.980930  1.0  -0.1033
  C  C383  1  0.287320  0.856490  0.923930  1.0  0.0912
  C  C384  1  0.317200  0.883690  0.878630  1.0  -0.1769
  C  C385  1  0.361300  0.912780  0.896130  1.0  -0.0311
  C  C386  1  0.240280  0.828690  0.904730  1.0  -0.0401
  C  C387  1  0.220670  0.846620  0.869730  1.0  -0.0914
  C  C388  1  0.088830  0.279360  0.305820  1.0  0.6848
  C  C389  1  0.041570  0.247250  0.287470  1.0  -0.1409
  C  C390  1  0.012170  0.219620  0.331530  1.0  -0.0614
  C  C391  1  0.968790  0.191220  0.314270  1.0  -0.1033
  C  C392  1  0.953980  0.189830  0.257270  1.0  0.0912
  C  C393  1  0.983860  0.217030  0.211970  1.0  -0.1769
  C  C394  1  0.027960  0.246120  0.229470  1.0  -0.0311
  C  C395  1  0.906940  0.162030  0.238070  1.0  -0.0401
  C  C396  1  0.887330  0.179960  0.203070  1.0  -0.0914
  C  C397  1  0.857190  0.244500  0.639150  1.0  0.685
  C  C398  1  0.872340  0.291760  0.620800  1.0  -0.1403
  C  C399  1  0.874110  0.321160  0.664860  1.0  -0.0616
  C  C400  1  0.889090  0.364540  0.647600  1.0  -0.1048
  C  C401  1  0.902510  0.379350  0.590600  1.0  0.0901
  C  C402  1  0.899830  0.349470  0.545300  1.0  -0.1757
  C  C403  1  0.884820  0.305370  0.562800  1.0  -0.03
  C  C404  1  0.921750  0.426390  0.571400  1.0  -0.0385
  C  C405  1  0.959290  0.446000  0.536400  1.0  -0.094
  C  C406  1  0.523860  0.577830  0.972480  1.0  0.6849
  C  C407  1  0.539010  0.625090  0.954130  1.0  -0.1402
  C  C408  1  0.540780  0.654490  0.998190  1.0  -0.0616
  C  C409  1  0.555760  0.697870  0.980930  1.0  -0.1048
  C  C410  1  0.569180  0.712680  0.923930  1.0  0.0901
  C  C411  1  0.566500  0.682800  0.878630  1.0  -0.1757
  C  C412  1  0.551490  0.638700  0.896130  1.0  -0.03
  C  C413  1  0.588420  0.759720  0.904730  1.0  -0.0385
  C  C414  1  0.625960  0.779330  0.869730  1.0  -0.094
  C  C415  1  0.190520  0.911170  0.305820  1.0  0.685
  C  C416  1  0.205670  0.958430  0.287470  1.0  -0.1403
  C  C417  1  0.207440  0.987830  0.331530  1.0  -0.0616
  C  C418  1  0.222420  0.031210  0.314270  1.0  -0.1048
  C  C419  1  0.235840  0.046020  0.257270  1.0  0.0901
  C  C420  1  0.233160  0.016140  0.211970  1.0  -0.1757
  C  C421  1  0.218150  0.972040  0.229470  1.0  -0.03
  C  C422  1  0.255080  0.093060  0.238070  1.0  -0.0385
  C  C423  1  0.292620  0.112670  0.203070  1.0  -0.094
  C  C424  1  0.387310  0.142810  0.639150  1.0  0.6845
  C  C425  1  0.419420  0.127660  0.620800  1.0  -0.1407
  C  C426  1  0.447050  0.125890  0.664860  1.0  -0.0619
  C  C427  1  0.475450  0.110910  0.647600  1.0  -0.1042
  C  C428  1  0.476840  0.097490  0.590600  1.0  0.09
  C  C429  1  0.449640  0.100170  0.545300  1.0  -0.1748
  C  C430  1  0.420550  0.115180  0.562800  1.0  -0.0274
  C  C431  1  0.504640  0.078250  0.571400  1.0  -0.0396
  C  C432  1  0.486710  0.040710  0.536400  1.0  -0.0962
  C  C433  1  0.053980  0.476140  0.972480  1.0  0.6843
  C  C434  1  0.086090  0.460990  0.954130  1.0  -0.1407
  C  C435  1  0.113720  0.459220  0.998190  1.0  -0.0619
  C  C436  1  0.142120  0.444240  0.980930  1.0  -0.1042
  C  C437  1  0.143510  0.430820  0.923930  1.0  0.09
  C  C438  1  0.116310  0.433500  0.878630  1.0  -0.1748
  C  C439  1  0.087220  0.448510  0.896130  1.0  -0.0274
  C  C440  1  0.171310  0.411580  0.904730  1.0  -0.0396
  C  C441  1  0.153380  0.374040  0.869730  1.0  -0.0962
  C  C442  1  0.720640  0.809480  0.305820  1.0  0.6845
  C  C443  1  0.752750  0.794330  0.287470  1.0  -0.1407
  C  C444  1  0.780380  0.792560  0.331530  1.0  -0.0619
  C  C445  1  0.808780  0.777580  0.314270  1.0  -0.1042
  C  C446  1  0.810170  0.764160  0.257270  1.0  0.09
  C  C447  1  0.782970  0.766840  0.211970  1.0  -0.1748
  C  C448  1  0.753880  0.781850  0.229470  1.0  -0.0274
  C  C449  1  0.837970  0.744920  0.238070  1.0  -0.0396
  C  C450  1  0.820040  0.707380  0.203070  1.0  -0.0962
  C  C451  1  0.387310  0.244500  0.639150  1.0  0.6853
  C  C452  1  0.419420  0.291760  0.620800  1.0  -0.1396
  C  C453  1  0.447050  0.321160  0.664860  1.0  -0.0604
  C  C454  1  0.475450  0.364540  0.647600  1.0  -0.105
  C  C455  1  0.476840  0.379350  0.590600  1.0  0.0903
  C  C456  1  0.449640  0.349470  0.545300  1.0  -0.1758
  C  C457  1  0.420550  0.305370  0.562800  1.0  -0.029
  C  C458  1  0.504640  0.426390  0.571400  1.0  -0.0404
  C  C459  1  0.486710  0.446000  0.536400  1.0  -0.0943
  C  C460  1  0.053980  0.577830  0.972480  1.0  0.6854
  C  C461  1  0.086090  0.625090  0.954130  1.0  -0.1396
  C  C462  1  0.113720  0.654490  0.998190  1.0  -0.0603
  C  C463  1  0.142120  0.697870  0.980930  1.0  -0.105
  C  C464  1  0.143510  0.712680  0.923930  1.0  0.0903
  C  C465  1  0.116310  0.682800  0.878630  1.0  -0.1758
  C  C466  1  0.087220  0.638700  0.896130  1.0  -0.029
  C  C467  1  0.171310  0.759720  0.904730  1.0  -0.0404
  C  C468  1  0.153380  0.779330  0.869730  1.0  -0.0943
  C  C469  1  0.720640  0.911170  0.305820  1.0  0.6853
  C  C470  1  0.752750  0.958430  0.287470  1.0  -0.1396
  C  C471  1  0.780380  0.987830  0.331530  1.0  -0.0604
  C  C472  1  0.808780  0.031210  0.314270  1.0  -0.105
  C  C473  1  0.810170  0.046020  0.257270  1.0  0.0903
  C  C474  1  0.782970  0.016140  0.211970  1.0  -0.1758
  C  C475  1  0.753880  0.972040  0.229470  1.0  -0.029
  C  C476  1  0.837970  0.093060  0.238070  1.0  -0.0404
  C  C477  1  0.820040  0.112670  0.203070  1.0  -0.0943
  C  C478  1  0.755500  0.142810  0.639150  1.0  0.6831
  C  C479  1  0.708240  0.127660  0.620800  1.0  -0.1413
  C  C480  1  0.678840  0.125890  0.664860  1.0  -0.0614
  C  C481  1  0.635460  0.110910  0.647600  1.0  -0.1037
  C  C482  1  0.620650  0.097490  0.590600  1.0  0.0901
  C  C483  1  0.650530  0.100170  0.545300  1.0  -0.1745
  C  C484  1  0.694630  0.115180  0.562800  1.0  -0.0277
  C  C485  1  0.573610  0.078250  0.571400  1.0  -0.0378
  C  C486  1  0.554000  0.040710  0.536400  1.0  -0.0946
  C  C487  1  0.422170  0.476140  0.972480  1.0  0.683
  C  C488  1  0.374910  0.460990  0.954130  1.0  -0.1413
  C  C489  1  0.345510  0.459220  0.998190  1.0  -0.0614
  C  C490  1  0.302130  0.444240  0.980930  1.0  -0.1037
  C  C491  1  0.287320  0.430820  0.923930  1.0  0.0901
  C  C492  1  0.317200  0.433500  0.878630  1.0  -0.1745
  C  C493  1  0.361300  0.448510  0.896130  1.0  -0.0277
  C  C494  1  0.240280  0.411580  0.904730  1.0  -0.0378
  C  C495  1  0.220670  0.374040  0.869730  1.0  -0.0946
  C  C496  1  0.088830  0.809480  0.305820  1.0  0.6831
  C  C497  1  0.041570  0.794330  0.287470  1.0  -0.1413
  C  C498  1  0.012170  0.792560  0.331530  1.0  -0.0614
  C  C499  1  0.968790  0.777580  0.314270  1.0  -0.1037
  C  C500  1  0.953980  0.764160  0.257270  1.0  0.0901
  C  C501  1  0.983860  0.766840  0.211970  1.0  -0.1745
  C  C502  1  0.027960  0.781850  0.229470  1.0  -0.0277
  C  C503  1  0.906940  0.744920  0.238070  1.0  -0.0378
  C  C504  1  0.887330  0.707380  0.203070  1.0  -0.0946
  C  C505  1  0.857190  0.612690  0.639150  1.0  0.6846
  C  C506  1  0.872340  0.580580  0.620800  1.0  -0.1401
  C  C507  1  0.874110  0.552950  0.664860  1.0  -0.062
  C  C508  1  0.889090  0.524550  0.647600  1.0  -0.1022
  C  C509  1  0.902510  0.523160  0.590600  1.0  0.0909
  C  C510  1  0.899830  0.550360  0.545300  1.0  -0.1772
  C  C511  1  0.884820  0.579450  0.562800  1.0  -0.0304
  C  C512  1  0.921750  0.495360  0.571400  1.0  -0.0404
  C  C513  1  0.959290  0.513290  0.536400  1.0  -0.0919
  C  C514  1  0.523860  0.946020  0.972480  1.0  0.6844
  C  C515  1  0.539010  0.913910  0.954130  1.0  -0.1402
  C  C516  1  0.540780  0.886280  0.998190  1.0  -0.062
  C  C517  1  0.555760  0.857880  0.980930  1.0  -0.1022
  C  C518  1  0.569180  0.856490  0.923930  1.0  0.0909
  C  C519  1  0.566500  0.883690  0.878630  1.0  -0.1772
  C  C520  1  0.551490  0.912780  0.896130  1.0  -0.0304
  C  C521  1  0.588420  0.828690  0.904730  1.0  -0.0404
  C  C522  1  0.625960  0.846620  0.869730  1.0  -0.0919
  C  C523  1  0.190520  0.279360  0.305820  1.0  0.6846
  C  C524  1  0.205670  0.247250  0.287470  1.0  -0.1401
  C  C525  1  0.207440  0.219620  0.331530  1.0  -0.062
  C  C526  1  0.222420  0.191220  0.314270  1.0  -0.1022
  C  C527  1  0.235840  0.189830  0.257270  1.0  0.0909
  C  C528  1  0.233160  0.217030  0.211970  1.0  -0.1772
  C  C529  1  0.218150  0.246120  0.229470  1.0  -0.0304
  C  C530  1  0.255080  0.162030  0.238070  1.0  -0.0404
  C  C531  1  0.292620  0.179960  0.203070  1.0  -0.0919
  C  C532  1  0.244500  0.387310  0.360850  1.0  0.6843
  C  C533  1  0.291760  0.419420  0.379200  1.0  -0.1408
  C  C534  1  0.321160  0.447050  0.335140  1.0  -0.0609
  C  C535  1  0.364540  0.475450  0.352400  1.0  -0.1042
  C  C536  1  0.379350  0.476840  0.409400  1.0  0.0906
  C  C537  1  0.349470  0.449640  0.454700  1.0  -0.1822
  C  C538  1  0.305370  0.420550  0.437200  1.0  -0.03
  C  C539  1  0.426390  0.504640  0.428600  1.0  -0.041
  C  C540  1  0.446000  0.486710  0.463600  1.0  -0.0896
  C  C541  1  0.911170  0.720640  0.694180  1.0  0.6843
  C  C542  1  0.958430  0.752750  0.712530  1.0  -0.1408
  C  C543  1  0.987830  0.780380  0.668470  1.0  -0.0609
  C  C544  1  0.031210  0.808780  0.685730  1.0  -0.1042
  C  C545  1  0.046020  0.810170  0.742730  1.0  0.0906
  C  C546  1  0.016140  0.782970  0.788030  1.0  -0.1822
  C  C547  1  0.972040  0.753880  0.770530  1.0  -0.03
  C  C548  1  0.093060  0.837970  0.761930  1.0  -0.041
  C  C549  1  0.112670  0.820040  0.796930  1.0  -0.0896
  C  C550  1  0.577830  0.053980  0.027520  1.0  0.6844
  C  C551  1  0.625090  0.086090  0.045870  1.0  -0.1407
  C  C552  1  0.654490  0.113720  0.001810  1.0  -0.0609
  C  C553  1  0.697870  0.142120  0.019070  1.0  -0.1043
  C  C554  1  0.712680  0.143510  0.076070  1.0  0.0906
  C  C555  1  0.682800  0.116310  0.121370  1.0  -0.1822
  C  C556  1  0.638700  0.087220  0.103870  1.0  -0.03
  C  C557  1  0.759720  0.171310  0.095270  1.0  -0.041
  C  C558  1  0.779330  0.153380  0.130270  1.0  -0.0896
  C  C559  1  0.142810  0.755500  0.360850  1.0  0.6857
  C  C560  1  0.127660  0.708240  0.379200  1.0  -0.1398
  C  C561  1  0.125890  0.678840  0.335140  1.0  -0.0608
  C  C562  1  0.110910  0.635460  0.352400  1.0  -0.1062
  C  C563  1  0.097490  0.620650  0.409400  1.0  0.0907
  C  C564  1  0.100170  0.650530  0.454700  1.0  -0.1815
  C  C565  1  0.115180  0.694630  0.437200  1.0  -0.0303
  C  C566  1  0.078250  0.573610  0.428600  1.0  -0.0399
  C  C567  1  0.040710  0.554000  0.463600  1.0  -0.0944
  C  C568  1  0.809480  0.088830  0.694180  1.0  0.6857
  C  C569  1  0.794330  0.041570  0.712530  1.0  -0.1398
  C  C570  1  0.792560  0.012170  0.668470  1.0  -0.0608
  C  C571  1  0.777580  0.968790  0.685730  1.0  -0.1062
  C  C572  1  0.764160  0.953980  0.742730  1.0  0.0907
  C  C573  1  0.766840  0.983860  0.788030  1.0  -0.1815
  C  C574  1  0.781850  0.027960  0.770530  1.0  -0.0303
  C  C575  1  0.744920  0.906940  0.761930  1.0  -0.0399
  C  C576  1  0.707380  0.887330  0.796930  1.0  -0.0944
  C  C577  1  0.476140  0.422170  0.027520  1.0  0.6857
  C  C578  1  0.460990  0.374910  0.045870  1.0  -0.1398
  C  C579  1  0.459220  0.345510  0.001810  1.0  -0.0609
  C  C580  1  0.444240  0.302130  0.019070  1.0  -0.1062
  C  C581  1  0.430820  0.287320  0.076070  1.0  0.0907
  C  C582  1  0.433500  0.317200  0.121370  1.0  -0.1815
  C  C583  1  0.448510  0.361300  0.103870  1.0  -0.0303
  C  C584  1  0.411580  0.240280  0.095270  1.0  -0.0399
  C  C585  1  0.374040  0.220670  0.130270  1.0  -0.0944
  C  C586  1  0.612690  0.857190  0.360850  1.0  0.6828
  C  C587  1  0.580580  0.872340  0.379200  1.0  -0.1408
  C  C588  1  0.552950  0.874110  0.335140  1.0  -0.0618
  C  C589  1  0.524550  0.889090  0.352400  1.0  -0.1045
  C  C590  1  0.523160  0.902510  0.409400  1.0  0.0902
  C  C591  1  0.550360  0.899830  0.454700  1.0  -0.1808
  C  C592  1  0.579450  0.884820  0.437200  1.0  -0.026
  C  C593  1  0.495360  0.921750  0.428600  1.0  -0.0379
  C  C594  1  0.513290  0.959290  0.463600  1.0  -0.0949
  C  C595  1  0.279360  0.190520  0.694180  1.0  0.6828
  C  C596  1  0.247250  0.205670  0.712530  1.0  -0.1408
  C  C597  1  0.219620  0.207440  0.668470  1.0  -0.0618
  C  C598  1  0.191220  0.222420  0.685730  1.0  -0.1045
  C  C599  1  0.189830  0.235840  0.742730  1.0  0.0902
  C  C600  1  0.217030  0.233160  0.788030  1.0  -0.1808
  C  C601  1  0.246120  0.218150  0.770530  1.0  -0.026
  C  C602  1  0.162030  0.255080  0.761930  1.0  -0.0379
  C  C603  1  0.179960  0.292620  0.796930  1.0  -0.0949
  C  C604  1  0.946020  0.523860  0.027520  1.0  0.6827
  C  C605  1  0.913910  0.539010  0.045870  1.0  -0.1408
  C  C606  1  0.886280  0.540780  0.001810  1.0  -0.0618
  C  C607  1  0.857880  0.555760  0.019070  1.0  -0.1045
  C  C608  1  0.856490  0.569180  0.076070  1.0  0.0902
  C  C609  1  0.883690  0.566500  0.121370  1.0  -0.1808
  C  C610  1  0.912780  0.551490  0.103870  1.0  -0.026
  C  C611  1  0.828690  0.588420  0.095270  1.0  -0.0379
  C  C612  1  0.846620  0.625960  0.130270  1.0  -0.0949
  C  C613  1  0.489920  0.510080  0.481600  1.0  -0.0251
  C  C614  1  0.451350  0.548650  0.410800  1.0  0.2089
  C  C615  1  0.395420  0.604580  0.357300  1.0  -0.348
  C  C616  1  0.411670  0.588330  0.416800  1.0  -0.024
  C  C617  1  0.156590  0.843410  0.814930  1.0  -0.0251
  C  C618  1  0.118020  0.881980  0.744130  1.0  0.2089
  C  C619  1  0.062090  0.937910  0.690630  1.0  -0.348
  C  C620  1  0.078340  0.921660  0.750130  1.0  -0.024
  C  C621  1  0.823250  0.176750  0.148270  1.0  -0.0251
  C  C622  1  0.784680  0.215320  0.077470  1.0  0.2089
  C  C623  1  0.728750  0.271250  0.023970  1.0  -0.348
  C  C624  1  0.745000  0.255000  0.083470  1.0  -0.024
  C  C625  1  0.489920  0.979840  0.481600  1.0  -0.0262
  C  C626  1  0.451350  0.902700  0.410800  1.0  0.2086
  C  C627  1  0.395420  0.790840  0.357300  1.0  -0.3479
  C  C628  1  0.411670  0.823340  0.416800  1.0  -0.0262
  C  C629  1  0.156590  0.313170  0.814930  1.0  -0.0262
  C  C630  1  0.118020  0.236030  0.744130  1.0  0.2086
  C  C631  1  0.062090  0.124170  0.690630  1.0  -0.3479
  C  C632  1  0.078340  0.156670  0.750130  1.0  -0.0262
  C  C633  1  0.823250  0.646510  0.148270  1.0  -0.0262
  C  C634  1  0.784680  0.569370  0.077470  1.0  0.2086
  C  C635  1  0.728750  0.457510  0.023970  1.0  -0.3479
  C  C636  1  0.745000  0.490010  0.083470  1.0  -0.0262
  C  C637  1  0.020160  0.510080  0.481600  1.0  -0.0291
  C  C638  1  0.097300  0.548650  0.410800  1.0  0.209
  C  C639  1  0.209160  0.604580  0.357300  1.0  -0.3496
  C  C640  1  0.176660  0.588330  0.416800  1.0  -0.0251
  C  C641  1  0.686830  0.843410  0.814930  1.0  -0.0291
  C  C642  1  0.763970  0.881980  0.744130  1.0  0.209
  C  C643  1  0.875830  0.937910  0.690630  1.0  -0.3496
  C  C644  1  0.843330  0.921660  0.750130  1.0  -0.0251
  C  C645  1  0.353490  0.176750  0.148270  1.0  -0.0291
  C  C646  1  0.430630  0.215320  0.077470  1.0  0.209
  C  C647  1  0.542490  0.271250  0.023970  1.0  -0.3496
  C  C648  1  0.509990  0.255000  0.083470  1.0  -0.0251
  C  C649  1  0.510080  0.489920  0.518400  1.0  -0.024
  C  C650  1  0.548650  0.451350  0.589200  1.0  0.2085
  C  C651  1  0.604580  0.395420  0.642700  1.0  -0.3493
  C  C652  1  0.588330  0.411670  0.583200  1.0  -0.0274
  C  C653  1  0.176750  0.823250  0.851730  1.0  -0.024
  C  C654  1  0.215320  0.784680  0.922530  1.0  0.2085
  C  C655  1  0.271250  0.728750  0.976030  1.0  -0.3493
  C  C656  1  0.255000  0.745000  0.916530  1.0  -0.0274
  C  C657  1  0.843410  0.156590  0.185070  1.0  -0.024
  C  C658  1  0.881980  0.118020  0.255870  1.0  0.2085
  C  C659  1  0.937910  0.062090  0.309370  1.0  -0.3493
  C  C660  1  0.921660  0.078340  0.249870  1.0  -0.0274
  C  C661  1  0.979840  0.489920  0.518400  1.0  -0.0291
  C  C662  1  0.902700  0.451350  0.589200  1.0  0.208
  C  C663  1  0.790840  0.395420  0.642700  1.0  -0.3493
  C  C664  1  0.823340  0.411670  0.583200  1.0  -0.025
  C  C665  1  0.646510  0.823250  0.851730  1.0  -0.0291
  C  C666  1  0.569370  0.784680  0.922530  1.0  0.208
  C  C667  1  0.457510  0.728750  0.976030  1.0  -0.3493
  C  C668  1  0.490010  0.745000  0.916530  1.0  -0.025
  C  C669  1  0.313170  0.156590  0.185070  1.0  -0.0291
  C  C670  1  0.236030  0.118020  0.255870  1.0  0.208
  C  C671  1  0.124170  0.062090  0.309370  1.0  -0.3493
  C  C672  1  0.156670  0.078340  0.249870  1.0  -0.025
  C  C673  1  0.510080  0.020160  0.518400  1.0  -0.0257
  C  C674  1  0.548650  0.097300  0.589200  1.0  0.2079
  C  C675  1  0.604580  0.209160  0.642700  1.0  -0.3493
  C  C676  1  0.588330  0.176660  0.583200  1.0  -0.0299
  C  C677  1  0.176750  0.353490  0.851730  1.0  -0.0257
  C  C678  1  0.215320  0.430630  0.922530  1.0  0.2079
  C  C679  1  0.271250  0.542490  0.976030  1.0  -0.3493
  C  C680  1  0.255000  0.509990  0.916530  1.0  -0.0299
  C  C681  1  0.843410  0.686830  0.185070  1.0  -0.0257
  C  C682  1  0.881980  0.763970  0.255870  1.0  0.2079
  C  C683  1  0.937910  0.875830  0.309370  1.0  -0.3493
  C  C684  1  0.921660  0.843330  0.249870  1.0  -0.0299
  O  O685  1  0.637510  0.779950  0.403320  1.0  -0.5795
  O  O686  1  0.610970  0.766360  0.307590  1.0  -0.5598
  O  O687  1  0.304180  0.113280  0.736650  1.0  -0.579
  O  O688  1  0.277640  0.099690  0.640920  1.0  -0.5591
  O  O689  1  0.970840  0.446620  0.069990  1.0  -0.5794
  O  O690  1  0.944300  0.433030  0.974260  1.0  -0.5598
  O  O691  1  0.220050  0.857560  0.403320  1.0  -0.5796
  O  O692  1  0.233640  0.844610  0.307590  1.0  -0.5596
  O  O693  1  0.886720  0.190890  0.736650  1.0  -0.5796
  O  O694  1  0.900310  0.177940  0.640920  1.0  -0.5596
  O  O695  1  0.553380  0.524230  0.069990  1.0  -0.5796
  O  O696  1  0.566970  0.511280  0.974260  1.0  -0.5594
  O  O697  1  0.142440  0.362490  0.403320  1.0  -0.5807
  O  O698  1  0.155390  0.389030  0.307590  1.0  -0.5597
  O  O699  1  0.809110  0.695820  0.736650  1.0  -0.5811
  O  O700  1  0.822060  0.722360  0.640920  1.0  -0.561
  O  O701  1  0.475770  0.029160  0.069990  1.0  -0.5806
  O  O702  1  0.488720  0.055700  0.974260  1.0  -0.5598
  O  O703  1  0.779950  0.637510  0.596680  1.0  -0.5817
  O  O704  1  0.766360  0.610970  0.692410  1.0  -0.5603
  O  O705  1  0.446620  0.970840  0.930010  1.0  -0.5816
  O  O706  1  0.433030  0.944300  0.025740  1.0  -0.5603
  O  O707  1  0.113280  0.304180  0.263350  1.0  -0.5812
  O  O708  1  0.099690  0.277640  0.359080  1.0  -0.5595
  O  O709  1  0.857560  0.220050  0.596680  1.0  -0.5806
  O  O710  1  0.844610  0.233640  0.692410  1.0  -0.5595
  O  O711  1  0.524230  0.553380  0.930010  1.0  -0.5805
  O  O712  1  0.511280  0.566970  0.025740  1.0  -0.5594
  O  O713  1  0.190890  0.886720  0.263350  1.0  -0.5806
  O  O714  1  0.177940  0.900310  0.359080  1.0  -0.5596
  O  O715  1  0.362490  0.142440  0.596680  1.0  -0.5812
  O  O716  1  0.389030  0.155390  0.692410  1.0  -0.5594
  O  O717  1  0.029160  0.475770  0.930010  1.0  -0.5811
  O  O718  1  0.055700  0.488720  0.025740  1.0  -0.5593
  O  O719  1  0.695820  0.809110  0.263350  1.0  -0.5817
  O  O720  1  0.722360  0.822060  0.359080  1.0  -0.5599
  O  O721  1  0.362490  0.220050  0.596680  1.0  -0.5814
  O  O722  1  0.389030  0.233640  0.692410  1.0  -0.5593
  O  O723  1  0.029160  0.553380  0.930010  1.0  -0.5813
  O  O724  1  0.055700  0.566970  0.025740  1.0  -0.5593
  O  O725  1  0.695820  0.886720  0.263350  1.0  -0.5809
  O  O726  1  0.722360  0.900310  0.359080  1.0  -0.5588
  O  O727  1  0.779950  0.142440  0.596680  1.0  -0.5815
  O  O728  1  0.766360  0.155390  0.692410  1.0  -0.5603
  O  O729  1  0.446620  0.475770  0.930010  1.0  -0.5815
  O  O730  1  0.433030  0.488720  0.025740  1.0  -0.5602
  O  O731  1  0.113280  0.809110  0.263350  1.0  -0.5815
  O  O732  1  0.099690  0.822060  0.359080  1.0  -0.5603
  O  O733  1  0.857560  0.637510  0.596680  1.0  -0.5816
  O  O734  1  0.844610  0.610970  0.692410  1.0  -0.5597
  O  O735  1  0.524230  0.970840  0.930010  1.0  -0.5815
  O  O736  1  0.511280  0.944300  0.025740  1.0  -0.5598
  O  O737  1  0.190890  0.304180  0.263350  1.0  -0.582
  O  O738  1  0.177940  0.277640  0.359080  1.0  -0.5605
  O  O739  1  0.220050  0.362490  0.403320  1.0  -0.5813
  O  O740  1  0.233640  0.389030  0.307590  1.0  -0.5612
  O  O741  1  0.886720  0.695820  0.736650  1.0  -0.5807
  O  O742  1  0.900310  0.722360  0.640920  1.0  -0.5599
  O  O743  1  0.553380  0.029160  0.069990  1.0  -0.5812
  O  O744  1  0.566970  0.055700  0.974260  1.0  -0.5613
  O  O745  1  0.142440  0.779950  0.403320  1.0  -0.5798
  O  O746  1  0.155390  0.766360  0.307590  1.0  -0.5594
  O  O747  1  0.809110  0.113280  0.736650  1.0  -0.5798
  O  O748  1  0.822060  0.099690  0.640920  1.0  -0.5594
  O  O749  1  0.475770  0.446620  0.069990  1.0  -0.5797
  O  O750  1  0.488720  0.433030  0.974260  1.0  -0.5592
  O  O751  1  0.637510  0.857560  0.403320  1.0  -0.5798
  O  O752  1  0.610970  0.844610  0.307590  1.0  -0.5593
  O  O753  1  0.304180  0.190890  0.736650  1.0  -0.58
  O  O754  1  0.277640  0.177940  0.640920  1.0  -0.5601
  O  O755  1  0.970840  0.524230  0.069990  1.0  -0.5797
  O  O756  1  0.944300  0.511280  0.974260  1.0  -0.5593
  O  O757  1  0.432570  0.567430  0.375300  1.0  -0.4411
  O  O758  1  0.099240  0.900760  0.708630  1.0  -0.4411
  O  O759  1  0.765900  0.234100  0.041970  1.0  -0.4411
  O  O760  1  0.432570  0.865140  0.375300  1.0  -0.441
  O  O761  1  0.099240  0.198470  0.708630  1.0  -0.441
  O  O762  1  0.765900  0.531810  0.041970  1.0  -0.4411
  O  O763  1  0.134860  0.567430  0.375300  1.0  -0.4411
  O  O764  1  0.801530  0.900760  0.708630  1.0  -0.4411
  O  O765  1  0.468190  0.234100  0.041970  1.0  -0.4411
  O  O766  1  0.567430  0.432570  0.624700  1.0  -0.442
  O  O767  1  0.234100  0.765900  0.958030  1.0  -0.442
  O  O768  1  0.900760  0.099240  0.291370  1.0  -0.442
  O  O769  1  0.865140  0.432570  0.624700  1.0  -0.4423
  O  O770  1  0.531810  0.765900  0.958030  1.0  -0.4423
  O  O771  1  0.198470  0.099240  0.291370  1.0  -0.4423
  O  O772  1  0.567430  0.134860  0.624700  1.0  -0.4418
  O  O773  1  0.234100  0.468190  0.958030  1.0  -0.4418
  O  O774  1  0.900760  0.801530  0.291370  1.0  -0.4418
