# generated using pymatgen
data_CuH15C22O5
_symmetry_space_group_name_H-M   'P 1'
_cell_length_a   35.13140000
_cell_length_b   35.13140000
_cell_length_c   22.41160000
_cell_angle_alpha   90.00000000
_cell_angle_beta   90.00000000
_cell_angle_gamma   120.00000000
_symmetry_Int_Tables_number   1
_chemical_formula_structural   CuH15C22O5
_chemical_formula_sum   'Cu18 H270 C396 O90'
_cell_volume   23954.90253552
_cell_formula_units_Z   18
loop_
 _symmetry_equiv_pos_site_id
 _symmetry_equiv_pos_as_xyz
  1  'x, y, z'
loop_
 _atom_site_type_symbol
 _atom_site_label
 _atom_site_symmetry_multiplicity
 _atom_site_fract_x
 _atom_site_fract_y
 _atom_site_fract_z
 _atom_site_occupancy
 _atom_site_charge
  Cu  Cu1  1  0.318160  0.159080  0.112610  1.0  0.9305
  Cu  Cu2  1  0.984830  0.492410  0.445940  1.0  0.9341
  Cu  Cu3  1  0.651490  0.825750  0.779280  1.0  0.9305
  Cu  Cu4  1  0.840920  0.159080  0.112610  1.0  0.9314
  Cu  Cu5  1  0.507590  0.492410  0.445940  1.0  0.9317
  Cu  Cu6  1  0.174250  0.825750  0.779280  1.0  0.9314
  Cu  Cu7  1  0.840920  0.681840  0.112610  1.0  0.931
  Cu  Cu8  1  0.507590  0.015170  0.445940  1.0  0.9342
  Cu  Cu9  1  0.174250  0.348510  0.779280  1.0  0.931
  Cu  Cu10  1  0.159080  0.318160  0.887390  1.0  0.9319
  Cu  Cu11  1  0.825750  0.651490  0.220720  1.0  0.9319
  Cu  Cu12  1  0.492410  0.984830  0.554060  1.0  0.9348
  Cu  Cu13  1  0.159080  0.840920  0.887390  1.0  0.9322
  Cu  Cu14  1  0.825750  0.174250  0.220720  1.0  0.9322
  Cu  Cu15  1  0.492410  0.507590  0.554060  1.0  0.9325
  Cu  Cu16  1  0.681840  0.840920  0.887390  1.0  0.9314
  Cu  Cu17  1  0.348510  0.174250  0.220720  1.0  0.9314
  Cu  Cu18  1  0.015170  0.507590  0.554060  1.0  0.9348
  H  H19  1  0.445700  0.312700  0.204100  1.0  0.1027
  H  H20  1  0.490700  0.384900  0.180700  1.0  0.1091
  H  H21  1  0.449900  0.358500  0.009100  1.0  0.1247
  H  H22  1  0.402100  0.286500  0.036500  1.0  0.1029
  H  H23  1  0.457100  0.429600  0.026600  1.0  0.1069
  H  H24  1  0.609400  0.435500  0.074200  1.0  0.0798
  H  H25  1  0.580300  0.375100  0.169800  1.0  0.114
  H  H26  1  0.112370  0.646030  0.537430  1.0  0.1027
  H  H27  1  0.157370  0.718230  0.514030  1.0  0.1091
  H  H28  1  0.116570  0.691830  0.342430  1.0  0.1247
  H  H29  1  0.068770  0.619830  0.369830  1.0  0.1029
  H  H30  1  0.123770  0.762930  0.359930  1.0  0.1069
  H  H31  1  0.276070  0.768830  0.407530  1.0  0.0801
  H  H32  1  0.246970  0.708430  0.503130  1.0  0.114
  H  H33  1  0.779030  0.979370  0.870770  1.0  0.1026
  H  H34  1  0.824030  0.051570  0.847370  1.0  0.1091
  H  H35  1  0.783230  0.025170  0.675770  1.0  0.1247
  H  H36  1  0.735430  0.953170  0.703170  1.0  0.1045
  H  H37  1  0.790430  0.096270  0.693270  1.0  0.1069
  H  H38  1  0.942730  0.102170  0.740870  1.0  0.0801
  H  H39  1  0.913630  0.041770  0.836470  1.0  0.1133
  H  H40  1  0.687300  0.133000  0.204100  1.0  0.1029
  H  H41  1  0.615100  0.105800  0.180700  1.0  0.1106
  H  H42  1  0.641500  0.091400  0.009100  1.0  0.1244
  H  H43  1  0.713500  0.115600  0.036500  1.0  0.1049
  H  H44  1  0.570400  0.027500  0.026600  1.0  0.1078
  H  H45  1  0.564500  0.173900  0.074200  1.0  0.0791
  H  H46  1  0.624900  0.205200  0.169800  1.0  0.1101
  H  H47  1  0.353970  0.466330  0.537430  1.0  0.1029
  H  H48  1  0.281770  0.439130  0.514030  1.0  0.1092
  H  H49  1  0.308170  0.424730  0.342430  1.0  0.1248
  H  H50  1  0.380170  0.448930  0.369830  1.0  0.1052
  H  H51  1  0.237070  0.360830  0.359930  1.0  0.1078
  H  H52  1  0.231170  0.507230  0.407530  1.0  0.0817
  H  H53  1  0.291570  0.538530  0.503130  1.0  0.1101
  H  H54  1  0.020630  0.799670  0.870770  1.0  0.1029
  H  H55  1  0.948430  0.772470  0.847370  1.0  0.1112
  H  H56  1  0.974830  0.758070  0.675770  1.0  0.125
  H  H57  1  0.046830  0.782270  0.703170  1.0  0.1052
  H  H58  1  0.903730  0.694170  0.693270  1.0  0.1078
  H  H59  1  0.897830  0.840570  0.740870  1.0  0.0773
  H  H60  1  0.958230  0.871870  0.836470  1.0  0.11
  H  H61  1  0.867000  0.554300  0.204100  1.0  0.1031
  H  H62  1  0.894200  0.509300  0.180700  1.0  0.11
  H  H63  1  0.908600  0.550100  0.009100  1.0  0.1241
  H  H64  1  0.884400  0.597900  0.036500  1.0  0.1048
  H  H65  1  0.972500  0.542900  0.026600  1.0  0.1077
  H  H66  1  0.826100  0.390600  0.074200  1.0  0.0796
  H  H67  1  0.794800  0.419700  0.169800  1.0  0.1137
  H  H68  1  0.533670  0.887630  0.537430  1.0  0.1031
  H  H69  1  0.560870  0.842630  0.514030  1.0  0.1116
  H  H70  1  0.575270  0.883430  0.342430  1.0  0.1241
  H  H71  1  0.551070  0.931230  0.369830  1.0  0.1048
  H  H72  1  0.639170  0.876230  0.359930  1.0  0.1077
  H  H73  1  0.492770  0.723930  0.407530  1.0  0.0794
  H  H74  1  0.461470  0.753030  0.503130  1.0  0.1137
  H  H75  1  0.200330  0.220970  0.870770  1.0  0.1033
  H  H76  1  0.227530  0.175970  0.847370  1.0  0.109
  H  H77  1  0.241930  0.216770  0.675770  1.0  0.1245
  H  H78  1  0.217730  0.264570  0.703170  1.0  0.103
  H  H79  1  0.305830  0.209570  0.693270  1.0  0.1077
  H  H80  1  0.159430  0.057270  0.740870  1.0  0.0817
  H  H81  1  0.128130  0.086370  0.836470  1.0  0.1158
  H  H82  1  0.312700  0.445700  0.795900  1.0  0.1029
  H  H83  1  0.384900  0.490700  0.819300  1.0  0.1091
  H  H84  1  0.358500  0.449900  0.990900  1.0  0.1255
  H  H85  1  0.286500  0.402100  0.963500  1.0  0.1034
  H  H86  1  0.429600  0.457100  0.973400  1.0  0.1086
  H  H87  1  0.435500  0.609400  0.925800  1.0  0.0792
  H  H88  1  0.375100  0.580300  0.830200  1.0  0.113
  H  H89  1  0.979370  0.779030  0.129230  1.0  0.1034
  H  H90  1  0.051570  0.824030  0.152630  1.0  0.1091
  H  H91  1  0.025170  0.783230  0.324230  1.0  0.1251
  H  H92  1  0.953170  0.735430  0.296830  1.0  0.1045
  H  H93  1  0.096270  0.790430  0.306730  1.0  0.1086
  H  H94  1  0.102170  0.942730  0.259130  1.0  0.0799
  H  H95  1  0.041770  0.913630  0.163530  1.0  0.1122
  H  H96  1  0.646030  0.112370  0.462570  1.0  0.1029
  H  H97  1  0.718230  0.157370  0.485970  1.0  0.1091
  H  H98  1  0.691830  0.116570  0.657570  1.0  0.1255
  H  H99  1  0.619830  0.068770  0.630170  1.0  0.1034
  H  H100  1  0.762930  0.123770  0.640070  1.0  0.1086
  H  H101  1  0.768830  0.276070  0.592470  1.0  0.0794
  H  H102  1  0.708430  0.246970  0.496870  1.0  0.113
  H  H103  1  0.133000  0.687300  0.795900  1.0  0.1029
  H  H104  1  0.105800  0.615100  0.819300  1.0  0.1103
  H  H105  1  0.091400  0.641500  0.990900  1.0  0.1243
  H  H106  1  0.115600  0.713500  0.963500  1.0  0.1042
  H  H107  1  0.027500  0.570400  0.973400  1.0  0.1069
  H  H108  1  0.173900  0.564500  0.925800  1.0  0.0806
  H  H109  1  0.205200  0.624900  0.830200  1.0  0.1136
  H  H110  1  0.799670  0.020630  0.129230  1.0  0.1029
  H  H111  1  0.772470  0.948430  0.152630  1.0  0.111
  H  H112  1  0.758070  0.974830  0.324230  1.0  0.1253
  H  H113  1  0.782270  0.046830  0.296830  1.0  0.1042
  H  H114  1  0.694170  0.903730  0.306730  1.0  0.1069
  H  H115  1  0.840570  0.897830  0.259130  1.0  0.0794
  H  H116  1  0.871870  0.958230  0.163530  1.0  0.1128
  H  H117  1  0.466330  0.353970  0.462570  1.0  0.1029
  H  H118  1  0.439130  0.281770  0.485970  1.0  0.1087
  H  H119  1  0.424730  0.308170  0.657570  1.0  0.1247
  H  H120  1  0.448930  0.380170  0.630170  1.0  0.1042
  H  H121  1  0.360830  0.237070  0.640070  1.0  0.1069
  H  H122  1  0.507230  0.231170  0.592470  1.0  0.0831
  H  H123  1  0.538530  0.291570  0.496870  1.0  0.1136
  H  H124  1  0.554300  0.867000  0.795900  1.0  0.1026
  H  H125  1  0.509300  0.894200  0.819300  1.0  0.1102
  H  H126  1  0.550100  0.908600  0.990900  1.0  0.1251
  H  H127  1  0.597900  0.884400  0.963500  1.0  0.1043
  H  H128  1  0.542900  0.972500  0.973400  1.0  0.108
  H  H129  1  0.390600  0.826100  0.925800  1.0  0.0788
  H  H130  1  0.419700  0.794800  0.830200  1.0  0.1108
  H  H131  1  0.220970  0.200330  0.129230  1.0  0.1022
  H  H132  1  0.175970  0.227530  0.152630  1.0  0.1097
  H  H133  1  0.216770  0.241930  0.324230  1.0  0.1252
  H  H134  1  0.264570  0.217730  0.296830  1.0  0.1035
  H  H135  1  0.209570  0.305830  0.306730  1.0  0.108
  H  H136  1  0.057270  0.159430  0.259130  1.0  0.0806
  H  H137  1  0.086370  0.128130  0.163530  1.0  0.1125
  H  H138  1  0.887630  0.533670  0.462570  1.0  0.1026
  H  H139  1  0.842630  0.560870  0.485970  1.0  0.1121
  H  H140  1  0.883430  0.575270  0.657570  1.0  0.1251
  H  H141  1  0.931230  0.551070  0.630170  1.0  0.1043
  H  H142  1  0.876230  0.639170  0.640070  1.0  0.108
  H  H143  1  0.723930  0.492770  0.592470  1.0  0.0785
  H  H144  1  0.753030  0.461470  0.496870  1.0  0.1108
  H  H145  1  0.554300  0.687300  0.795900  1.0  0.1026
  H  H146  1  0.509300  0.615100  0.819300  1.0  0.109
  H  H147  1  0.550100  0.641500  0.990900  1.0  0.1253
  H  H148  1  0.597900  0.713500  0.963500  1.0  0.1028
  H  H149  1  0.542900  0.570400  0.973400  1.0  0.107
  H  H150  1  0.390600  0.564500  0.925800  1.0  0.0811
  H  H151  1  0.419700  0.624900  0.830200  1.0  0.1121
  H  H152  1  0.220970  0.020630  0.129230  1.0  0.1029
  H  H153  1  0.175970  0.948430  0.152630  1.0  0.109
  H  H154  1  0.216770  0.974830  0.324230  1.0  0.1248
  H  H155  1  0.264570  0.046830  0.296830  1.0  0.1041
  H  H156  1  0.209570  0.903730  0.306730  1.0  0.107
  H  H157  1  0.057270  0.897830  0.259130  1.0  0.0819
  H  H158  1  0.086370  0.958230  0.163530  1.0  0.1119
  H  H159  1  0.887630  0.353970  0.462570  1.0  0.1026
  H  H160  1  0.842630  0.281770  0.485970  1.0  0.109
  H  H161  1  0.883430  0.308170  0.657570  1.0  0.1253
  H  H162  1  0.931230  0.380170  0.630170  1.0  0.1028
  H  H163  1  0.876230  0.237070  0.640070  1.0  0.107
  H  H164  1  0.723930  0.231170  0.592470  1.0  0.0813
  H  H165  1  0.753030  0.291570  0.496870  1.0  0.1121
  H  H166  1  0.312700  0.867000  0.795900  1.0  0.1028
  H  H167  1  0.384900  0.894200  0.819300  1.0  0.1112
  H  H168  1  0.358500  0.908600  0.990900  1.0  0.1246
  H  H169  1  0.286500  0.884400  0.963500  1.0  0.1045
  H  H170  1  0.429600  0.972500  0.973400  1.0  0.1069
  H  H171  1  0.435500  0.826100  0.925800  1.0  0.0771
  H  H172  1  0.375100  0.794800  0.830200  1.0  0.1116
  H  H173  1  0.979370  0.200330  0.129230  1.0  0.1028
  H  H174  1  0.051570  0.227530  0.152630  1.0  0.1117
  H  H175  1  0.025170  0.241930  0.324230  1.0  0.1256
  H  H176  1  0.953170  0.217730  0.296830  1.0  0.1046
  H  H177  1  0.096270  0.305830  0.306730  1.0  0.1069
  H  H178  1  0.102170  0.159430  0.259130  1.0  0.0749
  H  H179  1  0.041770  0.128130  0.163530  1.0  0.1107
  H  H180  1  0.646030  0.533670  0.462570  1.0  0.1028
  H  H181  1  0.718230  0.560870  0.485970  1.0  0.1094
  H  H182  1  0.691830  0.575270  0.657570  1.0  0.1249
  H  H183  1  0.619830  0.551070  0.630170  1.0  0.1046
  H  H184  1  0.762930  0.639170  0.640070  1.0  0.1069
  H  H185  1  0.768830  0.492770  0.592470  1.0  0.0797
  H  H186  1  0.708430  0.461470  0.496870  1.0  0.1116
  H  H187  1  0.133000  0.445700  0.795900  1.0  0.1031
  H  H188  1  0.105800  0.490700  0.819300  1.0  0.1096
  H  H189  1  0.091400  0.449900  0.990900  1.0  0.1251
  H  H190  1  0.115600  0.402100  0.963500  1.0  0.1042
  H  H191  1  0.027500  0.457100  0.973400  1.0  0.1084
  H  H192  1  0.173900  0.609400  0.925800  1.0  0.0796
  H  H193  1  0.205200  0.580300  0.830200  1.0  0.1135
  H  H194  1  0.799670  0.779030  0.129230  1.0  0.1027
  H  H195  1  0.772470  0.824030  0.152630  1.0  0.1089
  H  H196  1  0.758070  0.783230  0.324230  1.0  0.1255
  H  H197  1  0.782270  0.735430  0.296830  1.0  0.1033
  H  H198  1  0.694170  0.790430  0.306730  1.0  0.1084
  H  H199  1  0.840570  0.942730  0.259130  1.0  0.0817
  H  H200  1  0.871870  0.913630  0.163530  1.0  0.1159
  H  H201  1  0.466330  0.112370  0.462570  1.0  0.1031
  H  H202  1  0.439130  0.157370  0.485970  1.0  0.1115
  H  H203  1  0.424730  0.116570  0.657570  1.0  0.1251
  H  H204  1  0.448930  0.068770  0.630170  1.0  0.1042
  H  H205  1  0.360830  0.123770  0.640070  1.0  0.1084
  H  H206  1  0.507230  0.276070  0.592470  1.0  0.0796
  H  H207  1  0.538530  0.246970  0.496870  1.0  0.1135
  H  H208  1  0.687300  0.554300  0.204100  1.0  0.103
  H  H209  1  0.615100  0.509300  0.180700  1.0  0.1093
  H  H210  1  0.641500  0.550100  0.009100  1.0  0.1245
  H  H211  1  0.713500  0.597900  0.036500  1.0  0.1031
  H  H212  1  0.570400  0.542900  0.026600  1.0  0.1076
  H  H213  1  0.564500  0.390600  0.074200  1.0  0.0796
  H  H214  1  0.624900  0.419700  0.169800  1.0  0.1141
  H  H215  1  0.353970  0.887630  0.537430  1.0  0.103
  H  H216  1  0.281770  0.842630  0.514030  1.0  0.1093
  H  H217  1  0.308170  0.883430  0.342430  1.0  0.1245
  H  H218  1  0.380170  0.931230  0.369830  1.0  0.1031
  H  H219  1  0.237070  0.876230  0.359930  1.0  0.1076
  H  H220  1  0.231170  0.723930  0.407530  1.0  0.0797
  H  H221  1  0.291570  0.753030  0.503130  1.0  0.1141
  H  H222  1  0.020630  0.220970  0.870770  1.0  0.1031
  H  H223  1  0.948430  0.175970  0.847370  1.0  0.1093
  H  H224  1  0.974830  0.216770  0.675770  1.0  0.1244
  H  H225  1  0.046830  0.264570  0.703170  1.0  0.1048
  H  H226  1  0.903730  0.209570  0.693270  1.0  0.1076
  H  H227  1  0.897830  0.057270  0.740870  1.0  0.0793
  H  H228  1  0.958230  0.086370  0.836470  1.0  0.1132
  H  H229  1  0.867000  0.312700  0.204100  1.0  0.1027
  H  H230  1  0.894200  0.384900  0.180700  1.0  0.1103
  H  H231  1  0.908600  0.358500  0.009100  1.0  0.1239
  H  H232  1  0.884400  0.286500  0.036500  1.0  0.1045
  H  H233  1  0.972500  0.429600  0.026600  1.0  0.1072
  H  H234  1  0.826100  0.435500  0.074200  1.0  0.0807
  H  H235  1  0.794800  0.375100  0.169800  1.0  0.1135
  H  H236  1  0.533670  0.646030  0.537430  1.0  0.1027
  H  H237  1  0.560870  0.718230  0.514030  1.0  0.1089
  H  H238  1  0.575270  0.691830  0.342430  1.0  0.1243
  H  H239  1  0.551070  0.619830  0.369830  1.0  0.1047
  H  H240  1  0.639170  0.762930  0.359930  1.0  0.1072
  H  H241  1  0.492770  0.768830  0.407530  1.0  0.0833
  H  H242  1  0.461470  0.708430  0.503130  1.0  0.1135
  H  H243  1  0.200330  0.979370  0.870770  1.0  0.1027
  H  H244  1  0.227530  0.051570  0.847370  1.0  0.1108
  H  H245  1  0.241930  0.025170  0.675770  1.0  0.1243
  H  H246  1  0.217730  0.953170  0.703170  1.0  0.1047
  H  H247  1  0.305830  0.096270  0.693270  1.0  0.1072
  H  H248  1  0.159430  0.102170  0.740870  1.0  0.0788
  H  H249  1  0.128130  0.041770  0.836470  1.0  0.1125
  H  H250  1  0.445700  0.133000  0.204100  1.0  0.1027
  H  H251  1  0.490700  0.105800  0.180700  1.0  0.1105
  H  H252  1  0.449900  0.091400  0.009100  1.0  0.1242
  H  H253  1  0.402100  0.115600  0.036500  1.0  0.1047
  H  H254  1  0.457100  0.027500  0.026600  1.0  0.1071
  H  H255  1  0.609400  0.173900  0.074200  1.0  0.077
  H  H256  1  0.580300  0.205200  0.169800  1.0  0.1132
  H  H257  1  0.112370  0.466330  0.537430  1.0  0.1027
  H  H258  1  0.157370  0.439130  0.514030  1.0  0.1119
  H  H259  1  0.116570  0.424730  0.342430  1.0  0.1242
  H  H260  1  0.068770  0.448930  0.369830  1.0  0.1047
  H  H261  1  0.123770  0.360830  0.359930  1.0  0.1071
  H  H262  1  0.276070  0.507230  0.407530  1.0  0.077
  H  H263  1  0.246970  0.538530  0.503130  1.0  0.1132
  H  H264  1  0.779030  0.799670  0.870770  1.0  0.1029
  H  H265  1  0.824030  0.772470  0.847370  1.0  0.1096
  H  H266  1  0.783230  0.758070  0.675770  1.0  0.1246
  H  H267  1  0.735430  0.782270  0.703170  1.0  0.1033
  H  H268  1  0.790430  0.694170  0.693270  1.0  0.1071
  H  H269  1  0.942730  0.840570  0.740870  1.0  0.0793
  H  H270  1  0.913630  0.871870  0.836470  1.0  0.1149
  H  H271  1  0.617900  0.382100  0.125800  1.0  0.1232
  H  H272  1  0.284570  0.715430  0.459130  1.0  0.1136
  H  H273  1  0.951230  0.048770  0.792470  1.0  0.1159
  H  H274  1  0.617900  0.235800  0.125800  1.0  0.122
  H  H275  1  0.284570  0.569130  0.459130  1.0  0.1144
  H  H276  1  0.951230  0.902470  0.792470  1.0  0.1129
  H  H277  1  0.764200  0.382100  0.125800  1.0  0.12
  H  H278  1  0.430870  0.715430  0.459130  1.0  0.1113
  H  H279  1  0.097530  0.048770  0.792470  1.0  0.1105
  H  H280  1  0.382100  0.617900  0.874200  1.0  0.1202
  H  H281  1  0.048770  0.951230  0.207530  1.0  0.1138
  H  H282  1  0.715430  0.284570  0.540870  1.0  0.1111
  H  H283  1  0.235800  0.617900  0.874200  1.0  0.123
  H  H284  1  0.902470  0.951230  0.207530  1.0  0.114
  H  H285  1  0.569130  0.284570  0.540870  1.0  0.1145
  H  H286  1  0.382100  0.764200  0.874200  1.0  0.1209
  H  H287  1  0.048770  0.097530  0.207530  1.0  0.1117
  H  H288  1  0.715430  0.430870  0.540870  1.0  0.1126
  C  C289  1  0.387810  0.244630  0.139680  1.0  0.6751
  C  C290  1  0.418600  0.292030  0.122970  1.0  -0.1453
  C  C291  1  0.445980  0.322110  0.165240  1.0  -0.0369
  C  C292  1  0.473360  0.365360  0.151100  1.0  -0.1225
  C  C293  1  0.475600  0.380490  0.093400  1.0  0.0519
  C  C294  1  0.448580  0.349700  0.048500  1.0  -0.183
  C  C295  1  0.420360  0.306410  0.065100  1.0  -0.0261
  C  C296  1  0.503370  0.427610  0.074510  1.0  -0.0457
  C  C297  1  0.486150  0.446670  0.038800  1.0  -0.0968
  C  C298  1  0.054480  0.577960  0.473010  1.0  0.6751
  C  C299  1  0.085270  0.625360  0.456300  1.0  -0.1453
  C  C300  1  0.112650  0.655440  0.498570  1.0  -0.0369
  C  C301  1  0.140030  0.698690  0.484430  1.0  -0.1225
  C  C302  1  0.142270  0.713820  0.426730  1.0  0.0519
  C  C303  1  0.115250  0.683030  0.381830  1.0  -0.183
  C  C304  1  0.087030  0.639740  0.398430  1.0  -0.0261
  C  C305  1  0.170040  0.760940  0.407840  1.0  -0.0457
  C  C306  1  0.152820  0.780000  0.372130  1.0  -0.0972
  C  C307  1  0.721140  0.911300  0.806350  1.0  0.6751
  C  C308  1  0.751930  0.958700  0.789640  1.0  -0.1453
  C  C309  1  0.779310  0.988780  0.831910  1.0  -0.0369
  C  C310  1  0.806690  0.032030  0.817770  1.0  -0.1225
  C  C311  1  0.808930  0.047160  0.760070  1.0  0.0519
  C  C312  1  0.781910  0.016370  0.715170  1.0  -0.183
  C  C313  1  0.753690  0.973080  0.731770  1.0  -0.0261
  C  C314  1  0.836700  0.094280  0.741180  1.0  -0.0457
  C  C315  1  0.819480  0.113340  0.705470  1.0  -0.0968
  C  C316  1  0.755370  0.143180  0.139680  1.0  0.6737
  C  C317  1  0.707970  0.126570  0.122970  1.0  -0.1467
  C  C318  1  0.677890  0.123870  0.165240  1.0  -0.0372
  C  C319  1  0.634640  0.108000  0.151100  1.0  -0.1203
  C  C320  1  0.619510  0.095110  0.093400  1.0  0.052
  C  C321  1  0.650300  0.098880  0.048500  1.0  -0.1805
  C  C322  1  0.693590  0.113950  0.065100  1.0  -0.0247
  C  C323  1  0.572390  0.075760  0.074510  1.0  -0.0444
  C  C324  1  0.553330  0.039480  0.038800  1.0  -0.0955
  C  C325  1  0.422040  0.476510  0.473010  1.0  0.6741
  C  C326  1  0.374640  0.459900  0.456300  1.0  -0.1467
  C  C327  1  0.344560  0.457200  0.498570  1.0  -0.0374
  C  C328  1  0.301310  0.441330  0.484430  1.0  -0.1203
  C  C329  1  0.286180  0.428440  0.426730  1.0  0.052
  C  C330  1  0.316970  0.432210  0.381830  1.0  -0.1805
  C  C331  1  0.360260  0.447280  0.398430  1.0  -0.0244
  C  C332  1  0.239060  0.409090  0.407840  1.0  -0.0444
  C  C333  1  0.220000  0.372810  0.372130  1.0  -0.0971
  C  C334  1  0.088700  0.809850  0.806350  1.0  0.6737
  C  C335  1  0.041300  0.793240  0.789640  1.0  -0.1467
  C  C336  1  0.011220  0.790540  0.831910  1.0  -0.0372
  C  C337  1  0.967970  0.774670  0.817770  1.0  -0.1203
  C  C338  1  0.952840  0.761780  0.760070  1.0  0.052
  C  C339  1  0.983630  0.765550  0.715170  1.0  -0.1805
  C  C340  1  0.026920  0.780620  0.731770  1.0  -0.0247
  C  C341  1  0.905720  0.742430  0.741180  1.0  -0.0444
  C  C342  1  0.886660  0.706150  0.705470  1.0  -0.0957
  C  C343  1  0.856820  0.612190  0.139680  1.0  0.6749
  C  C344  1  0.873430  0.581400  0.122970  1.0  -0.1457
  C  C345  1  0.876130  0.554020  0.165240  1.0  -0.038
  C  C346  1  0.892000  0.526640  0.151100  1.0  -0.121
  C  C347  1  0.904890  0.524400  0.093400  1.0  0.0523
  C  C348  1  0.901120  0.551420  0.048500  1.0  -0.1838
  C  C349  1  0.886050  0.579640  0.065100  1.0  -0.0272
  C  C350  1  0.924240  0.496630  0.074510  1.0  -0.0459
  C  C351  1  0.960520  0.513850  0.038800  1.0  -0.0954
  C  C352  1  0.523490  0.945520  0.473010  1.0  0.6753
  C  C353  1  0.540100  0.914730  0.456300  1.0  -0.1461
  C  C354  1  0.542800  0.887350  0.498570  1.0  -0.038
  C  C355  1  0.558670  0.859970  0.484430  1.0  -0.121
  C  C356  1  0.571560  0.857730  0.426730  1.0  0.0523
  C  C357  1  0.567790  0.884750  0.381830  1.0  -0.1838
  C  C358  1  0.552720  0.912970  0.398430  1.0  -0.0271
  C  C359  1  0.590910  0.829960  0.407840  1.0  -0.0459
  C  C360  1  0.627190  0.847180  0.372130  1.0  -0.0931
  C  C361  1  0.190150  0.278860  0.806350  1.0  0.6749
  C  C362  1  0.206760  0.248070  0.789640  1.0  -0.1457
  C  C363  1  0.209460  0.220690  0.831910  1.0  -0.038
  C  C364  1  0.225330  0.193310  0.817770  1.0  -0.121
  C  C365  1  0.238220  0.191070  0.760070  1.0  0.0523
  C  C366  1  0.234450  0.218090  0.715170  1.0  -0.1838
  C  C367  1  0.219380  0.246310  0.731770  1.0  -0.0272
  C  C368  1  0.257570  0.163300  0.741180  1.0  -0.0459
  C  C369  1  0.293850  0.180520  0.705470  1.0  -0.0954
  C  C370  1  0.244630  0.387810  0.860320  1.0  0.6744
  C  C371  1  0.292030  0.418600  0.877030  1.0  -0.1467
  C  C372  1  0.322110  0.445980  0.834760  1.0  -0.0395
  C  C373  1  0.365360  0.473360  0.848900  1.0  -0.1205
  C  C374  1  0.380490  0.475600  0.906600  1.0  0.0521
  C  C375  1  0.349700  0.448580  0.951500  1.0  -0.1867
  C  C376  1  0.306410  0.420360  0.934900  1.0  -0.027
  C  C377  1  0.427610  0.503370  0.925490  1.0  -0.0462
  C  C378  1  0.446670  0.486150  0.961200  1.0  -0.0935
  C  C379  1  0.911300  0.721140  0.193650  1.0  0.6744
  C  C380  1  0.958700  0.751930  0.210360  1.0  -0.1467
  C  C381  1  0.988780  0.779310  0.168090  1.0  -0.0395
  C  C382  1  0.032030  0.806690  0.182230  1.0  -0.12
  C  C383  1  0.047160  0.808930  0.239930  1.0  0.0521
  C  C384  1  0.016370  0.781910  0.284830  1.0  -0.1867
  C  C385  1  0.973080  0.753690  0.268230  1.0  -0.027
  C  C386  1  0.094280  0.836700  0.258820  1.0  -0.0462
  C  C387  1  0.113340  0.819480  0.294530  1.0  -0.0935
  C  C388  1  0.577960  0.054480  0.526990  1.0  0.6742
  C  C389  1  0.625360  0.085270  0.543700  1.0  -0.1466
  C  C390  1  0.655440  0.112650  0.501430  1.0  -0.0395
  C  C391  1  0.698690  0.140030  0.515570  1.0  -0.1205
  C  C392  1  0.713820  0.142270  0.573270  1.0  0.0521
  C  C393  1  0.683030  0.115250  0.618170  1.0  -0.1867
  C  C394  1  0.639740  0.087030  0.601570  1.0  -0.0271
  C  C395  1  0.760940  0.170040  0.592160  1.0  -0.0462
  C  C396  1  0.780000  0.152820  0.627870  1.0  -0.0939
  C  C397  1  0.143180  0.755370  0.860320  1.0  0.6751
  C  C398  1  0.126570  0.707970  0.877030  1.0  -0.1439
  C  C399  1  0.123870  0.677890  0.834760  1.0  -0.0405
  C  C400  1  0.108000  0.634640  0.848900  1.0  -0.1215
  C  C401  1  0.095110  0.619510  0.906600  1.0  0.0526
  C  C402  1  0.098880  0.650300  0.951500  1.0  -0.182
  C  C403  1  0.113950  0.693590  0.934900  1.0  -0.0276
  C  C404  1  0.075760  0.572390  0.925490  1.0  -0.0456
  C  C405  1  0.039480  0.553330  0.961200  1.0  -0.0958
  C  C406  1  0.809850  0.088700  0.193650  1.0  0.6751
  C  C407  1  0.793240  0.041300  0.210360  1.0  -0.1439
  C  C408  1  0.790540  0.011220  0.168090  1.0  -0.0405
  C  C409  1  0.774670  0.967970  0.182230  1.0  -0.1216
  C  C410  1  0.761780  0.952840  0.239930  1.0  0.0526
  C  C411  1  0.765550  0.983630  0.284830  1.0  -0.182
  C  C412  1  0.780620  0.026920  0.268230  1.0  -0.0276
  C  C413  1  0.742430  0.905720  0.258820  1.0  -0.0456
  C  C414  1  0.706150  0.886660  0.294530  1.0  -0.0958
  C  C415  1  0.476510  0.422040  0.526990  1.0  0.6754
  C  C416  1  0.459900  0.374640  0.543700  1.0  -0.1439
  C  C417  1  0.457200  0.344560  0.501430  1.0  -0.0406
  C  C418  1  0.441330  0.301310  0.515570  1.0  -0.1215
  C  C419  1  0.428440  0.286180  0.573270  1.0  0.0526
  C  C420  1  0.432210  0.316970  0.618170  1.0  -0.182
  C  C421  1  0.447280  0.360260  0.601570  1.0  -0.0271
  C  C422  1  0.409090  0.239060  0.592160  1.0  -0.0456
  C  C423  1  0.372810  0.220000  0.627870  1.0  -0.0981
  C  C424  1  0.612190  0.856820  0.860320  1.0  0.6732
  C  C425  1  0.581400  0.873430  0.877030  1.0  -0.1464
  C  C426  1  0.554020  0.876130  0.834760  1.0  -0.0405
  C  C427  1  0.526640  0.892000  0.848900  1.0  -0.1197
  C  C428  1  0.524400  0.904890  0.906600  1.0  0.0522
  C  C429  1  0.551420  0.901120  0.951500  1.0  -0.1804
  C  C430  1  0.579640  0.886050  0.934900  1.0  -0.0238
  C  C431  1  0.496630  0.924240  0.925490  1.0  -0.0444
  C  C432  1  0.513850  0.960520  0.961200  1.0  -0.0973
  C  C433  1  0.278860  0.190150  0.193650  1.0  0.6732
  C  C434  1  0.248070  0.206760  0.210360  1.0  -0.1464
  C  C435  1  0.220690  0.209460  0.168090  1.0  -0.0405
  C  C436  1  0.193310  0.225330  0.182230  1.0  -0.1197
  C  C437  1  0.191070  0.238220  0.239930  1.0  0.0522
  C  C438  1  0.218090  0.234450  0.284830  1.0  -0.1804
  C  C439  1  0.246310  0.219380  0.268230  1.0  -0.0238
  C  C440  1  0.163300  0.257570  0.258820  1.0  -0.0444
  C  C441  1  0.180520  0.293850  0.294530  1.0  -0.0984
  C  C442  1  0.945520  0.523490  0.526990  1.0  0.6735
  C  C443  1  0.914730  0.540100  0.543700  1.0  -0.1467
  C  C444  1  0.887350  0.542800  0.501430  1.0  -0.0407
  C  C445  1  0.859970  0.558670  0.515570  1.0  -0.1197
  C  C446  1  0.857730  0.571560  0.573270  1.0  0.0522
  C  C447  1  0.884750  0.567790  0.618170  1.0  -0.1804
  C  C448  1  0.912970  0.552720  0.601570  1.0  -0.0238
  C  C449  1  0.829960  0.590910  0.592160  1.0  -0.0444
  C  C450  1  0.847180  0.627190  0.627870  1.0  -0.097
  C  C451  1  0.612190  0.755370  0.860320  1.0  0.6752
  C  C452  1  0.581400  0.707970  0.877030  1.0  -0.1438
  C  C453  1  0.554020  0.677890  0.834760  1.0  -0.0412
  C  C454  1  0.526640  0.634640  0.848900  1.0  -0.1204
  C  C455  1  0.524400  0.619510  0.906600  1.0  0.0522
  C  C456  1  0.551420  0.650300  0.951500  1.0  -0.1862
  C  C457  1  0.579640  0.693590  0.934900  1.0  -0.0256
  C  C458  1  0.496630  0.572390  0.925490  1.0  -0.0468
  C  C459  1  0.513850  0.553330  0.961200  1.0  -0.0968
  C  C460  1  0.278860  0.088700  0.193650  1.0  0.6752
  C  C461  1  0.248070  0.041300  0.210360  1.0  -0.1438
  C  C462  1  0.220690  0.011220  0.168090  1.0  -0.0412
  C  C463  1  0.193310  0.967970  0.182230  1.0  -0.1204
  C  C464  1  0.191070  0.952840  0.239930  1.0  0.0522
  C  C465  1  0.218090  0.983630  0.284830  1.0  -0.1862
  C  C466  1  0.246310  0.026920  0.268230  1.0  -0.0256
  C  C467  1  0.163300  0.905720  0.258820  1.0  -0.0468
  C  C468  1  0.180520  0.886660  0.294530  1.0  -0.0968
  C  C469  1  0.945520  0.422040  0.526990  1.0  0.6752
  C  C470  1  0.914730  0.374640  0.543700  1.0  -0.1437
  C  C471  1  0.887350  0.344560  0.501430  1.0  -0.0412
  C  C472  1  0.859970  0.301310  0.515570  1.0  -0.1204
  C  C473  1  0.857730  0.286180  0.573270  1.0  0.0522
  C  C474  1  0.884750  0.316970  0.618170  1.0  -0.1862
  C  C475  1  0.912970  0.360260  0.601570  1.0  -0.0256
  C  C476  1  0.829960  0.239060  0.592160  1.0  -0.0468
  C  C477  1  0.847180  0.220000  0.627870  1.0  -0.0971
  C  C478  1  0.244630  0.856820  0.860320  1.0  0.6741
  C  C479  1  0.292030  0.873430  0.877030  1.0  -0.146
  C  C480  1  0.322110  0.876130  0.834760  1.0  -0.0391
  C  C481  1  0.365360  0.892000  0.848900  1.0  -0.1213
  C  C482  1  0.380490  0.904890  0.906600  1.0  0.052
  C  C483  1  0.349700  0.901120  0.951500  1.0  -0.1837
  C  C484  1  0.306410  0.886050  0.934900  1.0  -0.0252
  C  C485  1  0.427610  0.924240  0.925490  1.0  -0.0455
  C  C486  1  0.446670  0.960520  0.961200  1.0  -0.0969
  C  C487  1  0.911300  0.190150  0.193650  1.0  0.6741
  C  C488  1  0.958700  0.206760  0.210360  1.0  -0.146
  C  C489  1  0.988780  0.209460  0.168090  1.0  -0.0391
  C  C490  1  0.032030  0.225330  0.182230  1.0  -0.1213
  C  C491  1  0.047160  0.238220  0.239930  1.0  0.052
  C  C492  1  0.016370  0.234450  0.284830  1.0  -0.1837
  C  C493  1  0.973080  0.219380  0.268230  1.0  -0.0252
  C  C494  1  0.094280  0.257570  0.258820  1.0  -0.0455
  C  C495  1  0.113340  0.293850  0.294530  1.0  -0.0983
  C  C496  1  0.577960  0.523490  0.526990  1.0  0.6744
  C  C497  1  0.625360  0.540100  0.543700  1.0  -0.146
  C  C498  1  0.655440  0.542800  0.501430  1.0  -0.0392
  C  C499  1  0.698690  0.558670  0.515570  1.0  -0.1213
  C  C500  1  0.713820  0.571560  0.573270  1.0  0.052
  C  C501  1  0.683030  0.567790  0.618170  1.0  -0.1837
  C  C502  1  0.639740  0.552720  0.601570  1.0  -0.0247
  C  C503  1  0.760940  0.590910  0.592160  1.0  -0.0455
  C  C504  1  0.780000  0.627190  0.627870  1.0  -0.1
  C  C505  1  0.143180  0.387810  0.860320  1.0  0.6742
  C  C506  1  0.126570  0.418600  0.877030  1.0  -0.1468
  C  C507  1  0.123870  0.445980  0.834760  1.0  -0.0397
  C  C508  1  0.108000  0.473360  0.848900  1.0  -0.1189
  C  C509  1  0.095110  0.475600  0.906600  1.0  0.0518
  C  C510  1  0.098880  0.448580  0.951500  1.0  -0.1881
  C  C511  1  0.113950  0.420360  0.934900  1.0  -0.026
  C  C512  1  0.075760  0.503370  0.925490  1.0  -0.0469
  C  C513  1  0.039480  0.486150  0.961200  1.0  -0.0929
  C  C514  1  0.809850  0.721140  0.193650  1.0  0.6742
  C  C515  1  0.793240  0.751930  0.210360  1.0  -0.1468
  C  C516  1  0.790540  0.779310  0.168090  1.0  -0.0397
  C  C517  1  0.774670  0.806690  0.182230  1.0  -0.1189
  C  C518  1  0.761780  0.808930  0.239930  1.0  0.0518
  C  C519  1  0.765550  0.781910  0.284830  1.0  -0.1881
  C  C520  1  0.780620  0.753690  0.268230  1.0  -0.026
  C  C521  1  0.742430  0.836700  0.258820  1.0  -0.0469
  C  C522  1  0.706150  0.819480  0.294530  1.0  -0.0926
  C  C523  1  0.476510  0.054480  0.526990  1.0  0.6746
  C  C524  1  0.459900  0.085270  0.543700  1.0  -0.1471
  C  C525  1  0.457200  0.112650  0.501430  1.0  -0.0397
  C  C526  1  0.441330  0.140030  0.515570  1.0  -0.1189
  C  C527  1  0.428440  0.142270  0.573270  1.0  0.0518
  C  C528  1  0.432210  0.115250  0.618170  1.0  -0.1881
  C  C529  1  0.447280  0.087030  0.601570  1.0  -0.0259
  C  C530  1  0.409090  0.170040  0.592160  1.0  -0.0469
  C  C531  1  0.372810  0.152820  0.627870  1.0  -0.0903
  C  C532  1  0.755370  0.612190  0.139680  1.0  0.6752
  C  C533  1  0.707970  0.581400  0.122970  1.0  -0.146
  C  C534  1  0.677890  0.554020  0.165240  1.0  -0.0367
  C  C535  1  0.634640  0.526640  0.151100  1.0  -0.1205
  C  C536  1  0.619510  0.524400  0.093400  1.0  0.0524
  C  C537  1  0.650300  0.551420  0.048500  1.0  -0.1841
  C  C538  1  0.693590  0.579640  0.065100  1.0  -0.028
  C  C539  1  0.572390  0.496630  0.074510  1.0  -0.0466
  C  C540  1  0.553330  0.513850  0.038800  1.0  -0.095
  C  C541  1  0.422040  0.945520  0.473010  1.0  0.6751
  C  C542  1  0.374640  0.914730  0.456300  1.0  -0.146
  C  C543  1  0.344560  0.887350  0.498570  1.0  -0.0367
  C  C544  1  0.301310  0.859970  0.484430  1.0  -0.1205
  C  C545  1  0.286180  0.857730  0.426730  1.0  0.0524
  C  C546  1  0.316970  0.884750  0.381830  1.0  -0.1841
  C  C547  1  0.360260  0.912970  0.398430  1.0  -0.028
  C  C548  1  0.239060  0.829960  0.407840  1.0  -0.0466
  C  C549  1  0.220000  0.847180  0.372130  1.0  -0.0947
  C  C550  1  0.088700  0.278860  0.806350  1.0  0.6752
  C  C551  1  0.041300  0.248070  0.789640  1.0  -0.146
  C  C552  1  0.011220  0.220690  0.831910  1.0  -0.0367
  C  C553  1  0.967970  0.193310  0.817770  1.0  -0.1204
  C  C554  1  0.952840  0.191070  0.760070  1.0  0.0524
  C  C555  1  0.983630  0.218090  0.715170  1.0  -0.1841
  C  C556  1  0.026920  0.246310  0.731770  1.0  -0.028
  C  C557  1  0.905720  0.163300  0.741180  1.0  -0.0466
  C  C558  1  0.886660  0.180520  0.705470  1.0  -0.0943
  C  C559  1  0.856820  0.244630  0.139680  1.0  0.6748
  C  C560  1  0.873430  0.292030  0.122970  1.0  -0.1458
  C  C561  1  0.876130  0.322110  0.165240  1.0  -0.0392
  C  C562  1  0.892000  0.365360  0.151100  1.0  -0.1206
  C  C563  1  0.904890  0.380490  0.093400  1.0  0.0516
  C  C564  1  0.901120  0.349700  0.048500  1.0  -0.1809
  C  C565  1  0.886050  0.306410  0.065100  1.0  -0.027
  C  C566  1  0.924240  0.427610  0.074510  1.0  -0.0456
  C  C567  1  0.960520  0.446670  0.038800  1.0  -0.0952
  C  C568  1  0.523490  0.577960  0.473010  1.0  0.6751
  C  C569  1  0.540100  0.625360  0.456300  1.0  -0.1459
  C  C570  1  0.542800  0.655440  0.498570  1.0  -0.0394
  C  C571  1  0.558670  0.698690  0.484430  1.0  -0.1206
  C  C572  1  0.571560  0.713820  0.426730  1.0  0.0516
  C  C573  1  0.567790  0.683030  0.381830  1.0  -0.1809
  C  C574  1  0.552720  0.639740  0.398430  1.0  -0.0266
  C  C575  1  0.590910  0.760940  0.407840  1.0  -0.0456
  C  C576  1  0.627190  0.780000  0.372130  1.0  -0.0963
  C  C577  1  0.190150  0.911300  0.806350  1.0  0.6748
  C  C578  1  0.206760  0.958700  0.789640  1.0  -0.1458
  C  C579  1  0.209460  0.988780  0.831910  1.0  -0.0392
  C  C580  1  0.225330  0.032030  0.817770  1.0  -0.1206
  C  C581  1  0.238220  0.047160  0.760070  1.0  0.0516
  C  C582  1  0.234450  0.016370  0.715170  1.0  -0.1809
  C  C583  1  0.219380  0.973080  0.731770  1.0  -0.027
  C  C584  1  0.257570  0.094280  0.741180  1.0  -0.0456
  C  C585  1  0.293850  0.113340  0.705470  1.0  -0.0952
  C  C586  1  0.387810  0.143180  0.139680  1.0  0.6745
  C  C587  1  0.418600  0.126570  0.122970  1.0  -0.1462
  C  C588  1  0.445980  0.123870  0.165240  1.0  -0.0376
  C  C589  1  0.473360  0.108000  0.151100  1.0  -0.122
  C  C590  1  0.475600  0.095110  0.093400  1.0  0.0518
  C  C591  1  0.448580  0.098880  0.048500  1.0  -0.181
  C  C592  1  0.420360  0.113950  0.065100  1.0  -0.0251
  C  C593  1  0.503370  0.075760  0.074510  1.0  -0.0458
  C  C594  1  0.486150  0.039480  0.038800  1.0  -0.0992
  C  C595  1  0.054480  0.476510  0.473010  1.0  0.6749
  C  C596  1  0.085270  0.459900  0.456300  1.0  -0.1466
  C  C597  1  0.112650  0.457200  0.498570  1.0  -0.0376
  C  C598  1  0.140030  0.441330  0.484430  1.0  -0.122
  C  C599  1  0.142270  0.428440  0.426730  1.0  0.0518
  C  C600  1  0.115250  0.432210  0.381830  1.0  -0.181
  C  C601  1  0.087030  0.447280  0.398430  1.0  -0.0251
  C  C602  1  0.170040  0.409090  0.407840  1.0  -0.0458
  C  C603  1  0.152820  0.372810  0.372130  1.0  -0.0963
  C  C604  1  0.721140  0.809850  0.806350  1.0  0.6745
  C  C605  1  0.751930  0.793240  0.789640  1.0  -0.1462
  C  C606  1  0.779310  0.790540  0.831910  1.0  -0.0376
  C  C607  1  0.806690  0.774670  0.817770  1.0  -0.122
  C  C608  1  0.808930  0.761780  0.760070  1.0  0.0518
  C  C609  1  0.781910  0.765550  0.715170  1.0  -0.181
  C  C610  1  0.753690  0.780620  0.731770  1.0  -0.0251
  C  C611  1  0.836700  0.742430  0.741180  1.0  -0.0458
  C  C612  1  0.819480  0.706150  0.705470  1.0  -0.098
  C  C613  1  0.509600  0.490400  0.019400  1.0  -0.0072
  C  C614  1  0.547120  0.452880  0.094700  1.0  0.1784
  C  C615  1  0.585890  0.414110  0.099300  1.0  0.1324
  C  C616  1  0.603850  0.396150  0.145400  1.0  -0.3684
  C  C617  1  0.176270  0.823730  0.352730  1.0  -0.0072
  C  C618  1  0.213790  0.786210  0.428030  1.0  0.1783
  C  C619  1  0.252560  0.747440  0.432630  1.0  0.1324
  C  C620  1  0.270520  0.729480  0.478730  1.0  -0.3684
  C  C621  1  0.842930  0.157070  0.686070  1.0  -0.0072
  C  C622  1  0.880450  0.119550  0.761370  1.0  0.1784
  C  C623  1  0.919220  0.080780  0.765970  1.0  0.1324
  C  C624  1  0.937180  0.062820  0.812070  1.0  -0.3684
  C  C625  1  0.509600  0.019200  0.019400  1.0  -0.0078
  C  C626  1  0.547120  0.094240  0.094700  1.0  0.1774
  C  C627  1  0.585890  0.171780  0.099300  1.0  0.1286
  C  C628  1  0.603850  0.207700  0.145400  1.0  -0.3721
  C  C629  1  0.176270  0.352530  0.352730  1.0  -0.0078
  C  C630  1  0.213790  0.427570  0.428030  1.0  0.1773
  C  C631  1  0.252560  0.505110  0.432630  1.0  0.1286
  C  C632  1  0.270520  0.541030  0.478730  1.0  -0.3721
  C  C633  1  0.842930  0.685870  0.686070  1.0  -0.0078
  C  C634  1  0.880450  0.760910  0.761370  1.0  0.1774
  C  C635  1  0.919220  0.838450  0.765970  1.0  0.1286
  C  C636  1  0.937180  0.874370  0.812070  1.0  -0.3721
  C  C637  1  0.980800  0.490400  0.019400  1.0  -0.0106
  C  C638  1  0.905760  0.452880  0.094700  1.0  0.1775
  C  C639  1  0.828220  0.414110  0.099300  1.0  0.1323
  C  C640  1  0.792300  0.396150  0.145400  1.0  -0.3696
  C  C641  1  0.647470  0.823730  0.352730  1.0  -0.0106
  C  C642  1  0.572430  0.786210  0.428030  1.0  0.1775
  C  C643  1  0.494890  0.747440  0.432630  1.0  0.1323
  C  C644  1  0.458970  0.729480  0.478730  1.0  -0.3696
  C  C645  1  0.314130  0.157070  0.686070  1.0  -0.0106
  C  C646  1  0.239090  0.119550  0.761370  1.0  0.1775
  C  C647  1  0.161550  0.080780  0.765970  1.0  0.1323
  C  C648  1  0.125630  0.062820  0.812070  1.0  -0.3696
  C  C649  1  0.490400  0.509600  0.980600  1.0  -0.0077
  C  C650  1  0.452880  0.547120  0.905300  1.0  0.1797
  C  C651  1  0.414110  0.585890  0.900700  1.0  0.1304
  C  C652  1  0.396150  0.603850  0.854600  1.0  -0.3693
  C  C653  1  0.157070  0.842930  0.313930  1.0  -0.0077
  C  C654  1  0.119550  0.880450  0.238630  1.0  0.1797
  C  C655  1  0.080780  0.919220  0.234030  1.0  0.1304
  C  C656  1  0.062820  0.937180  0.187930  1.0  -0.3693
  C  C657  1  0.823730  0.176270  0.647270  1.0  -0.0077
  C  C658  1  0.786210  0.213790  0.571970  1.0  0.1796
  C  C659  1  0.747440  0.252560  0.567370  1.0  0.1304
  C  C660  1  0.729480  0.270520  0.521270  1.0  -0.3693
  C  C661  1  0.019200  0.509600  0.980600  1.0  -0.0109
  C  C662  1  0.094240  0.547120  0.905300  1.0  0.1782
  C  C663  1  0.171780  0.585890  0.900700  1.0  0.1312
  C  C664  1  0.207700  0.603850  0.854600  1.0  -0.37
  C  C665  1  0.685870  0.842930  0.313930  1.0  -0.0109
  C  C666  1  0.760910  0.880450  0.238630  1.0  0.1782
  C  C667  1  0.838450  0.919220  0.234030  1.0  0.1312
  C  C668  1  0.874370  0.937180  0.187930  1.0  -0.37
  C  C669  1  0.352530  0.176270  0.647270  1.0  -0.0109
  C  C670  1  0.427570  0.213790  0.571970  1.0  0.1782
  C  C671  1  0.505110  0.252560  0.567370  1.0  0.1312
  C  C672  1  0.541030  0.270520  0.521270  1.0  -0.37
  C  C673  1  0.490400  0.980800  0.980600  1.0  -0.0077
  C  C674  1  0.452880  0.905760  0.905300  1.0  0.1788
  C  C675  1  0.414110  0.828220  0.900700  1.0  0.1304
  C  C676  1  0.396150  0.792300  0.854600  1.0  -0.3689
  C  C677  1  0.157070  0.314130  0.313930  1.0  -0.0077
  C  C678  1  0.119550  0.239090  0.238630  1.0  0.1788
  C  C679  1  0.080780  0.161550  0.234030  1.0  0.1304
  C  C680  1  0.062820  0.125630  0.187930  1.0  -0.3689
  C  C681  1  0.823730  0.647470  0.647270  1.0  -0.0077
  C  C682  1  0.786210  0.572430  0.571970  1.0  0.1788
  C  C683  1  0.747440  0.494890  0.567370  1.0  0.1304
  C  C684  1  0.729480  0.458970  0.521270  1.0  -0.3689
  O  O685  1  0.362510  0.220250  0.098190  1.0  -0.5745
  O  O686  1  0.388550  0.233510  0.192430  1.0  -0.5544
  O  O687  1  0.029180  0.553580  0.431520  1.0  -0.5745
  O  O688  1  0.055220  0.566840  0.525760  1.0  -0.5548
  O  O689  1  0.695840  0.886920  0.764860  1.0  -0.5745
  O  O690  1  0.721880  0.900180  0.859100  1.0  -0.5544
  O  O691  1  0.779750  0.142260  0.098190  1.0  -0.5755
  O  O692  1  0.766490  0.155040  0.192430  1.0  -0.5555
  O  O693  1  0.446420  0.475590  0.431520  1.0  -0.5756
  O  O694  1  0.433160  0.488370  0.525760  1.0  -0.5557
  O  O695  1  0.113080  0.808930  0.764860  1.0  -0.5755
  O  O696  1  0.099820  0.821710  0.859100  1.0  -0.5555
  O  O697  1  0.857740  0.637490  0.098190  1.0  -0.575
  O  O698  1  0.844960  0.611450  0.192430  1.0  -0.5555
  O  O699  1  0.524410  0.970820  0.431520  1.0  -0.575
  O  O700  1  0.511630  0.944780  0.525760  1.0  -0.5555
  O  O701  1  0.191070  0.304160  0.764860  1.0  -0.5747
  O  O702  1  0.178290  0.278120  0.859100  1.0  -0.5562
  O  O703  1  0.220250  0.362510  0.901810  1.0  -0.5732
  O  O704  1  0.233510  0.388550  0.807570  1.0  -0.5566
  O  O705  1  0.886920  0.695840  0.235140  1.0  -0.5737
  O  O706  1  0.900180  0.721880  0.140900  1.0  -0.5557
  O  O707  1  0.553580  0.029180  0.568480  1.0  -0.5732
  O  O708  1  0.566840  0.055220  0.474240  1.0  -0.5567
  O  O709  1  0.142260  0.779750  0.901810  1.0  -0.5735
  O  O710  1  0.155040  0.766490  0.807570  1.0  -0.5553
  O  O711  1  0.808930  0.113080  0.235140  1.0  -0.5735
  O  O712  1  0.821710  0.099820  0.140900  1.0  -0.5553
  O  O713  1  0.475590  0.446420  0.568480  1.0  -0.5737
  O  O714  1  0.488370  0.433160  0.474240  1.0  -0.5555
  O  O715  1  0.637490  0.857740  0.901810  1.0  -0.5729
  O  O716  1  0.611450  0.844960  0.807570  1.0  -0.5556
  O  O717  1  0.304160  0.191070  0.235140  1.0  -0.5726
  O  O718  1  0.278120  0.178290  0.140900  1.0  -0.5567
  O  O719  1  0.970820  0.524410  0.568480  1.0  -0.5729
  O  O720  1  0.944780  0.511630  0.474240  1.0  -0.5557
  O  O721  1  0.637490  0.779750  0.901810  1.0  -0.572
  O  O722  1  0.611450  0.766490  0.807570  1.0  -0.5559
  O  O723  1  0.304160  0.113080  0.235140  1.0  -0.5721
  O  O724  1  0.278120  0.099820  0.140900  1.0  -0.5553
  O  O725  1  0.970820  0.446420  0.568480  1.0  -0.572
  O  O726  1  0.944780  0.433160  0.474240  1.0  -0.5559
  O  O727  1  0.220250  0.857740  0.901810  1.0  -0.5733
  O  O728  1  0.233510  0.844960  0.807570  1.0  -0.5554
  O  O729  1  0.886920  0.191070  0.235140  1.0  -0.5733
  O  O730  1  0.900180  0.178290  0.140900  1.0  -0.5554
  O  O731  1  0.553580  0.524410  0.568480  1.0  -0.5734
  O  O732  1  0.566840  0.511630  0.474240  1.0  -0.5556
  O  O733  1  0.142260  0.362510  0.901810  1.0  -0.5737
  O  O734  1  0.155040  0.388550  0.807570  1.0  -0.5554
  O  O735  1  0.808930  0.695840  0.235140  1.0  -0.5735
  O  O736  1  0.821710  0.721880  0.140900  1.0  -0.5569
  O  O737  1  0.475590  0.029180  0.568480  1.0  -0.5737
  O  O738  1  0.488370  0.055220  0.474240  1.0  -0.5555
  O  O739  1  0.779750  0.637490  0.098190  1.0  -0.5745
  O  O740  1  0.766490  0.611450  0.192430  1.0  -0.5562
  O  O741  1  0.446420  0.970820  0.431520  1.0  -0.5752
  O  O742  1  0.433160  0.944780  0.525760  1.0  -0.5562
  O  O743  1  0.113080  0.304160  0.764860  1.0  -0.5751
  O  O744  1  0.099820  0.278120  0.859100  1.0  -0.5556
  O  O745  1  0.857740  0.220250  0.098190  1.0  -0.574
  O  O746  1  0.844960  0.233510  0.192430  1.0  -0.5552
  O  O747  1  0.524410  0.553580  0.431520  1.0  -0.5741
  O  O748  1  0.511630  0.566840  0.525760  1.0  -0.5555
  O  O749  1  0.191070  0.886920  0.764860  1.0  -0.574
  O  O750  1  0.178290  0.900180  0.859100  1.0  -0.5552
  O  O751  1  0.362510  0.142260  0.098190  1.0  -0.5747
  O  O752  1  0.388550  0.155040  0.192430  1.0  -0.555
  O  O753  1  0.029180  0.475590  0.431520  1.0  -0.5747
  O  O754  1  0.055220  0.488370  0.525760  1.0  -0.555
  O  O755  1  0.695840  0.808930  0.764860  1.0  -0.5746
  O  O756  1  0.721880  0.821710  0.859100  1.0  -0.5557
  O  O757  1  0.564960  0.435040  0.132600  1.0  -0.3453
  O  O758  1  0.231630  0.768370  0.465930  1.0  -0.3453
  O  O759  1  0.898290  0.101710  0.799270  1.0  -0.3453
  O  O760  1  0.564960  0.129920  0.132600  1.0  -0.3432
  O  O761  1  0.231630  0.463250  0.465930  1.0  -0.3432
  O  O762  1  0.898290  0.796590  0.799270  1.0  -0.3432
  O  O763  1  0.870080  0.435040  0.132600  1.0  -0.3446
  O  O764  1  0.536750  0.768370  0.465930  1.0  -0.3446
  O  O765  1  0.203410  0.101710  0.799270  1.0  -0.3446
  O  O766  1  0.435040  0.564960  0.867400  1.0  -0.3425
  O  O767  1  0.101710  0.898290  0.200730  1.0  -0.3425
  O  O768  1  0.768370  0.231630  0.534070  1.0  -0.3425
  O  O769  1  0.129920  0.564960  0.867400  1.0  -0.343
  O  O770  1  0.796590  0.898290  0.200730  1.0  -0.343
  O  O771  1  0.463250  0.231630  0.534070  1.0  -0.343
  O  O772  1  0.435040  0.870080  0.867400  1.0  -0.3422
  O  O773  1  0.101710  0.203410  0.200730  1.0  -0.3422
  O  O774  1  0.768370  0.536750  0.534070  1.0  -0.3422
