# generated using pymatgen
data_CuH15C22O5
_symmetry_space_group_name_H-M   'P 1'
_cell_length_a   35.33940000
_cell_length_b   35.33940000
_cell_length_c   20.07000000
_cell_angle_alpha   90.00000000
_cell_angle_beta   90.00000000
_cell_angle_gamma   120.00000000
_symmetry_Int_Tables_number   1
_chemical_formula_structural   CuH15C22O5
_chemical_formula_sum   'Cu18 H270 C396 O90'
_cell_volume   21706.82712753
_cell_formula_units_Z   18
loop_
 _symmetry_equiv_pos_site_id
 _symmetry_equiv_pos_as_xyz
  1  'x, y, z'
loop_
 _atom_site_type_symbol
 _atom_site_label
 _atom_site_symmetry_multiplicity
 _atom_site_fract_x
 _atom_site_fract_y
 _atom_site_fract_z
 _atom_site_occupancy
 _atom_site_charge
  Cu  Cu1  1  0.681700  0.840850  0.394270  1.0  0.9339
  Cu  Cu2  1  0.348370  0.174180  0.727600  1.0  0.9339
  Cu  Cu3  1  0.015030  0.507520  0.060940  1.0  0.9339
  Cu  Cu4  1  0.159150  0.840850  0.394270  1.0  0.9295
  Cu  Cu5  1  0.825820  0.174180  0.727600  1.0  0.9295
  Cu  Cu6  1  0.492480  0.507520  0.060940  1.0  0.9295
  Cu  Cu7  1  0.159150  0.318300  0.394270  1.0  0.933
  Cu  Cu8  1  0.825820  0.651630  0.727600  1.0  0.933
  Cu  Cu9  1  0.492480  0.984970  0.060940  1.0  0.933
  Cu  Cu10  1  0.840850  0.681700  0.605730  1.0  0.9329
  Cu  Cu11  1  0.507520  0.015030  0.939060  1.0  0.9328
  Cu  Cu12  1  0.174180  0.348370  0.272400  1.0  0.9329
  Cu  Cu13  1  0.840850  0.159150  0.605730  1.0  0.9298
  Cu  Cu14  1  0.507520  0.492480  0.939060  1.0  0.9299
  Cu  Cu15  1  0.174180  0.825820  0.272400  1.0  0.9298
  Cu  Cu16  1  0.318300  0.159150  0.605730  1.0  0.9338
  Cu  Cu17  1  0.984970  0.492480  0.939060  1.0  0.9338
  Cu  Cu18  1  0.651630  0.825820  0.272400  1.0  0.9338
  H  H19  1  0.550600  0.690300  0.289000  1.0  0.1255
  H  H20  1  0.498900  0.619100  0.321700  1.0  0.1049
  H  H21  1  0.550100  0.641600  0.509100  1.0  0.1289
  H  H22  1  0.599000  0.714200  0.478000  1.0  0.1064
  H  H23  1  0.542600  0.571700  0.478100  1.0  0.1155
  H  H24  1  0.432100  0.613700  0.458000  1.0  0.1123
  H  H25  1  0.368200  0.586500  0.346100  1.0  0.1251
  H  H26  1  0.217270  0.023630  0.622330  1.0  0.1214
  H  H27  1  0.165570  0.952430  0.655030  1.0  0.1048
  H  H28  1  0.216770  0.974930  0.842430  1.0  0.129
  H  H29  1  0.265670  0.047530  0.811330  1.0  0.1059
  H  H30  1  0.209270  0.905030  0.811430  1.0  0.1156
  H  H31  1  0.098770  0.947030  0.791330  1.0  0.1123
  H  H32  1  0.034870  0.919830  0.679430  1.0  0.1254
  H  H33  1  0.883930  0.356970  0.955670  1.0  0.1255
  H  H34  1  0.832230  0.285770  0.988370  1.0  0.1049
  H  H35  1  0.883430  0.308270  0.175770  1.0  0.1289
  H  H36  1  0.932330  0.380870  0.144670  1.0  0.1064
  H  H37  1  0.875930  0.238370  0.144770  1.0  0.1155
  H  H38  1  0.765430  0.280370  0.124670  1.0  0.1123
  H  H39  1  0.701530  0.253170  0.012770  1.0  0.1251
  H  H40  1  0.309700  0.860300  0.289000  1.0  0.1225
  H  H41  1  0.380900  0.879800  0.321700  1.0  0.1042
  H  H42  1  0.358400  0.908500  0.509100  1.0  0.1286
  H  H43  1  0.285800  0.884800  0.478000  1.0  0.106
  H  H44  1  0.428300  0.970900  0.478100  1.0  0.1151
  H  H45  1  0.386300  0.818400  0.458000  1.0  0.1122
  H  H46  1  0.413500  0.781700  0.346100  1.0  0.1245
  H  H47  1  0.976370  0.193630  0.622330  1.0  0.1212
  H  H48  1  0.047570  0.213130  0.655030  1.0  0.106
  H  H49  1  0.025070  0.241830  0.842430  1.0  0.1277
  H  H50  1  0.952470  0.218130  0.811330  1.0  0.1061
  H  H51  1  0.094970  0.304230  0.811430  1.0  0.1151
  H  H52  1  0.052970  0.151730  0.791330  1.0  0.1121
  H  H53  1  0.080170  0.115030  0.679430  1.0  0.1225
  H  H54  1  0.643030  0.526970  0.955670  1.0  0.1225
  H  H55  1  0.714230  0.546470  0.988370  1.0  0.1042
  H  H56  1  0.691730  0.575170  0.175770  1.0  0.1286
  H  H57  1  0.619130  0.551470  0.144670  1.0  0.106
  H  H58  1  0.761630  0.637570  0.144770  1.0  0.1151
  H  H59  1  0.719630  0.485070  0.124670  1.0  0.1122
  H  H60  1  0.746830  0.448370  0.012770  1.0  0.1245
  H  H61  1  0.139700  0.449400  0.289000  1.0  0.1229
  H  H62  1  0.120200  0.501100  0.321700  1.0  0.1062
  H  H63  1  0.091500  0.449900  0.509100  1.0  0.1284
  H  H64  1  0.115200  0.401000  0.478000  1.0  0.106
  H  H65  1  0.029100  0.457400  0.478100  1.0  0.1158
  H  H66  1  0.181600  0.567900  0.458000  1.0  0.1128
  H  H67  1  0.218300  0.631800  0.346100  1.0  0.1267
  H  H68  1  0.806370  0.782730  0.622330  1.0  0.1247
  H  H69  1  0.786870  0.834430  0.655030  1.0  0.1046
  H  H70  1  0.758170  0.783230  0.842430  1.0  0.129
  H  H71  1  0.781870  0.734330  0.811330  1.0  0.1064
  H  H72  1  0.695770  0.790730  0.811430  1.0  0.1158
  H  H73  1  0.848270  0.901230  0.791330  1.0  0.1121
  H  H74  1  0.884970  0.965130  0.679430  1.0  0.1282
  H  H75  1  0.473030  0.116070  0.955670  1.0  0.1229
  H  H76  1  0.453530  0.167770  0.988370  1.0  0.1062
  H  H77  1  0.424830  0.116570  0.175770  1.0  0.1284
  H  H78  1  0.448530  0.067670  0.144670  1.0  0.106
  H  H79  1  0.362430  0.124070  0.144770  1.0  0.1158
  H  H80  1  0.514930  0.234570  0.124670  1.0  0.1128
  H  H81  1  0.551630  0.298470  0.012770  1.0  0.1267
  H  H82  1  0.690300  0.550600  0.711000  1.0  0.1246
  H  H83  1  0.619100  0.498900  0.678300  1.0  0.1049
  H  H84  1  0.641600  0.550100  0.490900  1.0  0.1285
  H  H85  1  0.714200  0.599000  0.522000  1.0  0.1071
  H  H86  1  0.571700  0.542600  0.521900  1.0  0.1161
  H  H87  1  0.613700  0.432100  0.542000  1.0  0.1118
  H  H88  1  0.586500  0.368200  0.653900  1.0  0.1266
  H  H89  1  0.356970  0.883930  0.044330  1.0  0.1258
  H  H90  1  0.285770  0.832230  0.011630  1.0  0.105
  H  H91  1  0.308270  0.883430  0.824230  1.0  0.1285
  H  H92  1  0.380870  0.932330  0.855330  1.0  0.1069
  H  H93  1  0.238370  0.875930  0.855230  1.0  0.1161
  H  H94  1  0.280370  0.765430  0.875330  1.0  0.1118
  H  H95  1  0.253170  0.701530  0.987230  1.0  0.1266
  H  H96  1  0.023630  0.217270  0.377670  1.0  0.1223
  H  H97  1  0.952430  0.165570  0.344970  1.0  0.105
  H  H98  1  0.974930  0.216770  0.157570  1.0  0.1285
  H  H99  1  0.047530  0.265670  0.188670  1.0  0.1062
  H  H100  1  0.905030  0.209270  0.188570  1.0  0.1162
  H  H101  1  0.947030  0.098770  0.208670  1.0  0.1119
  H  H102  1  0.919830  0.034870  0.320570  1.0  0.1268
  H  H103  1  0.860300  0.309700  0.711000  1.0  0.1209
  H  H104  1  0.879800  0.380900  0.678300  1.0  0.1051
  H  H105  1  0.908500  0.358400  0.490900  1.0  0.1285
  H  H106  1  0.884800  0.285800  0.522000  1.0  0.106
  H  H107  1  0.970900  0.428300  0.521900  1.0  0.1154
  H  H108  1  0.818400  0.386300  0.542000  1.0  0.1106
  H  H109  1  0.781700  0.413500  0.653900  1.0  0.1265
  H  H110  1  0.526970  0.643030  0.044330  1.0  0.1222
  H  H111  1  0.546470  0.714230  0.011630  1.0  0.1051
  H  H112  1  0.575170  0.691730  0.824230  1.0  0.1285
  H  H113  1  0.551470  0.619130  0.855330  1.0  0.1058
  H  H114  1  0.637570  0.761630  0.855230  1.0  0.1154
  H  H115  1  0.485070  0.719630  0.875330  1.0  0.1106
  H  H116  1  0.448370  0.746830  0.987230  1.0  0.1265
  H  H117  1  0.193630  0.976370  0.377670  1.0  0.1222
  H  H118  1  0.213130  0.047570  0.344970  1.0  0.1069
  H  H119  1  0.241830  0.025070  0.157570  1.0  0.1273
  H  H120  1  0.218130  0.952470  0.188670  1.0  0.1058
  H  H121  1  0.304230  0.094970  0.188570  1.0  0.1154
  H  H122  1  0.151730  0.052970  0.208670  1.0  0.1107
  H  H123  1  0.115030  0.080170  0.320570  1.0  0.1251
  H  H124  1  0.449400  0.139700  0.711000  1.0  0.1202
  H  H125  1  0.501100  0.120200  0.678300  1.0  0.1072
  H  H126  1  0.449900  0.091500  0.490900  1.0  0.1269
  H  H127  1  0.401000  0.115200  0.522000  1.0  0.106
  H  H128  1  0.457400  0.029100  0.521900  1.0  0.1151
  H  H129  1  0.567900  0.181600  0.542000  1.0  0.1112
  H  H130  1  0.631800  0.218300  0.653900  1.0  0.1233
  H  H131  1  0.116070  0.473030  0.044330  1.0  0.1215
  H  H132  1  0.167770  0.453530  0.011630  1.0  0.1072
  H  H133  1  0.116570  0.424830  0.824230  1.0  0.1269
  H  H134  1  0.067670  0.448530  0.855330  1.0  0.1058
  H  H135  1  0.124070  0.362430  0.855230  1.0  0.1151
  H  H136  1  0.234570  0.514930  0.875330  1.0  0.1112
  H  H137  1  0.298470  0.551630  0.987230  1.0  0.1233
  H  H138  1  0.782730  0.806370  0.377670  1.0  0.1251
  H  H139  1  0.834430  0.786870  0.344970  1.0  0.105
  H  H140  1  0.783230  0.758170  0.157570  1.0  0.1277
  H  H141  1  0.734330  0.781870  0.188670  1.0  0.1061
  H  H142  1  0.790730  0.695770  0.188570  1.0  0.115
  H  H143  1  0.901230  0.848270  0.208670  1.0  0.1109
  H  H144  1  0.965130  0.884970  0.320570  1.0  0.1248
  H  H145  1  0.449400  0.309700  0.711000  1.0  0.124
  H  H146  1  0.501100  0.380900  0.678300  1.0  0.1051
  H  H147  1  0.449900  0.358400  0.490900  1.0  0.1283
  H  H148  1  0.401000  0.285800  0.522000  1.0  0.1065
  H  H149  1  0.457400  0.428300  0.521900  1.0  0.1144
  H  H150  1  0.567900  0.386300  0.542000  1.0  0.1119
  H  H151  1  0.631800  0.413500  0.653900  1.0  0.1252
  H  H152  1  0.116070  0.643030  0.044330  1.0  0.1252
  H  H153  1  0.167770  0.714230  0.011630  1.0  0.1052
  H  H154  1  0.116570  0.691730  0.824230  1.0  0.1283
  H  H155  1  0.067670  0.619130  0.855330  1.0  0.1063
  H  H156  1  0.124070  0.761630  0.855230  1.0  0.1144
  H  H157  1  0.234570  0.719630  0.875330  1.0  0.1119
  H  H158  1  0.298470  0.746830  0.987230  1.0  0.1252
  H  H159  1  0.782730  0.976370  0.377670  1.0  0.122
  H  H160  1  0.834430  0.047570  0.344970  1.0  0.1052
  H  H161  1  0.783230  0.025070  0.157570  1.0  0.1283
  H  H162  1  0.734330  0.952470  0.188670  1.0  0.1056
  H  H163  1  0.790730  0.094970  0.188570  1.0  0.1145
  H  H164  1  0.901230  0.052970  0.208670  1.0  0.1117
  H  H165  1  0.965130  0.080170  0.320570  1.0  0.1257
  H  H166  1  0.690300  0.139700  0.711000  1.0  0.1203
  H  H167  1  0.619100  0.120200  0.678300  1.0  0.105
  H  H168  1  0.641600  0.091500  0.490900  1.0  0.1288
  H  H169  1  0.714200  0.115200  0.522000  1.0  0.1066
  H  H170  1  0.571700  0.029100  0.521900  1.0  0.1162
  H  H171  1  0.613700  0.181600  0.542000  1.0  0.1119
  H  H172  1  0.586500  0.218300  0.653900  1.0  0.1237
  H  H173  1  0.356970  0.473030  0.044330  1.0  0.1215
  H  H174  1  0.285770  0.453530  0.011630  1.0  0.105
  H  H175  1  0.308270  0.424830  0.824230  1.0  0.1288
  H  H176  1  0.380870  0.448530  0.855330  1.0  0.1065
  H  H177  1  0.238370  0.362430  0.855230  1.0  0.1162
  H  H178  1  0.280370  0.514930  0.875330  1.0  0.1119
  H  H179  1  0.253170  0.551630  0.987230  1.0  0.1237
  H  H180  1  0.023630  0.806370  0.377670  1.0  0.1215
  H  H181  1  0.952430  0.786870  0.344970  1.0  0.1073
  H  H182  1  0.974930  0.758170  0.157570  1.0  0.1279
  H  H183  1  0.047530  0.781870  0.188670  1.0  0.1065
  H  H184  1  0.905030  0.695770  0.188570  1.0  0.1163
  H  H185  1  0.947030  0.848270  0.208670  1.0  0.1116
  H  H186  1  0.919830  0.884970  0.320570  1.0  0.1224
  H  H187  1  0.860300  0.550600  0.711000  1.0  0.1212
  H  H188  1  0.879800  0.498900  0.678300  1.0  0.1067
  H  H189  1  0.908500  0.550100  0.490900  1.0  0.1274
  H  H190  1  0.884800  0.599000  0.522000  1.0  0.1061
  H  H191  1  0.970900  0.542600  0.521900  1.0  0.1168
  H  H192  1  0.818400  0.432100  0.542000  1.0  0.1107
  H  H193  1  0.781700  0.368200  0.653900  1.0  0.1268
  H  H194  1  0.526970  0.883930  0.044330  1.0  0.1224
  H  H195  1  0.546470  0.832230  0.011630  1.0  0.1068
  H  H196  1  0.575170  0.883430  0.824230  1.0  0.1274
  H  H197  1  0.551470  0.932330  0.855330  1.0  0.1059
  H  H198  1  0.637570  0.875930  0.855230  1.0  0.1168
  H  H199  1  0.485070  0.765430  0.875330  1.0  0.1107
  H  H200  1  0.448370  0.701530  0.987230  1.0  0.1268
  H  H201  1  0.193630  0.217270  0.377670  1.0  0.1255
  H  H202  1  0.213130  0.165570  0.344970  1.0  0.1048
  H  H203  1  0.241830  0.216770  0.157570  1.0  0.1281
  H  H204  1  0.218130  0.265670  0.188670  1.0  0.1063
  H  H205  1  0.304230  0.209270  0.188570  1.0  0.1168
  H  H206  1  0.151730  0.098770  0.208670  1.0  0.1112
  H  H207  1  0.115030  0.034870  0.320570  1.0  0.1276
  H  H208  1  0.309700  0.449400  0.289000  1.0  0.1257
  H  H209  1  0.380900  0.501100  0.321700  1.0  0.1046
  H  H210  1  0.358400  0.449900  0.509100  1.0  0.1291
  H  H211  1  0.285800  0.401000  0.478000  1.0  0.1067
  H  H212  1  0.428300  0.457400  0.478100  1.0  0.1159
  H  H213  1  0.386300  0.567900  0.458000  1.0  0.1133
  H  H214  1  0.413500  0.631800  0.346100  1.0  0.1251
  H  H215  1  0.976370  0.782730  0.622330  1.0  0.1216
  H  H216  1  0.047570  0.834430  0.655030  1.0  0.1046
  H  H217  1  0.025070  0.783230  0.842430  1.0  0.1292
  H  H218  1  0.952470  0.734330  0.811330  1.0  0.1063
  H  H219  1  0.094970  0.790730  0.811430  1.0  0.116
  H  H220  1  0.052970  0.901230  0.791330  1.0  0.1133
  H  H221  1  0.080170  0.965130  0.679430  1.0  0.1251
  H  H222  1  0.643030  0.116070  0.955670  1.0  0.1257
  H  H223  1  0.714230  0.167770  0.988370  1.0  0.1046
  H  H224  1  0.691730  0.116570  0.175770  1.0  0.1291
  H  H225  1  0.619130  0.067670  0.144670  1.0  0.1067
  H  H226  1  0.761630  0.124070  0.144770  1.0  0.1159
  H  H227  1  0.719630  0.234570  0.124670  1.0  0.1133
  H  H228  1  0.746830  0.298470  0.012770  1.0  0.1251
  H  H229  1  0.139700  0.690300  0.289000  1.0  0.1226
  H  H230  1  0.120200  0.619100  0.321700  1.0  0.1048
  H  H231  1  0.091500  0.641600  0.509100  1.0  0.1288
  H  H232  1  0.115200  0.714200  0.478000  1.0  0.1058
  H  H233  1  0.029100  0.571700  0.478100  1.0  0.1144
  H  H234  1  0.181600  0.613700  0.458000  1.0  0.1113
  H  H235  1  0.218300  0.586500  0.346100  1.0  0.127
  H  H236  1  0.806370  0.023630  0.622330  1.0  0.1215
  H  H237  1  0.786870  0.952430  0.655030  1.0  0.1064
  H  H238  1  0.758170  0.974930  0.842430  1.0  0.128
  H  H239  1  0.781870  0.047530  0.811330  1.0  0.1059
  H  H240  1  0.695770  0.905030  0.811430  1.0  0.1145
  H  H241  1  0.848270  0.947030  0.791330  1.0  0.1119
  H  H242  1  0.884970  0.919830  0.679430  1.0  0.1253
  H  H243  1  0.473030  0.356970  0.955670  1.0  0.1226
  H  H244  1  0.453530  0.285770  0.988370  1.0  0.1048
  H  H245  1  0.424830  0.308270  0.175770  1.0  0.1288
  H  H246  1  0.448530  0.380870  0.144670  1.0  0.1058
  H  H247  1  0.362430  0.238370  0.144770  1.0  0.1144
  H  H248  1  0.514930  0.280370  0.124670  1.0  0.1113
  H  H249  1  0.551630  0.253170  0.012770  1.0  0.127
  H  H250  1  0.550600  0.860300  0.289000  1.0  0.122
  H  H251  1  0.498900  0.879800  0.321700  1.0  0.1066
  H  H252  1  0.550100  0.908500  0.509100  1.0  0.1281
  H  H253  1  0.599000  0.884800  0.478000  1.0  0.1059
  H  H254  1  0.542600  0.970900  0.478100  1.0  0.1157
  H  H255  1  0.432100  0.818400  0.458000  1.0  0.1125
  H  H256  1  0.368200  0.781700  0.346100  1.0  0.1227
  H  H257  1  0.217270  0.193630  0.622330  1.0  0.1238
  H  H258  1  0.165570  0.213130  0.655030  1.0  0.1048
  H  H259  1  0.216770  0.241830  0.842430  1.0  0.1287
  H  H260  1  0.265670  0.218130  0.811330  1.0  0.1064
  H  H261  1  0.209270  0.304230  0.811430  1.0  0.1156
  H  H262  1  0.098770  0.151730  0.791330  1.0  0.1118
  H  H263  1  0.034870  0.115030  0.679430  1.0  0.1243
  H  H264  1  0.883930  0.526970  0.955670  1.0  0.122
  H  H265  1  0.832230  0.546470  0.988370  1.0  0.1066
  H  H266  1  0.883430  0.575170  0.175770  1.0  0.1281
  H  H267  1  0.932330  0.551470  0.144670  1.0  0.1059
  H  H268  1  0.875930  0.637570  0.144770  1.0  0.1157
  H  H269  1  0.765430  0.485070  0.124670  1.0  0.1125
  H  H270  1  0.701530  0.448370  0.012770  1.0  0.1227
  H  H271  1  0.375600  0.624400  0.397000  1.0  0.1359
  H  H272  1  0.042270  0.957730  0.730330  1.0  0.1361
  H  H273  1  0.708930  0.291070  0.063670  1.0  0.1359
  H  H274  1  0.375600  0.751200  0.397000  1.0  0.1377
  H  H275  1  0.042270  0.084530  0.730330  1.0  0.141
  H  H276  1  0.708930  0.417870  0.063670  1.0  0.1377
  H  H277  1  0.248800  0.624400  0.397000  1.0  0.1387
  H  H278  1  0.915470  0.957730  0.730330  1.0  0.1429
  H  H279  1  0.582130  0.291070  0.063670  1.0  0.1387
  H  H280  1  0.624400  0.375600  0.603000  1.0  0.1387
  H  H281  1  0.291070  0.708930  0.936330  1.0  0.1387
  H  H282  1  0.957730  0.042270  0.269670  1.0  0.1389
  H  H283  1  0.751200  0.375600  0.603000  1.0  0.1375
  H  H284  1  0.417870  0.708930  0.936330  1.0  0.1375
  H  H285  1  0.084530  0.042270  0.269670  1.0  0.1409
  H  H286  1  0.624400  0.248800  0.603000  1.0  0.14
  H  H287  1  0.291070  0.582130  0.936330  1.0  0.14
  H  H288  1  0.957730  0.915470  0.269670  1.0  0.1431
  C  C289  1  0.612150  0.755880  0.362650  1.0  0.672
  C  C290  1  0.579240  0.709370  0.383200  1.0  -0.1064
  C  C291  1  0.549880  0.680660  0.333400  1.0  -0.085
  C  C292  1  0.520340  0.638040  0.352660  1.0  -0.1352
  C  C293  1  0.521160  0.622390  0.415500  1.0  0.0443
  C  C294  1  0.550260  0.651320  0.464950  1.0  -0.1796
  C  C295  1  0.578990  0.694530  0.446020  1.0  -0.0299
  C  C296  1  0.493420  0.575660  0.433400  1.0  -0.0058
  C  C297  1  0.512490  0.555200  0.466900  1.0  -0.1427
  C  C298  1  0.278820  0.089210  0.695980  1.0  0.672
  C  C299  1  0.245910  0.042700  0.716530  1.0  -0.1064
  C  C300  1  0.216550  0.013990  0.666667  1.0  -0.0714
  C  C301  1  0.187010  0.971370  0.685990  1.0  -0.1375
  C  C302  1  0.187830  0.955720  0.748830  1.0  0.0442
  C  C303  1  0.216930  0.984650  0.798280  1.0  -0.1793
  C  C304  1  0.245660  0.027860  0.779350  1.0  -0.0293
  C  C305  1  0.160090  0.908990  0.766730  1.0  -0.0058
  C  C306  1  0.179160  0.888530  0.800230  1.0  -0.1427
  C  C307  1  0.945480  0.422550  0.029320  1.0  0.672
  C  C308  1  0.912570  0.376040  0.049870  1.0  -0.1063
  C  C309  1  0.883210  0.347330  0.000070  1.0  -0.0848
  C  C310  1  0.853670  0.304710  0.019330  1.0  -0.1352
  C  C311  1  0.854490  0.289060  0.082170  1.0  0.0443
  C  C312  1  0.883590  0.317990  0.131620  1.0  -0.1796
  C  C313  1  0.912320  0.361200  0.112690  1.0  -0.0299
  C  C314  1  0.826750  0.242330  0.100070  1.0  -0.0058
  C  C315  1  0.845820  0.221870  0.133570  1.0  -0.1427
  C  C316  1  0.244120  0.856270  0.362650  1.0  0.6702
  C  C317  1  0.290630  0.869870  0.383200  1.0  -0.1077
  C  C318  1  0.319340  0.869220  0.333400  1.0  -0.0843
  C  C319  1  0.361960  0.882300  0.352660  1.0  -0.1327
  C  C320  1  0.377610  0.898770  0.415500  1.0  0.045
  C  C321  1  0.348680  0.898940  0.464950  1.0  -0.1776
  C  C322  1  0.305470  0.884460  0.446020  1.0  -0.0298
  C  C323  1  0.424340  0.917760  0.433400  1.0  -0.0059
  C  C324  1  0.444800  0.957290  0.466900  1.0  -0.1337
  C  C325  1  0.910790  0.189600  0.695980  1.0  0.6702
  C  C326  1  0.957300  0.203200  0.716530  1.0  -0.1078
  C  C327  1  0.986010  0.202550  0.666667  1.0  -0.0704
  C  C328  1  0.028630  0.215630  0.685990  1.0  -0.1352
  C  C329  1  0.044280  0.232100  0.748830  1.0  0.0449
  C  C330  1  0.015350  0.232270  0.798280  1.0  -0.1774
  C  C331  1  0.972140  0.217790  0.779350  1.0  -0.0291
  C  C332  1  0.091010  0.251090  0.766730  1.0  -0.0059
  C  C333  1  0.111470  0.290620  0.800230  1.0  -0.1337
  C  C334  1  0.577450  0.522940  0.029320  1.0  0.6702
  C  C335  1  0.623960  0.536540  0.049870  1.0  -0.1078
  C  C336  1  0.652670  0.535890  0.000070  1.0  -0.0843
  C  C337  1  0.695290  0.548970  0.019330  1.0  -0.1327
  C  C338  1  0.710940  0.565440  0.082170  1.0  0.045
  C  C339  1  0.682010  0.565610  0.131620  1.0  -0.1776
  C  C340  1  0.638800  0.551130  0.112690  1.0  -0.0298
  C  C341  1  0.757670  0.584430  0.100070  1.0  -0.0059
  C  C342  1  0.778130  0.623960  0.133570  1.0  -0.142
  C  C343  1  0.143730  0.387850  0.362650  1.0  0.6708
  C  C344  1  0.130130  0.420760  0.383200  1.0  -0.108
  C  C345  1  0.130780  0.450120  0.333400  1.0  -0.0853
  C  C346  1  0.117700  0.479660  0.352660  1.0  -0.1341
  C  C347  1  0.101230  0.478840  0.415500  1.0  0.0457
  C  C348  1  0.101060  0.449740  0.464950  1.0  -0.1808
  C  C349  1  0.115540  0.421010  0.446020  1.0  -0.0316
  C  C350  1  0.082240  0.506580  0.433400  1.0  -0.0076
  C  C351  1  0.042710  0.487510  0.466900  1.0  -0.1382
  C  C352  1  0.810400  0.721180  0.695980  1.0  0.6708
  C  C353  1  0.796800  0.754090  0.716530  1.0  -0.1081
  C  C354  1  0.797450  0.783450  0.666667  1.0  -0.072
  C  C355  1  0.784370  0.812990  0.685990  1.0  -0.1364
  C  C356  1  0.767900  0.812170  0.748830  1.0  0.0456
  C  C357  1  0.767730  0.783070  0.798280  1.0  -0.1806
  C  C358  1  0.782210  0.754340  0.779350  1.0  -0.031
  C  C359  1  0.748910  0.839910  0.766730  1.0  -0.0076
  C  C360  1  0.709380  0.820840  0.800230  1.0  -0.1382
  C  C361  1  0.477060  0.054520  0.029320  1.0  0.6708
  C  C362  1  0.463460  0.087430  0.049870  1.0  -0.108
  C  C363  1  0.464110  0.116790  0.000070  1.0  -0.0853
  C  C364  1  0.451030  0.146330  0.019330  1.0  -0.1341
  C  C365  1  0.434560  0.145510  0.082170  1.0  0.0457
  C  C366  1  0.434390  0.116410  0.131620  1.0  -0.1808
  C  C367  1  0.448870  0.087680  0.112690  1.0  -0.0316
  C  C368  1  0.415570  0.173250  0.100070  1.0  -0.0076
  C  C369  1  0.376040  0.154180  0.133570  1.0  -0.1308
  C  C370  1  0.755880  0.612150  0.637350  1.0  0.6711
  C  C371  1  0.709370  0.579240  0.616800  1.0  -0.1083
  C  C372  1  0.680660  0.549880  0.666667  1.0  -0.0725
  C  C373  1  0.638040  0.520340  0.647340  1.0  -0.1377
  C  C374  1  0.622390  0.521160  0.584500  1.0  0.0458
  C  C375  1  0.651320  0.550260  0.535050  1.0  -0.1768
  C  C376  1  0.694530  0.578990  0.553980  1.0  -0.0311
  C  C377  1  0.575660  0.493420  0.566600  1.0  -0.0072
  C  C378  1  0.555200  0.512490  0.533100  1.0  -0.139
  C  C379  1  0.422550  0.945480  0.970680  1.0  0.6711
  C  C380  1  0.376040  0.912570  0.950130  1.0  -0.1081
  C  C381  1  0.347330  0.883210  0.999930  1.0  -0.0854
  C  C382  1  0.304710  0.853670  0.980670  1.0  -0.1355
  C  C383  1  0.289060  0.854490  0.917830  1.0  0.0456
  C  C384  1  0.317990  0.883590  0.868380  1.0  -0.177
  C  C385  1  0.361200  0.912320  0.887310  1.0  -0.0318
  C  C386  1  0.242330  0.826750  0.899930  1.0  -0.0072
  C  C387  1  0.221870  0.845820  0.866430  1.0  -0.1389
  C  C388  1  0.089210  0.278820  0.304020  1.0  0.6711
  C  C389  1  0.042700  0.245910  0.283470  1.0  -0.1082
  C  C390  1  0.013990  0.216550  0.333270  1.0  -0.0855
  C  C391  1  0.971370  0.187010  0.314010  1.0  -0.1355
  C  C392  1  0.955720  0.187830  0.251170  1.0  0.0456
  C  C393  1  0.984650  0.216930  0.201720  1.0  -0.177
  C  C394  1  0.027860  0.245660  0.220650  1.0  -0.0318
  C  C395  1  0.908990  0.160090  0.233270  1.0  -0.0072
  C  C396  1  0.888530  0.179160  0.199770  1.0  -0.139
  C  C397  1  0.856270  0.244120  0.637350  1.0  0.6714
  C  C398  1  0.869870  0.290630  0.616800  1.0  -0.1067
  C  C399  1  0.869220  0.319340  0.666667  1.0  -0.0729
  C  C400  1  0.882300  0.361960  0.647340  1.0  -0.138
  C  C401  1  0.898770  0.377610  0.584500  1.0  0.0447
  C  C402  1  0.898940  0.348680  0.535050  1.0  -0.1766
  C  C403  1  0.884460  0.305470  0.553980  1.0  -0.0313
  C  C404  1  0.917760  0.424340  0.566600  1.0  -0.0061
  C  C405  1  0.957290  0.444800  0.533100  1.0  -0.1347
  C  C406  1  0.522940  0.577450  0.970680  1.0  0.6714
  C  C407  1  0.536540  0.623960  0.950130  1.0  -0.1066
  C  C408  1  0.535890  0.652670  0.999930  1.0  -0.0863
  C  C409  1  0.548970  0.695290  0.980670  1.0  -0.1358
  C  C410  1  0.565440  0.710940  0.917830  1.0  0.0445
  C  C411  1  0.565610  0.682010  0.868380  1.0  -0.1768
  C  C412  1  0.551130  0.638800  0.887310  1.0  -0.032
  C  C413  1  0.584430  0.757670  0.899930  1.0  -0.006
  C  C414  1  0.623960  0.778130  0.866430  1.0  -0.1427
  C  C415  1  0.189600  0.910790  0.304020  1.0  0.6713
  C  C416  1  0.203200  0.957300  0.283470  1.0  -0.1066
  C  C417  1  0.202550  0.986010  0.333270  1.0  -0.0863
  C  C418  1  0.215630  0.028630  0.314010  1.0  -0.1358
  C  C419  1  0.232100  0.044280  0.251170  1.0  0.0445
  C  C420  1  0.232270  0.015350  0.201720  1.0  -0.1768
  C  C421  1  0.217790  0.972140  0.220650  1.0  -0.032
  C  C422  1  0.251090  0.091010  0.233270  1.0  -0.0061
  C  C423  1  0.290620  0.111470  0.199770  1.0  -0.1347
  C  C424  1  0.387850  0.143730  0.637350  1.0  0.6703
  C  C425  1  0.420760  0.130130  0.616800  1.0  -0.1079
  C  C426  1  0.450120  0.130780  0.666667  1.0  -0.0721
  C  C427  1  0.479660  0.117700  0.647340  1.0  -0.1362
  C  C428  1  0.478840  0.101230  0.584500  1.0  0.0448
  C  C429  1  0.449740  0.101060  0.535050  1.0  -0.1738
  C  C430  1  0.421010  0.115540  0.553980  1.0  -0.0284
  C  C431  1  0.506580  0.082240  0.566600  1.0  -0.007
  C  C432  1  0.487510  0.042710  0.533100  1.0  -0.1418
  C  C433  1  0.054520  0.477060  0.970680  1.0  0.6703
  C  C434  1  0.087430  0.463460  0.950130  1.0  -0.1077
  C  C435  1  0.116790  0.464110  0.999930  1.0  -0.0857
  C  C436  1  0.146330  0.451030  0.980670  1.0  -0.1339
  C  C437  1  0.145510  0.434560  0.917830  1.0  0.0446
  C  C438  1  0.116410  0.434390  0.868380  1.0  -0.174
  C  C439  1  0.087680  0.448870  0.887310  1.0  -0.029
  C  C440  1  0.173250  0.415570  0.899930  1.0  -0.007
  C  C441  1  0.154180  0.376040  0.866430  1.0  -0.1341
  C  C442  1  0.721180  0.810400  0.304020  1.0  0.6703
  C  C443  1  0.754090  0.796800  0.283470  1.0  -0.1077
  C  C444  1  0.783450  0.797450  0.333270  1.0  -0.0857
  C  C445  1  0.812990  0.784370  0.314010  1.0  -0.1339
  C  C446  1  0.812170  0.767900  0.251170  1.0  0.0446
  C  C447  1  0.783070  0.767730  0.201720  1.0  -0.174
  C  C448  1  0.754340  0.782210  0.220650  1.0  -0.029
  C  C449  1  0.839910  0.748910  0.233270  1.0  -0.007
  C  C450  1  0.820840  0.709380  0.199770  1.0  -0.1418
  C  C451  1  0.387850  0.244120  0.637350  1.0  0.6714
  C  C452  1  0.420760  0.290630  0.616800  1.0  -0.1071
  C  C453  1  0.450120  0.319340  0.666667  1.0  -0.0725
  C  C454  1  0.479660  0.361960  0.647340  1.0  -0.1381
  C  C455  1  0.478840  0.377610  0.584500  1.0  0.0446
  C  C456  1  0.449740  0.348680  0.535050  1.0  -0.1756
  C  C457  1  0.421010  0.305470  0.553980  1.0  -0.0304
  C  C458  1  0.506580  0.424340  0.566600  1.0  -0.0069
  C  C459  1  0.487510  0.444800  0.533100  1.0  -0.1416
  C  C460  1  0.054520  0.577450  0.970680  1.0  0.6713
  C  C461  1  0.087430  0.623960  0.950130  1.0  -0.1071
  C  C462  1  0.116790  0.652670  0.999930  1.0  -0.0858
  C  C463  1  0.146330  0.695290  0.980670  1.0  -0.1357
  C  C464  1  0.145510  0.710940  0.917830  1.0  0.0444
  C  C465  1  0.116410  0.682010  0.868380  1.0  -0.1758
  C  C466  1  0.087680  0.638800  0.887310  1.0  -0.031
  C  C467  1  0.173250  0.757670  0.899930  1.0  -0.0069
  C  C468  1  0.154180  0.778130  0.866430  1.0  -0.1415
  C  C469  1  0.721180  0.910790  0.304020  1.0  0.6714
  C  C470  1  0.754090  0.957300  0.283470  1.0  -0.1071
  C  C471  1  0.783450  0.986010  0.333270  1.0  -0.0859
  C  C472  1  0.812990  0.028630  0.314010  1.0  -0.1357
  C  C473  1  0.812170  0.044280  0.251170  1.0  0.0444
  C  C474  1  0.783070  0.015350  0.201720  1.0  -0.1758
  C  C475  1  0.754340  0.972140  0.220650  1.0  -0.031
  C  C476  1  0.839910  0.091010  0.233270  1.0  -0.0069
  C  C477  1  0.820840  0.111470  0.199770  1.0  -0.1416
  C  C478  1  0.755880  0.143730  0.637350  1.0  0.6702
  C  C479  1  0.709370  0.130130  0.616800  1.0  -0.108
  C  C480  1  0.680660  0.130780  0.666667  1.0  -0.0722
  C  C481  1  0.638040  0.117700  0.647340  1.0  -0.1371
  C  C482  1  0.622390  0.101230  0.584500  1.0  0.0447
  C  C483  1  0.651320  0.101060  0.535050  1.0  -0.1734
  C  C484  1  0.694530  0.115540  0.553980  1.0  -0.0284
  C  C485  1  0.575660  0.082240  0.566600  1.0  -0.0062
  C  C486  1  0.555200  0.042710  0.533100  1.0  -0.1341
  C  C487  1  0.422550  0.477060  0.970680  1.0  0.6701
  C  C488  1  0.376040  0.463460  0.950130  1.0  -0.108
  C  C489  1  0.347330  0.464110  0.999930  1.0  -0.0856
  C  C490  1  0.304710  0.451030  0.980670  1.0  -0.135
  C  C491  1  0.289060  0.434560  0.917830  1.0  0.0446
  C  C492  1  0.317990  0.434390  0.868380  1.0  -0.1736
  C  C493  1  0.361200  0.448870  0.887310  1.0  -0.0292
  C  C494  1  0.242330  0.415570  0.899930  1.0  -0.0062
  C  C495  1  0.221870  0.376040  0.866430  1.0  -0.1423
  C  C496  1  0.089210  0.810400  0.304020  1.0  0.6701
  C  C497  1  0.042700  0.796800  0.283470  1.0  -0.1079
  C  C498  1  0.013990  0.797450  0.333270  1.0  -0.0855
  C  C499  1  0.971370  0.784370  0.314010  1.0  -0.135
  C  C500  1  0.955720  0.767900  0.251170  1.0  0.0446
  C  C501  1  0.984650  0.767730  0.201720  1.0  -0.1736
  C  C502  1  0.027860  0.782210  0.220650  1.0  -0.0292
  C  C503  1  0.908990  0.748910  0.233270  1.0  -0.0062
  C  C504  1  0.888530  0.709380  0.199770  1.0  -0.1341
  C  C505  1  0.856270  0.612150  0.637350  1.0  0.6717
  C  C506  1  0.869870  0.579240  0.616800  1.0  -0.1077
  C  C507  1  0.869220  0.549880  0.666667  1.0  -0.0728
  C  C508  1  0.882300  0.520340  0.647340  1.0  -0.1361
  C  C509  1  0.898770  0.521160  0.584500  1.0  0.0457
  C  C510  1  0.898940  0.550260  0.535050  1.0  -0.1762
  C  C511  1  0.884460  0.578990  0.553980  1.0  -0.0304
  C  C512  1  0.917760  0.493420  0.566600  1.0  -0.0078
  C  C513  1  0.957290  0.512490  0.533100  1.0  -0.1387
  C  C514  1  0.522940  0.945480  0.970680  1.0  0.6717
  C  C515  1  0.536540  0.912570  0.950130  1.0  -0.1076
  C  C516  1  0.535890  0.883210  0.999930  1.0  -0.0861
  C  C517  1  0.548970  0.853670  0.980670  1.0  -0.1338
  C  C518  1  0.565440  0.854490  0.917830  1.0  0.0455
  C  C519  1  0.565610  0.883590  0.868380  1.0  -0.1764
  C  C520  1  0.551130  0.912320  0.887310  1.0  -0.031
  C  C521  1  0.584430  0.826750  0.899930  1.0  -0.0078
  C  C522  1  0.623960  0.845820  0.866430  1.0  -0.1296
  C  C523  1  0.189600  0.278820  0.304020  1.0  0.6717
  C  C524  1  0.203200  0.245910  0.283470  1.0  -0.1076
  C  C525  1  0.202550  0.216550  0.333270  1.0  -0.0861
  C  C526  1  0.215630  0.187010  0.314010  1.0  -0.1338
  C  C527  1  0.232100  0.187830  0.251170  1.0  0.0455
  C  C528  1  0.232270  0.216930  0.201720  1.0  -0.1764
  C  C529  1  0.217790  0.245660  0.220650  1.0  -0.031
  C  C530  1  0.251090  0.160090  0.233270  1.0  -0.0078
  C  C531  1  0.290620  0.179160  0.199770  1.0  -0.1387
  C  C532  1  0.244120  0.387850  0.362650  1.0  0.6715
  C  C533  1  0.290630  0.420760  0.383200  1.0  -0.1077
  C  C534  1  0.319340  0.450120  0.333400  1.0  -0.0841
  C  C535  1  0.361960  0.479660  0.352660  1.0  -0.1336
  C  C536  1  0.377610  0.478840  0.415500  1.0  0.0458
  C  C537  1  0.348680  0.449740  0.464950  1.0  -0.1799
  C  C538  1  0.305470  0.421010  0.446020  1.0  -0.032
  C  C539  1  0.424340  0.506580  0.433400  1.0  -0.0086
  C  C540  1  0.444800  0.487510  0.466900  1.0  -0.1378
  C  C541  1  0.910790  0.721180  0.695980  1.0  0.6715
  C  C542  1  0.957300  0.754090  0.716530  1.0  -0.1078
  C  C543  1  0.986010  0.783450  0.666667  1.0  -0.0704
  C  C544  1  0.028630  0.812990  0.685990  1.0  -0.136
  C  C545  1  0.044280  0.812170  0.748830  1.0  0.0457
  C  C546  1  0.015350  0.783070  0.798280  1.0  -0.1796
  C  C547  1  0.972140  0.754340  0.779350  1.0  -0.0313
  C  C548  1  0.091010  0.839910  0.766730  1.0  -0.0086
  C  C549  1  0.111470  0.820840  0.800230  1.0  -0.1378
  C  C550  1  0.577450  0.054520  0.029320  1.0  0.6715
  C  C551  1  0.623960  0.087430  0.049870  1.0  -0.1077
  C  C552  1  0.652670  0.116790  0.000070  1.0  -0.084
  C  C553  1  0.695290  0.146330  0.019330  1.0  -0.1336
  C  C554  1  0.710940  0.145510  0.082170  1.0  0.0458
  C  C555  1  0.682010  0.116410  0.131620  1.0  -0.1799
  C  C556  1  0.638800  0.087680  0.112690  1.0  -0.032
  C  C557  1  0.757670  0.173250  0.100070  1.0  -0.0085
  C  C558  1  0.778130  0.154180  0.133570  1.0  -0.1378
  C  C559  1  0.143730  0.755880  0.362650  1.0  0.672
  C  C560  1  0.130130  0.709370  0.383200  1.0  -0.1065
  C  C561  1  0.130780  0.680660  0.333400  1.0  -0.086
  C  C562  1  0.117700  0.638040  0.352660  1.0  -0.1348
  C  C563  1  0.101230  0.622390  0.415500  1.0  0.0444
  C  C564  1  0.101060  0.651320  0.464950  1.0  -0.1802
  C  C565  1  0.115540  0.694530  0.446020  1.0  -0.0318
  C  C566  1  0.082240  0.575660  0.433400  1.0  -0.0066
  C  C567  1  0.042710  0.555200  0.466900  1.0  -0.1337
  C  C568  1  0.810400  0.089210  0.695980  1.0  0.6721
  C  C569  1  0.796800  0.042700  0.716530  1.0  -0.1066
  C  C570  1  0.797450  0.013990  0.666667  1.0  -0.0719
  C  C571  1  0.784370  0.971370  0.685990  1.0  -0.1373
  C  C572  1  0.767900  0.955720  0.748830  1.0  0.0443
  C  C573  1  0.767730  0.984650  0.798280  1.0  -0.1799
  C  C574  1  0.782210  0.027860  0.779350  1.0  -0.0311
  C  C575  1  0.748910  0.908990  0.766730  1.0  -0.0066
  C  C576  1  0.709380  0.888530  0.800230  1.0  -0.1337
  C  C577  1  0.477060  0.422550  0.029320  1.0  0.672
  C  C578  1  0.463460  0.376040  0.049870  1.0  -0.1065
  C  C579  1  0.464110  0.347330  0.000070  1.0  -0.086
  C  C580  1  0.451030  0.304710  0.019330  1.0  -0.1348
  C  C581  1  0.434560  0.289060  0.082170  1.0  0.0444
  C  C582  1  0.434390  0.317990  0.131620  1.0  -0.1802
  C  C583  1  0.448870  0.361200  0.112690  1.0  -0.0318
  C  C584  1  0.415570  0.242330  0.100070  1.0  -0.0066
  C  C585  1  0.376040  0.221870  0.133570  1.0  -0.1418
  C  C586  1  0.612150  0.856270  0.362650  1.0  0.67
  C  C587  1  0.579240  0.869870  0.383200  1.0  -0.1074
  C  C588  1  0.549880  0.869220  0.333400  1.0  -0.085
  C  C589  1  0.520340  0.882300  0.352660  1.0  -0.1338
  C  C590  1  0.521160  0.898770  0.415500  1.0  0.0447
  C  C591  1  0.550260  0.898940  0.464950  1.0  -0.1772
  C  C592  1  0.578990  0.884460  0.446020  1.0  -0.0284
  C  C593  1  0.493420  0.917760  0.433400  1.0  -0.0056
  C  C594  1  0.512490  0.957290  0.466900  1.0  -0.1426
  C  C595  1  0.278820  0.189600  0.695980  1.0  0.67
  C  C596  1  0.245910  0.203200  0.716530  1.0  -0.1076
  C  C597  1  0.216550  0.202550  0.666667  1.0  -0.0713
  C  C598  1  0.187010  0.215630  0.685990  1.0  -0.1361
  C  C599  1  0.187830  0.232100  0.748830  1.0  0.0446
  C  C600  1  0.216930  0.232270  0.798280  1.0  -0.177
  C  C601  1  0.245660  0.217790  0.779350  1.0  -0.0277
  C  C602  1  0.160090  0.251090  0.766730  1.0  -0.0056
  C  C603  1  0.179160  0.290620  0.800230  1.0  -0.1426
  C  C604  1  0.945480  0.522940  0.029320  1.0  0.67
  C  C605  1  0.912570  0.536540  0.049870  1.0  -0.1074
  C  C606  1  0.883210  0.535890  0.000070  1.0  -0.085
  C  C607  1  0.853670  0.548970  0.019330  1.0  -0.1338
  C  C608  1  0.854490  0.565440  0.082170  1.0  0.0447
  C  C609  1  0.883590  0.565610  0.131620  1.0  -0.1772
  C  C610  1  0.912320  0.551130  0.112690  1.0  -0.0284
  C  C611  1  0.826750  0.584430  0.100070  1.0  -0.0056
  C  C612  1  0.845820  0.623960  0.133570  1.0  -0.1344
  C  C613  1  0.488930  0.511070  0.484900  1.0  0.0143
  C  C614  1  0.449410  0.550590  0.415800  1.0  0.1416
  C  C615  1  0.409560  0.590440  0.429600  1.0  -0.0434
  C  C616  1  0.389700  0.610300  0.374100  1.0  -0.3542
  C  C617  1  0.155600  0.844400  0.818230  1.0  0.0143
  C  C618  1  0.116080  0.883920  0.749130  1.0  0.1417
  C  C619  1  0.076230  0.923770  0.762930  1.0  -0.0434
  C  C620  1  0.056370  0.943630  0.707430  1.0  -0.3542
  C  C621  1  0.822260  0.177740  0.151570  1.0  0.0143
  C  C622  1  0.782740  0.217260  0.082470  1.0  0.1416
  C  C623  1  0.742890  0.257110  0.096270  1.0  -0.0434
  C  C624  1  0.723030  0.276970  0.040770  1.0  -0.3542
  C  C625  1  0.488930  0.977860  0.484900  1.0  0.0149
  C  C626  1  0.449410  0.898820  0.415800  1.0  0.143
  C  C627  1  0.409560  0.819120  0.429600  1.0  -0.0458
  C  C628  1  0.389700  0.779400  0.374100  1.0  -0.3551
  C  C629  1  0.155600  0.311190  0.818230  1.0  0.0149
  C  C630  1  0.116080  0.232150  0.749130  1.0  0.143
  C  C631  1  0.076230  0.152450  0.762930  1.0  -0.0458
  C  C632  1  0.056370  0.112730  0.707430  1.0  -0.3551
  C  C633  1  0.822260  0.644530  0.151570  1.0  0.0149
  C  C634  1  0.782740  0.565490  0.082470  1.0  0.1431
  C  C635  1  0.742890  0.485790  0.096270  1.0  -0.0458
  C  C636  1  0.723030  0.446070  0.040770  1.0  -0.3551
  C  C637  1  0.022140  0.511070  0.484900  1.0  0.0144
  C  C638  1  0.101180  0.550590  0.415800  1.0  0.1436
  C  C639  1  0.180880  0.590440  0.429600  1.0  -0.043
  C  C640  1  0.220600  0.610300  0.374100  1.0  -0.3566
  C  C641  1  0.688810  0.844400  0.818230  1.0  0.0143
  C  C642  1  0.767850  0.883920  0.749130  1.0  0.1436
  C  C643  1  0.847550  0.923770  0.762930  1.0  -0.043
  C  C644  1  0.887270  0.943630  0.707430  1.0  -0.3566
  C  C645  1  0.355470  0.177740  0.151570  1.0  0.0144
  C  C646  1  0.434510  0.217260  0.082470  1.0  0.1436
  C  C647  1  0.514210  0.257110  0.096270  1.0  -0.043
  C  C648  1  0.553930  0.276970  0.040770  1.0  -0.3566
  C  C649  1  0.511070  0.488930  0.515100  1.0  0.0152
  C  C650  1  0.550590  0.449410  0.584200  1.0  0.1407
  C  C651  1  0.590440  0.409560  0.570400  1.0  -0.0454
  C  C652  1  0.610300  0.389700  0.625900  1.0  -0.3542
  C  C653  1  0.177740  0.822260  0.848430  1.0  0.0152
  C  C654  1  0.217260  0.782740  0.917530  1.0  0.1407
  C  C655  1  0.257110  0.742890  0.903730  1.0  -0.0454
  C  C656  1  0.276970  0.723030  0.959230  1.0  -0.3542
  C  C657  1  0.844400  0.155600  0.181770  1.0  0.0152
  C  C658  1  0.883920  0.116080  0.250870  1.0  0.1407
  C  C659  1  0.923770  0.076230  0.237070  1.0  -0.0454
  C  C660  1  0.943630  0.056370  0.292570  1.0  -0.3542
  C  C661  1  0.977860  0.488930  0.515100  1.0  0.013
  C  C662  1  0.898820  0.449410  0.584200  1.0  0.1405
  C  C663  1  0.819120  0.409560  0.570400  1.0  -0.0443
  C  C664  1  0.779400  0.389700  0.625900  1.0  -0.3532
  C  C665  1  0.644530  0.822260  0.848430  1.0  0.013
  C  C666  1  0.565490  0.782740  0.917530  1.0  0.1406
  C  C667  1  0.485790  0.742890  0.903730  1.0  -0.0443
  C  C668  1  0.446070  0.723030  0.959230  1.0  -0.3532
  C  C669  1  0.311190  0.155600  0.181770  1.0  0.013
  C  C670  1  0.232150  0.116080  0.250870  1.0  0.1405
  C  C671  1  0.152450  0.076230  0.237070  1.0  -0.0443
  C  C672  1  0.112730  0.056370  0.292570  1.0  -0.3532
  C  C673  1  0.511070  0.022140  0.515100  1.0  0.015
  C  C674  1  0.550590  0.101180  0.584200  1.0  0.1412
  C  C675  1  0.590440  0.180880  0.570400  1.0  -0.0494
  C  C676  1  0.610300  0.220600  0.625900  1.0  -0.3547
  C  C677  1  0.177740  0.355470  0.848430  1.0  0.015
  C  C678  1  0.217260  0.434510  0.917530  1.0  0.1412
  C  C679  1  0.257110  0.514210  0.903730  1.0  -0.0494
  C  C680  1  0.276970  0.553930  0.959230  1.0  -0.3547
  C  C681  1  0.844400  0.688810  0.181770  1.0  0.015
  C  C682  1  0.883920  0.767850  0.250870  1.0  0.1412
  C  C683  1  0.923770  0.847550  0.237070  1.0  -0.0494
  C  C684  1  0.943630  0.887270  0.292570  1.0  -0.3547
  O  O685  1  0.637510  0.779800  0.408790  1.0  -0.564
  O  O686  1  0.610950  0.766620  0.302770  1.0  -0.5531
  O  O687  1  0.304180  0.113130  0.742120  1.0  -0.5626
  O  O688  1  0.277620  0.099950  0.636100  1.0  -0.5522
  O  O689  1  0.970840  0.446470  0.075460  1.0  -0.564
  O  O690  1  0.944280  0.433290  0.969440  1.0  -0.5531
  O  O691  1  0.220200  0.857710  0.408790  1.0  -0.563
  O  O692  1  0.233380  0.844330  0.302770  1.0  -0.5527
  O  O693  1  0.886870  0.191040  0.742120  1.0  -0.563
  O  O694  1  0.900050  0.177660  0.636100  1.0  -0.5527
  O  O695  1  0.553530  0.524380  0.075460  1.0  -0.5629
  O  O696  1  0.566710  0.511000  0.969440  1.0  -0.5528
  O  O697  1  0.142290  0.362490  0.408790  1.0  -0.5642
  O  O698  1  0.155670  0.389050  0.302770  1.0  -0.5525
  O  O699  1  0.808960  0.695820  0.742120  1.0  -0.566
  O  O700  1  0.822340  0.722380  0.636100  1.0  -0.5539
  O  O701  1  0.475620  0.029160  0.075460  1.0  -0.5644
  O  O702  1  0.489000  0.055720  0.969440  1.0  -0.5525
  O  O703  1  0.779800  0.637510  0.591210  1.0  -0.5664
  O  O704  1  0.766620  0.610950  0.697230  1.0  -0.5529
  O  O705  1  0.446470  0.970840  0.924540  1.0  -0.5664
  O  O706  1  0.433290  0.944280  0.030560  1.0  -0.5528
  O  O707  1  0.113130  0.304180  0.257880  1.0  -0.5647
  O  O708  1  0.099950  0.277620  0.363900  1.0  -0.5523
  O  O709  1  0.857710  0.220200  0.591210  1.0  -0.5642
  O  O710  1  0.844330  0.233380  0.697230  1.0  -0.5525
  O  O711  1  0.524380  0.553530  0.924540  1.0  -0.5641
  O  O712  1  0.511000  0.566710  0.030560  1.0  -0.5525
  O  O713  1  0.191040  0.886870  0.257880  1.0  -0.5642
  O  O714  1  0.177660  0.900050  0.363900  1.0  -0.5525
  O  O715  1  0.362490  0.142290  0.591210  1.0  -0.564
  O  O716  1  0.389050  0.155670  0.697230  1.0  -0.5518
  O  O717  1  0.029160  0.475620  0.924540  1.0  -0.5641
  O  O718  1  0.055720  0.489000  0.030560  1.0  -0.5518
  O  O719  1  0.695820  0.808960  0.257880  1.0  -0.5665
  O  O720  1  0.722380  0.822340  0.363900  1.0  -0.5526
  O  O721  1  0.362490  0.220200  0.591210  1.0  -0.5655
  O  O722  1  0.389050  0.233380  0.697230  1.0  -0.5517
  O  O723  1  0.029160  0.553530  0.924540  1.0  -0.5655
  O  O724  1  0.055720  0.566710  0.030560  1.0  -0.5516
  O  O725  1  0.695820  0.886870  0.257880  1.0  -0.5638
  O  O726  1  0.722380  0.900050  0.363900  1.0  -0.5514
  O  O727  1  0.779800  0.142290  0.591210  1.0  -0.5638
  O  O728  1  0.766620  0.155670  0.697230  1.0  -0.5529
  O  O729  1  0.446470  0.475620  0.924540  1.0  -0.5637
  O  O730  1  0.433290  0.489000  0.030560  1.0  -0.553
  O  O731  1  0.113130  0.808960  0.257880  1.0  -0.5638
  O  O732  1  0.099950  0.822340  0.363900  1.0  -0.5529
  O  O733  1  0.857710  0.637510  0.591210  1.0  -0.5644
  O  O734  1  0.844330  0.610950  0.697230  1.0  -0.5526
  O  O735  1  0.524380  0.970840  0.924540  1.0  -0.5645
  O  O736  1  0.511000  0.944280  0.030560  1.0  -0.5527
  O  O737  1  0.191040  0.304180  0.257880  1.0  -0.5661
  O  O738  1  0.177660  0.277620  0.363900  1.0  -0.5531
  O  O739  1  0.220200  0.362490  0.408790  1.0  -0.5659
  O  O740  1  0.233380  0.389050  0.302770  1.0  -0.5535
  O  O741  1  0.886870  0.695820  0.742120  1.0  -0.5642
  O  O742  1  0.900050  0.722380  0.636100  1.0  -0.5527
  O  O743  1  0.553530  0.029160  0.075460  1.0  -0.5659
  O  O744  1  0.566710  0.055720  0.969440  1.0  -0.5535
  O  O745  1  0.142290  0.779800  0.408790  1.0  -0.5637
  O  O746  1  0.155670  0.766620  0.302770  1.0  -0.5515
  O  O747  1  0.808960  0.113130  0.742120  1.0  -0.5637
  O  O748  1  0.822340  0.099950  0.636100  1.0  -0.5516
  O  O749  1  0.475620  0.446470  0.075460  1.0  -0.5636
  O  O750  1  0.489000  0.433290  0.969440  1.0  -0.5517
  O  O751  1  0.637510  0.857710  0.408790  1.0  -0.5625
  O  O752  1  0.610950  0.844330  0.302770  1.0  -0.5532
  O  O753  1  0.304180  0.191040  0.742120  1.0  -0.5647
  O  O754  1  0.277620  0.177660  0.636100  1.0  -0.5545
  O  O755  1  0.970840  0.524380  0.075460  1.0  -0.5626
  O  O756  1  0.944280  0.511000  0.969440  1.0  -0.5531
  O  O757  1  0.428540  0.571460  0.383300  1.0  -0.3015
  O  O758  1  0.095210  0.904790  0.716630  1.0  -0.3015
  O  O759  1  0.761870  0.238130  0.049970  1.0  -0.3015
  O  O760  1  0.428540  0.857080  0.383300  1.0  -0.3033
  O  O761  1  0.095210  0.190410  0.716630  1.0  -0.3033
  O  O762  1  0.761870  0.523750  0.049970  1.0  -0.3033
  O  O763  1  0.142920  0.571460  0.383300  1.0  -0.3024
  O  O764  1  0.809590  0.904790  0.716630  1.0  -0.3024
  O  O765  1  0.476250  0.238130  0.049970  1.0  -0.3024
  O  O766  1  0.571460  0.428540  0.616700  1.0  -0.3053
  O  O767  1  0.238130  0.761870  0.950030  1.0  -0.3053
  O  O768  1  0.904790  0.095210  0.283370  1.0  -0.3053
  O  O769  1  0.857080  0.428540  0.616700  1.0  -0.305
  O  O770  1  0.523750  0.761870  0.950030  1.0  -0.305
  O  O771  1  0.190410  0.095210  0.283370  1.0  -0.305
  O  O772  1  0.571460  0.142920  0.616700  1.0  -0.3056
  O  O773  1  0.238130  0.476250  0.950030  1.0  -0.3056
  O  O774  1  0.904790  0.809590  0.283370  1.0  -0.3056
