# generated using pymatgen
data_CuH15C22O5
_symmetry_space_group_name_H-M   'P 1'
_cell_length_a   35.85390000
_cell_length_b   35.85390000
_cell_length_c   15.11500000
_cell_angle_alpha   90.00000000
_cell_angle_beta   90.00000000
_cell_angle_gamma   120.00000000
_symmetry_Int_Tables_number   1
_chemical_formula_structural   CuH15C22O5
_chemical_formula_sum   'Cu18 H270 C396 O90'
_cell_volume   16827.18962972
_cell_formula_units_Z   18
loop_
 _symmetry_equiv_pos_site_id
 _symmetry_equiv_pos_as_xyz
  1  'x, y, z'
loop_
 _atom_site_type_symbol
 _atom_site_label
 _atom_site_symmetry_multiplicity
 _atom_site_fract_x
 _atom_site_fract_y
 _atom_site_fract_z
 _atom_site_occupancy
 _atom_site_charge
  Cu  Cu1  1  0.503350  0.006700  0.913970  1.0  0.9006
  Cu  Cu2  1  0.170020  0.340030  0.247300  1.0  0.9006
  Cu  Cu3  1  0.836680  0.673370  0.580640  1.0  0.9006
  Cu  Cu4  1  0.993300  0.496650  0.913970  1.0  0.9015
  Cu  Cu5  1  0.659970  0.829980  0.247300  1.0  0.9015
  Cu  Cu6  1  0.326630  0.163320  0.580640  1.0  0.9015
  Cu  Cu7  1  0.503350  0.496650  0.913970  1.0  0.9005
  Cu  Cu8  1  0.170020  0.829980  0.247300  1.0  0.9005
  Cu  Cu9  1  0.836680  0.163320  0.580640  1.0  0.9006
  Cu  Cu10  1  0.006700  0.503350  0.086030  1.0  0.8993
  Cu  Cu11  1  0.673370  0.836680  0.419360  1.0  0.8993
  Cu  Cu12  1  0.340030  0.170020  0.752700  1.0  0.8993
  Cu  Cu13  1  0.496650  0.993300  0.086030  1.0  0.8993
  Cu  Cu14  1  0.163320  0.326630  0.419360  1.0  0.8993
  Cu  Cu15  1  0.829980  0.659970  0.752700  1.0  0.8993
  Cu  Cu16  1  0.496650  0.503350  0.086030  1.0  0.9001
  Cu  Cu17  1  0.163320  0.836680  0.419360  1.0  0.9001
  Cu  Cu18  1  0.829980  0.170020  0.752700  1.0  0.9001
  H  H19  1  0.641400  0.106000  0.898500  1.0  0.0993
  H  H20  1  0.713000  0.154400  0.924500  1.0  0.0865
  H  H21  1  0.696100  0.131900  0.180000  1.0  0.108
  H  H22  1  0.623700  0.085200  0.158100  1.0  0.1187
  H  H23  1  0.763700  0.125600  0.135700  1.0  0.1148
  H  H24  1  0.770200  0.273300  0.096000  1.0  0.1096
  H  H25  1  0.743700  0.300000  0.985200  1.0  0.1291
  H  H26  1  0.308070  0.439330  0.231830  1.0  0.0993
  H  H27  1  0.379670  0.487730  0.257830  1.0  0.0865
  H  H28  1  0.362770  0.465230  0.513330  1.0  0.108
  H  H29  1  0.290370  0.418530  0.491430  1.0  0.1187
  H  H30  1  0.430370  0.458930  0.469030  1.0  0.1148
  H  H31  1  0.436870  0.606630  0.429330  1.0  0.1096
  H  H32  1  0.410370  0.633330  0.318530  1.0  0.1291
  H  H33  1  0.974730  0.772670  0.565170  1.0  0.0993
  H  H34  1  0.046330  0.821070  0.591170  1.0  0.0864
  H  H35  1  0.029430  0.798570  0.846670  1.0  0.108
  H  H36  1  0.957030  0.751870  0.824770  1.0  0.12
  H  H37  1  0.097030  0.792270  0.802370  1.0  0.1148
  H  H38  1  0.103530  0.939970  0.762670  1.0  0.1096
  H  H39  1  0.077030  0.966670  0.651870  1.0  0.1294
  H  H40  1  0.894000  0.535400  0.898500  1.0  0.0995
  H  H41  1  0.845600  0.558600  0.924500  1.0  0.0863
  H  H42  1  0.868100  0.564200  0.180000  1.0  0.1079
  H  H43  1  0.914800  0.538500  0.158100  1.0  0.1195
  H  H44  1  0.874400  0.638100  0.135700  1.0  0.1147
  H  H45  1  0.726700  0.496900  0.096000  1.0  0.1134
  H  H46  1  0.700000  0.443700  0.985200  1.0  0.1288
  H  H47  1  0.560670  0.868730  0.231830  1.0  0.0994
  H  H48  1  0.512270  0.891930  0.257830  1.0  0.0863
  H  H49  1  0.534770  0.897530  0.513330  1.0  0.1079
  H  H50  1  0.581470  0.871830  0.491430  1.0  0.1195
  H  H51  1  0.541070  0.971430  0.469030  1.0  0.1148
  H  H52  1  0.393370  0.830230  0.429330  1.0  0.1134
  H  H53  1  0.366670  0.777030  0.318530  1.0  0.1288
  H  H54  1  0.227330  0.202070  0.565170  1.0  0.0994
  H  H55  1  0.178930  0.225270  0.591170  1.0  0.0863
  H  H56  1  0.201430  0.230870  0.846670  1.0  0.1063
  H  H57  1  0.248130  0.205170  0.824770  1.0  0.1184
  H  H58  1  0.207730  0.304770  0.802370  1.0  0.1147
  H  H59  1  0.060030  0.163570  0.762670  1.0  0.1098
  H  H60  1  0.033330  0.110370  0.651870  1.0  0.1272
  H  H61  1  0.464600  0.358600  0.898500  1.0  0.0994
  H  H62  1  0.441400  0.287000  0.924500  1.0  0.0861
  H  H63  1  0.435800  0.303900  0.180000  1.0  0.106
  H  H64  1  0.461500  0.376300  0.158100  1.0  0.118
  H  H65  1  0.361900  0.236300  0.135700  1.0  0.114
  H  H66  1  0.503100  0.229800  0.096000  1.0  0.1098
  H  H67  1  0.556300  0.256300  0.985200  1.0  0.1298
  H  H68  1  0.131270  0.691930  0.231830  1.0  0.0994
  H  H69  1  0.108070  0.620330  0.257830  1.0  0.0861
  H  H70  1  0.102470  0.637230  0.513330  1.0  0.106
  H  H71  1  0.128170  0.709630  0.491430  1.0  0.118
  H  H72  1  0.028570  0.569630  0.469030  1.0  0.1138
  H  H73  1  0.169770  0.563130  0.429330  1.0  0.1098
  H  H74  1  0.222970  0.589630  0.318530  1.0  0.1298
  H  H75  1  0.797930  0.025270  0.565170  1.0  0.0994
  H  H76  1  0.774730  0.953670  0.591170  1.0  0.0861
  H  H77  1  0.769130  0.970570  0.846670  1.0  0.1077
  H  H78  1  0.794830  0.042970  0.824770  1.0  0.118
  H  H79  1  0.695230  0.902970  0.802370  1.0  0.114
  H  H80  1  0.836430  0.896470  0.762670  1.0  0.1124
  H  H81  1  0.889630  0.922970  0.651870  1.0  0.1292
  H  H82  1  0.106000  0.641400  0.101500  1.0  0.0995
  H  H83  1  0.154400  0.713000  0.075500  1.0  0.0856
  H  H84  1  0.131900  0.696100  0.820000  1.0  0.1076
  H  H85  1  0.085200  0.623700  0.841900  1.0  0.1176
  H  H86  1  0.125600  0.763700  0.864300  1.0  0.1146
  H  H87  1  0.273300  0.770200  0.904000  1.0  0.109
  H  H88  1  0.300000  0.743700  0.014800  1.0  0.1294
  H  H89  1  0.772670  0.974730  0.434830  1.0  0.0995
  H  H90  1  0.821070  0.046330  0.408830  1.0  0.0856
  H  H91  1  0.798570  0.029430  0.153330  1.0  0.1076
  H  H92  1  0.751870  0.957030  0.175230  1.0  0.1187
  H  H93  1  0.792270  0.097030  0.197630  1.0  0.1146
  H  H94  1  0.939970  0.103530  0.237330  1.0  0.109
  H  H95  1  0.966670  0.077030  0.348130  1.0  0.1301
  H  H96  1  0.439330  0.308070  0.768170  1.0  0.0995
  H  H97  1  0.487730  0.379670  0.742170  1.0  0.0856
  H  H98  1  0.465230  0.362770  0.486670  1.0  0.1076
  H  H99  1  0.418530  0.290370  0.508570  1.0  0.1176
  H  H100  1  0.458930  0.430370  0.530970  1.0  0.1146
  H  H101  1  0.606630  0.436870  0.570670  1.0  0.109
  H  H102  1  0.633330  0.410370  0.681470  1.0  0.1294
  H  H103  1  0.535400  0.894000  0.101500  1.0  0.0991
  H  H104  1  0.558600  0.845600  0.075500  1.0  0.0859
  H  H105  1  0.564200  0.868100  0.820000  1.0  0.1077
  H  H106  1  0.538500  0.914800  0.841900  1.0  0.1189
  H  H107  1  0.638100  0.874400  0.864300  1.0  0.1161
  H  H108  1  0.496900  0.726700  0.904000  1.0  0.1116
  H  H109  1  0.443700  0.700000  0.014800  1.0  0.131
  H  H110  1  0.202070  0.227330  0.434830  1.0  0.0991
  H  H111  1  0.225270  0.178930  0.408830  1.0  0.0859
  H  H112  1  0.230870  0.201430  0.153330  1.0  0.1056
  H  H113  1  0.205170  0.248130  0.175230  1.0  0.118
  H  H114  1  0.304770  0.207730  0.197630  1.0  0.1161
  H  H115  1  0.163570  0.060030  0.237330  1.0  0.1081
  H  H116  1  0.110370  0.033330  0.348130  1.0  0.1305
  H  H117  1  0.868730  0.560670  0.768170  1.0  0.0991
  H  H118  1  0.891930  0.512270  0.742170  1.0  0.0859
  H  H119  1  0.897530  0.534770  0.486670  1.0  0.1077
  H  H120  1  0.871830  0.581470  0.508570  1.0  0.1189
  H  H121  1  0.971430  0.541070  0.530970  1.0  0.1163
  H  H122  1  0.830230  0.393370  0.570670  1.0  0.1116
  H  H123  1  0.777030  0.366670  0.681470  1.0  0.131
  H  H124  1  0.358600  0.464600  0.101500  1.0  0.0993
  H  H125  1  0.287000  0.441400  0.075500  1.0  0.0858
  H  H126  1  0.303900  0.435800  0.820000  1.0  0.1059
  H  H127  1  0.376300  0.461500  0.841900  1.0  0.1179
  H  H128  1  0.236300  0.361900  0.864300  1.0  0.1156
  H  H129  1  0.229800  0.503100  0.904000  1.0  0.1087
  H  H130  1  0.256300  0.556300  0.014800  1.0  0.1292
  H  H131  1  0.025270  0.797930  0.434830  1.0  0.0993
  H  H132  1  0.953670  0.774730  0.408830  1.0  0.0858
  H  H133  1  0.970570  0.769130  0.153330  1.0  0.1077
  H  H134  1  0.042970  0.794830  0.175230  1.0  0.1179
  H  H135  1  0.902970  0.695230  0.197630  1.0  0.1156
  H  H136  1  0.896470  0.836430  0.237330  1.0  0.1122
  H  H137  1  0.922970  0.889630  0.348130  1.0  0.1289
  H  H138  1  0.691930  0.131270  0.768170  1.0  0.0993
  H  H139  1  0.620330  0.108070  0.742170  1.0  0.0858
  H  H140  1  0.637230  0.102470  0.486670  1.0  0.1059
  H  H141  1  0.709630  0.128170  0.508570  1.0  0.1179
  H  H142  1  0.569630  0.028570  0.530970  1.0  0.1154
  H  H143  1  0.563130  0.169770  0.570670  1.0  0.1087
  H  H144  1  0.589630  0.222970  0.681470  1.0  0.1292
  H  H145  1  0.358600  0.894000  0.101500  1.0  0.0994
  H  H146  1  0.287000  0.845600  0.075500  1.0  0.0858
  H  H147  1  0.303900  0.868100  0.820000  1.0  0.1076
  H  H148  1  0.376300  0.914800  0.841900  1.0  0.1182
  H  H149  1  0.236300  0.874400  0.864300  1.0  0.1151
  H  H150  1  0.229800  0.726700  0.904000  1.0  0.1094
  H  H151  1  0.256300  0.700000  0.014800  1.0  0.1305
  H  H152  1  0.025270  0.227330  0.434830  1.0  0.0994
  H  H153  1  0.953670  0.178930  0.408830  1.0  0.0858
  H  H154  1  0.970570  0.201430  0.153330  1.0  0.1076
  H  H155  1  0.042970  0.248130  0.175230  1.0  0.1192
  H  H156  1  0.902970  0.207730  0.197630  1.0  0.1151
  H  H157  1  0.896470  0.060030  0.237330  1.0  0.1094
  H  H158  1  0.922970  0.033330  0.348130  1.0  0.1308
  H  H159  1  0.691930  0.560670  0.768170  1.0  0.0994
  H  H160  1  0.620330  0.512270  0.742170  1.0  0.0858
  H  H161  1  0.637230  0.534770  0.486670  1.0  0.1076
  H  H162  1  0.709630  0.581470  0.508570  1.0  0.1182
  H  H163  1  0.569630  0.541070  0.530970  1.0  0.1151
  H  H164  1  0.563130  0.393370  0.570670  1.0  0.1094
  H  H165  1  0.589630  0.366670  0.681470  1.0  0.1305
  H  H166  1  0.106000  0.464600  0.101500  1.0  0.0993
  H  H167  1  0.154400  0.441400  0.075500  1.0  0.0861
  H  H168  1  0.131900  0.435800  0.820000  1.0  0.1082
  H  H169  1  0.085200  0.461500  0.841900  1.0  0.119
  H  H170  1  0.125600  0.361900  0.864300  1.0  0.114
  H  H171  1  0.273300  0.503100  0.904000  1.0  0.1134
  H  H172  1  0.300000  0.556300  0.014800  1.0  0.1281
  H  H173  1  0.772670  0.797930  0.434830  1.0  0.0993
  H  H174  1  0.821070  0.774730  0.408830  1.0  0.0861
  H  H175  1  0.798570  0.769130  0.153330  1.0  0.1059
  H  H176  1  0.751870  0.794830  0.175230  1.0  0.1181
  H  H177  1  0.792270  0.695230  0.197630  1.0  0.114
  H  H178  1  0.939970  0.836430  0.237330  1.0  0.1086
  H  H179  1  0.966670  0.889630  0.348130  1.0  0.1268
  H  H180  1  0.439330  0.131270  0.768170  1.0  0.0993
  H  H181  1  0.487730  0.108070  0.742170  1.0  0.0861
  H  H182  1  0.465230  0.102470  0.486670  1.0  0.1082
  H  H183  1  0.418530  0.128170  0.508570  1.0  0.119
  H  H184  1  0.458930  0.028570  0.530970  1.0  0.1143
  H  H185  1  0.606630  0.169770  0.570670  1.0  0.1134
  H  H186  1  0.633330  0.222970  0.681470  1.0  0.1281
  H  H187  1  0.535400  0.641400  0.101500  1.0  0.0994
  H  H188  1  0.558600  0.713000  0.075500  1.0  0.0857
  H  H189  1  0.564200  0.696100  0.820000  1.0  0.1055
  H  H190  1  0.538500  0.623700  0.841900  1.0  0.1175
  H  H191  1  0.638100  0.763700  0.864300  1.0  0.1142
  H  H192  1  0.496900  0.770200  0.904000  1.0  0.1088
  H  H193  1  0.443700  0.743700  0.014800  1.0  0.1296
  H  H194  1  0.202070  0.974730  0.434830  1.0  0.0994
  H  H195  1  0.225270  0.046330  0.408830  1.0  0.0857
  H  H196  1  0.230870  0.029430  0.153330  1.0  0.1072
  H  H197  1  0.205170  0.957030  0.175230  1.0  0.1175
  H  H198  1  0.304770  0.097030  0.197630  1.0  0.1142
  H  H199  1  0.163570  0.103530  0.237330  1.0  0.1122
  H  H200  1  0.110370  0.077030  0.348130  1.0  0.129
  H  H201  1  0.868730  0.308070  0.768170  1.0  0.0994
  H  H202  1  0.891930  0.379670  0.742170  1.0  0.0857
  H  H203  1  0.897530  0.362770  0.486670  1.0  0.1055
  H  H204  1  0.871830  0.290370  0.508570  1.0  0.1175
  H  H205  1  0.971430  0.430370  0.530970  1.0  0.114
  H  H206  1  0.830230  0.436870  0.570670  1.0  0.1088
  H  H207  1  0.777030  0.410370  0.681470  1.0  0.1296
  H  H208  1  0.894000  0.358600  0.898500  1.0  0.0993
  H  H209  1  0.845600  0.287000  0.924500  1.0  0.0862
  H  H210  1  0.868100  0.303900  0.180000  1.0  0.1071
  H  H211  1  0.914800  0.376300  0.158100  1.0  0.1181
  H  H212  1  0.874400  0.236300  0.135700  1.0  0.115
  H  H213  1  0.726700  0.229800  0.096000  1.0  0.1102
  H  H214  1  0.700000  0.256300  0.985200  1.0  0.1283
  H  H215  1  0.560670  0.691930  0.231830  1.0  0.0993
  H  H216  1  0.512270  0.620330  0.257830  1.0  0.0862
  H  H217  1  0.534770  0.637230  0.513330  1.0  0.1071
  H  H218  1  0.581470  0.709630  0.491430  1.0  0.1181
  H  H219  1  0.541070  0.569630  0.469030  1.0  0.115
  H  H220  1  0.393370  0.563130  0.429330  1.0  0.1102
  H  H221  1  0.366670  0.589630  0.318530  1.0  0.1283
  H  H222  1  0.227330  0.025270  0.565170  1.0  0.0993
  H  H223  1  0.178930  0.953670  0.591170  1.0  0.0862
  H  H224  1  0.201430  0.970570  0.846670  1.0  0.1071
  H  H225  1  0.248130  0.042970  0.824770  1.0  0.1192
  H  H226  1  0.207730  0.902970  0.802370  1.0  0.115
  H  H227  1  0.060030  0.896470  0.762670  1.0  0.1102
  H  H228  1  0.033330  0.922970  0.651870  1.0  0.1288
  H  H229  1  0.464600  0.106000  0.898500  1.0  0.0996
  H  H230  1  0.441400  0.154400  0.924500  1.0  0.0862
  H  H231  1  0.435800  0.131900  0.180000  1.0  0.1075
  H  H232  1  0.461500  0.085200  0.158100  1.0  0.1197
  H  H233  1  0.361900  0.125600  0.135700  1.0  0.1157
  H  H234  1  0.503100  0.273300  0.096000  1.0  0.113
  H  H235  1  0.556300  0.300000  0.985200  1.0  0.1316
  H  H236  1  0.131270  0.439330  0.231830  1.0  0.0995
  H  H237  1  0.108070  0.487730  0.257830  1.0  0.0862
  H  H238  1  0.102470  0.465230  0.513330  1.0  0.1075
  H  H239  1  0.128170  0.418530  0.491430  1.0  0.1197
  H  H240  1  0.028570  0.458930  0.469030  1.0  0.1159
  H  H241  1  0.169770  0.606630  0.429330  1.0  0.113
  H  H242  1  0.222970  0.633330  0.318530  1.0  0.1316
  H  H243  1  0.797930  0.772670  0.565170  1.0  0.0995
  H  H244  1  0.774730  0.821070  0.591170  1.0  0.0862
  H  H245  1  0.769130  0.798570  0.846670  1.0  0.1058
  H  H246  1  0.794830  0.751870  0.824770  1.0  0.1187
  H  H247  1  0.695230  0.792270  0.802370  1.0  0.1157
  H  H248  1  0.836430  0.939970  0.762670  1.0  0.1094
  H  H249  1  0.889630  0.966670  0.651870  1.0  0.1305
  H  H250  1  0.641400  0.535400  0.898500  1.0  0.0994
  H  H251  1  0.713000  0.558600  0.924500  1.0  0.0864
  H  H252  1  0.696100  0.564200  0.180000  1.0  0.1066
  H  H253  1  0.623700  0.538500  0.158100  1.0  0.1183
  H  H254  1  0.763700  0.638100  0.135700  1.0  0.1152
  H  H255  1  0.770200  0.496900  0.096000  1.0  0.1086
  H  H256  1  0.743700  0.443700  0.985200  1.0  0.1269
  H  H257  1  0.308070  0.868730  0.231830  1.0  0.0994
  H  H258  1  0.379670  0.891930  0.257830  1.0  0.0864
  H  H259  1  0.362770  0.897530  0.513330  1.0  0.1066
  H  H260  1  0.290370  0.871830  0.491430  1.0  0.1183
  H  H261  1  0.430370  0.971430  0.469030  1.0  0.115
  H  H262  1  0.436870  0.830230  0.429330  1.0  0.1086
  H  H263  1  0.410370  0.777030  0.318530  1.0  0.1269
  H  H264  1  0.974730  0.202070  0.565170  1.0  0.0994
  H  H265  1  0.046330  0.225270  0.591170  1.0  0.0864
  H  H266  1  0.029430  0.230870  0.846670  1.0  0.1082
  H  H267  1  0.957030  0.205170  0.824770  1.0  0.1183
  H  H268  1  0.097030  0.304770  0.802370  1.0  0.1152
  H  H269  1  0.103530  0.163570  0.762670  1.0  0.1123
  H  H270  1  0.077030  0.110370  0.651870  1.0  0.1266
  H  H271  1  0.713800  0.286200  0.068800  1.0  0.1236
  H  H272  1  0.380470  0.619530  0.402130  1.0  0.1236
  H  H273  1  0.047130  0.952870  0.735470  1.0  0.1244
  H  H274  1  0.713800  0.427600  0.068800  1.0  0.1209
  H  H275  1  0.380470  0.760930  0.402130  1.0  0.1209
  H  H276  1  0.047130  0.094270  0.735470  1.0  0.1202
  H  H277  1  0.572400  0.286200  0.068800  1.0  0.1223
  H  H278  1  0.239070  0.619530  0.402130  1.0  0.1223
  H  H279  1  0.905730  0.952870  0.735470  1.0  0.1214
  H  H280  1  0.286200  0.713800  0.931200  1.0  0.123
  H  H281  1  0.952870  0.047130  0.264530  1.0  0.1234
  H  H282  1  0.619530  0.380470  0.597870  1.0  0.123
  H  H283  1  0.427600  0.713800  0.931200  1.0  0.1208
  H  H284  1  0.094270  0.047130  0.264530  1.0  0.1194
  H  H285  1  0.760930  0.380470  0.597870  1.0  0.1208
  H  H286  1  0.286200  0.572400  0.931200  1.0  0.1201
  H  H287  1  0.952870  0.905730  0.264530  1.0  0.1191
  H  H288  1  0.619530  0.239070  0.597870  1.0  0.1201
  C  C289  1  0.578280  0.056880  0.009400  1.0  0.6741
  C  C290  1  0.625060  0.088910  0.023700  1.0  -0.107
  C  C291  1  0.651970  0.110400  0.956000  1.0  -0.1055
  C  C292  1  0.695490  0.139140  0.972000  1.0  -0.1284
  C  C293  1  0.713070  0.145660  0.051900  1.0  0.1051
  C  C294  1  0.685200  0.126000  0.122700  1.0  -0.1782
  C  C295  1  0.641750  0.097960  0.109800  1.0  -0.0594
  C  C296  1  0.759970  0.172610  0.069900  1.0  0.0011
  C  C297  1  0.779900  0.154190  0.118300  1.0  -0.1086
  C  C298  1  0.244950  0.390210  0.342730  1.0  0.6741
  C  C299  1  0.291730  0.422240  0.357030  1.0  -0.107
  C  C300  1  0.318640  0.443730  0.289330  1.0  -0.1055
  C  C301  1  0.362160  0.472470  0.305330  1.0  -0.1284
  C  C302  1  0.379740  0.478990  0.385230  1.0  0.1051
  C  C303  1  0.351870  0.459330  0.456030  1.0  -0.1782
  C  C304  1  0.308420  0.431290  0.443130  1.0  -0.0594
  C  C305  1  0.426640  0.505940  0.403230  1.0  0.0011
  C  C306  1  0.446570  0.487520  0.451630  1.0  -0.1087
  C  C307  1  0.911610  0.723550  0.676070  1.0  0.6741
  C  C308  1  0.958390  0.755580  0.690370  1.0  -0.107
  C  C309  1  0.985300  0.777070  0.622670  1.0  -0.1056
  C  C310  1  0.028820  0.805810  0.638670  1.0  -0.1284
  C  C311  1  0.046400  0.812330  0.718570  1.0  0.1051
  C  C312  1  0.018530  0.792670  0.789370  1.0  -0.1782
  C  C313  1  0.975080  0.764630  0.776470  1.0  -0.0594
  C  C314  1  0.093300  0.839280  0.736570  1.0  0.0012
  C  C315  1  0.113230  0.820860  0.784970  1.0  -0.1087
  C  C316  1  0.943120  0.521400  0.009400  1.0  0.6723
  C  C317  1  0.911090  0.536150  0.023700  1.0  -0.1078
  C  C318  1  0.889600  0.541570  0.956000  1.0  -0.1061
  C  C319  1  0.860860  0.556350  0.972000  1.0  -0.1275
  C  C320  1  0.854340  0.567410  0.051900  1.0  0.1057
  C  C321  1  0.874000  0.559200  0.122700  1.0  -0.1768
  C  C322  1  0.902040  0.543790  0.109800  1.0  -0.0569
  C  C323  1  0.827390  0.587360  0.069900  1.0  0.0021
  C  C324  1  0.845810  0.625710  0.118300  1.0  -0.1133
  C  C325  1  0.609790  0.854730  0.342730  1.0  0.6723
  C  C326  1  0.577760  0.869480  0.357030  1.0  -0.1078
  C  C327  1  0.556270  0.874900  0.289330  1.0  -0.1061
  C  C328  1  0.527530  0.889680  0.305330  1.0  -0.1275
  C  C329  1  0.521010  0.900740  0.385230  1.0  0.1057
  C  C330  1  0.540670  0.892530  0.456030  1.0  -0.1768
  C  C331  1  0.568710  0.877120  0.443130  1.0  -0.0569
  C  C332  1  0.494060  0.920690  0.403230  1.0  0.0021
  C  C333  1  0.512480  0.959040  0.451630  1.0  -0.1132
  C  C334  1  0.276450  0.188070  0.676070  1.0  0.6723
  C  C335  1  0.244420  0.202820  0.690370  1.0  -0.1078
  C  C336  1  0.222930  0.208240  0.622670  1.0  -0.1061
  C  C337  1  0.194190  0.223020  0.638670  1.0  -0.1275
  C  C338  1  0.187670  0.234080  0.718570  1.0  0.1057
  C  C339  1  0.207330  0.225870  0.789370  1.0  -0.1768
  C  C340  1  0.235370  0.210460  0.776470  1.0  -0.0569
  C  C341  1  0.160720  0.254030  0.736570  1.0  0.0021
  C  C342  1  0.179140  0.292380  0.784970  1.0  -0.1132
  C  C343  1  0.478600  0.421720  0.009400  1.0  0.6746
  C  C344  1  0.463850  0.374940  0.023700  1.0  -0.1064
  C  C345  1  0.458430  0.348030  0.956000  1.0  -0.1061
  C  C346  1  0.443650  0.304510  0.972000  1.0  -0.1295
  C  C347  1  0.432590  0.286930  0.051900  1.0  0.1053
  C  C348  1  0.440800  0.314800  0.122700  1.0  -0.1765
  C  C349  1  0.456210  0.358250  0.109800  1.0  -0.0589
  C  C350  1  0.412640  0.240030  0.069900  1.0  -0.0005
  C  C351  1  0.374290  0.220100  0.118300  1.0  -0.1108
  C  C352  1  0.145270  0.755050  0.342730  1.0  0.6746
  C  C353  1  0.130520  0.708270  0.357030  1.0  -0.1064
  C  C354  1  0.125100  0.681360  0.289330  1.0  -0.1061
  C  C355  1  0.110320  0.637840  0.305330  1.0  -0.1295
  C  C356  1  0.099260  0.620260  0.385230  1.0  0.1053
  C  C357  1  0.107470  0.648130  0.456030  1.0  -0.1765
  C  C358  1  0.122880  0.691580  0.443130  1.0  -0.0589
  C  C359  1  0.079310  0.573360  0.403230  1.0  -0.0005
  C  C360  1  0.040960  0.553430  0.451630  1.0  -0.1104
  C  C361  1  0.811930  0.088390  0.676070  1.0  0.6746
  C  C362  1  0.797180  0.041610  0.690370  1.0  -0.1064
  C  C363  1  0.791760  0.014700  0.622670  1.0  -0.1062
  C  C364  1  0.776980  0.971180  0.638670  1.0  -0.1295
  C  C365  1  0.765920  0.953600  0.718570  1.0  0.1053
  C  C366  1  0.774130  0.981470  0.789370  1.0  -0.1765
  C  C367  1  0.789540  0.024920  0.776470  1.0  -0.0589
  C  C368  1  0.745970  0.906700  0.736570  1.0  -0.0005
  C  C369  1  0.707620  0.886770  0.784970  1.0  -0.1109
  C  C370  1  0.056880  0.578280  0.990600  1.0  0.6744
  C  C371  1  0.088910  0.625060  0.976300  1.0  -0.106
  C  C372  1  0.110400  0.651970  0.044000  1.0  -0.1051
  C  C373  1  0.139140  0.695490  0.028000  1.0  -0.1283
  C  C374  1  0.145660  0.713070  0.948100  1.0  0.1059
  C  C375  1  0.126000  0.685200  0.877300  1.0  -0.1746
  C  C376  1  0.097960  0.641750  0.890200  1.0  -0.0564
  C  C377  1  0.172610  0.759970  0.930100  1.0  0.0002
  C  C378  1  0.154190  0.779900  0.881700  1.0  -0.1111
  C  C379  1  0.723550  0.911610  0.323930  1.0  0.6744
  C  C380  1  0.755580  0.958390  0.309630  1.0  -0.106
  C  C381  1  0.777070  0.985300  0.377330  1.0  -0.105
  C  C382  1  0.805810  0.028820  0.361330  1.0  -0.1283
  C  C383  1  0.812330  0.046400  0.281430  1.0  0.1059
  C  C384  1  0.792670  0.018530  0.210630  1.0  -0.1746
  C  C385  1  0.764630  0.975080  0.223530  1.0  -0.0564
  C  C386  1  0.839280  0.093300  0.263430  1.0  0.0003
  C  C387  1  0.820860  0.113230  0.215030  1.0  -0.1112
  C  C388  1  0.390210  0.244950  0.657270  1.0  0.6744
  C  C389  1  0.422240  0.291730  0.642970  1.0  -0.106
  C  C390  1  0.443730  0.318640  0.710670  1.0  -0.1051
  C  C391  1  0.472470  0.362160  0.694670  1.0  -0.1283
  C  C392  1  0.478990  0.379740  0.614770  1.0  0.1059
  C  C393  1  0.459330  0.351870  0.543970  1.0  -0.1746
  C  C394  1  0.431290  0.308420  0.556870  1.0  -0.0564
  C  C395  1  0.505940  0.426640  0.596770  1.0  0.0003
  C  C396  1  0.487520  0.446570  0.548370  1.0  -0.1112
  C  C397  1  0.521400  0.943120  0.990600  1.0  0.6743
  C  C398  1  0.536150  0.911090  0.976300  1.0  -0.1076
  C  C399  1  0.541570  0.889600  0.044000  1.0  -0.1052
  C  C400  1  0.556350  0.860860  0.028000  1.0  -0.1292
  C  C401  1  0.567410  0.854340  0.948100  1.0  0.1049
  C  C402  1  0.559200  0.874000  0.877300  1.0  -0.1751
  C  C403  1  0.543790  0.902040  0.890200  1.0  -0.0581
  C  C404  1  0.587360  0.827390  0.930100  1.0  0.0022
  C  C405  1  0.625710  0.845810  0.881700  1.0  -0.11
  C  C406  1  0.188070  0.276450  0.323930  1.0  0.6743
  C  C407  1  0.202820  0.244420  0.309630  1.0  -0.1076
  C  C408  1  0.208240  0.222930  0.377330  1.0  -0.105
  C  C409  1  0.223020  0.194190  0.361330  1.0  -0.1292
  C  C410  1  0.234080  0.187670  0.281430  1.0  0.1049
  C  C411  1  0.225870  0.207330  0.210630  1.0  -0.1751
  C  C412  1  0.210460  0.235370  0.223530  1.0  -0.0581
  C  C413  1  0.254030  0.160720  0.263430  1.0  0.0022
  C  C414  1  0.292380  0.179140  0.215030  1.0  -0.1099
  C  C415  1  0.854730  0.609790  0.657270  1.0  0.6743
  C  C416  1  0.869480  0.577760  0.642970  1.0  -0.1076
  C  C417  1  0.874900  0.556270  0.710670  1.0  -0.1052
  C  C418  1  0.889680  0.527530  0.694670  1.0  -0.1292
  C  C419  1  0.900740  0.521010  0.614770  1.0  0.1049
  C  C420  1  0.892530  0.540670  0.543970  1.0  -0.1751
  C  C421  1  0.877120  0.568710  0.556870  1.0  -0.0581
  C  C422  1  0.920690  0.494060  0.596770  1.0  0.0022
  C  C423  1  0.959040  0.512480  0.548370  1.0  -0.1099
  C  C424  1  0.421720  0.478600  0.990600  1.0  0.6724
  C  C425  1  0.374940  0.463850  0.976300  1.0  -0.1075
  C  C426  1  0.348030  0.458430  0.044000  1.0  -0.1056
  C  C427  1  0.304510  0.443650  0.028000  1.0  -0.1278
  C  C428  1  0.286930  0.432590  0.948100  1.0  0.1064
  C  C429  1  0.314800  0.440800  0.877300  1.0  -0.1741
  C  C430  1  0.358250  0.456210  0.890200  1.0  -0.0577
  C  C431  1  0.240030  0.412640  0.930100  1.0  0.0029
  C  C432  1  0.220100  0.374290  0.881700  1.0  -0.1129
  C  C433  1  0.088390  0.811930  0.323930  1.0  0.6724
  C  C434  1  0.041610  0.797180  0.309630  1.0  -0.1075
  C  C435  1  0.014700  0.791760  0.377330  1.0  -0.1056
  C  C436  1  0.971180  0.776980  0.361330  1.0  -0.1278
  C  C437  1  0.953600  0.765920  0.281430  1.0  0.1064
  C  C438  1  0.981470  0.774130  0.210630  1.0  -0.1741
  C  C439  1  0.024920  0.789540  0.223530  1.0  -0.0577
  C  C440  1  0.906700  0.745970  0.263430  1.0  0.0029
  C  C441  1  0.886770  0.707620  0.215030  1.0  -0.1131
  C  C442  1  0.755050  0.145270  0.657270  1.0  0.6724
  C  C443  1  0.708270  0.130520  0.642970  1.0  -0.1075
  C  C444  1  0.681360  0.125100  0.710670  1.0  -0.1056
  C  C445  1  0.637840  0.110320  0.694670  1.0  -0.1278
  C  C446  1  0.620260  0.099260  0.614770  1.0  0.1064
  C  C447  1  0.648130  0.107470  0.543970  1.0  -0.1741
  C  C448  1  0.691580  0.122880  0.556870  1.0  -0.0577
  C  C449  1  0.573360  0.079310  0.596770  1.0  0.0029
  C  C450  1  0.553430  0.040960  0.548370  1.0  -0.1127
  C  C451  1  0.421720  0.943120  0.990600  1.0  0.6734
  C  C452  1  0.374940  0.911090  0.976300  1.0  -0.1084
  C  C453  1  0.348030  0.889600  0.044000  1.0  -0.1048
  C  C454  1  0.304510  0.860860  0.028000  1.0  -0.1298
  C  C455  1  0.286930  0.854340  0.948100  1.0  0.1057
  C  C456  1  0.314800  0.874000  0.877300  1.0  -0.1758
  C  C457  1  0.358250  0.902040  0.890200  1.0  -0.0592
  C  C458  1  0.240030  0.827390  0.930100  1.0  0.0015
  C  C459  1  0.220100  0.845810  0.881700  1.0  -0.1088
  C  C460  1  0.088390  0.276450  0.323930  1.0  0.6735
  C  C461  1  0.041610  0.244420  0.309630  1.0  -0.1084
  C  C462  1  0.014700  0.222930  0.377330  1.0  -0.1047
  C  C463  1  0.971180  0.194190  0.361330  1.0  -0.1298
  C  C464  1  0.953600  0.187670  0.281430  1.0  0.1057
  C  C465  1  0.981470  0.207330  0.210630  1.0  -0.1758
  C  C466  1  0.024920  0.235370  0.223530  1.0  -0.0592
  C  C467  1  0.906700  0.160720  0.263430  1.0  0.0015
  C  C468  1  0.886770  0.179140  0.215030  1.0  -0.1089
  C  C469  1  0.755050  0.609790  0.657270  1.0  0.6734
  C  C470  1  0.708270  0.577760  0.642970  1.0  -0.1084
  C  C471  1  0.681360  0.556270  0.710670  1.0  -0.1048
  C  C472  1  0.637840  0.527530  0.694670  1.0  -0.1298
  C  C473  1  0.620260  0.521010  0.614770  1.0  0.1057
  C  C474  1  0.648130  0.540670  0.543970  1.0  -0.1758
  C  C475  1  0.691580  0.568710  0.556870  1.0  -0.0592
  C  C476  1  0.573360  0.494060  0.596770  1.0  0.0015
  C  C477  1  0.553430  0.512480  0.548370  1.0  -0.1089
  C  C478  1  0.056880  0.478600  0.990600  1.0  0.6723
  C  C479  1  0.088910  0.463850  0.976300  1.0  -0.1092
  C  C480  1  0.110400  0.458430  0.044000  1.0  -0.1052
  C  C481  1  0.139140  0.443650  0.028000  1.0  -0.1276
  C  C482  1  0.145660  0.432590  0.948100  1.0  0.1061
  C  C483  1  0.126000  0.440800  0.877300  1.0  -0.1736
  C  C484  1  0.097960  0.456210  0.890200  1.0  -0.0566
  C  C485  1  0.172610  0.412640  0.930100  1.0  0.0017
  C  C486  1  0.154190  0.374290  0.881700  1.0  -0.1117
  C  C487  1  0.723550  0.811930  0.323930  1.0  0.6722
  C  C488  1  0.755580  0.797180  0.309630  1.0  -0.1092
  C  C489  1  0.777070  0.791760  0.377330  1.0  -0.1051
  C  C490  1  0.805810  0.776980  0.361330  1.0  -0.1276
  C  C491  1  0.812330  0.765920  0.281430  1.0  0.1061
  C  C492  1  0.792670  0.774130  0.210630  1.0  -0.1736
  C  C493  1  0.764630  0.789540  0.223530  1.0  -0.0566
  C  C494  1  0.839280  0.745970  0.263430  1.0  0.0018
  C  C495  1  0.820860  0.707620  0.215030  1.0  -0.1116
  C  C496  1  0.390210  0.145270  0.657270  1.0  0.6723
  C  C497  1  0.422240  0.130520  0.642970  1.0  -0.1092
  C  C498  1  0.443730  0.125100  0.710670  1.0  -0.1052
  C  C499  1  0.472470  0.110320  0.694670  1.0  -0.1276
  C  C500  1  0.478990  0.099260  0.614770  1.0  0.1061
  C  C501  1  0.459330  0.107470  0.543970  1.0  -0.1736
  C  C502  1  0.431290  0.122880  0.556870  1.0  -0.0566
  C  C503  1  0.505940  0.079310  0.596770  1.0  0.0017
  C  C504  1  0.487520  0.040960  0.548370  1.0  -0.1116
  C  C505  1  0.521400  0.578280  0.990600  1.0  0.6742
  C  C506  1  0.536150  0.625060  0.976300  1.0  -0.1067
  C  C507  1  0.541570  0.651970  0.044000  1.0  -0.105
  C  C508  1  0.556350  0.695490  0.028000  1.0  -0.1292
  C  C509  1  0.567410  0.713070  0.948100  1.0  0.1062
  C  C510  1  0.559200  0.685200  0.877300  1.0  -0.1745
  C  C511  1  0.543790  0.641750  0.890200  1.0  -0.0575
  C  C512  1  0.587360  0.759970  0.930100  1.0  0.0022
  C  C513  1  0.625710  0.779900  0.881700  1.0  -0.1121
  C  C514  1  0.188070  0.911610  0.323930  1.0  0.6742
  C  C515  1  0.202820  0.958390  0.309630  1.0  -0.1067
  C  C516  1  0.208240  0.985300  0.377330  1.0  -0.105
  C  C517  1  0.223020  0.028820  0.361330  1.0  -0.1292
  C  C518  1  0.234080  0.046400  0.281430  1.0  0.1062
  C  C519  1  0.225870  0.018530  0.210630  1.0  -0.1745
  C  C520  1  0.210460  0.975080  0.223530  1.0  -0.0575
  C  C521  1  0.254030  0.093300  0.263430  1.0  0.0022
  C  C522  1  0.292380  0.113230  0.215030  1.0  -0.1122
  C  C523  1  0.854730  0.244950  0.657270  1.0  0.6742
  C  C524  1  0.869480  0.291730  0.642970  1.0  -0.1067
  C  C525  1  0.874900  0.318640  0.710670  1.0  -0.105
  C  C526  1  0.889680  0.362160  0.694670  1.0  -0.1292
  C  C527  1  0.900740  0.379740  0.614770  1.0  0.1062
  C  C528  1  0.892530  0.351870  0.543970  1.0  -0.1745
  C  C529  1  0.877120  0.308420  0.556870  1.0  -0.0575
  C  C530  1  0.920690  0.426640  0.596770  1.0  0.0022
  C  C531  1  0.959040  0.446570  0.548370  1.0  -0.1119
  C  C532  1  0.943120  0.421720  0.009400  1.0  0.6744
  C  C533  1  0.911090  0.374940  0.023700  1.0  -0.1074
  C  C534  1  0.889600  0.348030  0.956000  1.0  -0.1061
  C  C535  1  0.860860  0.304510  0.972000  1.0  -0.13
  C  C536  1  0.854340  0.286930  0.051900  1.0  0.1055
  C  C537  1  0.874000  0.314800  0.122700  1.0  -0.1764
  C  C538  1  0.902040  0.358250  0.109800  1.0  -0.0573
  C  C539  1  0.827390  0.240030  0.069900  1.0  0.0016
  C  C540  1  0.845810  0.220100  0.118300  1.0  -0.1119
  C  C541  1  0.609790  0.755050  0.342730  1.0  0.6744
  C  C542  1  0.577760  0.708270  0.357030  1.0  -0.1074
  C  C543  1  0.556270  0.681360  0.289330  1.0  -0.1061
  C  C544  1  0.527530  0.637840  0.305330  1.0  -0.13
  C  C545  1  0.521010  0.620260  0.385230  1.0  0.1055
  C  C546  1  0.540670  0.648130  0.456030  1.0  -0.1764
  C  C547  1  0.568710  0.691580  0.443130  1.0  -0.0573
  C  C548  1  0.494060  0.573360  0.403230  1.0  0.0016
  C  C549  1  0.512480  0.553430  0.451630  1.0  -0.112
  C  C550  1  0.276450  0.088390  0.676070  1.0  0.6745
  C  C551  1  0.244420  0.041610  0.690370  1.0  -0.1074
  C  C552  1  0.222930  0.014700  0.622670  1.0  -0.1061
  C  C553  1  0.194190  0.971180  0.638670  1.0  -0.13
  C  C554  1  0.187670  0.953600  0.718570  1.0  0.1055
  C  C555  1  0.207330  0.981470  0.789370  1.0  -0.1764
  C  C556  1  0.235370  0.024920  0.776470  1.0  -0.0573
  C  C557  1  0.160720  0.906700  0.736570  1.0  0.0017
  C  C558  1  0.179140  0.886770  0.784970  1.0  -0.112
  C  C559  1  0.478600  0.056880  0.009400  1.0  0.6733
  C  C560  1  0.463850  0.088910  0.023700  1.0  -0.1074
  C  C561  1  0.458430  0.110400  0.956000  1.0  -0.1051
  C  C562  1  0.443650  0.139140  0.972000  1.0  -0.1283
  C  C563  1  0.432590  0.145660  0.051900  1.0  0.1057
  C  C564  1  0.440800  0.126000  0.122700  1.0  -0.1791
  C  C565  1  0.456210  0.097960  0.109800  1.0  -0.0584
  C  C566  1  0.412640  0.172610  0.069900  1.0  0.0007
  C  C567  1  0.374290  0.154190  0.118300  1.0  -0.1079
  C  C568  1  0.145270  0.390210  0.342730  1.0  0.6733
  C  C569  1  0.130520  0.422240  0.357030  1.0  -0.1074
  C  C570  1  0.125100  0.443730  0.289330  1.0  -0.1051
  C  C571  1  0.110320  0.472470  0.305330  1.0  -0.1283
  C  C572  1  0.099260  0.478990  0.385230  1.0  0.1057
  C  C573  1  0.107470  0.459330  0.456030  1.0  -0.1791
  C  C574  1  0.122880  0.431290  0.443130  1.0  -0.0584
  C  C575  1  0.079310  0.505940  0.403230  1.0  0.0007
  C  C576  1  0.040960  0.487520  0.451630  1.0  -0.1078
  C  C577  1  0.811930  0.723550  0.676070  1.0  0.6733
  C  C578  1  0.797180  0.755580  0.690370  1.0  -0.1074
  C  C579  1  0.791760  0.777070  0.622670  1.0  -0.1051
  C  C580  1  0.776980  0.805810  0.638670  1.0  -0.1283
  C  C581  1  0.765920  0.812330  0.718570  1.0  0.1057
  C  C582  1  0.774130  0.792670  0.789370  1.0  -0.1791
  C  C583  1  0.789540  0.764630  0.776470  1.0  -0.0584
  C  C584  1  0.745970  0.839280  0.736570  1.0  0.0007
  C  C585  1  0.707620  0.820860  0.784970  1.0  -0.1078
  C  C586  1  0.578280  0.521400  0.009400  1.0  0.672
  C  C587  1  0.625060  0.536150  0.023700  1.0  -0.1093
  C  C588  1  0.651970  0.541570  0.956000  1.0  -0.1058
  C  C589  1  0.695490  0.556350  0.972000  1.0  -0.1275
  C  C590  1  0.713070  0.567410  0.051900  1.0  0.1052
  C  C591  1  0.685200  0.559200  0.122700  1.0  -0.1772
  C  C592  1  0.641750  0.543790  0.109800  1.0  -0.0583
  C  C593  1  0.759970  0.587360  0.069900  1.0  0.001
  C  C594  1  0.779900  0.625710  0.118300  1.0  -0.1125
  C  C595  1  0.244950  0.854730  0.342730  1.0  0.672
  C  C596  1  0.291730  0.869480  0.357030  1.0  -0.1093
  C  C597  1  0.318640  0.874900  0.289330  1.0  -0.1058
  C  C598  1  0.362160  0.889680  0.305330  1.0  -0.1275
  C  C599  1  0.379740  0.900740  0.385230  1.0  0.1052
  C  C600  1  0.351870  0.892530  0.456030  1.0  -0.1772
  C  C601  1  0.308420  0.877120  0.443130  1.0  -0.0583
  C  C602  1  0.426640  0.920690  0.403230  1.0  0.001
  C  C603  1  0.446570  0.959040  0.451630  1.0  -0.1125
  C  C604  1  0.911610  0.188070  0.676070  1.0  0.6721
  C  C605  1  0.958390  0.202820  0.690370  1.0  -0.1093
  C  C606  1  0.985300  0.208240  0.622670  1.0  -0.1059
  C  C607  1  0.028820  0.223020  0.638670  1.0  -0.1274
  C  C608  1  0.046400  0.234080  0.718570  1.0  0.1052
  C  C609  1  0.018530  0.225870  0.789370  1.0  -0.1772
  C  C610  1  0.975080  0.210460  0.776470  1.0  -0.0583
  C  C611  1  0.093300  0.254030  0.736570  1.0  0.001
  C  C612  1  0.113230  0.292380  0.784970  1.0  -0.1126
  C  C613  1  0.822870  0.177130  0.141100  1.0  -0.0268
  C  C614  1  0.784380  0.215620  0.046000  1.0  0.1888
  C  C615  1  0.747100  0.252900  0.058300  1.0  0.0237
  C  C616  1  0.724000  0.276000  0.020900  1.0  -0.3126
  C  C617  1  0.489540  0.510460  0.474430  1.0  -0.0267
  C  C618  1  0.451050  0.548950  0.379330  1.0  0.1892
  C  C619  1  0.413770  0.586230  0.391630  1.0  0.0237
  C  C620  1  0.390670  0.609330  0.354230  1.0  -0.3126
  C  C621  1  0.156200  0.843800  0.807770  1.0  -0.0268
  C  C622  1  0.117710  0.882290  0.712670  1.0  0.1888
  C  C623  1  0.080430  0.919570  0.724970  1.0  0.0237
  C  C624  1  0.057330  0.942670  0.687570  1.0  -0.3126
  C  C625  1  0.822870  0.645740  0.141100  1.0  -0.0255
  C  C626  1  0.784380  0.568760  0.046000  1.0  0.1898
  C  C627  1  0.747100  0.494200  0.058300  1.0  0.0231
  C  C628  1  0.724000  0.448000  0.020900  1.0  -0.3141
  C  C629  1  0.489540  0.979070  0.474430  1.0  -0.0256
  C  C630  1  0.451050  0.902090  0.379330  1.0  0.1898
  C  C631  1  0.413770  0.827530  0.391630  1.0  0.0231
  C  C632  1  0.390670  0.781330  0.354230  1.0  -0.3141
  C  C633  1  0.156200  0.312410  0.807770  1.0  -0.0255
  C  C634  1  0.117710  0.235430  0.712670  1.0  0.1898
  C  C635  1  0.080430  0.160870  0.724970  1.0  0.0231
  C  C636  1  0.057330  0.114670  0.687570  1.0  -0.3141
  C  C637  1  0.354260  0.177130  0.141100  1.0  -0.0286
  C  C638  1  0.431240  0.215620  0.046000  1.0  0.1898
  C  C639  1  0.505800  0.252900  0.058300  1.0  0.0251
  C  C640  1  0.552000  0.276000  0.020900  1.0  -0.3124
  C  C641  1  0.020930  0.510460  0.474430  1.0  -0.0288
  C  C642  1  0.097910  0.548950  0.379330  1.0  0.1898
  C  C643  1  0.172470  0.586230  0.391630  1.0  0.0251
  C  C644  1  0.218670  0.609330  0.354230  1.0  -0.3124
  C  C645  1  0.687590  0.843800  0.807770  1.0  -0.0286
  C  C646  1  0.764570  0.882290  0.712670  1.0  0.1898
  C  C647  1  0.839130  0.919570  0.724970  1.0  0.0251
  C  C648  1  0.885330  0.942670  0.687570  1.0  -0.3124
  C  C649  1  0.177130  0.822870  0.858900  1.0  -0.0274
  C  C650  1  0.215620  0.784380  0.954000  1.0  0.1905
  C  C651  1  0.252900  0.747100  0.941700  1.0  0.0284
  C  C652  1  0.276000  0.724000  0.979100  1.0  -0.3112
  C  C653  1  0.843800  0.156200  0.192230  1.0  -0.0274
  C  C654  1  0.882290  0.117710  0.287330  1.0  0.1905
  C  C655  1  0.919570  0.080430  0.275030  1.0  0.0284
  C  C656  1  0.942670  0.057330  0.312430  1.0  -0.3112
  C  C657  1  0.510460  0.489540  0.525570  1.0  -0.0273
  C  C658  1  0.548950  0.451050  0.620670  1.0  0.1908
  C  C659  1  0.586230  0.413770  0.608370  1.0  0.0284
  C  C660  1  0.609330  0.390670  0.645770  1.0  -0.3112
  C  C661  1  0.645740  0.822870  0.858900  1.0  -0.0276
  C  C662  1  0.568760  0.784380  0.954000  1.0  0.1899
  C  C663  1  0.494200  0.747100  0.941700  1.0  0.0274
  C  C664  1  0.448000  0.724000  0.979100  1.0  -0.3116
  C  C665  1  0.312410  0.156200  0.192230  1.0  -0.0276
  C  C666  1  0.235430  0.117710  0.287330  1.0  0.1899
  C  C667  1  0.160870  0.080430  0.275030  1.0  0.0274
  C  C668  1  0.114670  0.057330  0.312430  1.0  -0.3116
  C  C669  1  0.979070  0.489540  0.525570  1.0  -0.0277
  C  C670  1  0.902090  0.451050  0.620670  1.0  0.1898
  C  C671  1  0.827530  0.413770  0.608370  1.0  0.0274
  C  C672  1  0.781330  0.390670  0.645770  1.0  -0.3116
  C  C673  1  0.177130  0.354260  0.858900  1.0  -0.0249
  C  C674  1  0.215620  0.431240  0.954000  1.0  0.1908
  C  C675  1  0.252900  0.505800  0.941700  1.0  0.025
  C  C676  1  0.276000  0.552000  0.979100  1.0  -0.3141
  C  C677  1  0.843800  0.687590  0.192230  1.0  -0.0249
  C  C678  1  0.882290  0.764570  0.287330  1.0  0.1908
  C  C679  1  0.919570  0.839130  0.275030  1.0  0.025
  C  C680  1  0.942670  0.885330  0.312430  1.0  -0.3142
  C  C681  1  0.510460  0.020930  0.525570  1.0  -0.0251
  C  C682  1  0.548950  0.097910  0.620670  1.0  0.1908
  C  C683  1  0.586230  0.172470  0.608370  1.0  0.025
  C  C684  1  0.609330  0.218670  0.645770  1.0  -0.3141
  O  O685  1  0.557400  0.038200  0.080500  1.0  -0.5864
  O  O686  1  0.563910  0.050560  0.933000  1.0  -0.5601
  O  O687  1  0.224070  0.371530  0.413830  1.0  -0.5864
  O  O688  1  0.230580  0.383890  0.266330  1.0  -0.5601
  O  O689  1  0.890730  0.704870  0.747170  1.0  -0.5864
  O  O690  1  0.897240  0.717230  0.599670  1.0  -0.5601
  O  O691  1  0.961800  0.519200  0.080500  1.0  -0.5868
  O  O692  1  0.949440  0.513350  0.933000  1.0  -0.5586
  O  O693  1  0.628470  0.852530  0.413830  1.0  -0.5868
  O  O694  1  0.616110  0.846680  0.266330  1.0  -0.5586
  O  O695  1  0.295130  0.185870  0.747170  1.0  -0.5868
  O  O696  1  0.282770  0.180020  0.599670  1.0  -0.5586
  O  O697  1  0.480800  0.442600  0.080500  1.0  -0.5855
  O  O698  1  0.486650  0.436090  0.933000  1.0  -0.5585
  O  O699  1  0.147470  0.775930  0.413830  1.0  -0.5855
  O  O700  1  0.153320  0.769420  0.266330  1.0  -0.5585
  O  O701  1  0.814130  0.109270  0.747170  1.0  -0.5855
  O  O702  1  0.819980  0.102760  0.599670  1.0  -0.5585
  O  O703  1  0.038200  0.557400  0.919500  1.0  -0.584
  O  O704  1  0.050560  0.563910  0.067000  1.0  -0.5581
  O  O705  1  0.704870  0.890730  0.252830  1.0  -0.584
  O  O706  1  0.717230  0.897240  0.400330  1.0  -0.5581
  O  O707  1  0.371530  0.224070  0.586170  1.0  -0.584
  O  O708  1  0.383890  0.230580  0.733670  1.0  -0.5581
  O  O709  1  0.519200  0.961800  0.919500  1.0  -0.5853
  O  O710  1  0.513350  0.949440  0.067000  1.0  -0.5599
  O  O711  1  0.185870  0.295130  0.252830  1.0  -0.5853
  O  O712  1  0.180020  0.282770  0.400330  1.0  -0.5599
  O  O713  1  0.852530  0.628470  0.586170  1.0  -0.5853
  O  O714  1  0.846680  0.616110  0.733670  1.0  -0.5599
  O  O715  1  0.442600  0.480800  0.919500  1.0  -0.5854
  O  O716  1  0.436090  0.486650  0.067000  1.0  -0.5587
  O  O717  1  0.109270  0.814130  0.252830  1.0  -0.5854
  O  O718  1  0.102760  0.819980  0.400330  1.0  -0.5587
  O  O719  1  0.775930  0.147470  0.586170  1.0  -0.5854
  O  O720  1  0.769420  0.153320  0.733670  1.0  -0.5587
  O  O721  1  0.442600  0.961800  0.919500  1.0  -0.585
  O  O722  1  0.436090  0.949440  0.067000  1.0  -0.5597
  O  O723  1  0.109270  0.295130  0.252830  1.0  -0.585
  O  O724  1  0.102760  0.282770  0.400330  1.0  -0.5597
  O  O725  1  0.775930  0.628470  0.586170  1.0  -0.585
  O  O726  1  0.769420  0.616110  0.733670  1.0  -0.5597
  O  O727  1  0.038200  0.480800  0.919500  1.0  -0.5859
  O  O728  1  0.050560  0.486650  0.067000  1.0  -0.5582
  O  O729  1  0.704870  0.814130  0.252830  1.0  -0.5859
  O  O730  1  0.717230  0.819980  0.400330  1.0  -0.5582
  O  O731  1  0.371530  0.147470  0.586170  1.0  -0.5859
  O  O732  1  0.383890  0.153320  0.733670  1.0  -0.5582
  O  O733  1  0.519200  0.557400  0.919500  1.0  -0.5841
  O  O734  1  0.513350  0.563910  0.067000  1.0  -0.5581
  O  O735  1  0.185870  0.890730  0.252830  1.0  -0.5841
  O  O736  1  0.180020  0.897240  0.400330  1.0  -0.5581
  O  O737  1  0.852530  0.224070  0.586170  1.0  -0.5841
  O  O738  1  0.846680  0.230580  0.733670  1.0  -0.5581
  O  O739  1  0.961800  0.442600  0.080500  1.0  -0.5862
  O  O740  1  0.949440  0.436090  0.933000  1.0  -0.5584
  O  O741  1  0.628470  0.775930  0.413830  1.0  -0.5862
  O  O742  1  0.616110  0.769420  0.266330  1.0  -0.5584
  O  O743  1  0.295130  0.109270  0.747170  1.0  -0.5862
  O  O744  1  0.282770  0.102760  0.599670  1.0  -0.5584
  O  O745  1  0.480800  0.038200  0.080500  1.0  -0.5868
  O  O746  1  0.486650  0.050560  0.933000  1.0  -0.5596
  O  O747  1  0.147470  0.371530  0.413830  1.0  -0.5868
  O  O748  1  0.153320  0.383890  0.266330  1.0  -0.5596
  O  O749  1  0.814130  0.704870  0.747170  1.0  -0.5868
  O  O750  1  0.819980  0.717230  0.599670  1.0  -0.5596
  O  O751  1  0.557400  0.519200  0.080500  1.0  -0.5873
  O  O752  1  0.563910  0.513350  0.933000  1.0  -0.5581
  O  O753  1  0.224070  0.852530  0.413830  1.0  -0.5873
  O  O754  1  0.230580  0.846680  0.266330  1.0  -0.5581
  O  O755  1  0.890730  0.185870  0.747170  1.0  -0.5873
  O  O756  1  0.897240  0.180020  0.599670  1.0  -0.5581
  O  O757  1  0.765370  0.234630  0.996600  1.0  -0.3242
  O  O758  1  0.432040  0.567960  0.329930  1.0  -0.3242
  O  O759  1  0.098700  0.901300  0.663270  1.0  -0.3242
  O  O760  1  0.765370  0.530740  0.996600  1.0  -0.3272
  O  O761  1  0.432040  0.864070  0.329930  1.0  -0.3272
  O  O762  1  0.098700  0.197410  0.663270  1.0  -0.3272
  O  O763  1  0.469260  0.234630  0.996600  1.0  -0.3267
  O  O764  1  0.135930  0.567960  0.329930  1.0  -0.3267
  O  O765  1  0.802590  0.901300  0.663270  1.0  -0.3267
  O  O766  1  0.234630  0.765370  0.003400  1.0  -0.3282
  O  O767  1  0.901300  0.098700  0.336730  1.0  -0.3282
  O  O768  1  0.567960  0.432040  0.670070  1.0  -0.3282
  O  O769  1  0.530740  0.765370  0.003400  1.0  -0.3311
  O  O770  1  0.197410  0.098700  0.336730  1.0  -0.3311
  O  O771  1  0.864070  0.432040  0.670070  1.0  -0.3311
  O  O772  1  0.234630  0.469260  0.003400  1.0  -0.3303
  O  O773  1  0.901300  0.802590  0.336730  1.0  -0.3303
  O  O774  1  0.567960  0.135930  0.670070  1.0  -0.3303
