# generated using pymatgen
data_CuH15C22O5
_symmetry_space_group_name_H-M   'P 1'
_cell_length_a   35.71280000
_cell_length_b   35.71280000
_cell_length_c   17.66170000
_cell_angle_alpha   90.00000000
_cell_angle_beta   90.00000000
_cell_angle_gamma   120.00000000
_symmetry_Int_Tables_number   1
_chemical_formula_structural   CuH15C22O5
_chemical_formula_sum   'Cu18 H270 C396 O90'
_cell_volume   19507.91877102
_cell_formula_units_Z   18
loop_
 _symmetry_equiv_pos_site_id
 _symmetry_equiv_pos_as_xyz
  1  'x, y, z'
loop_
 _atom_site_type_symbol
 _atom_site_label
 _atom_site_symmetry_multiplicity
 _atom_site_fract_x
 _atom_site_fract_y
 _atom_site_fract_z
 _atom_site_occupancy
 _atom_site_charge
  Cu  Cu1  1  0.839420  0.160580  0.095270  1.0  0.8924
  Cu  Cu2  1  0.506090  0.493910  0.428600  1.0  0.8922
  Cu  Cu3  1  0.172750  0.827250  0.761940  1.0  0.8924
  Cu  Cu4  1  0.839420  0.678840  0.095270  1.0  0.8934
  Cu  Cu5  1  0.506090  0.012170  0.428600  1.0  0.8953
  Cu  Cu6  1  0.172750  0.345510  0.761940  1.0  0.8934
  Cu  Cu7  1  0.321160  0.160580  0.095270  1.0  0.8933
  Cu  Cu8  1  0.987830  0.493910  0.428600  1.0  0.8957
  Cu  Cu9  1  0.654490  0.827250  0.761940  1.0  0.8933
  Cu  Cu10  1  0.160580  0.839420  0.904730  1.0  0.892
  Cu  Cu11  1  0.827250  0.172750  0.238060  1.0  0.892
  Cu  Cu12  1  0.493910  0.506090  0.571400  1.0  0.8919
  Cu  Cu13  1  0.678840  0.839420  0.904730  1.0  0.8926
  Cu  Cu14  1  0.345510  0.172750  0.238060  1.0  0.8926
  Cu  Cu15  1  0.012170  0.506090  0.571400  1.0  0.8952
  Cu  Cu16  1  0.160580  0.321160  0.904730  1.0  0.8927
  Cu  Cu17  1  0.827250  0.654490  0.238060  1.0  0.8927
  Cu  Cu18  1  0.493910  0.987830  0.571400  1.0  0.8949
  H  H19  1  0.691100  0.136300  0.227800  1.0  0.1099
  H  H20  1  0.619300  0.113300  0.199800  1.0  0.1137
  H  H21  1  0.640600  0.097900  0.984600  1.0  0.1162
  H  H22  1  0.712600  0.122400  0.012100  1.0  0.107
  H  H23  1  0.571000  0.029900  0.024800  1.0  0.1083
  H  H24  1  0.566000  0.175000  0.047200  1.0  0.107
  H  H25  1  0.598400  0.240700  0.108400  1.0  0.1245
  H  H26  1  0.357770  0.469630  0.561130  1.0  0.1099
  H  H27  1  0.285970  0.446630  0.533130  1.0  0.1137
  H  H28  1  0.307270  0.431230  0.317930  1.0  0.1162
  H  H29  1  0.379270  0.455730  0.345430  1.0  0.1069
  H  H30  1  0.237670  0.363230  0.358130  1.0  0.1083
  H  H31  1  0.232670  0.508330  0.380530  1.0  0.107
  H  H32  1  0.265070  0.574030  0.441730  1.0  0.1245
  H  H33  1  0.024430  0.802970  0.894470  1.0  0.1099
  H  H34  1  0.952630  0.779970  0.866470  1.0  0.1171
  H  H35  1  0.973930  0.764570  0.651270  1.0  0.1166
  H  H36  1  0.045930  0.789070  0.678770  1.0  0.107
  H  H37  1  0.904330  0.696570  0.691470  1.0  0.1083
  H  H38  1  0.899330  0.841670  0.713870  1.0  0.0998
  H  H39  1  0.931730  0.907370  0.775070  1.0  0.1239
  H  H40  1  0.863700  0.554800  0.227800  1.0  0.1099
  H  H41  1  0.886700  0.506000  0.199800  1.0  0.1174
  H  H42  1  0.902100  0.542700  0.984600  1.0  0.116
  H  H43  1  0.877600  0.590200  0.012100  1.0  0.1065
  H  H44  1  0.970100  0.541100  0.024800  1.0  0.1085
  H  H45  1  0.825000  0.391000  0.047200  1.0  0.0989
  H  H46  1  0.759300  0.357700  0.108400  1.0  0.1265
  H  H47  1  0.530370  0.888130  0.561130  1.0  0.1099
  H  H48  1  0.553370  0.839330  0.533130  1.0  0.1174
  H  H49  1  0.568770  0.876030  0.317930  1.0  0.116
  H  H50  1  0.544270  0.923530  0.345430  1.0  0.1063
  H  H51  1  0.636770  0.874430  0.358130  1.0  0.1085
  H  H52  1  0.491670  0.724330  0.380530  1.0  0.0989
  H  H53  1  0.425970  0.691030  0.441730  1.0  0.1265
  H  H54  1  0.197030  0.221470  0.894470  1.0  0.1092
  H  H55  1  0.220030  0.172670  0.866470  1.0  0.1139
  H  H56  1  0.235430  0.209370  0.651270  1.0  0.1158
  H  H57  1  0.210930  0.256870  0.678770  1.0  0.1053
  H  H58  1  0.303430  0.207770  0.691470  1.0  0.1085
  H  H59  1  0.158330  0.057670  0.713870  1.0  0.1066
  H  H60  1  0.092630  0.024370  0.775070  1.0  0.1279
  H  H61  1  0.445200  0.308900  0.227800  1.0  0.1089
  H  H62  1  0.494000  0.380700  0.199800  1.0  0.1138
  H  H63  1  0.457300  0.359400  0.984600  1.0  0.1159
  H  H64  1  0.409800  0.287400  0.012100  1.0  0.1053
  H  H65  1  0.458900  0.429000  0.024800  1.0  0.1079
  H  H66  1  0.609000  0.434000  0.047200  1.0  0.1019
  H  H67  1  0.642300  0.401600  0.108400  1.0  0.1275
  H  H68  1  0.111870  0.642230  0.561130  1.0  0.1089
  H  H69  1  0.160670  0.714030  0.533130  1.0  0.1139
  H  H70  1  0.123970  0.692730  0.317930  1.0  0.1159
  H  H71  1  0.076470  0.620730  0.345430  1.0  0.1053
  H  H72  1  0.125570  0.762330  0.358130  1.0  0.1079
  H  H73  1  0.275670  0.767330  0.380530  1.0  0.1019
  H  H74  1  0.308970  0.734930  0.441730  1.0  0.1275
  H  H75  1  0.778530  0.975570  0.894470  1.0  0.1097
  H  H76  1  0.827330  0.047370  0.866470  1.0  0.1138
  H  H77  1  0.790630  0.026070  0.651270  1.0  0.1159
  H  H78  1  0.743130  0.954070  0.678770  1.0  0.1065
  H  H79  1  0.792230  0.095670  0.691470  1.0  0.1079
  H  H80  1  0.942330  0.100670  0.713870  1.0  0.1019
  H  H81  1  0.975630  0.068270  0.775070  1.0  0.1262
  H  H82  1  0.136300  0.691100  0.772200  1.0  0.1094
  H  H83  1  0.113300  0.619300  0.800200  1.0  0.1138
  H  H84  1  0.097900  0.640600  0.015400  1.0  0.1156
  H  H85  1  0.122400  0.712600  0.987900  1.0  0.1067
  H  H86  1  0.029900  0.571000  0.975200  1.0  0.109
  H  H87  1  0.175000  0.566000  0.952800  1.0  0.109
  H  H88  1  0.240700  0.598400  0.891600  1.0  0.1284
  H  H89  1  0.802970  0.024430  0.105530  1.0  0.1094
  H  H90  1  0.779970  0.952630  0.133530  1.0  0.1169
  H  H91  1  0.764570  0.973930  0.348730  1.0  0.1164
  H  H92  1  0.789070  0.045930  0.321230  1.0  0.1067
  H  H93  1  0.696570  0.904330  0.308530  1.0  0.109
  H  H94  1  0.841670  0.899330  0.286130  1.0  0.1028
  H  H95  1  0.907370  0.931730  0.224930  1.0  0.1278
  H  H96  1  0.469630  0.357770  0.438870  1.0  0.1094
  H  H97  1  0.446630  0.285970  0.466870  1.0  0.1138
  H  H98  1  0.431230  0.307270  0.682070  1.0  0.1156
  H  H99  1  0.455730  0.379270  0.654570  1.0  0.1065
  H  H100  1  0.363230  0.237670  0.641870  1.0  0.1089
  H  H101  1  0.508330  0.232670  0.619470  1.0  0.109
  H  H102  1  0.574030  0.265070  0.558270  1.0  0.1284
  H  H103  1  0.554800  0.863700  0.772200  1.0  0.1093
  H  H104  1  0.506000  0.886700  0.800200  1.0  0.1172
  H  H105  1  0.542700  0.902100  0.015400  1.0  0.1162
  H  H106  1  0.590200  0.877600  0.987900  1.0  0.1067
  H  H107  1  0.541100  0.970100  0.975200  1.0  0.1094
  H  H108  1  0.391000  0.825000  0.952800  1.0  0.1027
  H  H109  1  0.357700  0.759300  0.891600  1.0  0.1249
  H  H110  1  0.221470  0.197030  0.105530  1.0  0.1085
  H  H111  1  0.172670  0.220030  0.133530  1.0  0.1141
  H  H112  1  0.209370  0.235430  0.348730  1.0  0.1156
  H  H113  1  0.256870  0.210930  0.321230  1.0  0.1061
  H  H114  1  0.207770  0.303430  0.308530  1.0  0.1093
  H  H115  1  0.057670  0.158330  0.286130  1.0  0.1088
  H  H116  1  0.024370  0.092630  0.224930  1.0  0.127
  H  H117  1  0.888130  0.530370  0.438870  1.0  0.1093
  H  H118  1  0.839330  0.553370  0.466870  1.0  0.1172
  H  H119  1  0.876030  0.568770  0.682070  1.0  0.1162
  H  H120  1  0.923530  0.544270  0.654570  1.0  0.1065
  H  H121  1  0.874430  0.636770  0.641870  1.0  0.1094
  H  H122  1  0.724330  0.491670  0.619470  1.0  0.1027
  H  H123  1  0.691030  0.425970  0.558270  1.0  0.1249
  H  H124  1  0.308900  0.445200  0.772200  1.0  0.1086
  H  H125  1  0.380700  0.494000  0.800200  1.0  0.114
  H  H126  1  0.359400  0.457300  0.015400  1.0  0.1163
  H  H127  1  0.287400  0.409800  0.987900  1.0  0.1059
  H  H128  1  0.429000  0.458900  0.975200  1.0  0.1102
  H  H129  1  0.434000  0.609000  0.952800  1.0  0.1021
  H  H130  1  0.401600  0.642300  0.891600  1.0  0.1275
  H  H131  1  0.975570  0.778530  0.105530  1.0  0.1095
  H  H132  1  0.047370  0.827330  0.133530  1.0  0.114
  H  H133  1  0.026070  0.790630  0.348730  1.0  0.1163
  H  H134  1  0.954070  0.743130  0.321230  1.0  0.1066
  H  H135  1  0.095670  0.792230  0.308530  1.0  0.1103
  H  H136  1  0.100670  0.942330  0.286130  1.0  0.1021
  H  H137  1  0.068270  0.975630  0.224930  1.0  0.1264
  H  H138  1  0.642230  0.111870  0.438870  1.0  0.1086
  H  H139  1  0.714030  0.160670  0.466870  1.0  0.1141
  H  H140  1  0.692730  0.123970  0.682070  1.0  0.1163
  H  H141  1  0.620730  0.076470  0.654570  1.0  0.1059
  H  H142  1  0.762330  0.125570  0.641870  1.0  0.1102
  H  H143  1  0.767330  0.275670  0.619470  1.0  0.1021
  H  H144  1  0.734930  0.308970  0.558270  1.0  0.1275
  H  H145  1  0.308900  0.863700  0.772200  1.0  0.1093
  H  H146  1  0.380700  0.886700  0.800200  1.0  0.1141
  H  H147  1  0.359400  0.902100  0.015400  1.0  0.1159
  H  H148  1  0.287400  0.877600  0.987900  1.0  0.107
  H  H149  1  0.429000  0.970100  0.975200  1.0  0.1081
  H  H150  1  0.434000  0.825000  0.952800  1.0  0.1092
  H  H151  1  0.401600  0.759300  0.891600  1.0  0.1245
  H  H152  1  0.975570  0.197030  0.105530  1.0  0.1093
  H  H153  1  0.047370  0.220030  0.133530  1.0  0.1172
  H  H154  1  0.026070  0.235430  0.348730  1.0  0.1168
  H  H155  1  0.954070  0.210930  0.321230  1.0  0.107
  H  H156  1  0.095670  0.303430  0.308530  1.0  0.1081
  H  H157  1  0.100670  0.158330  0.286130  1.0  0.1006
  H  H158  1  0.068270  0.092630  0.224930  1.0  0.1238
  H  H159  1  0.642230  0.530370  0.438870  1.0  0.1093
  H  H160  1  0.714030  0.553370  0.466870  1.0  0.114
  H  H161  1  0.692730  0.568770  0.682070  1.0  0.1159
  H  H162  1  0.620730  0.544270  0.654570  1.0  0.1068
  H  H163  1  0.762330  0.636770  0.641870  1.0  0.108
  H  H164  1  0.767330  0.491670  0.619470  1.0  0.1092
  H  H165  1  0.734930  0.425970  0.558270  1.0  0.1245
  H  H166  1  0.136300  0.445200  0.772200  1.0  0.1098
  H  H167  1  0.113300  0.494000  0.800200  1.0  0.1174
  H  H168  1  0.097900  0.457300  0.015400  1.0  0.1162
  H  H169  1  0.122400  0.409800  0.987900  1.0  0.1066
  H  H170  1  0.029900  0.458900  0.975200  1.0  0.109
  H  H171  1  0.175000  0.609000  0.952800  1.0  0.1019
  H  H172  1  0.240700  0.642300  0.891600  1.0  0.1279
  H  H173  1  0.802970  0.778530  0.105530  1.0  0.1088
  H  H174  1  0.779970  0.827330  0.133530  1.0  0.1141
  H  H175  1  0.764570  0.790630  0.348730  1.0  0.1156
  H  H176  1  0.789070  0.743130  0.321230  1.0  0.1059
  H  H177  1  0.696570  0.792230  0.308530  1.0  0.109
  H  H178  1  0.841670  0.942330  0.286130  1.0  0.108
  H  H179  1  0.907370  0.975630  0.224930  1.0  0.1305
  H  H180  1  0.469630  0.111870  0.438870  1.0  0.1098
  H  H181  1  0.446630  0.160670  0.466870  1.0  0.1174
  H  H182  1  0.431230  0.123970  0.682070  1.0  0.1162
  H  H183  1  0.455730  0.076470  0.654570  1.0  0.1064
  H  H184  1  0.363230  0.125570  0.641870  1.0  0.1091
  H  H185  1  0.508330  0.275670  0.619470  1.0  0.1019
  H  H186  1  0.574030  0.308970  0.558270  1.0  0.1279
  H  H187  1  0.554800  0.691100  0.772200  1.0  0.1084
  H  H188  1  0.506000  0.619300  0.800200  1.0  0.1136
  H  H189  1  0.542700  0.640600  0.015400  1.0  0.1153
  H  H190  1  0.590200  0.712600  0.987900  1.0  0.1057
  H  H191  1  0.541100  0.571000  0.975200  1.0  0.108
  H  H192  1  0.391000  0.566000  0.952800  1.0  0.1027
  H  H193  1  0.357700  0.598400  0.891600  1.0  0.1266
  H  H194  1  0.221470  0.024430  0.105530  1.0  0.1093
  H  H195  1  0.172670  0.952630  0.133530  1.0  0.1136
  H  H196  1  0.209370  0.973930  0.348730  1.0  0.1153
  H  H197  1  0.256870  0.045930  0.321230  1.0  0.1063
  H  H198  1  0.207770  0.904330  0.308530  1.0  0.108
  H  H199  1  0.057670  0.899330  0.286130  1.0  0.1027
  H  H200  1  0.024370  0.931730  0.224930  1.0  0.125
  H  H201  1  0.888130  0.357770  0.438870  1.0  0.1084
  H  H202  1  0.839330  0.285970  0.466870  1.0  0.1136
  H  H203  1  0.876030  0.307270  0.682070  1.0  0.1153
  H  H204  1  0.923530  0.379270  0.654570  1.0  0.1057
  H  H205  1  0.874430  0.237670  0.641870  1.0  0.1079
  H  H206  1  0.724330  0.232670  0.619470  1.0  0.1027
  H  H207  1  0.691030  0.265070  0.558270  1.0  0.1266
  H  H208  1  0.863700  0.308900  0.227800  1.0  0.1097
  H  H209  1  0.886700  0.380700  0.199800  1.0  0.1137
  H  H210  1  0.902100  0.359400  0.984600  1.0  0.1158
  H  H211  1  0.877600  0.287400  0.012100  1.0  0.1068
  H  H212  1  0.970100  0.429000  0.024800  1.0  0.1084
  H  H213  1  0.825000  0.434000  0.047200  1.0  0.1082
  H  H214  1  0.759300  0.401600  0.108400  1.0  0.1252
  H  H215  1  0.530370  0.642230  0.561130  1.0  0.1096
  H  H216  1  0.553370  0.714030  0.533130  1.0  0.1137
  H  H217  1  0.568770  0.692730  0.317930  1.0  0.1158
  H  H218  1  0.544270  0.620730  0.345430  1.0  0.1067
  H  H219  1  0.636770  0.762330  0.358130  1.0  0.1083
  H  H220  1  0.491670  0.767330  0.380530  1.0  0.1082
  H  H221  1  0.425970  0.734930  0.441730  1.0  0.1252
  H  H222  1  0.197030  0.975570  0.894470  1.0  0.1097
  H  H223  1  0.220030  0.047370  0.866470  1.0  0.1171
  H  H224  1  0.235430  0.026070  0.651270  1.0  0.1163
  H  H225  1  0.210930  0.954070  0.678770  1.0  0.1068
  H  H226  1  0.303430  0.095670  0.691470  1.0  0.1084
  H  H227  1  0.158330  0.100670  0.713870  1.0  0.1012
  H  H228  1  0.092630  0.068270  0.775070  1.0  0.1245
  H  H229  1  0.445200  0.136300  0.227800  1.0  0.1097
  H  H230  1  0.494000  0.113300  0.199800  1.0  0.1176
  H  H231  1  0.457300  0.097900  0.984600  1.0  0.1161
  H  H232  1  0.409800  0.122400  0.012100  1.0  0.1071
  H  H233  1  0.458900  0.029900  0.024800  1.0  0.1083
  H  H234  1  0.609000  0.175000  0.047200  1.0  0.0994
  H  H235  1  0.642300  0.240700  0.108400  1.0  0.1208
  H  H236  1  0.111870  0.469630  0.561130  1.0  0.1097
  H  H237  1  0.160670  0.446630  0.533130  1.0  0.1176
  H  H238  1  0.123970  0.431230  0.317930  1.0  0.1161
  H  H239  1  0.076470  0.455730  0.345430  1.0  0.107
  H  H240  1  0.125570  0.363230  0.358130  1.0  0.1084
  H  H241  1  0.275670  0.508330  0.380530  1.0  0.0994
  H  H242  1  0.308970  0.574030  0.441730  1.0  0.1208
  H  H243  1  0.778530  0.802970  0.894470  1.0  0.109
  H  H244  1  0.827330  0.779970  0.866470  1.0  0.1143
  H  H245  1  0.790630  0.764570  0.651270  1.0  0.1161
  H  H246  1  0.743130  0.789070  0.678770  1.0  0.106
  H  H247  1  0.792230  0.696570  0.691470  1.0  0.1083
  H  H248  1  0.942330  0.841670  0.713870  1.0  0.1088
  H  H249  1  0.975630  0.907370  0.775070  1.0  0.1243
  H  H250  1  0.691100  0.554800  0.227800  1.0  0.1093
  H  H251  1  0.619300  0.506000  0.199800  1.0  0.114
  H  H252  1  0.640600  0.542700  0.984600  1.0  0.1156
  H  H253  1  0.712600  0.590200  0.012100  1.0  0.1057
  H  H254  1  0.571000  0.541100  0.024800  1.0  0.1086
  H  H255  1  0.566000  0.391000  0.047200  1.0  0.1003
  H  H256  1  0.598400  0.357700  0.108400  1.0  0.1288
  H  H257  1  0.357770  0.888130  0.561130  1.0  0.1093
  H  H258  1  0.285970  0.839330  0.533130  1.0  0.1141
  H  H259  1  0.307270  0.876030  0.317930  1.0  0.1156
  H  H260  1  0.379270  0.923530  0.345430  1.0  0.1057
  H  H261  1  0.237670  0.874430  0.358130  1.0  0.1086
  H  H262  1  0.232670  0.724330  0.380530  1.0  0.1003
  H  H263  1  0.265070  0.691030  0.441730  1.0  0.1288
  H  H264  1  0.024430  0.221470  0.894470  1.0  0.1101
  H  H265  1  0.952630  0.172670  0.866470  1.0  0.114
  H  H266  1  0.973930  0.209370  0.651270  1.0  0.1156
  H  H267  1  0.045930  0.256870  0.678770  1.0  0.1067
  H  H268  1  0.904330  0.207770  0.691470  1.0  0.1087
  H  H269  1  0.899330  0.057670  0.713870  1.0  0.1003
  H  H270  1  0.931730  0.024370  0.775070  1.0  0.1274
  H  H271  1  0.621100  0.242200  0.031600  1.0  0.115
  H  H272  1  0.287770  0.575530  0.364930  1.0  0.115
  H  H273  1  0.954430  0.908870  0.698270  1.0  0.1152
  H  H274  1  0.757800  0.378900  0.031600  1.0  0.1145
  H  H275  1  0.424470  0.712230  0.364930  1.0  0.1145
  H  H276  1  0.091130  0.045570  0.698270  1.0  0.1148
  H  H277  1  0.621100  0.378900  0.031600  1.0  0.1175
  H  H278  1  0.287770  0.712230  0.364930  1.0  0.1175
  H  H279  1  0.954430  0.045570  0.698270  1.0  0.1166
  H  H280  1  0.242200  0.621100  0.968400  1.0  0.1158
  H  H281  1  0.908870  0.954430  0.301730  1.0  0.1158
  H  H282  1  0.575530  0.287770  0.635070  1.0  0.1158
  H  H283  1  0.378900  0.757800  0.968400  1.0  0.1157
  H  H284  1  0.045570  0.091130  0.301730  1.0  0.1152
  H  H285  1  0.712230  0.424470  0.635070  1.0  0.1157
  H  H286  1  0.378900  0.621100  0.968400  1.0  0.1191
  H  H287  1  0.045570  0.954430  0.301730  1.0  0.1181
  H  H288  1  0.712230  0.287770  0.635070  1.0  0.1191
  C  C289  1  0.755680  0.145100  0.140000  1.0  0.6827
  C  C290  1  0.709490  0.131930  0.121700  1.0  -0.1302
  C  C291  1  0.681170  0.128840  0.178300  1.0  -0.0472
  C  C292  1  0.637860  0.114570  0.161600  1.0  -0.1363
  C  C293  1  0.622530  0.102580  0.090100  1.0  0.0576
  C  C294  1  0.650570  0.105680  0.034000  1.0  -0.167
  C  C295  1  0.693970  0.120460  0.050800  1.0  -0.028
  C  C296  1  0.575250  0.082650  0.072400  1.0  0.01
  C  C297  1  0.554860  0.043040  0.036700  1.0  -0.1128
  C  C298  1  0.422350  0.478430  0.473330  1.0  0.6827
  C  C299  1  0.376160  0.465260  0.455030  1.0  -0.1303
  C  C300  1  0.347840  0.462170  0.511630  1.0  -0.0472
  C  C301  1  0.304530  0.447900  0.494930  1.0  -0.1363
  C  C302  1  0.289200  0.435910  0.423430  1.0  0.0576
  C  C303  1  0.317240  0.439010  0.367330  1.0  -0.167
  C  C304  1  0.360640  0.453790  0.384130  1.0  -0.028
  C  C305  1  0.241920  0.415980  0.405730  1.0  0.01
  C  C306  1  0.221530  0.376370  0.370030  1.0  -0.1128
  C  C307  1  0.089010  0.811770  0.806670  1.0  0.6827
  C  C308  1  0.042820  0.798600  0.788370  1.0  -0.1302
  C  C309  1  0.014500  0.795510  0.844970  1.0  -0.0472
  C  C310  1  0.971190  0.781240  0.828270  1.0  -0.1363
  C  C311  1  0.955860  0.769250  0.756770  1.0  0.0576
  C  C312  1  0.983900  0.772350  0.700670  1.0  -0.167
  C  C313  1  0.027300  0.787130  0.717470  1.0  -0.028
  C  C314  1  0.908580  0.749320  0.739070  1.0  0.01
  C  C315  1  0.888190  0.709710  0.703370  1.0  -0.1123
  C  C316  1  0.854900  0.610580  0.140000  1.0  0.6831
  C  C317  1  0.868070  0.577560  0.121700  1.0  -0.1305
  C  C318  1  0.871160  0.552330  0.178300  1.0  -0.0474
  C  C319  1  0.885430  0.523290  0.161600  1.0  -0.1363
  C  C320  1  0.897420  0.519950  0.090100  1.0  0.0588
  C  C321  1  0.894320  0.544890  0.034000  1.0  -0.1685
  C  C322  1  0.879540  0.573510  0.050800  1.0  -0.0298
  C  C323  1  0.917350  0.492600  0.072400  1.0  0.0106
  C  C324  1  0.956960  0.511820  0.036700  1.0  -0.1083
  C  C325  1  0.521570  0.943910  0.473330  1.0  0.6833
  C  C326  1  0.534740  0.910890  0.455030  1.0  -0.1308
  C  C327  1  0.537830  0.885660  0.511630  1.0  -0.0474
  C  C328  1  0.552100  0.856620  0.494930  1.0  -0.1363
  C  C329  1  0.564090  0.853280  0.423430  1.0  0.0588
  C  C330  1  0.560990  0.878220  0.367330  1.0  -0.1685
  C  C331  1  0.546210  0.906840  0.384130  1.0  -0.0297
  C  C332  1  0.584020  0.825930  0.405730  1.0  0.0106
  C  C333  1  0.623630  0.845150  0.370030  1.0  -0.1083
  C  C334  1  0.188230  0.277250  0.806670  1.0  0.6831
  C  C335  1  0.201400  0.244230  0.788370  1.0  -0.1305
  C  C336  1  0.204490  0.219000  0.844970  1.0  -0.0474
  C  C337  1  0.218760  0.189960  0.828270  1.0  -0.1363
  C  C338  1  0.230750  0.186620  0.756770  1.0  0.0588
  C  C339  1  0.227650  0.211560  0.700670  1.0  -0.1685
  C  C340  1  0.212870  0.240180  0.717470  1.0  -0.0298
  C  C341  1  0.250680  0.159270  0.739070  1.0  0.0106
  C  C342  1  0.290290  0.178490  0.703370  1.0  -0.1088
  C  C343  1  0.389420  0.244320  0.140000  1.0  0.6834
  C  C344  1  0.422440  0.290510  0.121700  1.0  -0.13
  C  C345  1  0.447670  0.318830  0.178300  1.0  -0.0466
  C  C346  1  0.476710  0.362140  0.161600  1.0  -0.1379
  C  C347  1  0.480050  0.377470  0.090100  1.0  0.059
  C  C348  1  0.455110  0.349430  0.034000  1.0  -0.1663
  C  C349  1  0.426490  0.306030  0.050800  1.0  -0.03
  C  C350  1  0.507400  0.424750  0.072400  1.0  0.009
  C  C351  1  0.488180  0.445140  0.036700  1.0  -0.1122
  C  C352  1  0.056090  0.577650  0.473330  1.0  0.6832
  C  C353  1  0.089110  0.623840  0.455030  1.0  -0.1302
  C  C354  1  0.114340  0.652160  0.511630  1.0  -0.0466
  C  C355  1  0.143380  0.695470  0.494930  1.0  -0.1379
  C  C356  1  0.146720  0.710800  0.423430  1.0  0.059
  C  C357  1  0.121780  0.682760  0.367330  1.0  -0.1663
  C  C358  1  0.093160  0.639360  0.384130  1.0  -0.03
  C  C359  1  0.174070  0.758080  0.405730  1.0  0.009
  C  C360  1  0.154850  0.778470  0.370030  1.0  -0.1122
  C  C361  1  0.722750  0.910990  0.806670  1.0  0.6834
  C  C362  1  0.755770  0.957180  0.788370  1.0  -0.13
  C  C363  1  0.781000  0.985500  0.844970  1.0  -0.0466
  C  C364  1  0.810040  0.028810  0.828270  1.0  -0.1379
  C  C365  1  0.813380  0.044140  0.756770  1.0  0.059
  C  C366  1  0.788440  0.016100  0.700670  1.0  -0.1663
  C  C367  1  0.759820  0.972700  0.717470  1.0  -0.03
  C  C368  1  0.840730  0.091420  0.739070  1.0  0.009
  C  C369  1  0.821510  0.111810  0.703370  1.0  -0.1116
  C  C370  1  0.145100  0.755680  0.860000  1.0  0.6836
  C  C371  1  0.131930  0.709490  0.878300  1.0  -0.1295
  C  C372  1  0.128840  0.681170  0.821700  1.0  -0.0488
  C  C373  1  0.114570  0.637860  0.838400  1.0  -0.138
  C  C374  1  0.102580  0.622530  0.909900  1.0  0.0595
  C  C375  1  0.105680  0.650570  0.966000  1.0  -0.1676
  C  C376  1  0.120460  0.693970  0.949200  1.0  -0.0305
  C  C377  1  0.082650  0.575250  0.927600  1.0  0.0089
  C  C378  1  0.043040  0.554860  0.963300  1.0  -0.1124
  C  C379  1  0.811770  0.089010  0.193330  1.0  0.6836
  C  C380  1  0.798600  0.042820  0.211630  1.0  -0.1295
  C  C381  1  0.795510  0.014500  0.155030  1.0  -0.0488
  C  C382  1  0.781240  0.971190  0.171730  1.0  -0.138
  C  C383  1  0.769250  0.955860  0.243230  1.0  0.0595
  C  C384  1  0.772350  0.983900  0.299330  1.0  -0.1676
  C  C385  1  0.787130  0.027300  0.282530  1.0  -0.0305
  C  C386  1  0.749320  0.908580  0.260930  1.0  0.0089
  C  C387  1  0.709710  0.888190  0.296630  1.0  -0.1118
  C  C388  1  0.478430  0.422350  0.526670  1.0  0.6835
  C  C389  1  0.465260  0.376160  0.544970  1.0  -0.1295
  C  C390  1  0.462170  0.347840  0.488370  1.0  -0.0488
  C  C391  1  0.447900  0.304530  0.505070  1.0  -0.138
  C  C392  1  0.435910  0.289200  0.576570  1.0  0.0595
  C  C393  1  0.439010  0.317240  0.632670  1.0  -0.1676
  C  C394  1  0.453790  0.360640  0.615870  1.0  -0.0305
  C  C395  1  0.415980  0.241920  0.594270  1.0  0.0088
  C  C396  1  0.376370  0.221530  0.629970  1.0  -0.1124
  C  C397  1  0.610580  0.854900  0.860000  1.0  0.6823
  C  C398  1  0.577560  0.868070  0.878300  1.0  -0.1293
  C  C399  1  0.552330  0.871160  0.821700  1.0  -0.0491
  C  C400  1  0.523290  0.885430  0.838400  1.0  -0.1365
  C  C401  1  0.519950  0.897420  0.909900  1.0  0.0583
  C  C402  1  0.544890  0.894320  0.966000  1.0  -0.168
  C  C403  1  0.573510  0.879540  0.949200  1.0  -0.0275
  C  C404  1  0.492600  0.917350  0.927600  1.0  0.0102
  C  C405  1  0.511820  0.956960  0.963300  1.0  -0.1121
  C  C406  1  0.277250  0.188230  0.193330  1.0  0.6823
  C  C407  1  0.244230  0.201400  0.211630  1.0  -0.1293
  C  C408  1  0.219000  0.204490  0.155030  1.0  -0.0491
  C  C409  1  0.189960  0.218760  0.171730  1.0  -0.1365
  C  C410  1  0.186620  0.230750  0.243230  1.0  0.0583
  C  C411  1  0.211560  0.227650  0.299330  1.0  -0.168
  C  C412  1  0.240180  0.212870  0.282530  1.0  -0.0275
  C  C413  1  0.159270  0.250680  0.260930  1.0  0.0102
  C  C414  1  0.178490  0.290290  0.296630  1.0  -0.1127
  C  C415  1  0.943910  0.521570  0.526670  1.0  0.6825
  C  C416  1  0.910890  0.534740  0.544970  1.0  -0.1296
  C  C417  1  0.885660  0.537830  0.488370  1.0  -0.0491
  C  C418  1  0.856620  0.552100  0.505070  1.0  -0.1365
  C  C419  1  0.853280  0.564090  0.576570  1.0  0.0583
  C  C420  1  0.878220  0.560990  0.632670  1.0  -0.168
  C  C421  1  0.906840  0.546210  0.615870  1.0  -0.0275
  C  C422  1  0.825930  0.584020  0.594270  1.0  0.0102
  C  C423  1  0.845150  0.623630  0.629970  1.0  -0.1121
  C  C424  1  0.244320  0.389420  0.860000  1.0  0.6831
  C  C425  1  0.290510  0.422440  0.878300  1.0  -0.1306
  C  C426  1  0.318830  0.447670  0.821700  1.0  -0.0479
  C  C427  1  0.362140  0.476710  0.838400  1.0  -0.1371
  C  C428  1  0.377470  0.480050  0.909900  1.0  0.0589
  C  C429  1  0.349430  0.455110  0.966000  1.0  -0.1672
  C  C430  1  0.306030  0.426490  0.949200  1.0  -0.0301
  C  C431  1  0.424750  0.507400  0.927600  1.0  0.0094
  C  C432  1  0.445140  0.488180  0.963300  1.0  -0.1088
  C  C433  1  0.910990  0.722750  0.193330  1.0  0.6831
  C  C434  1  0.957180  0.755770  0.211630  1.0  -0.1306
  C  C435  1  0.985500  0.781000  0.155030  1.0  -0.0479
  C  C436  1  0.028810  0.810040  0.171730  1.0  -0.1371
  C  C437  1  0.044140  0.813380  0.243230  1.0  0.0589
  C  C438  1  0.016100  0.788440  0.299330  1.0  -0.1672
  C  C439  1  0.972700  0.759820  0.282530  1.0  -0.0301
  C  C440  1  0.091420  0.840730  0.260930  1.0  0.0094
  C  C441  1  0.111810  0.821510  0.296630  1.0  -0.1082
  C  C442  1  0.577650  0.056090  0.526670  1.0  0.6829
  C  C443  1  0.623840  0.089110  0.544970  1.0  -0.1307
  C  C444  1  0.652160  0.114340  0.488370  1.0  -0.0479
  C  C445  1  0.695470  0.143380  0.505070  1.0  -0.1371
  C  C446  1  0.710800  0.146720  0.576570  1.0  0.0589
  C  C447  1  0.682760  0.121780  0.632670  1.0  -0.1672
  C  C448  1  0.639360  0.093160  0.615870  1.0  -0.0301
  C  C449  1  0.758080  0.174070  0.594270  1.0  0.0094
  C  C450  1  0.778470  0.154850  0.629970  1.0  -0.1087
  C  C451  1  0.244320  0.854900  0.860000  1.0  0.6829
  C  C452  1  0.290510  0.868070  0.878300  1.0  -0.1302
  C  C453  1  0.318830  0.871160  0.821700  1.0  -0.0483
  C  C454  1  0.362140  0.885430  0.838400  1.0  -0.1373
  C  C455  1  0.377470  0.897420  0.909900  1.0  0.0579
  C  C456  1  0.349430  0.894320  0.966000  1.0  -0.1656
  C  C457  1  0.306030  0.879540  0.949200  1.0  -0.0285
  C  C458  1  0.424750  0.917350  0.927600  1.0  0.0096
  C  C459  1  0.445140  0.956960  0.963300  1.0  -0.1124
  C  C460  1  0.910990  0.188230  0.193330  1.0  0.6829
  C  C461  1  0.957180  0.201400  0.211630  1.0  -0.1302
  C  C462  1  0.985500  0.204490  0.155030  1.0  -0.0483
  C  C463  1  0.028810  0.218760  0.171730  1.0  -0.1373
  C  C464  1  0.044140  0.230750  0.243230  1.0  0.0579
  C  C465  1  0.016100  0.227650  0.299330  1.0  -0.1656
  C  C466  1  0.972700  0.212870  0.282530  1.0  -0.0285
  C  C467  1  0.091420  0.250680  0.260930  1.0  0.0096
  C  C468  1  0.111810  0.290290  0.296630  1.0  -0.1118
  C  C469  1  0.577650  0.521570  0.526670  1.0  0.6829
  C  C470  1  0.623840  0.534740  0.544970  1.0  -0.1302
  C  C471  1  0.652160  0.537830  0.488370  1.0  -0.0483
  C  C472  1  0.695470  0.552100  0.505070  1.0  -0.1373
  C  C473  1  0.710800  0.564090  0.576570  1.0  0.0579
  C  C474  1  0.682760  0.560990  0.632670  1.0  -0.1656
  C  C475  1  0.639360  0.546210  0.615870  1.0  -0.0286
  C  C476  1  0.758080  0.584020  0.594270  1.0  0.0096
  C  C477  1  0.778470  0.623630  0.629970  1.0  -0.1124
  C  C478  1  0.145100  0.389420  0.860000  1.0  0.6826
  C  C479  1  0.131930  0.422440  0.878300  1.0  -0.1296
  C  C480  1  0.128840  0.447670  0.821700  1.0  -0.0489
  C  C481  1  0.114570  0.476710  0.838400  1.0  -0.1363
  C  C482  1  0.102580  0.480050  0.909900  1.0  0.0596
  C  C483  1  0.105680  0.455110  0.966000  1.0  -0.1685
  C  C484  1  0.120460  0.426490  0.949200  1.0  -0.0283
  C  C485  1  0.082650  0.507400  0.927600  1.0  0.0111
  C  C486  1  0.043040  0.488180  0.963300  1.0  -0.1081
  C  C487  1  0.811770  0.722750  0.193330  1.0  0.6826
  C  C488  1  0.798600  0.755770  0.211630  1.0  -0.1296
  C  C489  1  0.795510  0.781000  0.155030  1.0  -0.0489
  C  C490  1  0.781240  0.810040  0.171730  1.0  -0.1363
  C  C491  1  0.769250  0.813380  0.243230  1.0  0.0596
  C  C492  1  0.772350  0.788440  0.299330  1.0  -0.1685
  C  C493  1  0.787130  0.759820  0.282530  1.0  -0.0283
  C  C494  1  0.749320  0.840730  0.260930  1.0  0.0111
  C  C495  1  0.709710  0.821510  0.296630  1.0  -0.1087
  C  C496  1  0.478430  0.056090  0.526670  1.0  0.6828
  C  C497  1  0.465260  0.089110  0.544970  1.0  -0.1299
  C  C498  1  0.462170  0.114340  0.488370  1.0  -0.049
  C  C499  1  0.447900  0.143380  0.505070  1.0  -0.1363
  C  C500  1  0.435910  0.146720  0.576570  1.0  0.0596
  C  C501  1  0.439010  0.121780  0.632670  1.0  -0.1685
  C  C502  1  0.453790  0.093160  0.615870  1.0  -0.0283
  C  C503  1  0.415980  0.174070  0.594270  1.0  0.0111
  C  C504  1  0.376370  0.154850  0.629970  1.0  -0.1081
  C  C505  1  0.610580  0.755680  0.860000  1.0  0.6837
  C  C506  1  0.577560  0.709490  0.878300  1.0  -0.1294
  C  C507  1  0.552330  0.681170  0.821700  1.0  -0.0485
  C  C508  1  0.523290  0.637860  0.838400  1.0  -0.1382
  C  C509  1  0.519950  0.622530  0.909900  1.0  0.0585
  C  C510  1  0.544890  0.650570  0.966000  1.0  -0.167
  C  C511  1  0.573510  0.693970  0.949200  1.0  -0.0285
  C  C512  1  0.492600  0.575250  0.927600  1.0  0.0093
  C  C513  1  0.511820  0.554860  0.963300  1.0  -0.1127
  C  C514  1  0.277250  0.089010  0.193330  1.0  0.6837
  C  C515  1  0.244230  0.042820  0.211630  1.0  -0.1294
  C  C516  1  0.219000  0.014500  0.155030  1.0  -0.0485
  C  C517  1  0.189960  0.971190  0.171730  1.0  -0.1382
  C  C518  1  0.186620  0.955860  0.243230  1.0  0.0585
  C  C519  1  0.211560  0.983900  0.299330  1.0  -0.167
  C  C520  1  0.240180  0.027300  0.282530  1.0  -0.0285
  C  C521  1  0.159270  0.908580  0.260930  1.0  0.0093
  C  C522  1  0.178490  0.888190  0.296630  1.0  -0.1121
  C  C523  1  0.943910  0.422350  0.526670  1.0  0.6835
  C  C524  1  0.910890  0.376160  0.544970  1.0  -0.1295
  C  C525  1  0.885660  0.347840  0.488370  1.0  -0.0485
  C  C526  1  0.856620  0.304530  0.505070  1.0  -0.1382
  C  C527  1  0.853280  0.289200  0.576570  1.0  0.0585
  C  C528  1  0.878220  0.317240  0.632670  1.0  -0.167
  C  C529  1  0.906840  0.360640  0.615870  1.0  -0.0285
  C  C530  1  0.825930  0.241920  0.594270  1.0  0.0093
  C  C531  1  0.845150  0.221530  0.629970  1.0  -0.1127
  C  C532  1  0.854900  0.244320  0.140000  1.0  0.6833
  C  C533  1  0.868070  0.290510  0.121700  1.0  -0.1304
  C  C534  1  0.871160  0.318830  0.178300  1.0  -0.047
  C  C535  1  0.885430  0.362140  0.161600  1.0  -0.1383
  C  C536  1  0.897420  0.377470  0.090100  1.0  0.0581
  C  C537  1  0.894320  0.349430  0.034000  1.0  -0.1665
  C  C538  1  0.879540  0.306030  0.050800  1.0  -0.0299
  C  C539  1  0.917350  0.424750  0.072400  1.0  0.0094
  C  C540  1  0.956960  0.445140  0.036700  1.0  -0.1131
  C  C541  1  0.521570  0.577650  0.473330  1.0  0.6832
  C  C542  1  0.534740  0.623840  0.455030  1.0  -0.1304
  C  C543  1  0.537830  0.652160  0.511630  1.0  -0.047
  C  C544  1  0.552100  0.695470  0.494930  1.0  -0.1384
  C  C545  1  0.564090  0.710800  0.423430  1.0  0.0581
  C  C546  1  0.560990  0.682760  0.367330  1.0  -0.1665
  C  C547  1  0.546210  0.639360  0.384130  1.0  -0.0299
  C  C548  1  0.584020  0.758080  0.405730  1.0  0.0094
  C  C549  1  0.623630  0.778470  0.370030  1.0  -0.1131
  C  C550  1  0.188230  0.910990  0.806670  1.0  0.6833
  C  C551  1  0.201400  0.957180  0.788370  1.0  -0.1304
  C  C552  1  0.204490  0.985500  0.844970  1.0  -0.047
  C  C553  1  0.218760  0.028810  0.828270  1.0  -0.1383
  C  C554  1  0.230750  0.044140  0.756770  1.0  0.0581
  C  C555  1  0.227650  0.016100  0.700670  1.0  -0.1665
  C  C556  1  0.212870  0.972700  0.717470  1.0  -0.0299
  C  C557  1  0.250680  0.091420  0.739070  1.0  0.0095
  C  C558  1  0.290290  0.111810  0.703370  1.0  -0.1125
  C  C559  1  0.389420  0.145100  0.140000  1.0  0.6831
  C  C560  1  0.422440  0.131930  0.121700  1.0  -0.1302
  C  C561  1  0.447670  0.128840  0.178300  1.0  -0.0477
  C  C562  1  0.476710  0.114570  0.161600  1.0  -0.137
  C  C563  1  0.480050  0.102580  0.090100  1.0  0.0572
  C  C564  1  0.455110  0.105680  0.034000  1.0  -0.1659
  C  C565  1  0.426490  0.120460  0.050800  1.0  -0.0288
  C  C566  1  0.507400  0.082650  0.072400  1.0  0.0092
  C  C567  1  0.488180  0.043040  0.036700  1.0  -0.113
  C  C568  1  0.056090  0.478430  0.473330  1.0  0.6833
  C  C569  1  0.089110  0.465260  0.455030  1.0  -0.1305
  C  C570  1  0.114340  0.462170  0.511630  1.0  -0.0477
  C  C571  1  0.143380  0.447900  0.494930  1.0  -0.137
  C  C572  1  0.146720  0.435910  0.423430  1.0  0.0572
  C  C573  1  0.121780  0.439010  0.367330  1.0  -0.1659
  C  C574  1  0.093160  0.453790  0.384130  1.0  -0.0288
  C  C575  1  0.174070  0.415980  0.405730  1.0  0.0092
  C  C576  1  0.154850  0.376370  0.370030  1.0  -0.113
  C  C577  1  0.722750  0.811770  0.806670  1.0  0.6831
  C  C578  1  0.755770  0.798600  0.788370  1.0  -0.1302
  C  C579  1  0.781000  0.795510  0.844970  1.0  -0.0477
  C  C580  1  0.810040  0.781240  0.828270  1.0  -0.137
  C  C581  1  0.813380  0.769250  0.756770  1.0  0.0572
  C  C582  1  0.788440  0.772350  0.700670  1.0  -0.1659
  C  C583  1  0.759820  0.787130  0.717470  1.0  -0.0288
  C  C584  1  0.840730  0.749320  0.739070  1.0  0.0092
  C  C585  1  0.821510  0.709710  0.703370  1.0  -0.1135
  C  C586  1  0.755680  0.610580  0.140000  1.0  0.683
  C  C587  1  0.709490  0.577560  0.121700  1.0  -0.1299
  C  C588  1  0.681170  0.552330  0.178300  1.0  -0.047
  C  C589  1  0.637860  0.523290  0.161600  1.0  -0.1364
  C  C590  1  0.622530  0.519950  0.090100  1.0  0.0595
  C  C591  1  0.650570  0.544890  0.034000  1.0  -0.1689
  C  C592  1  0.693970  0.573510  0.050800  1.0  -0.0294
  C  C593  1  0.575250  0.492600  0.072400  1.0  0.0119
  C  C594  1  0.554860  0.511820  0.036700  1.0  -0.1082
  C  C595  1  0.422350  0.943910  0.473330  1.0  0.6827
  C  C596  1  0.376160  0.910890  0.455030  1.0  -0.13
  C  C597  1  0.347840  0.885660  0.511630  1.0  -0.047
  C  C598  1  0.304530  0.856620  0.494930  1.0  -0.1364
  C  C599  1  0.289200  0.853280  0.423430  1.0  0.0595
  C  C600  1  0.317240  0.878220  0.367330  1.0  -0.1689
  C  C601  1  0.360640  0.906840  0.384130  1.0  -0.0294
  C  C602  1  0.241920  0.825930  0.405730  1.0  0.0119
  C  C603  1  0.221530  0.845150  0.370030  1.0  -0.1082
  C  C604  1  0.089010  0.277250  0.806670  1.0  0.683
  C  C605  1  0.042820  0.244230  0.788370  1.0  -0.1299
  C  C606  1  0.014500  0.219000  0.844970  1.0  -0.0469
  C  C607  1  0.971190  0.189960  0.828270  1.0  -0.1364
  C  C608  1  0.955860  0.186620  0.756770  1.0  0.0595
  C  C609  1  0.983900  0.211560  0.700670  1.0  -0.1689
  C  C610  1  0.027300  0.240180  0.717470  1.0  -0.0294
  C  C611  1  0.908580  0.159270  0.739070  1.0  0.0119
  C  C612  1  0.888190  0.178490  0.703370  1.0  -0.1077
  C  C613  1  0.510850  0.021710  0.017700  1.0  -0.0063
  C  C614  1  0.551380  0.102760  0.091300  1.0  0.1534
  C  C615  1  0.590250  0.180500  0.079300  1.0  -0.0295
  C  C616  1  0.615450  0.230900  0.082200  1.0  -0.3728
  C  C617  1  0.177520  0.355040  0.351030  1.0  -0.0063
  C  C618  1  0.218050  0.436090  0.424630  1.0  0.1533
  C  C619  1  0.256920  0.513830  0.412630  1.0  -0.0295
  C  C620  1  0.282120  0.564230  0.415530  1.0  -0.3727
  C  C621  1  0.844190  0.688380  0.684370  1.0  -0.0063
  C  C622  1  0.884710  0.769430  0.757970  1.0  0.1534
  C  C623  1  0.923580  0.847170  0.745970  1.0  -0.0295
  C  C624  1  0.948780  0.897570  0.748870  1.0  -0.3728
  C  C625  1  0.978290  0.489150  0.017700  1.0  -0.0092
  C  C626  1  0.897240  0.448620  0.091300  1.0  0.1528
  C  C627  1  0.819500  0.409750  0.079300  1.0  -0.03
  C  C628  1  0.769100  0.384550  0.082200  1.0  -0.3702
  C  C629  1  0.644960  0.822480  0.351030  1.0  -0.0092
  C  C630  1  0.563910  0.781950  0.424630  1.0  0.1528
  C  C631  1  0.486170  0.743080  0.412630  1.0  -0.03
  C  C632  1  0.435770  0.717880  0.415530  1.0  -0.3702
  C  C633  1  0.311620  0.155810  0.684370  1.0  -0.0092
  C  C634  1  0.230570  0.115290  0.757970  1.0  0.1528
  C  C635  1  0.152830  0.076420  0.745970  1.0  -0.03
  C  C636  1  0.102430  0.051220  0.748870  1.0  -0.3702
  C  C637  1  0.510850  0.489150  0.017700  1.0  -0.0123
  C  C638  1  0.551380  0.448620  0.091300  1.0  0.1526
  C  C639  1  0.590250  0.409750  0.079300  1.0  -0.0297
  C  C640  1  0.615450  0.384550  0.082200  1.0  -0.3685
  C  C641  1  0.177520  0.822480  0.351030  1.0  -0.0124
  C  C642  1  0.218050  0.781950  0.424630  1.0  0.1526
  C  C643  1  0.256920  0.743080  0.412630  1.0  -0.0297
  C  C644  1  0.282120  0.717880  0.415530  1.0  -0.3685
  C  C645  1  0.844190  0.155810  0.684370  1.0  -0.0117
  C  C646  1  0.884710  0.115290  0.757970  1.0  0.1526
  C  C647  1  0.923580  0.076420  0.745970  1.0  -0.0294
  C  C648  1  0.948780  0.051220  0.748870  1.0  -0.3684
  C  C649  1  0.021710  0.510850  0.982300  1.0  -0.0106
  C  C650  1  0.102760  0.551380  0.908700  1.0  0.1539
  C  C651  1  0.180500  0.590250  0.920700  1.0  -0.0278
  C  C652  1  0.230900  0.615450  0.917800  1.0  -0.3699
  C  C653  1  0.688380  0.844190  0.315630  1.0  -0.0106
  C  C654  1  0.769430  0.884710  0.242030  1.0  0.1539
  C  C655  1  0.847170  0.923580  0.254030  1.0  -0.0278
  C  C656  1  0.897570  0.948780  0.251130  1.0  -0.3699
  C  C657  1  0.355040  0.177520  0.648970  1.0  -0.0105
  C  C658  1  0.436090  0.218050  0.575370  1.0  0.1539
  C  C659  1  0.513830  0.256920  0.587370  1.0  -0.0277
  C  C660  1  0.564230  0.282120  0.584470  1.0  -0.3699
  C  C661  1  0.489150  0.978290  0.982300  1.0  -0.0064
  C  C662  1  0.448620  0.897240  0.908700  1.0  0.1547
  C  C663  1  0.409750  0.819500  0.920700  1.0  -0.0265
  C  C664  1  0.384550  0.769100  0.917800  1.0  -0.3734
  C  C665  1  0.155810  0.311620  0.315630  1.0  -0.0064
  C  C666  1  0.115290  0.230570  0.242030  1.0  0.1547
  C  C667  1  0.076420  0.152830  0.254030  1.0  -0.0265
  C  C668  1  0.051220  0.102430  0.251130  1.0  -0.3734
  C  C669  1  0.822480  0.644960  0.648970  1.0  -0.0064
  C  C670  1  0.781950  0.563910  0.575370  1.0  0.1547
  C  C671  1  0.743080  0.486170  0.587370  1.0  -0.0265
  C  C672  1  0.717880  0.435770  0.584470  1.0  -0.3734
  C  C673  1  0.489150  0.510850  0.982300  1.0  -0.0116
  C  C674  1  0.448620  0.551380  0.908700  1.0  0.1541
  C  C675  1  0.409750  0.590250  0.920700  1.0  -0.0283
  C  C676  1  0.384550  0.615450  0.917800  1.0  -0.3714
  C  C677  1  0.155810  0.844190  0.315630  1.0  -0.011
  C  C678  1  0.115290  0.884710  0.242030  1.0  0.1541
  C  C679  1  0.076420  0.923580  0.254030  1.0  -0.0281
  C  C680  1  0.051220  0.948780  0.251130  1.0  -0.3714
  C  C681  1  0.822480  0.177520  0.648970  1.0  -0.0116
  C  C682  1  0.781950  0.218050  0.575370  1.0  0.1541
  C  C683  1  0.743080  0.256920  0.587370  1.0  -0.0285
  C  C684  1  0.717880  0.282120  0.584470  1.0  -0.3715
  O  O685  1  0.778420  0.144670  0.085270  1.0  -0.5797
  O  O686  1  0.767770  0.154900  0.207100  1.0  -0.5572
  O  O687  1  0.445090  0.478000  0.418600  1.0  -0.5797
  O  O688  1  0.434440  0.488230  0.540430  1.0  -0.5572
  O  O689  1  0.111750  0.811340  0.751940  1.0  -0.5797
  O  O690  1  0.101100  0.821570  0.873770  1.0  -0.5572
  O  O691  1  0.855330  0.633750  0.085270  1.0  -0.5807
  O  O692  1  0.845100  0.612870  0.207100  1.0  -0.5571
  O  O693  1  0.522000  0.967080  0.418600  1.0  -0.5807
  O  O694  1  0.511770  0.946200  0.540430  1.0  -0.5567
  O  O695  1  0.188660  0.300420  0.751940  1.0  -0.5807
  O  O696  1  0.178430  0.279540  0.873770  1.0  -0.5577
  O  O697  1  0.366250  0.221580  0.085270  1.0  -0.5796
  O  O698  1  0.387130  0.232230  0.207100  1.0  -0.5581
  O  O699  1  0.032920  0.554910  0.418600  1.0  -0.5796
  O  O700  1  0.053800  0.565560  0.540430  1.0  -0.5581
  O  O701  1  0.699580  0.888250  0.751940  1.0  -0.5796
  O  O702  1  0.720460  0.898900  0.873770  1.0  -0.5573
  O  O703  1  0.144670  0.778420  0.914730  1.0  -0.5794
  O  O704  1  0.154900  0.767770  0.792900  1.0  -0.5565
  O  O705  1  0.811340  0.111750  0.248060  1.0  -0.5794
  O  O706  1  0.821570  0.101100  0.126230  1.0  -0.5565
  O  O707  1  0.478000  0.445090  0.581400  1.0  -0.5794
  O  O708  1  0.488230  0.434440  0.459570  1.0  -0.5565
  O  O709  1  0.633750  0.855330  0.914730  1.0  -0.5793
  O  O710  1  0.612870  0.845100  0.792900  1.0  -0.5559
  O  O711  1  0.300420  0.188660  0.248060  1.0  -0.5793
  O  O712  1  0.279540  0.178430  0.126230  1.0  -0.5572
  O  O713  1  0.967080  0.522000  0.581400  1.0  -0.5793
  O  O714  1  0.946200  0.511770  0.459570  1.0  -0.5557
  O  O715  1  0.221580  0.366250  0.914730  1.0  -0.5807
  O  O716  1  0.232230  0.387130  0.792900  1.0  -0.5576
  O  O717  1  0.888250  0.699580  0.248060  1.0  -0.5807
  O  O718  1  0.898900  0.720460  0.126230  1.0  -0.556
  O  O719  1  0.554910  0.032920  0.581400  1.0  -0.5807
  O  O720  1  0.565560  0.053800  0.459570  1.0  -0.5576
  O  O721  1  0.221580  0.855330  0.914730  1.0  -0.5794
  O  O722  1  0.232230  0.845100  0.792900  1.0  -0.5569
  O  O723  1  0.888250  0.188660  0.248060  1.0  -0.5794
  O  O724  1  0.898900  0.178430  0.126230  1.0  -0.5569
  O  O725  1  0.554910  0.522000  0.581400  1.0  -0.5794
  O  O726  1  0.565560  0.511770  0.459570  1.0  -0.5569
  O  O727  1  0.144670  0.366250  0.914730  1.0  -0.5804
  O  O728  1  0.154900  0.387130  0.792900  1.0  -0.5557
  O  O729  1  0.811340  0.699580  0.248060  1.0  -0.5804
  O  O730  1  0.821570  0.720460  0.126230  1.0  -0.5567
  O  O731  1  0.478000  0.032920  0.581400  1.0  -0.5805
  O  O732  1  0.488230  0.053800  0.459570  1.0  -0.5555
  O  O733  1  0.633750  0.778420  0.914730  1.0  -0.5795
  O  O734  1  0.612870  0.767770  0.792900  1.0  -0.5572
  O  O735  1  0.300420  0.111750  0.248060  1.0  -0.5795
  O  O736  1  0.279540  0.101100  0.126230  1.0  -0.556
  O  O737  1  0.967080  0.445090  0.581400  1.0  -0.5795
  O  O738  1  0.946200  0.434440  0.459570  1.0  -0.5572
  O  O739  1  0.855330  0.221580  0.085270  1.0  -0.58
  O  O740  1  0.845100  0.232230  0.207100  1.0  -0.5573
  O  O741  1  0.522000  0.554910  0.418600  1.0  -0.58
  O  O742  1  0.511770  0.565560  0.540430  1.0  -0.5575
  O  O743  1  0.188660  0.888250  0.751940  1.0  -0.58
  O  O744  1  0.178430  0.898900  0.873770  1.0  -0.5573
  O  O745  1  0.366250  0.144670  0.085270  1.0  -0.58
  O  O746  1  0.387130  0.154900  0.207100  1.0  -0.5569
  O  O747  1  0.032920  0.478000  0.418600  1.0  -0.58
  O  O748  1  0.053800  0.488230  0.540430  1.0  -0.5567
  O  O749  1  0.699580  0.811340  0.751940  1.0  -0.58
  O  O750  1  0.720460  0.821570  0.873770  1.0  -0.5571
  O  O751  1  0.778420  0.633750  0.085270  1.0  -0.5804
  O  O752  1  0.767770  0.612870  0.207100  1.0  -0.5581
  O  O753  1  0.445090  0.967080  0.418600  1.0  -0.5804
  O  O754  1  0.434440  0.946200  0.540430  1.0  -0.5581
  O  O755  1  0.111750  0.300420  0.751940  1.0  -0.5804
  O  O756  1  0.101100  0.279540  0.873770  1.0  -0.5569
  O  O757  1  0.571130  0.142250  0.127500  1.0  -0.3089
  O  O758  1  0.237790  0.475580  0.460830  1.0  -0.3089
  O  O759  1  0.904460  0.808920  0.794170  1.0  -0.309
  O  O760  1  0.857750  0.428880  0.127500  1.0  -0.3102
  O  O761  1  0.524420  0.762210  0.460830  1.0  -0.3102
  O  O762  1  0.191080  0.095540  0.794170  1.0  -0.3103
  O  O763  1  0.571120  0.428880  0.127500  1.0  -0.3064
  O  O764  1  0.237790  0.762210  0.460830  1.0  -0.3064
  O  O765  1  0.904460  0.095540  0.794170  1.0  -0.3062
  O  O766  1  0.142250  0.571130  0.872500  1.0  -0.31
  O  O767  1  0.808920  0.904460  0.205830  1.0  -0.31
  O  O768  1  0.475580  0.237790  0.539170  1.0  -0.31
  O  O769  1  0.428880  0.857750  0.872500  1.0  -0.309
  O  O770  1  0.095540  0.191080  0.205830  1.0  -0.309
  O  O771  1  0.762210  0.524420  0.539170  1.0  -0.309
  O  O772  1  0.428880  0.571130  0.872500  1.0  -0.3065
  O  O773  1  0.095540  0.904460  0.205830  1.0  -0.3062
  O  O774  1  0.762210  0.237790  0.539170  1.0  -0.3064
