# generated using pymatgen
data_CuH13C21O5
_symmetry_space_group_name_H-M   'P 1'
_cell_length_a   35.14330000
_cell_length_b   35.14330000
_cell_length_c   21.92830000
_cell_angle_alpha   90.00000000
_cell_angle_beta   90.00000000
_cell_angle_gamma   120.00000000
_symmetry_Int_Tables_number   1
_chemical_formula_structural   CuH13C21O5
_chemical_formula_sum   'Cu18 H234 C378 O90'
_cell_volume   23454.20277585
_cell_formula_units_Z   18
loop_
 _symmetry_equiv_pos_site_id
 _symmetry_equiv_pos_as_xyz
  1  'x, y, z'
loop_
 _atom_site_type_symbol
 _atom_site_label
 _atom_site_symmetry_multiplicity
 _atom_site_fract_x
 _atom_site_fract_y
 _atom_site_fract_z
 _atom_site_occupancy
 _atom_site_charge
  Cu  Cu1  1  0.507920  0.015840  0.943830  1.0  0.9026
  Cu  Cu2  1  0.174590  0.349170  0.277160  1.0  0.9026
  Cu  Cu3  1  0.841250  0.682510  0.610500  1.0  0.9025
  Cu  Cu4  1  0.984160  0.492080  0.943830  1.0  0.9011
  Cu  Cu5  1  0.650830  0.825410  0.277160  1.0  0.9011
  Cu  Cu6  1  0.317490  0.158750  0.610500  1.0  0.9011
  Cu  Cu7  1  0.507920  0.492080  0.943830  1.0  0.9021
  Cu  Cu8  1  0.174590  0.825410  0.277160  1.0  0.9021
  Cu  Cu9  1  0.841250  0.158750  0.610500  1.0  0.9021
  Cu  Cu10  1  0.015840  0.507920  0.056170  1.0  0.9021
  Cu  Cu11  1  0.682510  0.841250  0.389500  1.0  0.9021
  Cu  Cu12  1  0.349170  0.174590  0.722840  1.0  0.9021
  Cu  Cu13  1  0.492080  0.984160  0.056170  1.0  0.9026
  Cu  Cu14  1  0.158750  0.317490  0.389500  1.0  0.9026
  Cu  Cu15  1  0.825410  0.650830  0.722840  1.0  0.9026
  Cu  Cu16  1  0.492080  0.507920  0.056170  1.0  0.9025
  Cu  Cu17  1  0.158750  0.841250  0.389500  1.0  0.9025
  Cu  Cu18  1  0.825410  0.174590  0.722840  1.0  0.9025
  H  H19  1  0.533300  0.887800  0.037700  1.0  0.1045
  H  H20  1  0.556500  0.838700  0.010100  1.0  0.1046
  H  H21  1  0.573100  0.882500  0.836900  1.0  0.1125
  H  H22  1  0.550100  0.931500  0.865300  1.0  0.1018
  H  H23  1  0.638600  0.876400  0.858800  1.0  0.1069
  H  H24  1  0.493300  0.724100  0.895300  1.0  0.0884
  H  H25  1  0.199970  0.221130  0.371030  1.0  0.1042
  H  H26  1  0.223170  0.172030  0.343430  1.0  0.1042
  H  H27  1  0.239770  0.215830  0.170230  1.0  0.113
  H  H28  1  0.216770  0.264830  0.198630  1.0  0.103
  H  H29  1  0.305270  0.209730  0.192130  1.0  0.1069
  H  H30  1  0.159970  0.057430  0.228630  1.0  0.0902
  H  H31  1  0.866630  0.554470  0.704370  1.0  0.1045
  H  H32  1  0.889830  0.505370  0.676770  1.0  0.1046
  H  H33  1  0.906430  0.549170  0.503570  1.0  0.1127
  H  H34  1  0.883430  0.598170  0.531970  1.0  0.1014
  H  H35  1  0.971930  0.543070  0.525470  1.0  0.106
  H  H36  1  0.826630  0.390770  0.561970  1.0  0.0884
  H  H37  1  0.112200  0.645500  0.037700  1.0  0.1039
  H  H38  1  0.161300  0.717800  0.010100  1.0  0.1044
  H  H39  1  0.117500  0.690600  0.836900  1.0  0.1131
  H  H40  1  0.068500  0.618600  0.865300  1.0  0.1018
  H  H41  1  0.123600  0.762200  0.858800  1.0  0.1058
  H  H42  1  0.275900  0.769200  0.895300  1.0  0.0925
  H  H43  1  0.778870  0.978830  0.371030  1.0  0.1044
  H  H44  1  0.827970  0.051130  0.343430  1.0  0.1044
  H  H45  1  0.784170  0.023930  0.170230  1.0  0.1131
  H  H46  1  0.735170  0.951930  0.198630  1.0  0.1015
  H  H47  1  0.790270  0.095530  0.192130  1.0  0.1059
  H  H48  1  0.942570  0.102530  0.228630  1.0  0.0921
  H  H49  1  0.445530  0.312170  0.704370  1.0  0.1039
  H  H50  1  0.494630  0.384470  0.676770  1.0  0.1044
  H  H51  1  0.450830  0.357270  0.503570  1.0  0.113
  H  H52  1  0.401830  0.285270  0.531970  1.0  0.1028
  H  H53  1  0.456930  0.428870  0.525470  1.0  0.1059
  H  H54  1  0.609230  0.435870  0.561970  1.0  0.0925
  H  H55  1  0.354500  0.466700  0.037700  1.0  0.1036
  H  H56  1  0.282200  0.443500  0.010100  1.0  0.104
  H  H57  1  0.309400  0.426900  0.836900  1.0  0.1134
  H  H58  1  0.381400  0.449900  0.865300  1.0  0.1035
  H  H59  1  0.237800  0.361400  0.858800  1.0  0.1064
  H  H60  1  0.230800  0.506700  0.895300  1.0  0.0877
  H  H61  1  0.021170  0.800030  0.371030  1.0  0.1036
  H  H62  1  0.948870  0.776830  0.343430  1.0  0.1044
  H  H63  1  0.976070  0.760230  0.170230  1.0  0.1132
  H  H64  1  0.048070  0.783230  0.198630  1.0  0.1027
  H  H65  1  0.904470  0.694730  0.192130  1.0  0.1064
  H  H66  1  0.897470  0.840030  0.228630  1.0  0.089
  H  H67  1  0.687830  0.133370  0.704370  1.0  0.1036
  H  H68  1  0.615530  0.110170  0.676770  1.0  0.104
  H  H69  1  0.642730  0.093570  0.503570  1.0  0.1134
  H  H70  1  0.714730  0.116570  0.531970  1.0  0.1035
  H  H71  1  0.571130  0.028070  0.525470  1.0  0.1063
  H  H72  1  0.564130  0.173370  0.561970  1.0  0.0877
  H  H73  1  0.887800  0.533300  0.962300  1.0  0.1034
  H  H74  1  0.838700  0.556500  0.989900  1.0  0.1049
  H  H75  1  0.882500  0.573100  0.163100  1.0  0.1129
  H  H76  1  0.931500  0.550100  0.134700  1.0  0.1023
  H  H77  1  0.876400  0.638600  0.141200  1.0  0.1063
  H  H78  1  0.724100  0.493300  0.104700  1.0  0.0902
  H  H79  1  0.554470  0.866630  0.295630  1.0  0.1034
  H  H80  1  0.505370  0.889830  0.323230  1.0  0.1049
  H  H81  1  0.549170  0.906430  0.496430  1.0  0.1131
  H  H82  1  0.598170  0.883430  0.468030  1.0  0.1018
  H  H83  1  0.543070  0.971930  0.474530  1.0  0.1054
  H  H84  1  0.390770  0.826630  0.438030  1.0  0.0902
  H  H85  1  0.221130  0.199970  0.628970  1.0  0.1035
  H  H86  1  0.172030  0.223170  0.656570  1.0  0.1045
  H  H87  1  0.215830  0.239770  0.829770  1.0  0.1135
  H  H88  1  0.264830  0.216770  0.801370  1.0  0.1031
  H  H89  1  0.209730  0.305270  0.807870  1.0  0.1063
  H  H90  1  0.057430  0.159970  0.771370  1.0  0.0914
  H  H91  1  0.645500  0.112200  0.962300  1.0  0.1038
  H  H92  1  0.717800  0.161300  0.989900  1.0  0.105
  H  H93  1  0.690600  0.117500  0.163100  1.0  0.1138
  H  H94  1  0.618600  0.068500  0.134700  1.0  0.1024
  H  H95  1  0.762200  0.123600  0.141200  1.0  0.1066
  H  H96  1  0.769200  0.275900  0.104700  1.0  0.0913
  H  H97  1  0.312170  0.445530  0.295630  1.0  0.1038
  H  H98  1  0.384470  0.494630  0.323230  1.0  0.105
  H  H99  1  0.357270  0.450830  0.496430  1.0  0.1137
  H  H100  1  0.285270  0.401830  0.468030  1.0  0.1034
  H  H101  1  0.428870  0.456930  0.474530  1.0  0.1066
  H  H102  1  0.435870  0.609230  0.438030  1.0  0.0913
  H  H103  1  0.978830  0.778870  0.628970  1.0  0.104
  H  H104  1  0.051130  0.827970  0.656570  1.0  0.105
  H  H105  1  0.023930  0.784170  0.829770  1.0  0.1138
  H  H106  1  0.951930  0.735170  0.801370  1.0  0.1021
  H  H107  1  0.095530  0.790270  0.807870  1.0  0.1067
  H  H108  1  0.102530  0.942570  0.771370  1.0  0.0909
  H  H109  1  0.466700  0.354500  0.962300  1.0  0.1039
  H  H110  1  0.443500  0.282200  0.989900  1.0  0.1037
  H  H111  1  0.426900  0.309400  0.163100  1.0  0.1138
  H  H112  1  0.449900  0.381400  0.134700  1.0  0.1029
  H  H113  1  0.361400  0.237800  0.141200  1.0  0.1062
  H  H114  1  0.506700  0.230800  0.104700  1.0  0.0902
  H  H115  1  0.133370  0.687830  0.295630  1.0  0.1039
  H  H116  1  0.110170  0.615530  0.323230  1.0  0.1037
  H  H117  1  0.093570  0.642730  0.496430  1.0  0.1138
  H  H118  1  0.116570  0.714730  0.468030  1.0  0.1029
  H  H119  1  0.028070  0.571130  0.474530  1.0  0.1061
  H  H120  1  0.173370  0.564130  0.438030  1.0  0.0902
  H  H121  1  0.800030  0.021170  0.628970  1.0  0.1039
  H  H122  1  0.776830  0.948870  0.656570  1.0  0.1047
  H  H123  1  0.760230  0.976070  0.829770  1.0  0.1136
  H  H124  1  0.783230  0.048070  0.801370  1.0  0.1021
  H  H125  1  0.694730  0.904470  0.807870  1.0  0.1061
  H  H126  1  0.840030  0.897470  0.771370  1.0  0.0903
  H  H127  1  0.466700  0.112200  0.962300  1.0  0.1035
  H  H128  1  0.443500  0.161300  0.989900  1.0  0.105
  H  H129  1  0.426900  0.117500  0.163100  1.0  0.1131
  H  H130  1  0.449900  0.068500  0.134700  1.0  0.1023
  H  H131  1  0.361400  0.123600  0.141200  1.0  0.1063
  H  H132  1  0.506700  0.275900  0.104700  1.0  0.0902
  H  H133  1  0.133370  0.445530  0.295630  1.0  0.1035
  H  H134  1  0.110170  0.494630  0.323230  1.0  0.105
  H  H135  1  0.093570  0.450830  0.496430  1.0  0.1133
  H  H136  1  0.116570  0.401830  0.468030  1.0  0.1018
  H  H137  1  0.028070  0.456930  0.474530  1.0  0.1054
  H  H138  1  0.173370  0.609230  0.438030  1.0  0.0902
  H  H139  1  0.800030  0.778870  0.628970  1.0  0.1036
  H  H140  1  0.776830  0.827970  0.656570  1.0  0.1045
  H  H141  1  0.760230  0.784170  0.829770  1.0  0.1139
  H  H142  1  0.783230  0.735170  0.801370  1.0  0.1035
  H  H143  1  0.694730  0.790270  0.807870  1.0  0.1063
  H  H144  1  0.840030  0.942570  0.771370  1.0  0.0913
  H  H145  1  0.887800  0.354500  0.962300  1.0  0.1036
  H  H146  1  0.838700  0.282200  0.989900  1.0  0.1046
  H  H147  1  0.882500  0.309400  0.163100  1.0  0.1134
  H  H148  1  0.931500  0.381400  0.134700  1.0  0.102
  H  H149  1  0.876400  0.237800  0.141200  1.0  0.1056
  H  H150  1  0.724100  0.230800  0.104700  1.0  0.0915
  H  H151  1  0.554470  0.687830  0.295630  1.0  0.1036
  H  H152  1  0.505370  0.615530  0.323230  1.0  0.1046
  H  H153  1  0.549170  0.642730  0.496430  1.0  0.1133
  H  H154  1  0.598170  0.714730  0.468030  1.0  0.103
  H  H155  1  0.543070  0.571130  0.474530  1.0  0.1056
  H  H156  1  0.390770  0.564130  0.438030  1.0  0.0915
  H  H157  1  0.221130  0.021170  0.628970  1.0  0.1039
  H  H158  1  0.172030  0.948870  0.656570  1.0  0.1046
  H  H159  1  0.215830  0.976070  0.829770  1.0  0.1134
  H  H160  1  0.264830  0.048070  0.801370  1.0  0.1017
  H  H161  1  0.209730  0.904470  0.807870  1.0  0.1057
  H  H162  1  0.057430  0.897470  0.771370  1.0  0.0911
  H  H163  1  0.645500  0.533300  0.962300  1.0  0.1033
  H  H164  1  0.717800  0.556500  0.989900  1.0  0.1041
  H  H165  1  0.690600  0.573100  0.163100  1.0  0.1137
  H  H166  1  0.618600  0.550100  0.134700  1.0  0.1033
  H  H167  1  0.762200  0.638600  0.141200  1.0  0.1063
  H  H168  1  0.769200  0.493300  0.104700  1.0  0.0894
  H  H169  1  0.312170  0.866630  0.295630  1.0  0.1033
  H  H170  1  0.384470  0.889830  0.323230  1.0  0.1041
  H  H171  1  0.357270  0.906430  0.496430  1.0  0.1137
  H  H172  1  0.285270  0.883430  0.468030  1.0  0.1033
  H  H173  1  0.428870  0.971930  0.474530  1.0  0.1062
  H  H174  1  0.435870  0.826630  0.438030  1.0  0.0894
  H  H175  1  0.978830  0.199970  0.628970  1.0  0.1033
  H  H176  1  0.051130  0.223170  0.656570  1.0  0.1048
  H  H177  1  0.023930  0.239770  0.829770  1.0  0.1136
  H  H178  1  0.951930  0.216770  0.801370  1.0  0.1025
  H  H179  1  0.095530  0.305270  0.807870  1.0  0.1062
  H  H180  1  0.102530  0.159970  0.771370  1.0  0.0893
  H  H181  1  0.112200  0.466700  0.037700  1.0  0.1038
  H  H182  1  0.161300  0.443500  0.010100  1.0  0.1045
  H  H183  1  0.117500  0.426900  0.836900  1.0  0.1123
  H  H184  1  0.068500  0.449900  0.865300  1.0  0.1021
  H  H185  1  0.123600  0.361400  0.858800  1.0  0.1066
  H  H186  1  0.275900  0.506700  0.895300  1.0  0.0899
  H  H187  1  0.778870  0.800030  0.371030  1.0  0.1035
  H  H188  1  0.827970  0.776830  0.343430  1.0  0.1043
  H  H189  1  0.784170  0.760230  0.170230  1.0  0.1129
  H  H190  1  0.735170  0.783230  0.198630  1.0  0.1033
  H  H191  1  0.790270  0.694730  0.192130  1.0  0.1067
  H  H192  1  0.942570  0.840030  0.228630  1.0  0.0905
  H  H193  1  0.445530  0.133370  0.704370  1.0  0.1038
  H  H194  1  0.494630  0.110170  0.676770  1.0  0.1045
  H  H195  1  0.450830  0.093570  0.503570  1.0  0.1125
  H  H196  1  0.401830  0.116570  0.531970  1.0  0.1016
  H  H197  1  0.456930  0.028070  0.525470  1.0  0.1057
  H  H198  1  0.609230  0.173370  0.561970  1.0  0.0899
  H  H199  1  0.354500  0.887800  0.037700  1.0  0.104
  H  H200  1  0.282200  0.838700  0.010100  1.0  0.1044
  H  H201  1  0.309400  0.882500  0.836900  1.0  0.1129
  H  H202  1  0.381400  0.931500  0.865300  1.0  0.1024
  H  H203  1  0.237800  0.876400  0.858800  1.0  0.1069
  H  H204  1  0.230800  0.724100  0.895300  1.0  0.0909
  H  H205  1  0.021170  0.221130  0.371030  1.0  0.1045
  H  H206  1  0.948870  0.172030  0.343430  1.0  0.1044
  H  H207  1  0.976070  0.215830  0.170230  1.0  0.1129
  H  H208  1  0.048070  0.264830  0.198630  1.0  0.1019
  H  H209  1  0.904470  0.209730  0.192130  1.0  0.1069
  H  H210  1  0.897470  0.057430  0.228630  1.0  0.0906
  H  H211  1  0.687830  0.554470  0.704370  1.0  0.104
  H  H212  1  0.615530  0.505370  0.676770  1.0  0.1044
  H  H213  1  0.642730  0.549170  0.503570  1.0  0.1128
  H  H214  1  0.714730  0.598170  0.531970  1.0  0.1033
  H  H215  1  0.571130  0.543070  0.525470  1.0  0.1069
  H  H216  1  0.564130  0.390770  0.561970  1.0  0.0909
  H  H217  1  0.533300  0.645500  0.037700  1.0  0.1037
  H  H218  1  0.556500  0.717800  0.010100  1.0  0.1034
  H  H219  1  0.573100  0.690600  0.836900  1.0  0.1128
  H  H220  1  0.550100  0.618600  0.865300  1.0  0.103
  H  H221  1  0.638600  0.762200  0.858800  1.0  0.106
  H  H222  1  0.493300  0.769200  0.895300  1.0  0.0894
  H  H223  1  0.199970  0.978830  0.371030  1.0  0.1037
  H  H224  1  0.223170  0.051130  0.343430  1.0  0.1042
  H  H225  1  0.239770  0.023930  0.170230  1.0  0.1126
  H  H226  1  0.216770  0.951930  0.198630  1.0  0.1023
  H  H227  1  0.305270  0.095530  0.192130  1.0  0.106
  H  H228  1  0.159970  0.102530  0.228630  1.0  0.0896
  H  H229  1  0.866630  0.312170  0.704370  1.0  0.1037
  H  H230  1  0.889830  0.384470  0.676770  1.0  0.1034
  H  H231  1  0.906430  0.357270  0.503570  1.0  0.1128
  H  H232  1  0.883430  0.285270  0.531970  1.0  0.103
  H  H233  1  0.971930  0.428870  0.525470  1.0  0.1059
  H  H234  1  0.826630  0.435870  0.561970  1.0  0.0894
  H  H235  1  0.467800  0.733900  0.946900  1.0  0.1149
  H  H236  1  0.134470  0.067230  0.280230  1.0  0.1149
  H  H237  1  0.801130  0.400570  0.613570  1.0  0.1149
  H  H238  1  0.266100  0.733900  0.946900  1.0  0.1171
  H  H239  1  0.932770  0.067230  0.280230  1.0  0.1172
  H  H240  1  0.599430  0.400570  0.613570  1.0  0.1171
  H  H241  1  0.266100  0.532200  0.946900  1.0  0.1139
  H  H242  1  0.932770  0.865530  0.280230  1.0  0.1139
  H  H243  1  0.599430  0.198870  0.613570  1.0  0.1139
  H  H244  1  0.733900  0.467800  0.053100  1.0  0.1142
  H  H245  1  0.400570  0.801130  0.386430  1.0  0.1142
  H  H246  1  0.067230  0.134470  0.719770  1.0  0.1142
  H  H247  1  0.733900  0.266100  0.053100  1.0  0.1165
  H  H248  1  0.400570  0.599430  0.386430  1.0  0.1165
  H  H249  1  0.067230  0.932770  0.719770  1.0  0.1164
  H  H250  1  0.532200  0.266100  0.053100  1.0  0.1149
  H  H251  1  0.198870  0.599430  0.386430  1.0  0.1149
  H  H252  1  0.865530  0.932770  0.719770  1.0  0.1149
  C  C253  1  0.523610  0.945600  0.971190  1.0  0.668
  C  C254  1  0.538890  0.914040  0.953010  1.0  -0.1442
  C  C255  1  0.541290  0.886630  0.997110  1.0  -0.0616
  C  C256  1  0.555610  0.857650  0.980680  1.0  -0.1256
  C  C257  1  0.568560  0.856420  0.921540  1.0  0.0626
  C  C258  1  0.565490  0.883730  0.877640  1.0  -0.1773
  C  C259  1  0.551240  0.912600  0.894640  1.0  -0.0413
  C  C260  1  0.587850  0.828540  0.904140  1.0  0.01
  C  C261  1  0.625820  0.846700  0.870060  1.0  -0.1298
  C  C262  1  0.190280  0.278930  0.304520  1.0  0.668
  C  C263  1  0.205560  0.247370  0.286340  1.0  -0.1442
  C  C264  1  0.207960  0.219960  0.330440  1.0  -0.0616
  C  C265  1  0.222280  0.190980  0.314010  1.0  -0.1256
  C  C266  1  0.235230  0.189750  0.254870  1.0  0.0626
  C  C267  1  0.232160  0.217060  0.210970  1.0  -0.1773
  C  C268  1  0.217910  0.245930  0.227970  1.0  -0.0414
  C  C269  1  0.254520  0.161870  0.237470  1.0  0.0089
  C  C270  1  0.292490  0.180030  0.203390  1.0  -0.1231
  C  C271  1  0.856940  0.612270  0.637860  1.0  0.668
  C  C272  1  0.872220  0.580710  0.619680  1.0  -0.1442
  C  C273  1  0.874620  0.553300  0.663780  1.0  -0.0615
  C  C274  1  0.888940  0.524320  0.647350  1.0  -0.1256
  C  C275  1  0.901890  0.523090  0.588210  1.0  0.0626
  C  C276  1  0.898820  0.550400  0.544310  1.0  -0.1773
  C  C277  1  0.884570  0.579270  0.561310  1.0  -0.0413
  C  C278  1  0.921180  0.495210  0.570810  1.0  0.01
  C  C279  1  0.959150  0.513370  0.536730  1.0  -0.1289
  C  C280  1  0.054400  0.578010  0.971190  1.0  0.6678
  C  C281  1  0.085960  0.624850  0.953010  1.0  -0.1436
  C  C282  1  0.113370  0.654660  0.997110  1.0  -0.0608
  C  C283  1  0.142350  0.697960  0.980680  1.0  -0.1266
  C  C284  1  0.143580  0.712140  0.921540  1.0  0.0621
  C  C285  1  0.116270  0.681760  0.877640  1.0  -0.177
  C  C286  1  0.087400  0.638640  0.894640  1.0  -0.0416
  C  C287  1  0.171460  0.759310  0.904140  1.0  0.0099
  C  C288  1  0.153300  0.779120  0.870060  1.0  -0.1333
  C  C289  1  0.721070  0.911340  0.304520  1.0  0.6678
  C  C290  1  0.752630  0.958180  0.286340  1.0  -0.1436
  C  C291  1  0.780040  0.987990  0.330440  1.0  -0.0607
  C  C292  1  0.809020  0.031290  0.314010  1.0  -0.1266
  C  C293  1  0.810250  0.045470  0.254870  1.0  0.0621
  C  C294  1  0.782940  0.015090  0.210970  1.0  -0.177
  C  C295  1  0.754070  0.971970  0.227970  1.0  -0.0416
  C  C296  1  0.838130  0.092640  0.237470  1.0  0.0105
  C  C297  1  0.819970  0.112450  0.203390  1.0  -0.1329
  C  C298  1  0.387730  0.244680  0.637860  1.0  0.6678
  C  C299  1  0.419290  0.291520  0.619680  1.0  -0.1436
  C  C300  1  0.446700  0.321330  0.663780  1.0  -0.0608
  C  C301  1  0.475680  0.364630  0.647350  1.0  -0.1266
  C  C302  1  0.476910  0.378810  0.588210  1.0  0.0621
  C  C303  1  0.449600  0.348430  0.544310  1.0  -0.177
  C  C304  1  0.420730  0.305310  0.561310  1.0  -0.0416
  C  C305  1  0.504790  0.425980  0.570810  1.0  0.0099
  C  C306  1  0.486630  0.445790  0.536730  1.0  -0.1333
  C  C307  1  0.421990  0.476390  0.971190  1.0  0.6674
  C  C308  1  0.375150  0.461110  0.953010  1.0  -0.1445
  C  C309  1  0.345340  0.458710  0.997110  1.0  -0.0613
  C  C310  1  0.302040  0.444390  0.980680  1.0  -0.1262
  C  C311  1  0.287860  0.431440  0.921540  1.0  0.0622
  C  C312  1  0.318240  0.434510  0.877640  1.0  -0.1752
  C  C313  1  0.361360  0.448760  0.894640  1.0  -0.0394
  C  C314  1  0.240690  0.412150  0.904140  1.0  0.0104
  C  C315  1  0.220880  0.374180  0.870060  1.0  -0.1266
  C  C316  1  0.088660  0.809720  0.304520  1.0  0.6674
  C  C317  1  0.041820  0.794440  0.286340  1.0  -0.1445
  C  C318  1  0.012010  0.792040  0.330440  1.0  -0.0613
  C  C319  1  0.968710  0.777720  0.314010  1.0  -0.1262
  C  C320  1  0.954530  0.764770  0.254870  1.0  0.0622
  C  C321  1  0.984910  0.767840  0.210970  1.0  -0.1752
  C  C322  1  0.028030  0.782090  0.227970  1.0  -0.0394
  C  C323  1  0.907360  0.745480  0.237470  1.0  0.0115
  C  C324  1  0.887550  0.707510  0.203390  1.0  -0.1328
  C  C325  1  0.755320  0.143060  0.637860  1.0  0.6674
  C  C326  1  0.708480  0.127780  0.619680  1.0  -0.1445
  C  C327  1  0.678670  0.125380  0.663780  1.0  -0.0613
  C  C328  1  0.635370  0.111060  0.647350  1.0  -0.1262
  C  C329  1  0.621190  0.098110  0.588210  1.0  0.0622
  C  C330  1  0.651570  0.101180  0.544310  1.0  -0.1752
  C  C331  1  0.694690  0.115430  0.561310  1.0  -0.0394
  C  C332  1  0.574020  0.078820  0.570810  1.0  0.0104
  C  C333  1  0.554210  0.040850  0.536730  1.0  -0.1256
  C  C334  1  0.945600  0.523610  0.028810  1.0  0.667
  C  C335  1  0.914040  0.538890  0.046990  1.0  -0.1443
  C  C336  1  0.886630  0.541290  0.002890  1.0  -0.0605
  C  C337  1  0.857650  0.555610  0.019320  1.0  -0.1247
  C  C338  1  0.856420  0.568560  0.078460  1.0  0.0624
  C  C339  1  0.883730  0.565490  0.122360  1.0  -0.1779
  C  C340  1  0.912600  0.551240  0.105360  1.0  -0.0391
  C  C341  1  0.828540  0.587850  0.095860  1.0  0.012
  C  C342  1  0.846700  0.625820  0.129940  1.0  -0.1337
  C  C343  1  0.612270  0.856940  0.362140  1.0  0.667
  C  C344  1  0.580710  0.872220  0.380320  1.0  -0.1443
  C  C345  1  0.553300  0.874620  0.336220  1.0  -0.0605
  C  C346  1  0.524320  0.888940  0.352650  1.0  -0.1247
  C  C347  1  0.523090  0.901890  0.411790  1.0  0.0624
  C  C348  1  0.550400  0.898820  0.455690  1.0  -0.1779
  C  C349  1  0.579270  0.884570  0.438690  1.0  -0.0391
  C  C350  1  0.495210  0.921180  0.429190  1.0  0.012
  C  C351  1  0.513370  0.959150  0.463270  1.0  -0.1328
  C  C352  1  0.278930  0.190280  0.695480  1.0  0.667
  C  C353  1  0.247370  0.205560  0.713660  1.0  -0.1443
  C  C354  1  0.219960  0.207960  0.669560  1.0  -0.0606
  C  C355  1  0.190980  0.222280  0.685990  1.0  -0.1247
  C  C356  1  0.189750  0.235230  0.745130  1.0  0.0624
  C  C357  1  0.217060  0.232160  0.789030  1.0  -0.1779
  C  C358  1  0.245930  0.217910  0.772030  1.0  -0.0392
  C  C359  1  0.161870  0.254520  0.762530  1.0  0.0109
  C  C360  1  0.180030  0.292490  0.796610  1.0  -0.1265
  C  C361  1  0.578010  0.054400  0.028810  1.0  0.6676
  C  C362  1  0.624850  0.085960  0.046990  1.0  -0.1448
  C  C363  1  0.654660  0.113370  0.002890  1.0  -0.06
  C  C364  1  0.697960  0.142350  0.019320  1.0  -0.1254
  C  C365  1  0.712140  0.143580  0.078460  1.0  0.0625
  C  C366  1  0.681760  0.116270  0.122360  1.0  -0.1783
  C  C367  1  0.638640  0.087400  0.105360  1.0  -0.041
  C  C368  1  0.759310  0.171460  0.095860  1.0  0.0093
  C  C369  1  0.779120  0.153300  0.129940  1.0  -0.1316
  C  C370  1  0.244680  0.387730  0.362140  1.0  0.6676
  C  C371  1  0.291520  0.419290  0.380320  1.0  -0.1448
  C  C372  1  0.321330  0.446700  0.336220  1.0  -0.06
  C  C373  1  0.364630  0.475680  0.352650  1.0  -0.1254
  C  C374  1  0.378810  0.476910  0.411790  1.0  0.0625
  C  C375  1  0.348430  0.449600  0.455690  1.0  -0.1783
  C  C376  1  0.305310  0.420730  0.438690  1.0  -0.041
  C  C377  1  0.425980  0.504790  0.429190  1.0  0.0093
  C  C378  1  0.445790  0.486630  0.463270  1.0  -0.1317
  C  C379  1  0.911340  0.721070  0.695480  1.0  0.6676
  C  C380  1  0.958180  0.752630  0.713660  1.0  -0.1448
  C  C381  1  0.987990  0.780040  0.669560  1.0  -0.0599
  C  C382  1  0.031290  0.809020  0.685990  1.0  -0.1254
  C  C383  1  0.045470  0.810250  0.745130  1.0  0.0625
  C  C384  1  0.015090  0.782940  0.789030  1.0  -0.1783
  C  C385  1  0.971970  0.754070  0.772030  1.0  -0.041
  C  C386  1  0.092640  0.838130  0.762530  1.0  0.0099
  C  C387  1  0.112450  0.819970  0.796610  1.0  -0.1314
  C  C388  1  0.476390  0.421990  0.028810  1.0  0.6682
  C  C389  1  0.461110  0.375150  0.046990  1.0  -0.1433
  C  C390  1  0.458710  0.345340  0.002890  1.0  -0.0613
  C  C391  1  0.444390  0.302040  0.019320  1.0  -0.1259
  C  C392  1  0.431440  0.287860  0.078460  1.0  0.0624
  C  C393  1  0.434510  0.318240  0.122360  1.0  -0.1785
  C  C394  1  0.448760  0.361360  0.105360  1.0  -0.0422
  C  C395  1  0.412150  0.240690  0.095860  1.0  0.009
  C  C396  1  0.374180  0.220880  0.129940  1.0  -0.1274
  C  C397  1  0.143060  0.755320  0.362140  1.0  0.6682
  C  C398  1  0.127780  0.708480  0.380320  1.0  -0.1433
  C  C399  1  0.125380  0.678670  0.336220  1.0  -0.0613
  C  C400  1  0.111060  0.635370  0.352650  1.0  -0.1259
  C  C401  1  0.098110  0.621190  0.411790  1.0  0.0624
  C  C402  1  0.101180  0.651570  0.455690  1.0  -0.1785
  C  C403  1  0.115430  0.694690  0.438690  1.0  -0.0422
  C  C404  1  0.078820  0.574020  0.429190  1.0  0.009
  C  C405  1  0.040850  0.554210  0.463270  1.0  -0.1264
  C  C406  1  0.809720  0.088660  0.695480  1.0  0.6682
  C  C407  1  0.794440  0.041820  0.713660  1.0  -0.1433
  C  C408  1  0.792040  0.012010  0.669560  1.0  -0.0613
  C  C409  1  0.777720  0.968710  0.685990  1.0  -0.1259
  C  C410  1  0.764770  0.954530  0.745130  1.0  0.0624
  C  C411  1  0.767840  0.984910  0.789030  1.0  -0.1785
  C  C412  1  0.782090  0.028030  0.772030  1.0  -0.0421
  C  C413  1  0.745480  0.907360  0.762530  1.0  0.01
  C  C414  1  0.707510  0.887550  0.796610  1.0  -0.1339
  C  C415  1  0.476390  0.054400  0.028810  1.0  0.6674
  C  C416  1  0.461110  0.085960  0.046990  1.0  -0.1448
  C  C417  1  0.458710  0.113370  0.002890  1.0  -0.0603
  C  C418  1  0.444390  0.142350  0.019320  1.0  -0.1251
  C  C419  1  0.431440  0.143580  0.078460  1.0  0.0631
  C  C420  1  0.434510  0.116270  0.122360  1.0  -0.1792
  C  C421  1  0.448760  0.087400  0.105360  1.0  -0.0399
  C  C422  1  0.412150  0.171460  0.095860  1.0  0.0099
  C  C423  1  0.374180  0.153300  0.129940  1.0  -0.1321
  C  C424  1  0.143060  0.387730  0.362140  1.0  0.6674
  C  C425  1  0.127780  0.419290  0.380320  1.0  -0.1448
  C  C426  1  0.125380  0.446700  0.336220  1.0  -0.0602
  C  C427  1  0.111060  0.475680  0.352650  1.0  -0.1251
  C  C428  1  0.098110  0.476910  0.411790  1.0  0.0631
  C  C429  1  0.101180  0.449600  0.455690  1.0  -0.1792
  C  C430  1  0.115430  0.420730  0.438690  1.0  -0.0399
  C  C431  1  0.078820  0.504790  0.429190  1.0  0.0099
  C  C432  1  0.040850  0.486630  0.463270  1.0  -0.1312
  C  C433  1  0.809720  0.721070  0.695480  1.0  0.6674
  C  C434  1  0.794440  0.752630  0.713660  1.0  -0.1448
  C  C435  1  0.792040  0.780040  0.669560  1.0  -0.0603
  C  C436  1  0.777720  0.809020  0.685990  1.0  -0.1251
  C  C437  1  0.764770  0.810250  0.745130  1.0  0.0631
  C  C438  1  0.767840  0.782940  0.789030  1.0  -0.1792
  C  C439  1  0.782090  0.754070  0.772030  1.0  -0.0399
  C  C440  1  0.745480  0.838130  0.762530  1.0  0.0088
  C  C441  1  0.707510  0.819970  0.796610  1.0  -0.1239
  C  C442  1  0.945600  0.421990  0.028810  1.0  0.6681
  C  C443  1  0.914040  0.375150  0.046990  1.0  -0.1429
  C  C444  1  0.886630  0.345340  0.002890  1.0  -0.0608
  C  C445  1  0.857650  0.302040  0.019320  1.0  -0.126
  C  C446  1  0.856420  0.287860  0.078460  1.0  0.0629
  C  C447  1  0.883730  0.318240  0.122360  1.0  -0.1782
  C  C448  1  0.912600  0.361360  0.105360  1.0  -0.0401
  C  C449  1  0.828540  0.240690  0.095860  1.0  0.0105
  C  C450  1  0.846700  0.220880  0.129940  1.0  -0.1331
  C  C451  1  0.612270  0.755320  0.362140  1.0  0.6681
  C  C452  1  0.580710  0.708480  0.380320  1.0  -0.1429
  C  C453  1  0.553300  0.678670  0.336220  1.0  -0.0608
  C  C454  1  0.524320  0.635370  0.352650  1.0  -0.126
  C  C455  1  0.523090  0.621190  0.411790  1.0  0.0629
  C  C456  1  0.550400  0.651570  0.455690  1.0  -0.1782
  C  C457  1  0.579270  0.694690  0.438690  1.0  -0.0402
  C  C458  1  0.495210  0.574020  0.429190  1.0  0.0105
  C  C459  1  0.513370  0.554210  0.463270  1.0  -0.1332
  C  C460  1  0.278930  0.088660  0.695480  1.0  0.6681
  C  C461  1  0.247370  0.041820  0.713660  1.0  -0.1429
  C  C462  1  0.219960  0.012010  0.669560  1.0  -0.0607
  C  C463  1  0.190980  0.968710  0.685990  1.0  -0.126
  C  C464  1  0.189750  0.954530  0.745130  1.0  0.0629
  C  C465  1  0.217060  0.984910  0.789030  1.0  -0.1782
  C  C466  1  0.245930  0.028030  0.772030  1.0  -0.0401
  C  C467  1  0.161870  0.907360  0.762530  1.0  0.0111
  C  C468  1  0.180030  0.887550  0.796610  1.0  -0.1328
  C  C469  1  0.578010  0.523610  0.028810  1.0  0.6674
  C  C470  1  0.624850  0.538890  0.046990  1.0  -0.1444
  C  C471  1  0.654660  0.541290  0.002890  1.0  -0.0599
  C  C472  1  0.697960  0.555610  0.019320  1.0  -0.1249
  C  C473  1  0.712140  0.568560  0.078460  1.0  0.0617
  C  C474  1  0.681760  0.565490  0.122360  1.0  -0.177
  C  C475  1  0.638640  0.551240  0.105360  1.0  -0.0395
  C  C476  1  0.759310  0.587850  0.095860  1.0  0.0098
  C  C477  1  0.779120  0.625820  0.129940  1.0  -0.1281
  C  C478  1  0.244680  0.856940  0.362140  1.0  0.6674
  C  C479  1  0.291520  0.872220  0.380320  1.0  -0.1444
  C  C480  1  0.321330  0.874620  0.336220  1.0  -0.0599
  C  C481  1  0.364630  0.888940  0.352650  1.0  -0.1249
  C  C482  1  0.378810  0.901890  0.411790  1.0  0.0617
  C  C483  1  0.348430  0.898820  0.455690  1.0  -0.177
  C  C484  1  0.305310  0.884570  0.438690  1.0  -0.0395
  C  C485  1  0.425980  0.921180  0.429190  1.0  0.0098
  C  C486  1  0.445790  0.959150  0.463270  1.0  -0.1271
  C  C487  1  0.911340  0.190280  0.695480  1.0  0.6674
  C  C488  1  0.958180  0.205560  0.713660  1.0  -0.1444
  C  C489  1  0.987990  0.207960  0.669560  1.0  -0.0599
  C  C490  1  0.031290  0.222280  0.685990  1.0  -0.1249
  C  C491  1  0.045470  0.235230  0.745130  1.0  0.0617
  C  C492  1  0.015090  0.232160  0.789030  1.0  -0.177
  C  C493  1  0.971970  0.217910  0.772030  1.0  -0.0395
  C  C494  1  0.092640  0.254520  0.762530  1.0  0.0109
  C  C495  1  0.112450  0.292490  0.796610  1.0  -0.1347
  C  C496  1  0.054400  0.476390  0.971190  1.0  0.6678
  C  C497  1  0.085960  0.461110  0.953010  1.0  -0.1442
  C  C498  1  0.113370  0.458710  0.997110  1.0  -0.0619
  C  C499  1  0.142350  0.444390  0.980680  1.0  -0.1255
  C  C500  1  0.143580  0.431440  0.921540  1.0  0.0612
  C  C501  1  0.116270  0.434510  0.877640  1.0  -0.1757
  C  C502  1  0.087400  0.448760  0.894640  1.0  -0.0391
  C  C503  1  0.171460  0.412150  0.904140  1.0  0.01
  C  C504  1  0.153300  0.374180  0.870060  1.0  -0.1342
  C  C505  1  0.721070  0.809720  0.304520  1.0  0.6678
  C  C506  1  0.752630  0.794440  0.286340  1.0  -0.1442
  C  C507  1  0.780040  0.792040  0.330440  1.0  -0.062
  C  C508  1  0.809020  0.777720  0.314010  1.0  -0.1255
  C  C509  1  0.810250  0.764770  0.254870  1.0  0.0612
  C  C510  1  0.782940  0.767840  0.210970  1.0  -0.1757
  C  C511  1  0.754070  0.782090  0.227970  1.0  -0.0392
  C  C512  1  0.838130  0.745480  0.237470  1.0  0.0089
  C  C513  1  0.819970  0.707510  0.203390  1.0  -0.1265
  C  C514  1  0.387730  0.143060  0.637860  1.0  0.6678
  C  C515  1  0.419290  0.127780  0.619680  1.0  -0.1442
  C  C516  1  0.446700  0.125380  0.663780  1.0  -0.0618
  C  C517  1  0.475680  0.111060  0.647350  1.0  -0.1255
  C  C518  1  0.476910  0.098110  0.588210  1.0  0.0612
  C  C519  1  0.449600  0.101180  0.544310  1.0  -0.1757
  C  C520  1  0.420730  0.115430  0.561310  1.0  -0.0391
  C  C521  1  0.504790  0.078820  0.570810  1.0  0.01
  C  C522  1  0.486630  0.040850  0.536730  1.0  -0.1333
  C  C523  1  0.421990  0.945600  0.971190  1.0  0.6678
  C  C524  1  0.375150  0.914040  0.953010  1.0  -0.1448
  C  C525  1  0.345340  0.886630  0.997110  1.0  -0.0608
  C  C526  1  0.302040  0.857650  0.980680  1.0  -0.1263
  C  C527  1  0.287860  0.856420  0.921540  1.0  0.0634
  C  C528  1  0.318240  0.883730  0.877640  1.0  -0.1767
  C  C529  1  0.361360  0.912600  0.894640  1.0  -0.0414
  C  C530  1  0.240690  0.828540  0.904140  1.0  0.0104
  C  C531  1  0.220880  0.846700  0.870060  1.0  -0.13
  C  C532  1  0.088660  0.278930  0.304520  1.0  0.6678
  C  C533  1  0.041820  0.247370  0.286340  1.0  -0.1448
  C  C534  1  0.012010  0.219960  0.330440  1.0  -0.0607
  C  C535  1  0.968710  0.190980  0.314010  1.0  -0.1263
  C  C536  1  0.954530  0.189750  0.254870  1.0  0.0634
  C  C537  1  0.984910  0.217060  0.210970  1.0  -0.1767
  C  C538  1  0.028030  0.245930  0.227970  1.0  -0.0414
  C  C539  1  0.907360  0.161870  0.237470  1.0  0.0108
  C  C540  1  0.887550  0.180030  0.203390  1.0  -0.1296
  C  C541  1  0.755320  0.612270  0.637860  1.0  0.6678
  C  C542  1  0.708480  0.580710  0.619680  1.0  -0.1448
  C  C543  1  0.678670  0.553300  0.663780  1.0  -0.0608
  C  C544  1  0.635370  0.524320  0.647350  1.0  -0.1263
  C  C545  1  0.621190  0.523090  0.588210  1.0  0.0634
  C  C546  1  0.651570  0.550400  0.544310  1.0  -0.1767
  C  C547  1  0.694690  0.579270  0.561310  1.0  -0.0415
  C  C548  1  0.574020  0.495210  0.570810  1.0  0.0104
  C  C549  1  0.554210  0.513370  0.536730  1.0  -0.13
  C  C550  1  0.523610  0.578010  0.971190  1.0  0.6677
  C  C551  1  0.538890  0.624850  0.953010  1.0  -0.1433
  C  C552  1  0.541290  0.654660  0.997110  1.0  -0.0609
  C  C553  1  0.555610  0.697960  0.980680  1.0  -0.1274
  C  C554  1  0.568560  0.712140  0.921540  1.0  0.0627
  C  C555  1  0.565490  0.681760  0.877640  1.0  -0.1768
  C  C556  1  0.551240  0.638640  0.894640  1.0  -0.0418
  C  C557  1  0.587850  0.759310  0.904140  1.0  0.0092
  C  C558  1  0.625820  0.779120  0.870060  1.0  -0.1263
  C  C559  1  0.190280  0.911340  0.304520  1.0  0.6677
  C  C560  1  0.205560  0.958180  0.286340  1.0  -0.1433
  C  C561  1  0.207960  0.987990  0.330440  1.0  -0.0609
  C  C562  1  0.222280  0.031290  0.314010  1.0  -0.1274
  C  C563  1  0.235230  0.045470  0.254870  1.0  0.0627
  C  C564  1  0.232160  0.015090  0.210970  1.0  -0.1768
  C  C565  1  0.217910  0.971970  0.227970  1.0  -0.0417
  C  C566  1  0.254520  0.092640  0.237470  1.0  0.0103
  C  C567  1  0.292490  0.112450  0.203390  1.0  -0.1322
  C  C568  1  0.856940  0.244680  0.637860  1.0  0.6677
  C  C569  1  0.872220  0.291520  0.619680  1.0  -0.1433
  C  C570  1  0.874620  0.321330  0.663780  1.0  -0.0609
  C  C571  1  0.888940  0.364630  0.647350  1.0  -0.1274
  C  C572  1  0.901890  0.378810  0.588210  1.0  0.0627
  C  C573  1  0.898820  0.348430  0.544310  1.0  -0.1768
  C  C574  1  0.884570  0.305310  0.561310  1.0  -0.0418
  C  C575  1  0.921180  0.425980  0.570810  1.0  0.0092
  C  C576  1  0.959150  0.445790  0.536730  1.0  -0.1253
  C  C577  1  0.646390  0.823190  0.851280  1.0  0.0198
  C  C578  1  0.568490  0.784240  0.921440  1.0  0.1864
  C  C579  1  0.493570  0.746780  0.920800  1.0  -0.007
  C  C580  1  0.313060  0.156530  0.184610  1.0  0.0198
  C  C581  1  0.235160  0.117580  0.254770  1.0  0.1864
  C  C582  1  0.160240  0.080120  0.254130  1.0  -0.007
  C  C583  1  0.979720  0.489860  0.517950  1.0  0.0192
  C  C584  1  0.901820  0.450910  0.588110  1.0  0.1864
  C  C585  1  0.826900  0.413450  0.587470  1.0  -0.007
  C  C586  1  0.176810  0.823190  0.851280  1.0  0.0158
  C  C587  1  0.215760  0.784240  0.921440  1.0  0.1861
  C  C588  1  0.253220  0.746780  0.920800  1.0  -0.0066
  C  C589  1  0.843470  0.156530  0.184610  1.0  0.0156
  C  C590  1  0.882420  0.117580  0.254770  1.0  0.1856
  C  C591  1  0.919880  0.080120  0.254130  1.0  -0.0058
  C  C592  1  0.510140  0.489860  0.517950  1.0  0.0156
  C  C593  1  0.549090  0.450910  0.588110  1.0  0.1861
  C  C594  1  0.586550  0.413450  0.587470  1.0  -0.0066
  C  C595  1  0.176810  0.353610  0.851280  1.0  0.0223
  C  C596  1  0.215760  0.431510  0.921440  1.0  0.1873
  C  C597  1  0.253220  0.506430  0.920800  1.0  -0.0046
  C  C598  1  0.843470  0.686940  0.184610  1.0  0.0223
  C  C599  1  0.882420  0.764840  0.254770  1.0  0.1873
  C  C600  1  0.919880  0.839760  0.254130  1.0  -0.0046
  C  C601  1  0.510140  0.020280  0.517950  1.0  0.0217
  C  C602  1  0.549090  0.098180  0.588110  1.0  0.1873
  C  C603  1  0.586550  0.173100  0.587470  1.0  -0.0046
  C  C604  1  0.823190  0.646390  0.148720  1.0  0.0227
  C  C605  1  0.784240  0.568490  0.078560  1.0  0.1873
  C  C606  1  0.746780  0.493570  0.079200  1.0  -0.0025
  C  C607  1  0.489860  0.979720  0.482050  1.0  0.0222
  C  C608  1  0.450910  0.901820  0.411890  1.0  0.1873
  C  C609  1  0.413450  0.826900  0.412530  1.0  -0.0025
  C  C610  1  0.156530  0.313060  0.815390  1.0  0.0227
  C  C611  1  0.117580  0.235160  0.745230  1.0  0.1873
  C  C612  1  0.080120  0.160240  0.745870  1.0  -0.0024
  C  C613  1  0.823190  0.176810  0.148720  1.0  0.0142
  C  C614  1  0.784240  0.215760  0.078560  1.0  0.1869
  C  C615  1  0.746780  0.253220  0.079200  1.0  -0.0077
  C  C616  1  0.489860  0.510140  0.482050  1.0  0.014
  C  C617  1  0.450910  0.549090  0.411890  1.0  0.1869
  C  C618  1  0.413450  0.586550  0.412530  1.0  -0.0077
  C  C619  1  0.156530  0.843470  0.815390  1.0  0.0141
  C  C620  1  0.117580  0.882420  0.745230  1.0  0.1864
  C  C621  1  0.080120  0.919880  0.745870  1.0  -0.007
  C  C622  1  0.353610  0.176810  0.148720  1.0  0.0201
  C  C623  1  0.431510  0.215760  0.078560  1.0  0.187
  C  C624  1  0.506430  0.253220  0.079200  1.0  -0.0069
  C  C625  1  0.020280  0.510140  0.482050  1.0  0.0195
  C  C626  1  0.098180  0.549090  0.411890  1.0  0.187
  C  C627  1  0.173100  0.586550  0.412530  1.0  -0.0069
  C  C628  1  0.686940  0.843470  0.815390  1.0  0.0201
  C  C629  1  0.764840  0.882420  0.745230  1.0  0.187
  C  C630  1  0.839760  0.919880  0.745870  1.0  -0.0069
  O  O631  1  0.524840  0.971330  0.929790  1.0  -0.5763
  O  O632  1  0.511410  0.944190  0.025290  1.0  -0.5628
  O  O633  1  0.191510  0.304660  0.263120  1.0  -0.5763
  O  O634  1  0.178080  0.277520  0.358620  1.0  -0.5652
  O  O635  1  0.858170  0.638000  0.596460  1.0  -0.5753
  O  O636  1  0.844740  0.610860  0.691960  1.0  -0.5628
  O  O637  1  0.028670  0.553510  0.929790  1.0  -0.575
  O  O638  1  0.055810  0.567220  0.025290  1.0  -0.5632
  O  O639  1  0.695340  0.886840  0.263120  1.0  -0.575
  O  O640  1  0.722480  0.900550  0.358620  1.0  -0.5613
  O  O641  1  0.362000  0.220180  0.596460  1.0  -0.5758
  O  O642  1  0.389140  0.233890  0.691960  1.0  -0.5632
  O  O643  1  0.446490  0.475160  0.929790  1.0  -0.5763
  O  O644  1  0.432780  0.488590  0.025290  1.0  -0.5647
  O  O645  1  0.113160  0.808490  0.263120  1.0  -0.5763
  O  O646  1  0.099450  0.821920  0.358620  1.0  -0.5647
  O  O647  1  0.779820  0.141830  0.596460  1.0  -0.5763
  O  O648  1  0.766110  0.155260  0.691960  1.0  -0.5647
  O  O649  1  0.971330  0.524840  0.070210  1.0  -0.5744
  O  O650  1  0.944190  0.511410  0.974710  1.0  -0.5633
  O  O651  1  0.638000  0.858170  0.403540  1.0  -0.5735
  O  O652  1  0.610860  0.844740  0.308040  1.0  -0.5633
  O  O653  1  0.304660  0.191510  0.736880  1.0  -0.5744
  O  O654  1  0.277520  0.178080  0.641380  1.0  -0.5649
  O  O655  1  0.553510  0.028670  0.070210  1.0  -0.5745
  O  O656  1  0.567220  0.055810  0.974710  1.0  -0.5655
  O  O657  1  0.220180  0.362000  0.403540  1.0  -0.5752
  O  O658  1  0.233890  0.389140  0.308040  1.0  -0.5655
  O  O659  1  0.886840  0.695340  0.736880  1.0  -0.5745
  O  O660  1  0.900550  0.722480  0.641380  1.0  -0.563
  O  O661  1  0.475160  0.446490  0.070210  1.0  -0.5742
  O  O662  1  0.488590  0.432780  0.974710  1.0  -0.5638
  O  O663  1  0.141830  0.779820  0.403540  1.0  -0.5742
  O  O664  1  0.155260  0.766110  0.308040  1.0  -0.5638
  O  O665  1  0.808490  0.113160  0.736880  1.0  -0.5742
  O  O666  1  0.821920  0.099450  0.641380  1.0  -0.5638
  O  O667  1  0.475160  0.028670  0.070210  1.0  -0.575
  O  O668  1  0.488590  0.055810  0.974710  1.0  -0.5629
  O  O669  1  0.141830  0.362000  0.403540  1.0  -0.5742
  O  O670  1  0.155260  0.389140  0.308040  1.0  -0.5629
  O  O671  1  0.808490  0.695340  0.736880  1.0  -0.575
  O  O672  1  0.821920  0.722480  0.641380  1.0  -0.5651
  O  O673  1  0.971330  0.446490  0.070210  1.0  -0.5728
  O  O674  1  0.944190  0.432780  0.974710  1.0  -0.5644
  O  O675  1  0.638000  0.779820  0.403540  1.0  -0.5733
  O  O676  1  0.610860  0.766110  0.308040  1.0  -0.5644
  O  O677  1  0.304660  0.113160  0.736880  1.0  -0.5728
  O  O678  1  0.277520  0.099450  0.641380  1.0  -0.5621
  O  O679  1  0.553510  0.524840  0.070210  1.0  -0.574
  O  O680  1  0.567220  0.511410  0.974710  1.0  -0.5638
  O  O681  1  0.220180  0.858170  0.403540  1.0  -0.574
  O  O682  1  0.233890  0.844740  0.308040  1.0  -0.5638
  O  O683  1  0.886840  0.191510  0.736880  1.0  -0.574
  O  O684  1  0.900550  0.178080  0.641380  1.0  -0.5638
  O  O685  1  0.028670  0.475160  0.929790  1.0  -0.5759
  O  O686  1  0.055810  0.488590  0.025290  1.0  -0.5615
  O  O687  1  0.695340  0.808490  0.263120  1.0  -0.5759
  O  O688  1  0.722480  0.821920  0.358620  1.0  -0.5634
  O  O689  1  0.362000  0.141830  0.596460  1.0  -0.575
  O  O690  1  0.389140  0.155260  0.691960  1.0  -0.5615
  O  O691  1  0.446490  0.971330  0.929790  1.0  -0.5752
  O  O692  1  0.432780  0.944190  0.025290  1.0  -0.5649
  O  O693  1  0.113160  0.304660  0.263120  1.0  -0.5752
  O  O694  1  0.099450  0.277520  0.358620  1.0  -0.5625
  O  O695  1  0.779820  0.638000  0.596460  1.0  -0.576
  O  O696  1  0.766110  0.610860  0.691960  1.0  -0.5649
  O  O697  1  0.524840  0.553510  0.929790  1.0  -0.5756
  O  O698  1  0.511410  0.567220  0.025290  1.0  -0.5643
  O  O699  1  0.191510  0.886840  0.263120  1.0  -0.5756
  O  O700  1  0.178080  0.900550  0.358620  1.0  -0.5643
  O  O701  1  0.858170  0.220180  0.596460  1.0  -0.5756
  O  O702  1  0.844740  0.233890  0.691960  1.0  -0.5643
  O  O703  1  0.531300  0.765650  0.956640  1.0  -0.3059
  O  O704  1  0.197970  0.098980  0.289970  1.0  -0.306
  O  O705  1  0.864630  0.432320  0.623310  1.0  -0.3059
  O  O706  1  0.234350  0.765650  0.956640  1.0  -0.3071
  O  O707  1  0.901020  0.098980  0.289970  1.0  -0.3055
  O  O708  1  0.567680  0.432320  0.623310  1.0  -0.3071
  O  O709  1  0.234350  0.468700  0.956640  1.0  -0.3064
  O  O710  1  0.901020  0.802030  0.289970  1.0  -0.3064
  O  O711  1  0.567680  0.135370  0.623310  1.0  -0.3064
  O  O712  1  0.765650  0.531300  0.043360  1.0  -0.3033
  O  O713  1  0.432320  0.864630  0.376690  1.0  -0.3033
  O  O714  1  0.098980  0.197970  0.710030  1.0  -0.3033
  O  O715  1  0.765650  0.234350  0.043360  1.0  -0.3009
  O  O716  1  0.432320  0.567680  0.376690  1.0  -0.3009
  O  O717  1  0.098980  0.901020  0.710030  1.0  -0.2993
  O  O718  1  0.468700  0.234350  0.043360  1.0  -0.3009
  O  O719  1  0.135370  0.567680  0.376690  1.0  -0.3009
  O  O720  1  0.802030  0.901020  0.710030  1.0  -0.3009
