# generated using pymatgen
data_CuH13C21O5
_symmetry_space_group_name_H-M   'P 1'
_cell_length_a   35.29350000
_cell_length_b   35.29350000
_cell_length_c   20.43980000
_cell_angle_alpha   90.00000000
_cell_angle_beta   90.00000000
_cell_angle_gamma   120.00000000
_symmetry_Int_Tables_number   1
_chemical_formula_structural   CuH13C21O5
_chemical_formula_sum   'Cu18 H234 C378 O90'
_cell_volume   22049.39772272
_cell_formula_units_Z   18
loop_
 _symmetry_equiv_pos_site_id
 _symmetry_equiv_pos_as_xyz
  1  'x, y, z'
loop_
 _atom_site_type_symbol
 _atom_site_label
 _atom_site_symmetry_multiplicity
 _atom_site_fract_x
 _atom_site_fract_y
 _atom_site_fract_z
 _atom_site_occupancy
 _atom_site_charge
  Cu  Cu1  1  0.318110  0.159050  0.606220  1.0  0.9111
  Cu  Cu2  1  0.984780  0.492390  0.939550  1.0  0.9138
  Cu  Cu3  1  0.651440  0.825720  0.272890  1.0  0.9111
  Cu  Cu4  1  0.840950  0.159060  0.606220  1.0  0.911
  Cu  Cu5  1  0.507610  0.492390  0.939550  1.0  0.9111
  Cu  Cu6  1  0.174280  0.825720  0.272890  1.0  0.911
  Cu  Cu7  1  0.840950  0.681890  0.606220  1.0  0.9114
  Cu  Cu8  1  0.507610  0.015220  0.939550  1.0  0.9136
  Cu  Cu9  1  0.174280  0.348560  0.272890  1.0  0.9114
  Cu  Cu10  1  0.159050  0.318110  0.393780  1.0  0.912
  Cu  Cu11  1  0.825720  0.651440  0.727110  1.0  0.912
  Cu  Cu12  1  0.492390  0.984780  0.060450  1.0  0.9137
  Cu  Cu13  1  0.159050  0.840950  0.393780  1.0  0.9114
  Cu  Cu14  1  0.825720  0.174280  0.727110  1.0  0.9114
  Cu  Cu15  1  0.492390  0.507610  0.060450  1.0  0.9114
  Cu  Cu16  1  0.681890  0.840950  0.393780  1.0  0.912
  Cu  Cu17  1  0.348560  0.174280  0.727110  1.0  0.912
  Cu  Cu18  1  0.015220  0.507610  0.060450  1.0  0.9144
  H  H19  1  0.447500  0.309700  0.708700  1.0  0.1072
  H  H20  1  0.497100  0.382500  0.680200  1.0  0.0998
  H  H21  1  0.451700  0.357900  0.494200  1.0  0.109
  H  H22  1  0.402100  0.285800  0.522700  1.0  0.1036
  H  H23  1  0.457500  0.428100  0.522500  1.0  0.1023
  H  H24  1  0.611400  0.434000  0.549900  1.0  0.0998
  H  H25  1  0.114170  0.643030  0.042030  1.0  0.1072
  H  H26  1  0.163770  0.715830  0.013530  1.0  0.0998
  H  H27  1  0.118370  0.691230  0.827530  1.0  0.109
  H  H28  1  0.068770  0.619130  0.856030  1.0  0.1036
  H  H29  1  0.124170  0.761430  0.855830  1.0  0.1023
  H  H30  1  0.278070  0.767330  0.883230  1.0  0.0998
  H  H31  1  0.780830  0.976370  0.375370  1.0  0.1078
  H  H32  1  0.830430  0.049170  0.346870  1.0  0.0998
  H  H33  1  0.785030  0.024570  0.160870  1.0  0.109
  H  H34  1  0.735430  0.952470  0.189370  1.0  0.1041
  H  H35  1  0.790830  0.094770  0.189170  1.0  0.1023
  H  H36  1  0.944730  0.100670  0.216570  1.0  0.0984
  H  H37  1  0.690300  0.137800  0.708700  1.0  0.1069
  H  H38  1  0.617500  0.114600  0.680200  1.0  0.1011
  H  H39  1  0.642100  0.093800  0.494200  1.0  0.1093
  H  H40  1  0.714200  0.116300  0.522700  1.0  0.1051
  H  H41  1  0.571900  0.029400  0.522500  1.0  0.1039
  H  H42  1  0.566000  0.177400  0.549900  1.0  0.0976
  H  H43  1  0.356970  0.471130  0.042030  1.0  0.1069
  H  H44  1  0.284170  0.447930  0.013530  1.0  0.0999
  H  H45  1  0.308770  0.427130  0.827530  1.0  0.1093
  H  H46  1  0.380870  0.449630  0.856030  1.0  0.1051
  H  H47  1  0.238570  0.362730  0.855830  1.0  0.1039
  H  H48  1  0.232670  0.510730  0.883230  1.0  0.0976
  H  H49  1  0.023630  0.804470  0.375370  1.0  0.1069
  H  H50  1  0.950830  0.781270  0.346870  1.0  0.1017
  H  H51  1  0.975430  0.760470  0.160870  1.0  0.1097
  H  H52  1  0.047530  0.782970  0.189370  1.0  0.1051
  H  H53  1  0.905230  0.696070  0.189170  1.0  0.1039
  H  H54  1  0.899330  0.844070  0.216570  1.0  0.0973
  H  H55  1  0.862200  0.552500  0.708700  1.0  0.1073
  H  H56  1  0.885400  0.502900  0.680200  1.0  0.1019
  H  H57  1  0.906200  0.548300  0.494200  1.0  0.1094
  H  H58  1  0.883700  0.597900  0.522700  1.0  0.1043
  H  H59  1  0.970600  0.542500  0.522500  1.0  0.1035
  H  H60  1  0.822600  0.388600  0.549900  1.0  0.0969
  H  H61  1  0.528870  0.885830  0.042030  1.0  0.1073
  H  H62  1  0.552070  0.836230  0.013530  1.0  0.1011
  H  H63  1  0.572870  0.881630  0.827530  1.0  0.1094
  H  H64  1  0.550370  0.931230  0.856030  1.0  0.1043
  H  H65  1  0.637270  0.875830  0.855830  1.0  0.1035
  H  H66  1  0.489270  0.721930  0.883230  1.0  0.0969
  H  H67  1  0.195530  0.219170  0.375370  1.0  0.1068
  H  H68  1  0.218730  0.169570  0.346870  1.0  0.0995
  H  H69  1  0.239530  0.214970  0.160870  1.0  0.1091
  H  H70  1  0.217030  0.264570  0.189370  1.0  0.1039
  H  H71  1  0.303930  0.209170  0.189170  1.0  0.1035
  H  H72  1  0.155930  0.055270  0.216570  1.0  0.0979
  H  H73  1  0.309700  0.447500  0.291300  1.0  0.1067
  H  H74  1  0.382500  0.497100  0.319800  1.0  0.0998
  H  H75  1  0.357900  0.451700  0.505800  1.0  0.1091
  H  H76  1  0.285800  0.402100  0.477300  1.0  0.1039
  H  H77  1  0.428100  0.457500  0.477500  1.0  0.1055
  H  H78  1  0.434000  0.611400  0.450100  1.0  0.099
  H  H79  1  0.976370  0.780830  0.624630  1.0  0.1072
  H  H80  1  0.049170  0.830430  0.653130  1.0  0.0998
  H  H81  1  0.024570  0.785030  0.839130  1.0  0.1091
  H  H82  1  0.952470  0.735430  0.810630  1.0  0.1043
  H  H83  1  0.094770  0.790830  0.810830  1.0  0.1055
  H  H84  1  0.100670  0.944730  0.783430  1.0  0.0972
  H  H85  1  0.643030  0.114170  0.957970  1.0  0.1067
  H  H86  1  0.715830  0.163770  0.986470  1.0  0.0998
  H  H87  1  0.691230  0.118370  0.172470  1.0  0.1091
  H  H88  1  0.619130  0.068770  0.143970  1.0  0.1039
  H  H89  1  0.761430  0.124170  0.144170  1.0  0.1055
  H  H90  1  0.767330  0.278070  0.116770  1.0  0.099
  H  H91  1  0.137800  0.690300  0.291300  1.0  0.1077
  H  H92  1  0.114600  0.617500  0.319800  1.0  0.1006
  H  H93  1  0.093800  0.642100  0.505800  1.0  0.1086
  H  H94  1  0.116300  0.714200  0.477300  1.0  0.1042
  H  H95  1  0.029400  0.571900  0.477500  1.0  0.1047
  H  H96  1  0.177400  0.566000  0.450100  1.0  0.1
  H  H97  1  0.804470  0.023630  0.624630  1.0  0.1077
  H  H98  1  0.781270  0.950830  0.653130  1.0  0.1004
  H  H99  1  0.760470  0.975430  0.839130  1.0  0.1092
  H  H100  1  0.782970  0.047530  0.810630  1.0  0.1042
  H  H101  1  0.696070  0.905230  0.810830  1.0  0.1047
  H  H102  1  0.844070  0.899330  0.783430  1.0  0.101
  H  H103  1  0.471130  0.356970  0.957970  1.0  0.1077
  H  H104  1  0.447930  0.284170  0.986470  1.0  0.0996
  H  H105  1  0.427130  0.308770  0.172470  1.0  0.1086
  H  H106  1  0.449630  0.380870  0.143970  1.0  0.1042
  H  H107  1  0.362730  0.238570  0.144170  1.0  0.1047
  H  H108  1  0.510730  0.232670  0.116770  1.0  0.1
  H  H109  1  0.552500  0.862200  0.291300  1.0  0.1068
  H  H110  1  0.502900  0.885400  0.319800  1.0  0.102
  H  H111  1  0.548300  0.906200  0.505800  1.0  0.109
  H  H112  1  0.597900  0.883700  0.477300  1.0  0.1046
  H  H113  1  0.542500  0.970600  0.477500  1.0  0.106
  H  H114  1  0.388600  0.822600  0.450100  1.0  0.0971
  H  H115  1  0.219170  0.195530  0.624630  1.0  0.1063
  H  H116  1  0.169570  0.218730  0.653130  1.0  0.1001
  H  H117  1  0.214970  0.239530  0.839130  1.0  0.1084
  H  H118  1  0.264570  0.217030  0.810630  1.0  0.1043
  H  H119  1  0.209170  0.303930  0.810830  1.0  0.106
  H  H120  1  0.055270  0.155930  0.783430  1.0  0.0986
  H  H121  1  0.885830  0.528870  0.957970  1.0  0.1068
  H  H122  1  0.836230  0.552070  0.986470  1.0  0.1015
  H  H123  1  0.881630  0.572870  0.172470  1.0  0.109
  H  H124  1  0.931230  0.550370  0.143970  1.0  0.1046
  H  H125  1  0.875830  0.637270  0.144170  1.0  0.106
  H  H126  1  0.721930  0.489270  0.116770  1.0  0.0971
  H  H127  1  0.552500  0.690300  0.291300  1.0  0.107
  H  H128  1  0.502900  0.617500  0.319800  1.0  0.0996
  H  H129  1  0.548300  0.642100  0.505800  1.0  0.1085
  H  H130  1  0.597900  0.714200  0.477300  1.0  0.1039
  H  H131  1  0.542500  0.571900  0.477500  1.0  0.1035
  H  H132  1  0.388600  0.566000  0.450100  1.0  0.0998
  H  H133  1  0.219170  0.023630  0.624630  1.0  0.1075
  H  H134  1  0.169570  0.950830  0.653130  1.0  0.0996
  H  H135  1  0.214970  0.975430  0.839130  1.0  0.1085
  H  H136  1  0.264570  0.047530  0.810630  1.0  0.1042
  H  H137  1  0.209170  0.905230  0.810830  1.0  0.1035
  H  H138  1  0.055270  0.899330  0.783430  1.0  0.0982
  H  H139  1  0.885830  0.356970  0.957970  1.0  0.107
  H  H140  1  0.836230  0.284170  0.986470  1.0  0.0996
  H  H141  1  0.881630  0.308770  0.172470  1.0  0.1085
  H  H142  1  0.931230  0.380870  0.143970  1.0  0.1039
  H  H143  1  0.875830  0.238570  0.144170  1.0  0.1035
  H  H144  1  0.721930  0.232670  0.116770  1.0  0.0998
  H  H145  1  0.309700  0.862200  0.291300  1.0  0.1072
  H  H146  1  0.382500  0.885400  0.319800  1.0  0.1008
  H  H147  1  0.357900  0.906200  0.505800  1.0  0.109
  H  H148  1  0.285800  0.883700  0.477300  1.0  0.1044
  H  H149  1  0.428100  0.970600  0.477500  1.0  0.1028
  H  H150  1  0.434000  0.822600  0.450100  1.0  0.0982
  H  H151  1  0.976370  0.195530  0.624630  1.0  0.1072
  H  H152  1  0.049170  0.218730  0.653130  1.0  0.1008
  H  H153  1  0.024570  0.239530  0.839130  1.0  0.1095
  H  H154  1  0.952470  0.217030  0.810630  1.0  0.1044
  H  H155  1  0.094770  0.303930  0.810830  1.0  0.1028
  H  H156  1  0.100670  0.155930  0.783430  1.0  0.0995
  H  H157  1  0.643030  0.528870  0.957970  1.0  0.1072
  H  H158  1  0.715830  0.552070  0.986470  1.0  0.0997
  H  H159  1  0.691230  0.572870  0.172470  1.0  0.109
  H  H160  1  0.619130  0.550370  0.143970  1.0  0.1044
  H  H161  1  0.761430  0.637270  0.144170  1.0  0.1028
  H  H162  1  0.767330  0.489270  0.116770  1.0  0.0982
  H  H163  1  0.137800  0.447500  0.291300  1.0  0.1073
  H  H164  1  0.114600  0.497100  0.319800  1.0  0.1018
  H  H165  1  0.093800  0.451700  0.505800  1.0  0.1093
  H  H166  1  0.116300  0.402100  0.477300  1.0  0.1045
  H  H167  1  0.029400  0.457500  0.477500  1.0  0.1036
  H  H168  1  0.177400  0.611400  0.450100  1.0  0.0978
  H  H169  1  0.804470  0.780830  0.624630  1.0  0.1069
  H  H170  1  0.781270  0.830430  0.653130  1.0  0.1001
  H  H171  1  0.760470  0.785030  0.839130  1.0  0.1086
  H  H172  1  0.782970  0.735430  0.810630  1.0  0.1042
  H  H173  1  0.696070  0.790830  0.810830  1.0  0.1036
  H  H174  1  0.844070  0.944730  0.783430  1.0  0.0991
  H  H175  1  0.471130  0.114170  0.957970  1.0  0.1073
  H  H176  1  0.447930  0.163770  0.986470  1.0  0.1011
  H  H177  1  0.427130  0.118370  0.172470  1.0  0.1093
  H  H178  1  0.449630  0.068770  0.143970  1.0  0.1045
  H  H179  1  0.362730  0.124170  0.144170  1.0  0.1036
  H  H180  1  0.510730  0.278070  0.116770  1.0  0.0978
  H  H181  1  0.690300  0.552500  0.708700  1.0  0.1071
  H  H182  1  0.617500  0.502900  0.680200  1.0  0.0996
  H  H183  1  0.642100  0.548300  0.494200  1.0  0.1089
  H  H184  1  0.714200  0.597900  0.522700  1.0  0.1041
  H  H185  1  0.571900  0.542500  0.522500  1.0  0.104
  H  H186  1  0.566000  0.388600  0.549900  1.0  0.0996
  H  H187  1  0.356970  0.885830  0.042030  1.0  0.1071
  H  H188  1  0.284170  0.836230  0.013530  1.0  0.0996
  H  H189  1  0.308770  0.881630  0.827530  1.0  0.1089
  H  H190  1  0.380870  0.931230  0.856030  1.0  0.1041
  H  H191  1  0.238570  0.875830  0.855830  1.0  0.104
  H  H192  1  0.232670  0.721930  0.883230  1.0  0.0996
  H  H193  1  0.023630  0.219170  0.375370  1.0  0.1076
  H  H194  1  0.950830  0.169570  0.346870  1.0  0.0996
  H  H195  1  0.975430  0.214970  0.160870  1.0  0.1089
  H  H196  1  0.047530  0.264570  0.189370  1.0  0.1045
  H  H197  1  0.905230  0.209170  0.189170  1.0  0.104
  H  H198  1  0.899330  0.055270  0.216570  1.0  0.0978
  H  H199  1  0.862200  0.309700  0.708700  1.0  0.1077
  H  H200  1  0.885400  0.382500  0.680200  1.0  0.1008
  H  H201  1  0.906200  0.357900  0.494200  1.0  0.1088
  H  H202  1  0.883700  0.285800  0.522700  1.0  0.1044
  H  H203  1  0.970600  0.428100  0.522500  1.0  0.1038
  H  H204  1  0.822600  0.434000  0.549900  1.0  0.0991
  H  H205  1  0.528870  0.643030  0.042030  1.0  0.1077
  H  H206  1  0.552070  0.715830  0.013530  1.0  0.0997
  H  H207  1  0.572870  0.691230  0.827530  1.0  0.1088
  H  H208  1  0.550370  0.619130  0.856030  1.0  0.1044
  H  H209  1  0.637270  0.761430  0.855830  1.0  0.1038
  H  H210  1  0.489270  0.767330  0.883230  1.0  0.0991
  H  H211  1  0.195530  0.976370  0.375370  1.0  0.1077
  H  H212  1  0.218730  0.049170  0.346870  1.0  0.1011
  H  H213  1  0.239530  0.024570  0.160870  1.0  0.1093
  H  H214  1  0.217030  0.952470  0.189370  1.0  0.1044
  H  H215  1  0.303930  0.094770  0.189170  1.0  0.1038
  H  H216  1  0.155930  0.100670  0.216570  1.0  0.0997
  H  H217  1  0.447500  0.137800  0.708700  1.0  0.1072
  H  H218  1  0.497100  0.114600  0.680200  1.0  0.1021
  H  H219  1  0.451700  0.093800  0.494200  1.0  0.1093
  H  H220  1  0.402100  0.116300  0.522700  1.0  0.1043
  H  H221  1  0.457500  0.029400  0.522500  1.0  0.1033
  H  H222  1  0.611400  0.177400  0.549900  1.0  0.0969
  H  H223  1  0.114170  0.471130  0.042030  1.0  0.1072
  H  H224  1  0.163770  0.447930  0.013530  1.0  0.1015
  H  H225  1  0.118370  0.427130  0.827530  1.0  0.1093
  H  H226  1  0.068770  0.449630  0.856030  1.0  0.1043
  H  H227  1  0.124170  0.362730  0.855830  1.0  0.1033
  H  H228  1  0.278070  0.510730  0.883230  1.0  0.0969
  H  H229  1  0.780830  0.804470  0.375370  1.0  0.1066
  H  H230  1  0.830430  0.781270  0.346870  1.0  0.0998
  H  H231  1  0.785030  0.760470  0.160870  1.0  0.109
  H  H232  1  0.735430  0.782970  0.189370  1.0  0.1041
  H  H233  1  0.790830  0.696070  0.189170  1.0  0.1033
  H  H234  1  0.944730  0.844070  0.216570  1.0  0.0986
  H  H235  1  0.602200  0.397800  0.604300  1.0  0.1275
  H  H236  1  0.268870  0.731130  0.937630  1.0  0.1275
  H  H237  1  0.935530  0.064470  0.270970  1.0  0.1262
  H  H238  1  0.602200  0.204400  0.604300  1.0  0.1244
  H  H239  1  0.268870  0.537730  0.937630  1.0  0.1244
  H  H240  1  0.935530  0.871070  0.270970  1.0  0.1244
  H  H241  1  0.795600  0.397800  0.604300  1.0  0.1255
  H  H242  1  0.462270  0.731130  0.937630  1.0  0.1255
  H  H243  1  0.128930  0.064470  0.270970  1.0  0.1255
  H  H244  1  0.397800  0.602200  0.395700  1.0  0.1276
  H  H245  1  0.064470  0.935530  0.729030  1.0  0.1261
  H  H246  1  0.731130  0.268870  0.062370  1.0  0.1276
  H  H247  1  0.204400  0.602200  0.395700  1.0  0.1252
  H  H248  1  0.871070  0.935530  0.729030  1.0  0.1252
  H  H249  1  0.537730  0.268870  0.062370  1.0  0.1252
  H  H250  1  0.397800  0.795600  0.395700  1.0  0.1245
  H  H251  1  0.064470  0.128930  0.729030  1.0  0.1245
  H  H252  1  0.731130  0.462270  0.062370  1.0  0.1245
  C  C253  1  0.387750  0.244340  0.635930  1.0  0.6617
  C  C254  1  0.420010  0.290970  0.617210  1.0  -0.133
  C  C255  1  0.448290  0.319660  0.665250  1.0  -0.0646
  C  C256  1  0.477590  0.362960  0.648180  1.0  -0.097
  C  C257  1  0.478570  0.377830  0.585370  1.0  0.0676
  C  C258  1  0.450580  0.348340  0.537960  1.0  -0.1776
  C  C259  1  0.421380  0.305430  0.554820  1.0  -0.0351
  C  C260  1  0.506040  0.425230  0.568430  1.0  -0.0528
  C  C261  1  0.487470  0.445080  0.534460  1.0  -0.1495
  C  C262  1  0.054420  0.577670  0.969260  1.0  0.6617
  C  C263  1  0.086680  0.624300  0.950540  1.0  -0.133
  C  C264  1  0.114960  0.652990  0.998580  1.0  -0.0646
  C  C265  1  0.144260  0.696290  0.981510  1.0  -0.097
  C  C266  1  0.145240  0.711160  0.918700  1.0  0.0676
  C  C267  1  0.117250  0.681670  0.871290  1.0  -0.1776
  C  C268  1  0.088050  0.638760  0.888150  1.0  -0.0351
  C  C269  1  0.172710  0.758560  0.901760  1.0  -0.0528
  C  C270  1  0.154140  0.778410  0.867790  1.0  -0.1495
  C  C271  1  0.721080  0.911010  0.302600  1.0  0.6617
  C  C272  1  0.753340  0.957640  0.283880  1.0  -0.133
  C  C273  1  0.781620  0.986330  0.331920  1.0  -0.0646
  C  C274  1  0.810920  0.029630  0.314850  1.0  -0.097
  C  C275  1  0.811900  0.044500  0.252040  1.0  0.0676
  C  C276  1  0.783910  0.015010  0.204630  1.0  -0.1776
  C  C277  1  0.754710  0.972100  0.221490  1.0  -0.0351
  C  C278  1  0.839370  0.091900  0.235100  1.0  -0.0528
  C  C279  1  0.820800  0.111750  0.201130  1.0  -0.1495
  C  C280  1  0.755660  0.143410  0.635930  1.0  0.6619
  C  C281  1  0.709030  0.129040  0.617210  1.0  -0.1341
  C  C282  1  0.680340  0.128630  0.665250  1.0  -0.0644
  C  C283  1  0.637040  0.114630  0.648180  1.0  -0.0971
  C  C284  1  0.622170  0.100740  0.585370  1.0  0.0671
  C  C285  1  0.651660  0.102240  0.537960  1.0  -0.1758
  C  C286  1  0.694570  0.115950  0.554820  1.0  -0.0337
  C  C287  1  0.574770  0.080810  0.568430  1.0  -0.0496
  C  C288  1  0.554920  0.042390  0.534460  1.0  -0.1484
  C  C289  1  0.422330  0.476740  0.969260  1.0  0.6619
  C  C290  1  0.375700  0.462370  0.950540  1.0  -0.1341
  C  C291  1  0.347010  0.461960  0.998580  1.0  -0.0644
  C  C292  1  0.303710  0.447960  0.981510  1.0  -0.0971
  C  C293  1  0.288840  0.434070  0.918700  1.0  0.0671
  C  C294  1  0.318330  0.435570  0.871290  1.0  -0.1758
  C  C295  1  0.361240  0.449280  0.888150  1.0  -0.0337
  C  C296  1  0.241440  0.414140  0.901760  1.0  -0.0507
  C  C297  1  0.221590  0.375720  0.867790  1.0  -0.1497
  C  C298  1  0.088990  0.810080  0.302600  1.0  0.6619
  C  C299  1  0.042360  0.795710  0.283880  1.0  -0.1341
  C  C300  1  0.013670  0.795300  0.331920  1.0  -0.0644
  C  C301  1  0.970370  0.781300  0.314850  1.0  -0.0971
  C  C302  1  0.955500  0.767410  0.252040  1.0  0.0671
  C  C303  1  0.984990  0.768910  0.204630  1.0  -0.1758
  C  C304  1  0.027900  0.782620  0.221490  1.0  -0.0337
  C  C305  1  0.908100  0.747480  0.235100  1.0  -0.0496
  C  C306  1  0.888250  0.709060  0.201130  1.0  -0.1484
  C  C307  1  0.856590  0.612250  0.635930  1.0  0.6617
  C  C308  1  0.870960  0.579990  0.617210  1.0  -0.1329
  C  C309  1  0.871370  0.551710  0.665250  1.0  -0.0647
  C  C310  1  0.885370  0.522410  0.648180  1.0  -0.0964
  C  C311  1  0.899260  0.521430  0.585370  1.0  0.0672
  C  C312  1  0.897760  0.549420  0.537960  1.0  -0.1777
  C  C313  1  0.884050  0.578620  0.554820  1.0  -0.0352
  C  C314  1  0.919190  0.493960  0.568430  1.0  -0.0525
  C  C315  1  0.957610  0.512530  0.534460  1.0  -0.1465
  C  C316  1  0.523260  0.945580  0.969260  1.0  0.6618
  C  C317  1  0.537630  0.913320  0.950540  1.0  -0.1328
  C  C318  1  0.538040  0.885040  0.998580  1.0  -0.0647
  C  C319  1  0.552040  0.855740  0.981510  1.0  -0.0964
  C  C320  1  0.565930  0.854760  0.918700  1.0  0.0672
  C  C321  1  0.564430  0.882750  0.871290  1.0  -0.1777
  C  C322  1  0.550720  0.911950  0.888150  1.0  -0.0352
  C  C323  1  0.585860  0.827290  0.901760  1.0  -0.0509
  C  C324  1  0.624280  0.845860  0.867790  1.0  -0.1446
  C  C325  1  0.189920  0.278920  0.302600  1.0  0.6617
  C  C326  1  0.204290  0.246660  0.283880  1.0  -0.1329
  C  C327  1  0.204700  0.218380  0.331920  1.0  -0.0647
  C  C328  1  0.218700  0.189080  0.314850  1.0  -0.0964
  C  C329  1  0.232590  0.188100  0.252040  1.0  0.0672
  C  C330  1  0.231090  0.216090  0.204630  1.0  -0.1777
  C  C331  1  0.217380  0.245290  0.221490  1.0  -0.0352
  C  C332  1  0.252520  0.160630  0.235100  1.0  -0.0525
  C  C333  1  0.290940  0.179200  0.201130  1.0  -0.1465
  C  C334  1  0.244340  0.387750  0.364070  1.0  0.6615
  C  C335  1  0.290970  0.420010  0.382790  1.0  -0.1332
  C  C336  1  0.319660  0.448290  0.334750  1.0  -0.0619
  C  C337  1  0.362960  0.477590  0.351820  1.0  -0.0964
  C  C338  1  0.377830  0.478570  0.414630  1.0  0.0677
  C  C339  1  0.348340  0.450580  0.462040  1.0  -0.179
  C  C340  1  0.305430  0.421380  0.445180  1.0  -0.0364
  C  C341  1  0.425230  0.506040  0.431570  1.0  -0.053
  C  C342  1  0.445080  0.487470  0.465540  1.0  -0.148
  C  C343  1  0.911010  0.721080  0.697400  1.0  0.6615
  C  C344  1  0.957640  0.753340  0.716120  1.0  -0.1332
  C  C345  1  0.986330  0.781620  0.668080  1.0  -0.0619
  C  C346  1  0.029630  0.810920  0.685150  1.0  -0.0964
  C  C347  1  0.044500  0.811900  0.747960  1.0  0.0677
  C  C348  1  0.015010  0.783910  0.795370  1.0  -0.179
  C  C349  1  0.972100  0.754710  0.778510  1.0  -0.0364
  C  C350  1  0.091900  0.839370  0.764900  1.0  -0.053
  C  C351  1  0.111750  0.820800  0.798870  1.0  -0.148
  C  C352  1  0.577670  0.054420  0.030740  1.0  0.6615
  C  C353  1  0.624300  0.086680  0.049460  1.0  -0.1332
  C  C354  1  0.652990  0.114960  0.001420  1.0  -0.0619
  C  C355  1  0.696290  0.144260  0.018490  1.0  -0.0964
  C  C356  1  0.711160  0.145240  0.081300  1.0  0.0677
  C  C357  1  0.681670  0.117250  0.128710  1.0  -0.179
  C  C358  1  0.638760  0.088050  0.111850  1.0  -0.0364
  C  C359  1  0.758560  0.172710  0.098240  1.0  -0.053
  C  C360  1  0.778410  0.154140  0.132210  1.0  -0.148
  C  C361  1  0.143410  0.755660  0.364070  1.0  0.662
  C  C362  1  0.129040  0.709030  0.382790  1.0  -0.1325
  C  C363  1  0.128630  0.680340  0.334750  1.0  -0.0635
  C  C364  1  0.114630  0.637040  0.351820  1.0  -0.0955
  C  C365  1  0.100740  0.622170  0.414630  1.0  0.0673
  C  C366  1  0.102240  0.651660  0.462040  1.0  -0.1783
  C  C367  1  0.115950  0.694570  0.445180  1.0  -0.0352
  C  C368  1  0.080810  0.574770  0.431570  1.0  -0.0506
  C  C369  1  0.042390  0.554920  0.465540  1.0  -0.1485
  C  C370  1  0.810080  0.088990  0.697400  1.0  0.662
  C  C371  1  0.795710  0.042360  0.716120  1.0  -0.1325
  C  C372  1  0.795300  0.013670  0.668080  1.0  -0.0635
  C  C373  1  0.781300  0.970370  0.685150  1.0  -0.0955
  C  C374  1  0.767410  0.955500  0.747960  1.0  0.0673
  C  C375  1  0.768910  0.984990  0.795370  1.0  -0.1783
  C  C376  1  0.782620  0.027900  0.778510  1.0  -0.0352
  C  C377  1  0.747480  0.908100  0.764900  1.0  -0.0506
  C  C378  1  0.709060  0.888250  0.798870  1.0  -0.1485
  C  C379  1  0.476740  0.422330  0.030740  1.0  0.662
  C  C380  1  0.462370  0.375700  0.049460  1.0  -0.1325
  C  C381  1  0.461960  0.347010  0.001420  1.0  -0.0635
  C  C382  1  0.447960  0.303710  0.018490  1.0  -0.0955
  C  C383  1  0.434070  0.288840  0.081300  1.0  0.0673
  C  C384  1  0.435570  0.318330  0.128710  1.0  -0.1783
  C  C385  1  0.449280  0.361240  0.111850  1.0  -0.0352
  C  C386  1  0.414140  0.241440  0.098240  1.0  -0.0522
  C  C387  1  0.375720  0.221590  0.132210  1.0  -0.15
  C  C388  1  0.612250  0.856590  0.364070  1.0  0.6618
  C  C389  1  0.579990  0.870960  0.382790  1.0  -0.1336
  C  C390  1  0.551710  0.871370  0.334750  1.0  -0.0622
  C  C391  1  0.522410  0.885370  0.351820  1.0  -0.0957
  C  C392  1  0.521430  0.899260  0.414630  1.0  0.0674
  C  C393  1  0.549420  0.897760  0.462040  1.0  -0.1781
  C  C394  1  0.578620  0.884050  0.445180  1.0  -0.0337
  C  C395  1  0.493960  0.919190  0.431570  1.0  -0.0505
  C  C396  1  0.512530  0.957610  0.465540  1.0  -0.1502
  C  C397  1  0.278920  0.189920  0.697400  1.0  0.6618
  C  C398  1  0.246660  0.204290  0.716120  1.0  -0.1336
  C  C399  1  0.218380  0.204700  0.668080  1.0  -0.0622
  C  C400  1  0.189080  0.218700  0.685150  1.0  -0.0957
  C  C401  1  0.188100  0.232590  0.747960  1.0  0.0674
  C  C402  1  0.216090  0.231090  0.795370  1.0  -0.1781
  C  C403  1  0.245290  0.217380  0.778510  1.0  -0.0337
  C  C404  1  0.160630  0.252520  0.764900  1.0  -0.0505
  C  C405  1  0.179200  0.290940  0.798870  1.0  -0.1502
  C  C406  1  0.945580  0.523260  0.030740  1.0  0.6619
  C  C407  1  0.913320  0.537630  0.049460  1.0  -0.1336
  C  C408  1  0.885040  0.538040  0.001420  1.0  -0.0622
  C  C409  1  0.855740  0.552040  0.018490  1.0  -0.0957
  C  C410  1  0.854760  0.565930  0.081300  1.0  0.0674
  C  C411  1  0.882750  0.564430  0.128710  1.0  -0.1781
  C  C412  1  0.911950  0.550720  0.111850  1.0  -0.0337
  C  C413  1  0.827290  0.585860  0.098240  1.0  -0.049
  C  C414  1  0.845860  0.624280  0.132210  1.0  -0.1485
  C  C415  1  0.612250  0.755660  0.364070  1.0  0.6614
  C  C416  1  0.579990  0.709030  0.382790  1.0  -0.1324
  C  C417  1  0.551710  0.680340  0.334750  1.0  -0.0629
  C  C418  1  0.522410  0.637040  0.351820  1.0  -0.0952
  C  C419  1  0.521430  0.622170  0.414630  1.0  0.0677
  C  C420  1  0.549420  0.651660  0.462040  1.0  -0.1788
  C  C421  1  0.578620  0.694570  0.445180  1.0  -0.034
  C  C422  1  0.493960  0.574770  0.431570  1.0  -0.0511
  C  C423  1  0.512530  0.554920  0.465540  1.0  -0.1503
  C  C424  1  0.278920  0.088990  0.697400  1.0  0.6614
  C  C425  1  0.246660  0.042360  0.716120  1.0  -0.1324
  C  C426  1  0.218380  0.013670  0.668080  1.0  -0.0629
  C  C427  1  0.189080  0.970370  0.685150  1.0  -0.0952
  C  C428  1  0.188100  0.955500  0.747960  1.0  0.0677
  C  C429  1  0.216090  0.984990  0.795370  1.0  -0.1788
  C  C430  1  0.245290  0.027900  0.778510  1.0  -0.034
  C  C431  1  0.160630  0.908100  0.764900  1.0  -0.0511
  C  C432  1  0.179200  0.888250  0.798870  1.0  -0.1503
  C  C433  1  0.945580  0.422330  0.030740  1.0  0.6614
  C  C434  1  0.913320  0.375700  0.049460  1.0  -0.1324
  C  C435  1  0.885040  0.347010  0.001420  1.0  -0.0629
  C  C436  1  0.855740  0.303710  0.018490  1.0  -0.0952
  C  C437  1  0.854760  0.288840  0.081300  1.0  0.0677
  C  C438  1  0.882750  0.318330  0.128710  1.0  -0.1788
  C  C439  1  0.911950  0.361240  0.111850  1.0  -0.034
  C  C440  1  0.827290  0.241440  0.098240  1.0  -0.0511
  C  C441  1  0.845860  0.221590  0.132210  1.0  -0.1503
  C  C442  1  0.244340  0.856590  0.364070  1.0  0.6616
  C  C443  1  0.290970  0.870960  0.382790  1.0  -0.1334
  C  C444  1  0.319660  0.871370  0.334750  1.0  -0.0619
  C  C445  1  0.362960  0.885370  0.351820  1.0  -0.0956
  C  C446  1  0.377830  0.899260  0.414630  1.0  0.0672
  C  C447  1  0.348340  0.897760  0.462040  1.0  -0.1772
  C  C448  1  0.305430  0.884050  0.445180  1.0  -0.0344
  C  C449  1  0.425230  0.919190  0.431570  1.0  -0.0498
  C  C450  1  0.445080  0.957610  0.465540  1.0  -0.1481
  C  C451  1  0.911010  0.189920  0.697400  1.0  0.6616
  C  C452  1  0.957640  0.204290  0.716120  1.0  -0.1334
  C  C453  1  0.986330  0.204700  0.668080  1.0  -0.0619
  C  C454  1  0.029630  0.218700  0.685150  1.0  -0.0956
  C  C455  1  0.044500  0.232590  0.747960  1.0  0.0672
  C  C456  1  0.015010  0.231090  0.795370  1.0  -0.1772
  C  C457  1  0.972100  0.217380  0.778510  1.0  -0.0344
  C  C458  1  0.091900  0.252520  0.764900  1.0  -0.0498
  C  C459  1  0.111750  0.290940  0.798870  1.0  -0.1481
  C  C460  1  0.577670  0.523260  0.030740  1.0  0.6616
  C  C461  1  0.624300  0.537630  0.049460  1.0  -0.1334
  C  C462  1  0.652990  0.538040  0.001420  1.0  -0.0619
  C  C463  1  0.696290  0.552040  0.018490  1.0  -0.0956
  C  C464  1  0.711160  0.565930  0.081300  1.0  0.0672
  C  C465  1  0.681670  0.564430  0.128710  1.0  -0.1772
  C  C466  1  0.638760  0.550720  0.111850  1.0  -0.0344
  C  C467  1  0.758560  0.585860  0.098240  1.0  -0.0516
  C  C468  1  0.778410  0.624280  0.132210  1.0  -0.1499
  C  C469  1  0.143410  0.387750  0.364070  1.0  0.6614
  C  C470  1  0.129040  0.420010  0.382790  1.0  -0.1334
  C  C471  1  0.128630  0.448290  0.334750  1.0  -0.063
  C  C472  1  0.114630  0.477590  0.351820  1.0  -0.0962
  C  C473  1  0.100740  0.478570  0.414630  1.0  0.068
  C  C474  1  0.102240  0.450580  0.462040  1.0  -0.1808
  C  C475  1  0.115950  0.421380  0.445180  1.0  -0.0361
  C  C476  1  0.080810  0.506040  0.431570  1.0  -0.052
  C  C477  1  0.042390  0.487470  0.465540  1.0  -0.1484
  C  C478  1  0.810080  0.721080  0.697400  1.0  0.6614
  C  C479  1  0.795710  0.753340  0.716120  1.0  -0.1334
  C  C480  1  0.795300  0.781620  0.668080  1.0  -0.063
  C  C481  1  0.781300  0.810920  0.685150  1.0  -0.0962
  C  C482  1  0.767410  0.811900  0.747960  1.0  0.068
  C  C483  1  0.768910  0.783910  0.795370  1.0  -0.1808
  C  C484  1  0.782620  0.754710  0.778510  1.0  -0.0361
  C  C485  1  0.747480  0.839370  0.764900  1.0  -0.052
  C  C486  1  0.709060  0.820800  0.798870  1.0  -0.1484
  C  C487  1  0.476740  0.054420  0.030740  1.0  0.6615
  C  C488  1  0.462370  0.086680  0.049460  1.0  -0.1334
  C  C489  1  0.461960  0.114960  0.001420  1.0  -0.0631
  C  C490  1  0.447960  0.144260  0.018490  1.0  -0.0962
  C  C491  1  0.434070  0.145240  0.081300  1.0  0.068
  C  C492  1  0.435570  0.117250  0.128710  1.0  -0.1808
  C  C493  1  0.449280  0.088050  0.111850  1.0  -0.0361
  C  C494  1  0.414140  0.172710  0.098240  1.0  -0.0506
  C  C495  1  0.375720  0.154140  0.132210  1.0  -0.1464
  C  C496  1  0.755660  0.612250  0.635930  1.0  0.6614
  C  C497  1  0.709030  0.579990  0.617210  1.0  -0.1338
  C  C498  1  0.680340  0.551710  0.665250  1.0  -0.0646
  C  C499  1  0.637040  0.522410  0.648180  1.0  -0.0975
  C  C500  1  0.622170  0.521430  0.585370  1.0  0.0674
  C  C501  1  0.651660  0.549420  0.537960  1.0  -0.1778
  C  C502  1  0.694570  0.578620  0.554820  1.0  -0.0351
  C  C503  1  0.574770  0.493960  0.568430  1.0  -0.0519
  C  C504  1  0.554920  0.512530  0.534460  1.0  -0.1466
  C  C505  1  0.422330  0.945580  0.969260  1.0  0.6614
  C  C506  1  0.375700  0.913320  0.950540  1.0  -0.1338
  C  C507  1  0.347010  0.885040  0.998580  1.0  -0.0646
  C  C508  1  0.303710  0.855740  0.981510  1.0  -0.0975
  C  C509  1  0.288840  0.854760  0.918700  1.0  0.0674
  C  C510  1  0.318330  0.882750  0.871290  1.0  -0.1778
  C  C511  1  0.361240  0.911950  0.888150  1.0  -0.0351
  C  C512  1  0.241440  0.827290  0.901760  1.0  -0.0519
  C  C513  1  0.221590  0.845860  0.867790  1.0  -0.1466
  C  C514  1  0.088990  0.278920  0.302600  1.0  0.6614
  C  C515  1  0.042360  0.246660  0.283880  1.0  -0.1338
  C  C516  1  0.013670  0.218380  0.331920  1.0  -0.0646
  C  C517  1  0.970370  0.189080  0.314850  1.0  -0.0975
  C  C518  1  0.955500  0.188100  0.252040  1.0  0.0674
  C  C519  1  0.984990  0.216090  0.204630  1.0  -0.1778
  C  C520  1  0.027900  0.245290  0.221490  1.0  -0.0351
  C  C521  1  0.908100  0.160630  0.235100  1.0  -0.0519
  C  C522  1  0.888250  0.179200  0.201130  1.0  -0.1466
  C  C523  1  0.856590  0.244340  0.635930  1.0  0.6611
  C  C524  1  0.870960  0.290970  0.617210  1.0  -0.1329
  C  C525  1  0.871370  0.319660  0.665250  1.0  -0.0646
  C  C526  1  0.885370  0.362960  0.648180  1.0  -0.0975
  C  C527  1  0.899260  0.377830  0.585370  1.0  0.0677
  C  C528  1  0.897760  0.348340  0.537960  1.0  -0.1779
  C  C529  1  0.884050  0.305430  0.554820  1.0  -0.0351
  C  C530  1  0.919190  0.425230  0.568430  1.0  -0.0499
  C  C531  1  0.957610  0.445080  0.534460  1.0  -0.1485
  C  C532  1  0.523260  0.577670  0.969260  1.0  0.6611
  C  C533  1  0.537630  0.624300  0.950540  1.0  -0.1329
  C  C534  1  0.538040  0.652990  0.998580  1.0  -0.0646
  C  C535  1  0.552040  0.696290  0.981510  1.0  -0.0975
  C  C536  1  0.565930  0.711160  0.918700  1.0  0.0677
  C  C537  1  0.564430  0.681670  0.871290  1.0  -0.1779
  C  C538  1  0.550720  0.638760  0.888150  1.0  -0.0351
  C  C539  1  0.585860  0.758560  0.901760  1.0  -0.0516
  C  C540  1  0.624280  0.778410  0.867790  1.0  -0.1502
  C  C541  1  0.189920  0.911010  0.302600  1.0  0.6611
  C  C542  1  0.204290  0.957640  0.283880  1.0  -0.1329
  C  C543  1  0.204700  0.986330  0.331920  1.0  -0.0646
  C  C544  1  0.218700  0.029630  0.314850  1.0  -0.0975
  C  C545  1  0.232590  0.044500  0.252040  1.0  0.0677
  C  C546  1  0.231090  0.015010  0.204630  1.0  -0.1779
  C  C547  1  0.217380  0.972100  0.221490  1.0  -0.0351
  C  C548  1  0.252520  0.091900  0.235100  1.0  -0.0499
  C  C549  1  0.290940  0.111750  0.201130  1.0  -0.1485
  C  C550  1  0.387750  0.143410  0.635930  1.0  0.6618
  C  C551  1  0.420010  0.129040  0.617210  1.0  -0.1333
  C  C552  1  0.448290  0.128630  0.665250  1.0  -0.065
  C  C553  1  0.477590  0.114630  0.648180  1.0  -0.0961
  C  C554  1  0.478570  0.100740  0.585370  1.0  0.0669
  C  C555  1  0.450580  0.102240  0.537960  1.0  -0.1761
  C  C556  1  0.421380  0.115950  0.554820  1.0  -0.0338
  C  C557  1  0.506040  0.080810  0.568430  1.0  -0.0516
  C  C558  1  0.487470  0.042390  0.534460  1.0  -0.1493
  C  C559  1  0.054420  0.476740  0.969260  1.0  0.6619
  C  C560  1  0.086680  0.462370  0.950540  1.0  -0.1333
  C  C561  1  0.114960  0.461960  0.998580  1.0  -0.065
  C  C562  1  0.144260  0.447960  0.981510  1.0  -0.0961
  C  C563  1  0.145240  0.434070  0.918700  1.0  0.0669
  C  C564  1  0.117250  0.435570  0.871290  1.0  -0.1761
  C  C565  1  0.088050  0.449280  0.888150  1.0  -0.0338
  C  C566  1  0.172710  0.414140  0.901760  1.0  -0.0503
  C  C567  1  0.154140  0.375720  0.867790  1.0  -0.147
  C  C568  1  0.721080  0.810080  0.302600  1.0  0.6618
  C  C569  1  0.753340  0.795710  0.283880  1.0  -0.1333
  C  C570  1  0.781620  0.795300  0.331920  1.0  -0.065
  C  C571  1  0.810920  0.781300  0.314850  1.0  -0.0961
  C  C572  1  0.811900  0.767410  0.252040  1.0  0.0669
  C  C573  1  0.783910  0.768910  0.204630  1.0  -0.1761
  C  C574  1  0.754710  0.782620  0.221490  1.0  -0.0338
  C  C575  1  0.839370  0.747480  0.235100  1.0  -0.0516
  C  C576  1  0.820800  0.709060  0.201130  1.0  -0.1493
  C  C577  1  0.510490  0.489510  0.516200  1.0  0.0274
  C  C578  1  0.550450  0.449550  0.586010  1.0  0.2033
  C  C579  1  0.588930  0.411070  0.577500  1.0  -0.0251
  C  C580  1  0.177160  0.822840  0.849530  1.0  0.0274
  C  C581  1  0.217120  0.782880  0.919340  1.0  0.2032
  C  C582  1  0.255600  0.744400  0.910830  1.0  -0.0251
  C  C583  1  0.843820  0.156180  0.182870  1.0  0.0274
  C  C584  1  0.883780  0.116220  0.252680  1.0  0.2033
  C  C585  1  0.922260  0.077740  0.244170  1.0  -0.0251
  C  C586  1  0.510490  0.020980  0.516200  1.0  0.0272
  C  C587  1  0.550450  0.100900  0.586010  1.0  0.2037
  C  C588  1  0.588930  0.177860  0.577500  1.0  -0.024
  C  C589  1  0.177160  0.354310  0.849530  1.0  0.0272
  C  C590  1  0.217120  0.434230  0.919340  1.0  0.2034
  C  C591  1  0.255600  0.511190  0.910830  1.0  -0.024
  C  C592  1  0.843820  0.687650  0.182870  1.0  0.0272
  C  C593  1  0.883780  0.767570  0.252680  1.0  0.2037
  C  C594  1  0.922260  0.844530  0.244170  1.0  -0.024
  C  C595  1  0.979020  0.489510  0.516200  1.0  0.0252
  C  C596  1  0.899100  0.449550  0.586010  1.0  0.2029
  C  C597  1  0.822140  0.411070  0.577500  1.0  -0.0268
  C  C598  1  0.645690  0.822840  0.849530  1.0  0.0252
  C  C599  1  0.565770  0.782880  0.919340  1.0  0.2027
  C  C600  1  0.488810  0.744400  0.910830  1.0  -0.0268
  C  C601  1  0.312350  0.156180  0.182870  1.0  0.0252
  C  C602  1  0.232430  0.116220  0.252680  1.0  0.2029
  C  C603  1  0.155470  0.077740  0.244170  1.0  -0.0268
  C  C604  1  0.489510  0.510490  0.483800  1.0  0.0269
  C  C605  1  0.449550  0.550450  0.413990  1.0  0.2037
  C  C606  1  0.411070  0.588930  0.422500  1.0  -0.0271
  C  C607  1  0.156180  0.843820  0.817130  1.0  0.0269
  C  C608  1  0.116220  0.883780  0.747320  1.0  0.2037
  C  C609  1  0.077740  0.922260  0.755830  1.0  -0.0271
  C  C610  1  0.822840  0.177160  0.150470  1.0  0.027
  C  C611  1  0.782880  0.217120  0.080660  1.0  0.2036
  C  C612  1  0.744400  0.255600  0.089170  1.0  -0.0271
  C  C613  1  0.020980  0.510490  0.483800  1.0  0.0248
  C  C614  1  0.100900  0.550450  0.413990  1.0  0.2035
  C  C615  1  0.177860  0.588930  0.422500  1.0  -0.0269
  C  C616  1  0.687650  0.843820  0.817130  1.0  0.0248
  C  C617  1  0.767570  0.883780  0.747320  1.0  0.2035
  C  C618  1  0.844530  0.922260  0.755830  1.0  -0.0269
  C  C619  1  0.354310  0.177160  0.150470  1.0  0.0248
  C  C620  1  0.434230  0.217120  0.080660  1.0  0.2032
  C  C621  1  0.511190  0.255600  0.089170  1.0  -0.0269
  C  C622  1  0.489510  0.979020  0.483800  1.0  0.0271
  C  C623  1  0.449550  0.899100  0.413990  1.0  0.2036
  C  C624  1  0.411070  0.822140  0.422500  1.0  -0.0235
  C  C625  1  0.156180  0.312350  0.817130  1.0  0.0271
  C  C626  1  0.116220  0.232430  0.747320  1.0  0.2036
  C  C627  1  0.077740  0.155470  0.755830  1.0  -0.0235
  C  C628  1  0.822840  0.645690  0.150470  1.0  0.0271
  C  C629  1  0.782880  0.565770  0.080660  1.0  0.2034
  C  C630  1  0.744400  0.488810  0.089170  1.0  -0.0235
  O  O631  1  0.362620  0.220230  0.591130  1.0  -0.5661
  O  O632  1  0.388560  0.233270  0.694340  1.0  -0.5646
  O  O633  1  0.029290  0.553560  0.924460  1.0  -0.566
  O  O634  1  0.055230  0.566600  0.027670  1.0  -0.5646
  O  O635  1  0.695950  0.886900  0.257800  1.0  -0.5649
  O  O636  1  0.721890  0.899940  0.361010  1.0  -0.5628
  O  O637  1  0.779770  0.142390  0.591130  1.0  -0.5645
  O  O638  1  0.766730  0.155290  0.694340  1.0  -0.5639
  O  O639  1  0.446440  0.475720  0.924460  1.0  -0.5645
  O  O640  1  0.433400  0.488620  0.027670  1.0  -0.5636
  O  O641  1  0.113100  0.809060  0.257800  1.0  -0.5644
  O  O642  1  0.100060  0.821960  0.361010  1.0  -0.564
  O  O643  1  0.857610  0.637380  0.591130  1.0  -0.5656
  O  O644  1  0.844710  0.611440  0.694340  1.0  -0.5636
  O  O645  1  0.524280  0.970710  0.924460  1.0  -0.5656
  O  O646  1  0.511380  0.944770  0.027670  1.0  -0.5636
  O  O647  1  0.190940  0.304050  0.257800  1.0  -0.5665
  O  O648  1  0.178040  0.278110  0.361010  1.0  -0.5657
  O  O649  1  0.220230  0.362620  0.408870  1.0  -0.5656
  O  O650  1  0.233270  0.388560  0.305660  1.0  -0.566
  O  O651  1  0.886900  0.695950  0.742200  1.0  -0.5645
  O  O652  1  0.899940  0.721890  0.638990  1.0  -0.564
  O  O653  1  0.553560  0.029290  0.075540  1.0  -0.5656
  O  O654  1  0.566600  0.055230  0.972330  1.0  -0.566
  O  O655  1  0.142390  0.779770  0.408870  1.0  -0.564
  O  O656  1  0.155290  0.766730  0.305660  1.0  -0.5638
  O  O657  1  0.809060  0.113100  0.742200  1.0  -0.564
  O  O658  1  0.821960  0.100060  0.638990  1.0  -0.5639
  O  O659  1  0.475720  0.446440  0.075540  1.0  -0.564
  O  O660  1  0.488620  0.433400  0.972330  1.0  -0.5634
  O  O661  1  0.637380  0.857610  0.408870  1.0  -0.5628
  O  O662  1  0.611440  0.844710  0.305660  1.0  -0.5641
  O  O663  1  0.304050  0.190940  0.742200  1.0  -0.5645
  O  O664  1  0.278110  0.178040  0.638990  1.0  -0.5664
  O  O665  1  0.970710  0.524280  0.075540  1.0  -0.5627
  O  O666  1  0.944770  0.511380  0.972330  1.0  -0.5641
  O  O667  1  0.637380  0.779770  0.408870  1.0  -0.5641
  O  O668  1  0.611440  0.766730  0.305660  1.0  -0.5654
  O  O669  1  0.304050  0.113100  0.742200  1.0  -0.5628
  O  O670  1  0.278110  0.100060  0.638990  1.0  -0.5632
  O  O671  1  0.970710  0.446440  0.075540  1.0  -0.5641
  O  O672  1  0.944770  0.433400  0.972330  1.0  -0.5653
  O  O673  1  0.220230  0.857610  0.408870  1.0  -0.5626
  O  O674  1  0.233270  0.844710  0.305660  1.0  -0.5647
  O  O675  1  0.886900  0.190940  0.742200  1.0  -0.5626
  O  O676  1  0.899940  0.178040  0.638990  1.0  -0.5648
  O  O677  1  0.553560  0.524280  0.075540  1.0  -0.5626
  O  O678  1  0.566600  0.511380  0.972330  1.0  -0.5642
  O  O679  1  0.142390  0.362620  0.408870  1.0  -0.5635
  O  O680  1  0.155290  0.388560  0.305660  1.0  -0.5639
  O  O681  1  0.809060  0.695950  0.742200  1.0  -0.5649
  O  O682  1  0.821960  0.721890  0.638990  1.0  -0.5663
  O  O683  1  0.475720  0.029290  0.075540  1.0  -0.5634
  O  O684  1  0.488620  0.055230  0.972330  1.0  -0.5639
  O  O685  1  0.779770  0.637380  0.591130  1.0  -0.5659
  O  O686  1  0.766730  0.611440  0.694340  1.0  -0.5655
  O  O687  1  0.446440  0.970710  0.924460  1.0  -0.5659
  O  O688  1  0.433400  0.944770  0.027670  1.0  -0.5655
  O  O689  1  0.113100  0.304050  0.257800  1.0  -0.5649
  O  O690  1  0.100060  0.278110  0.361010  1.0  -0.5636
  O  O691  1  0.857610  0.220230  0.591130  1.0  -0.5647
  O  O692  1  0.844710  0.233270  0.694340  1.0  -0.5637
  O  O693  1  0.524280  0.553560  0.924460  1.0  -0.5647
  O  O694  1  0.511380  0.566600  0.027670  1.0  -0.5635
  O  O695  1  0.190940  0.886900  0.257800  1.0  -0.5647
  O  O696  1  0.178040  0.899940  0.361010  1.0  -0.5638
  O  O697  1  0.362620  0.142390  0.591130  1.0  -0.5641
  O  O698  1  0.388560  0.155290  0.694340  1.0  -0.5628
  O  O699  1  0.029290  0.475720  0.924460  1.0  -0.564
  O  O700  1  0.055230  0.488620  0.027670  1.0  -0.5629
  O  O701  1  0.695950  0.809060  0.257800  1.0  -0.5655
  O  O702  1  0.721890  0.821960  0.361010  1.0  -0.5651
  O  O703  1  0.569880  0.430120  0.619950  1.0  -0.2787
  O  O704  1  0.236550  0.763450  0.953280  1.0  -0.2787
  O  O705  1  0.903210  0.096790  0.286620  1.0  -0.2787
  O  O706  1  0.569880  0.139760  0.619950  1.0  -0.2794
  O  O707  1  0.236550  0.473090  0.953280  1.0  -0.2794
  O  O708  1  0.903210  0.806430  0.286620  1.0  -0.2794
  O  O709  1  0.860240  0.430120  0.619950  1.0  -0.278
  O  O710  1  0.526910  0.763450  0.953280  1.0  -0.278
  O  O711  1  0.193570  0.096790  0.286620  1.0  -0.278
  O  O712  1  0.430120  0.569880  0.380050  1.0  -0.2758
  O  O713  1  0.096790  0.903210  0.713380  1.0  -0.2758
  O  O714  1  0.763450  0.236550  0.046720  1.0  -0.2758
  O  O715  1  0.139760  0.569880  0.380050  1.0  -0.2752
  O  O716  1  0.806430  0.903210  0.713380  1.0  -0.2752
  O  O717  1  0.473090  0.236550  0.046720  1.0  -0.2752
  O  O718  1  0.430120  0.860240  0.380050  1.0  -0.2792
  O  O719  1  0.096790  0.193570  0.713380  1.0  -0.2792
  O  O720  1  0.763450  0.526910  0.046720  1.0  -0.2792
