# generated using pymatgen
data_CuH13C21O5
_symmetry_space_group_name_H-M   'P 1'
_cell_length_a   35.27750000
_cell_length_b   35.27750000
_cell_length_c   20.33820000
_cell_angle_alpha   90.00000000
_cell_angle_beta   90.00000000
_cell_angle_gamma   120.00000000
_symmetry_Int_Tables_number   1
_chemical_formula_structural   CuH13C21O5
_chemical_formula_sum   'Cu18 H234 C378 O90'
_cell_volume   21919.90898267
_cell_formula_units_Z   18
loop_
 _symmetry_equiv_pos_site_id
 _symmetry_equiv_pos_as_xyz
  1  'x, y, z'
loop_
 _atom_site_type_symbol
 _atom_site_label
 _atom_site_symmetry_multiplicity
 _atom_site_fract_x
 _atom_site_fract_y
 _atom_site_fract_z
 _atom_site_occupancy
 _atom_site_charge
  Cu  Cu1  1  0.507620  0.015230  0.439260  1.0  0.9096
  Cu  Cu2  1  0.174280  0.348560  0.772590  1.0  0.9095
  Cu  Cu3  1  0.840950  0.681900  0.105930  1.0  0.9095
  Cu  Cu4  1  0.984770  0.492380  0.439260  1.0  0.909
  Cu  Cu5  1  0.651440  0.825720  0.772590  1.0  0.909
  Cu  Cu6  1  0.318100  0.159050  0.105930  1.0  0.909
  Cu  Cu7  1  0.507620  0.492380  0.439260  1.0  0.9097
  Cu  Cu8  1  0.174280  0.825720  0.772590  1.0  0.9096
  Cu  Cu9  1  0.840950  0.159050  0.105930  1.0  0.9096
  Cu  Cu10  1  0.015230  0.507610  0.560740  1.0  0.9098
  Cu  Cu11  1  0.681900  0.840950  0.894070  1.0  0.9098
  Cu  Cu12  1  0.348560  0.174280  0.227410  1.0  0.9098
  Cu  Cu13  1  0.492380  0.984770  0.560740  1.0  0.9101
  Cu  Cu14  1  0.159050  0.318100  0.894070  1.0  0.91
  Cu  Cu15  1  0.825720  0.651440  0.227410  1.0  0.91
  Cu  Cu16  1  0.492380  0.507620  0.560740  1.0  0.91
  Cu  Cu17  1  0.159050  0.840950  0.894070  1.0  0.91
  Cu  Cu18  1  0.825720  0.174280  0.227410  1.0  0.9099
  H  H19  1  0.528600  0.885800  0.542400  1.0  0.1082
  H  H20  1  0.551500  0.835900  0.513300  1.0  0.0994
  H  H21  1  0.573000  0.881700  0.327000  1.0  0.1102
  H  H22  1  0.550600  0.931400  0.355500  1.0  0.1048
  H  H23  1  0.637400  0.875900  0.356200  1.0  0.109
  H  H24  1  0.489000  0.721800  0.383200  1.0  0.0987
  H  H25  1  0.195270  0.219130  0.875730  1.0  0.109
  H  H26  1  0.218170  0.169230  0.846630  1.0  0.1007
  H  H27  1  0.239670  0.215030  0.660330  1.0  0.1106
  H  H28  1  0.217270  0.264730  0.688830  1.0  0.1049
  H  H29  1  0.304070  0.209230  0.689530  1.0  0.109
  H  H30  1  0.155670  0.055130  0.716530  1.0  0.0968
  H  H31  1  0.861930  0.552470  0.209070  1.0  0.1082
  H  H32  1  0.884830  0.502570  0.179970  1.0  0.0994
  H  H33  1  0.906330  0.548370  0.993670  1.0  0.1102
  H  H34  1  0.883930  0.598070  0.022170  1.0  0.1048
  H  H35  1  0.970730  0.542570  0.022870  1.0  0.1093
  H  H36  1  0.822330  0.388470  0.049870  1.0  0.0987
  H  H37  1  0.114200  0.642800  0.542400  1.0  0.1094
  H  H38  1  0.164100  0.715600  0.513300  1.0  0.0994
  H  H39  1  0.118300  0.691300  0.327000  1.0  0.1102
  H  H40  1  0.068600  0.619200  0.355500  1.0  0.1049
  H  H41  1  0.124100  0.761500  0.356200  1.0  0.1082
  H  H42  1  0.278200  0.767200  0.383200  1.0  0.0993
  H  H43  1  0.780870  0.976130  0.875730  1.0  0.1085
  H  H44  1  0.830770  0.048930  0.846630  1.0  0.0994
  H  H45  1  0.784970  0.024630  0.660330  1.0  0.1101
  H  H46  1  0.735270  0.952530  0.688830  1.0  0.1049
  H  H47  1  0.790770  0.094830  0.689530  1.0  0.1081
  H  H48  1  0.944870  0.100530  0.716530  1.0  0.101
  H  H49  1  0.447530  0.309470  0.209070  1.0  0.1094
  H  H50  1  0.497430  0.382270  0.179970  1.0  0.0994
  H  H51  1  0.451630  0.357970  0.993670  1.0  0.1101
  H  H52  1  0.401930  0.285870  0.022170  1.0  0.1049
  H  H53  1  0.457430  0.428170  0.022870  1.0  0.1082
  H  H54  1  0.611530  0.433870  0.049870  1.0  0.0993
  H  H55  1  0.357200  0.471400  0.542400  1.0  0.1087
  H  H56  1  0.284400  0.448500  0.513300  1.0  0.1012
  H  H57  1  0.308700  0.427000  0.327000  1.0  0.1106
  H  H58  1  0.380800  0.449400  0.355500  1.0  0.1056
  H  H59  1  0.238500  0.362600  0.356200  1.0  0.1095
  H  H60  1  0.232800  0.511000  0.383200  1.0  0.097
  H  H61  1  0.023870  0.804730  0.875730  1.0  0.1087
  H  H62  1  0.951070  0.781830  0.846630  1.0  0.0996
  H  H63  1  0.975370  0.760330  0.660330  1.0  0.1104
  H  H64  1  0.047470  0.782730  0.688830  1.0  0.1056
  H  H65  1  0.905170  0.695930  0.689530  1.0  0.1096
  H  H66  1  0.899470  0.844330  0.716530  1.0  0.0985
  H  H67  1  0.690530  0.138070  0.209070  1.0  0.1087
  H  H68  1  0.617730  0.115170  0.179970  1.0  0.1012
  H  H69  1  0.642030  0.093670  0.993670  1.0  0.1106
  H  H70  1  0.714130  0.116070  0.022170  1.0  0.1056
  H  H71  1  0.571830  0.029270  0.022870  1.0  0.1096
  H  H72  1  0.566130  0.177670  0.049870  1.0  0.097
  H  H73  1  0.885800  0.528600  0.457600  1.0  0.1077
  H  H74  1  0.835900  0.551500  0.486700  1.0  0.0996
  H  H75  1  0.881700  0.573000  0.673000  1.0  0.1095
  H  H76  1  0.931400  0.550600  0.644500  1.0  0.1055
  H  H77  1  0.875900  0.637400  0.643800  1.0  0.1111
  H  H78  1  0.721800  0.489000  0.616800  1.0  0.0996
  H  H79  1  0.552470  0.861930  0.790930  1.0  0.1077
  H  H80  1  0.502570  0.884830  0.820030  1.0  0.0996
  H  H81  1  0.548370  0.906330  0.006330  1.0  0.1095
  H  H82  1  0.598070  0.883930  0.977830  1.0  0.1055
  H  H83  1  0.542570  0.970730  0.977130  1.0  0.1115
  H  H84  1  0.388470  0.822330  0.950130  1.0  0.0996
  H  H85  1  0.219130  0.195270  0.124270  1.0  0.1086
  H  H86  1  0.169230  0.218170  0.153370  1.0  0.1008
  H  H87  1  0.215030  0.239670  0.339670  1.0  0.1102
  H  H88  1  0.264730  0.217270  0.311170  1.0  0.1054
  H  H89  1  0.209230  0.304070  0.310470  1.0  0.1111
  H  H90  1  0.055130  0.155670  0.283470  1.0  0.0968
  H  H91  1  0.642800  0.114200  0.457600  1.0  0.1089
  H  H92  1  0.715600  0.164100  0.486700  1.0  0.0994
  H  H93  1  0.691300  0.118300  0.673000  1.0  0.1102
  H  H94  1  0.619200  0.068600  0.644500  1.0  0.1051
  H  H95  1  0.761500  0.124100  0.643800  1.0  0.1105
  H  H96  1  0.767200  0.278200  0.616800  1.0  0.098
  H  H97  1  0.309470  0.447530  0.790930  1.0  0.1089
  H  H98  1  0.382270  0.497430  0.820030  1.0  0.0994
  H  H99  1  0.357970  0.451630  0.006330  1.0  0.1101
  H  H100  1  0.285870  0.401930  0.977830  1.0  0.1051
  H  H101  1  0.428170  0.457430  0.977130  1.0  0.1104
  H  H102  1  0.433870  0.611530  0.950130  1.0  0.098
  H  H103  1  0.976130  0.780870  0.124270  1.0  0.1083
  H  H104  1  0.048930  0.830770  0.153370  1.0  0.0994
  H  H105  1  0.024630  0.784970  0.339670  1.0  0.1102
  H  H106  1  0.952530  0.735270  0.311170  1.0  0.1052
  H  H107  1  0.094830  0.790770  0.310470  1.0  0.1104
  H  H108  1  0.100530  0.944870  0.283470  1.0  0.0997
  H  H109  1  0.471400  0.357200  0.457600  1.0  0.1093
  H  H110  1  0.448500  0.284400  0.486700  1.0  0.0999
  H  H111  1  0.427000  0.308700  0.673000  1.0  0.1103
  H  H112  1  0.449400  0.380800  0.644500  1.0  0.105
  H  H113  1  0.362600  0.238500  0.643800  1.0  0.1098
  H  H114  1  0.511000  0.232800  0.616800  1.0  0.1005
  H  H115  1  0.138070  0.690530  0.790930  1.0  0.1093
  H  H116  1  0.115170  0.617730  0.820030  1.0  0.0999
  H  H117  1  0.093670  0.642030  0.006330  1.0  0.1103
  H  H118  1  0.116070  0.714130  0.977830  1.0  0.105
  H  H119  1  0.029270  0.571830  0.977130  1.0  0.1098
  H  H120  1  0.177670  0.566130  0.950130  1.0  0.1005
  H  H121  1  0.804730  0.023870  0.124270  1.0  0.1093
  H  H122  1  0.781830  0.951070  0.153370  1.0  0.0992
  H  H123  1  0.760330  0.975370  0.339670  1.0  0.1097
  H  H124  1  0.782730  0.047470  0.311170  1.0  0.105
  H  H125  1  0.695930  0.905170  0.310470  1.0  0.1099
  H  H126  1  0.844330  0.899470  0.283470  1.0  0.1011
  H  H127  1  0.471400  0.114200  0.457600  1.0  0.1081
  H  H128  1  0.448500  0.164100  0.486700  1.0  0.0995
  H  H129  1  0.427000  0.118300  0.673000  1.0  0.1097
  H  H130  1  0.449400  0.068600  0.644500  1.0  0.1053
  H  H131  1  0.362600  0.124100  0.643800  1.0  0.1091
  H  H132  1  0.511000  0.278200  0.616800  1.0  0.1
  H  H133  1  0.138070  0.447530  0.790930  1.0  0.1081
  H  H134  1  0.115170  0.497430  0.820030  1.0  0.0995
  H  H135  1  0.093670  0.451630  0.006330  1.0  0.1097
  H  H136  1  0.116070  0.401930  0.977830  1.0  0.1053
  H  H137  1  0.029270  0.457430  0.977130  1.0  0.1093
  H  H138  1  0.177670  0.611530  0.950130  1.0  0.1
  H  H139  1  0.804730  0.780870  0.124270  1.0  0.109
  H  H140  1  0.781830  0.830770  0.153370  1.0  0.1003
  H  H141  1  0.760330  0.784970  0.339670  1.0  0.1104
  H  H142  1  0.782730  0.735270  0.311170  1.0  0.1053
  H  H143  1  0.695930  0.790770  0.310470  1.0  0.1091
  H  H144  1  0.844330  0.944870  0.283470  1.0  0.0972
  H  H145  1  0.885800  0.357200  0.457600  1.0  0.1089
  H  H146  1  0.835900  0.284400  0.486700  1.0  0.0992
  H  H147  1  0.881700  0.308700  0.673000  1.0  0.1097
  H  H148  1  0.931400  0.380800  0.644500  1.0  0.1051
  H  H149  1  0.875900  0.238500  0.643800  1.0  0.1094
  H  H150  1  0.721800  0.232800  0.616800  1.0  0.0989
  H  H151  1  0.552470  0.690530  0.790930  1.0  0.1089
  H  H152  1  0.502570  0.617730  0.820030  1.0  0.0992
  H  H153  1  0.548370  0.642030  0.006330  1.0  0.1096
  H  H154  1  0.598070  0.714130  0.977830  1.0  0.1051
  H  H155  1  0.542570  0.571830  0.977130  1.0  0.1094
  H  H156  1  0.388470  0.566130  0.950130  1.0  0.0989
  H  H157  1  0.219130  0.023870  0.124270  1.0  0.1083
  H  H158  1  0.169230  0.951070  0.153370  1.0  0.0993
  H  H159  1  0.215030  0.975370  0.339670  1.0  0.1096
  H  H160  1  0.264730  0.047470  0.311170  1.0  0.1053
  H  H161  1  0.209230  0.905170  0.310470  1.0  0.1093
  H  H162  1  0.055130  0.899470  0.283470  1.0  0.1008
  H  H163  1  0.642800  0.528600  0.457600  1.0  0.1088
  H  H164  1  0.715600  0.551500  0.486700  1.0  0.1002
  H  H165  1  0.691300  0.573000  0.673000  1.0  0.1105
  H  H166  1  0.619200  0.550600  0.644500  1.0  0.1053
  H  H167  1  0.761500  0.637400  0.643800  1.0  0.1086
  H  H168  1  0.767200  0.489000  0.616800  1.0  0.0988
  H  H169  1  0.309470  0.861930  0.790930  1.0  0.1088
  H  H170  1  0.382270  0.884830  0.820030  1.0  0.1002
  H  H171  1  0.357970  0.906330  0.006330  1.0  0.1105
  H  H172  1  0.285870  0.883930  0.977830  1.0  0.1053
  H  H173  1  0.428170  0.970730  0.977130  1.0  0.1086
  H  H174  1  0.433870  0.822330  0.950130  1.0  0.0988
  H  H175  1  0.976130  0.195270  0.124270  1.0  0.1088
  H  H176  1  0.048930  0.218170  0.153370  1.0  0.0992
  H  H177  1  0.024630  0.239670  0.339670  1.0  0.11
  H  H178  1  0.952530  0.217270  0.311170  1.0  0.1053
  H  H179  1  0.094830  0.304070  0.310470  1.0  0.1087
  H  H180  1  0.100530  0.155670  0.283470  1.0  0.099
  H  H181  1  0.114200  0.471400  0.542400  1.0  0.1078
  H  H182  1  0.164100  0.448500  0.513300  1.0  0.0994
  H  H183  1  0.118300  0.427000  0.327000  1.0  0.1101
  H  H184  1  0.068600  0.449400  0.355500  1.0  0.1051
  H  H185  1  0.124100  0.362600  0.356200  1.0  0.1085
  H  H186  1  0.278200  0.511000  0.383200  1.0  0.0993
  H  H187  1  0.780870  0.804730  0.875730  1.0  0.1087
  H  H188  1  0.830770  0.781830  0.846630  1.0  0.1009
  H  H189  1  0.784970  0.760330  0.660330  1.0  0.1103
  H  H190  1  0.735270  0.782730  0.688830  1.0  0.1051
  H  H191  1  0.790770  0.695930  0.689530  1.0  0.1085
  H  H192  1  0.944870  0.844330  0.716530  1.0  0.0966
  H  H193  1  0.447530  0.138070  0.209070  1.0  0.1078
  H  H194  1  0.497430  0.115170  0.179970  1.0  0.0994
  H  H195  1  0.451630  0.093670  0.993670  1.0  0.1101
  H  H196  1  0.401930  0.116070  0.022170  1.0  0.1051
  H  H197  1  0.457430  0.029270  0.022870  1.0  0.1087
  H  H198  1  0.611530  0.177670  0.049870  1.0  0.0993
  H  H199  1  0.357200  0.885800  0.542400  1.0  0.1092
  H  H200  1  0.284400  0.835900  0.513300  1.0  0.0994
  H  H201  1  0.308700  0.881700  0.327000  1.0  0.1101
  H  H202  1  0.380800  0.931400  0.355500  1.0  0.1052
  H  H203  1  0.238500  0.875900  0.356200  1.0  0.1089
  H  H204  1  0.232800  0.721800  0.383200  1.0  0.0987
  H  H205  1  0.023870  0.219130  0.875730  1.0  0.1086
  H  H206  1  0.951070  0.169230  0.846630  1.0  0.0994
  H  H207  1  0.975370  0.215030  0.660330  1.0  0.11
  H  H208  1  0.047470  0.264730  0.688830  1.0  0.1054
  H  H209  1  0.905170  0.209230  0.689530  1.0  0.1088
  H  H210  1  0.899470  0.055130  0.716530  1.0  0.1003
  H  H211  1  0.690530  0.552470  0.209070  1.0  0.1092
  H  H212  1  0.617730  0.502570  0.179970  1.0  0.0994
  H  H213  1  0.642030  0.548370  0.993670  1.0  0.11
  H  H214  1  0.714130  0.598070  0.022170  1.0  0.1052
  H  H215  1  0.571830  0.542570  0.022870  1.0  0.1089
  H  H216  1  0.566130  0.388470  0.049870  1.0  0.0987
  H  H217  1  0.528600  0.642800  0.542400  1.0  0.1093
  H  H218  1  0.551500  0.715600  0.513300  1.0  0.1006
  H  H219  1  0.573000  0.691300  0.327000  1.0  0.1102
  H  H220  1  0.550600  0.619200  0.355500  1.0  0.1051
  H  H221  1  0.637400  0.761500  0.356200  1.0  0.1091
  H  H222  1  0.489000  0.767200  0.383200  1.0  0.0992
  H  H223  1  0.195270  0.976130  0.875730  1.0  0.1093
  H  H224  1  0.218170  0.048930  0.846630  1.0  0.0994
  H  H225  1  0.239670  0.024630  0.660330  1.0  0.11
  H  H226  1  0.217270  0.952530  0.688830  1.0  0.1051
  H  H227  1  0.304070  0.094830  0.689530  1.0  0.1092
  H  H228  1  0.155670  0.100530  0.716530  1.0  0.1
  H  H229  1  0.861930  0.309470  0.209070  1.0  0.1093
  H  H230  1  0.884830  0.382270  0.179970  1.0  0.1006
  H  H231  1  0.906330  0.357970  0.993670  1.0  0.1102
  H  H232  1  0.883930  0.285870  0.022170  1.0  0.1051
  H  H233  1  0.970730  0.428170  0.022870  1.0  0.1091
  H  H234  1  0.822330  0.433870  0.049870  1.0  0.0992
  H  H235  1  0.462000  0.731000  0.438000  1.0  0.1211
  H  H236  1  0.128670  0.064330  0.771330  1.0  0.1211
  H  H237  1  0.795330  0.397670  0.104670  1.0  0.1211
  H  H238  1  0.269000  0.731000  0.438000  1.0  0.1219
  H  H239  1  0.935670  0.064330  0.771330  1.0  0.1229
  H  H240  1  0.602330  0.397670  0.104670  1.0  0.1219
  H  H241  1  0.269000  0.538000  0.438000  1.0  0.1201
  H  H242  1  0.935670  0.871330  0.771330  1.0  0.1201
  H  H243  1  0.602330  0.204670  0.104670  1.0  0.1201
  H  H244  1  0.731000  0.462000  0.562000  1.0  0.1207
  H  H245  1  0.397670  0.795330  0.895330  1.0  0.1207
  H  H246  1  0.064330  0.128670  0.228670  1.0  0.1207
  H  H247  1  0.731000  0.269000  0.562000  1.0  0.1217
  H  H248  1  0.397670  0.602330  0.895330  1.0  0.1217
  H  H249  1  0.064330  0.935670  0.228670  1.0  0.1225
  H  H250  1  0.538000  0.269000  0.562000  1.0  0.1212
  H  H251  1  0.204670  0.602330  0.895330  1.0  0.1212
  H  H252  1  0.871330  0.935670  0.228670  1.0  0.1212
  C  C253  1  0.523240  0.945550  0.468670  1.0  0.6681
  C  C254  1  0.537450  0.913260  0.450290  1.0  -0.128
  C  C255  1  0.537720  0.884980  0.498720  1.0  -0.0675
  C  C256  1  0.551690  0.855600  0.481270  1.0  -0.0961
  C  C257  1  0.565750  0.854670  0.418600  1.0  0.0374
  C  C258  1  0.564450  0.882760  0.370990  1.0  -0.158
  C  C259  1  0.550760  0.912020  0.387760  1.0  -0.0477
  C  C260  1  0.585560  0.827130  0.401480  1.0  -0.0534
  C  C261  1  0.624250  0.845820  0.367750  1.0  -0.1432
  C  C262  1  0.189910  0.278880  0.802000  1.0  0.6681
  C  C263  1  0.204120  0.246590  0.783620  1.0  -0.128
  C  C264  1  0.204390  0.218310  0.832050  1.0  -0.0676
  C  C265  1  0.218360  0.188930  0.814600  1.0  -0.0961
  C  C266  1  0.232420  0.188000  0.751930  1.0  0.0374
  C  C267  1  0.231120  0.216090  0.704320  1.0  -0.158
  C  C268  1  0.217430  0.245350  0.721090  1.0  -0.0477
  C  C269  1  0.252230  0.160460  0.734810  1.0  -0.0535
  C  C270  1  0.290920  0.179150  0.701080  1.0  -0.1409
  C  C271  1  0.856570  0.612220  0.135340  1.0  0.6681
  C  C272  1  0.870780  0.579930  0.116960  1.0  -0.128
  C  C273  1  0.871050  0.551650  0.165390  1.0  -0.0675
  C  C274  1  0.885020  0.522270  0.147940  1.0  -0.0961
  C  C275  1  0.899080  0.521340  0.085270  1.0  0.0374
  C  C276  1  0.897780  0.549430  0.037660  1.0  -0.158
  C  C277  1  0.884090  0.578690  0.054430  1.0  -0.0477
  C  C278  1  0.918890  0.493800  0.068150  1.0  -0.0534
  C  C279  1  0.957580  0.512490  0.034420  1.0  -0.1435
  C  C280  1  0.054450  0.577690  0.468670  1.0  0.6684
  C  C281  1  0.086740  0.624190  0.450290  1.0  -0.1285
  C  C282  1  0.115020  0.652740  0.498720  1.0  -0.0671
  C  C283  1  0.144400  0.696090  0.481270  1.0  -0.097
  C  C284  1  0.145330  0.711080  0.418600  1.0  0.0375
  C  C285  1  0.117240  0.681690  0.370990  1.0  -0.1582
  C  C286  1  0.087980  0.638740  0.387760  1.0  -0.0476
  C  C287  1  0.172870  0.758430  0.401480  1.0  -0.0535
  C  C288  1  0.154180  0.778430  0.367750  1.0  -0.1461
  C  C289  1  0.721120  0.911020  0.802000  1.0  0.6684
  C  C290  1  0.753410  0.957520  0.783620  1.0  -0.1285
  C  C291  1  0.781690  0.986070  0.832050  1.0  -0.0671
  C  C292  1  0.811070  0.029420  0.814600  1.0  -0.097
  C  C293  1  0.812000  0.044410  0.751930  1.0  0.0375
  C  C294  1  0.783910  0.015020  0.704320  1.0  -0.1582
  C  C295  1  0.754650  0.972070  0.721090  1.0  -0.0476
  C  C296  1  0.839540  0.091760  0.734810  1.0  -0.0537
  C  C297  1  0.820850  0.111760  0.701080  1.0  -0.1459
  C  C298  1  0.387780  0.244360  0.135340  1.0  0.6684
  C  C299  1  0.420070  0.290860  0.116960  1.0  -0.1285
  C  C300  1  0.448350  0.319410  0.165390  1.0  -0.0671
  C  C301  1  0.477730  0.362760  0.147940  1.0  -0.097
  C  C302  1  0.478660  0.377750  0.085270  1.0  0.0375
  C  C303  1  0.450570  0.348360  0.037660  1.0  -0.1582
  C  C304  1  0.421310  0.305410  0.054430  1.0  -0.0476
  C  C305  1  0.506200  0.425100  0.068150  1.0  -0.0535
  C  C306  1  0.487510  0.445100  0.034420  1.0  -0.146
  C  C307  1  0.422310  0.476760  0.468670  1.0  0.6679
  C  C308  1  0.375810  0.462550  0.450290  1.0  -0.1294
  C  C309  1  0.347260  0.462280  0.498720  1.0  -0.067
  C  C310  1  0.303910  0.448310  0.481270  1.0  -0.0975
  C  C311  1  0.288920  0.434250  0.418600  1.0  0.0373
  C  C312  1  0.318310  0.435550  0.370990  1.0  -0.1561
  C  C313  1  0.361260  0.449240  0.387760  1.0  -0.0466
  C  C314  1  0.241570  0.414440  0.401480  1.0  -0.0512
  C  C315  1  0.221570  0.375750  0.367750  1.0  -0.1453
  C  C316  1  0.088980  0.810090  0.802000  1.0  0.6679
  C  C317  1  0.042480  0.795880  0.783620  1.0  -0.1294
  C  C318  1  0.013930  0.795610  0.832050  1.0  -0.067
  C  C319  1  0.970580  0.781640  0.814600  1.0  -0.0975
  C  C320  1  0.955590  0.767580  0.751930  1.0  0.0373
  C  C321  1  0.984980  0.768880  0.704320  1.0  -0.1561
  C  C322  1  0.027930  0.782570  0.721090  1.0  -0.0466
  C  C323  1  0.908240  0.747770  0.734810  1.0  -0.0512
  C  C324  1  0.888240  0.709080  0.701080  1.0  -0.1462
  C  C325  1  0.755640  0.143430  0.135340  1.0  0.6679
  C  C326  1  0.709140  0.129220  0.116960  1.0  -0.1294
  C  C327  1  0.680590  0.128950  0.165390  1.0  -0.067
  C  C328  1  0.637240  0.114980  0.147940  1.0  -0.0975
  C  C329  1  0.622250  0.100920  0.085270  1.0  0.0373
  C  C330  1  0.651640  0.102220  0.037660  1.0  -0.1561
  C  C331  1  0.694590  0.115910  0.054430  1.0  -0.0466
  C  C332  1  0.574900  0.081110  0.068150  1.0  -0.0512
  C  C333  1  0.554900  0.042420  0.034420  1.0  -0.1454
  C  C334  1  0.945550  0.523240  0.531330  1.0  0.6676
  C  C335  1  0.913260  0.537450  0.549710  1.0  -0.1293
  C  C336  1  0.884980  0.537720  0.501280  1.0  -0.0647
  C  C337  1  0.855600  0.551690  0.518730  1.0  -0.096
  C  C338  1  0.854670  0.565750  0.581400  1.0  0.0375
  C  C339  1  0.882760  0.564450  0.629010  1.0  -0.1582
  C  C340  1  0.912020  0.550760  0.612240  1.0  -0.0463
  C  C341  1  0.827130  0.585560  0.598520  1.0  -0.051
  C  C342  1  0.845820  0.624250  0.632250  1.0  -0.1469
  C  C343  1  0.612220  0.856570  0.864660  1.0  0.6676
  C  C344  1  0.579930  0.870780  0.883040  1.0  -0.1293
  C  C345  1  0.551650  0.871050  0.834610  1.0  -0.0647
  C  C346  1  0.522270  0.885020  0.852060  1.0  -0.096
  C  C347  1  0.521340  0.899080  0.914730  1.0  0.0375
  C  C348  1  0.549430  0.897780  0.962340  1.0  -0.1582
  C  C349  1  0.578690  0.884090  0.945570  1.0  -0.0463
  C  C350  1  0.493800  0.918890  0.931850  1.0  -0.051
  C  C351  1  0.512490  0.957580  0.965580  1.0  -0.147
  C  C352  1  0.278880  0.189910  0.198000  1.0  0.6676
  C  C353  1  0.246590  0.204120  0.216380  1.0  -0.1293
  C  C354  1  0.218310  0.204390  0.167950  1.0  -0.0647
  C  C355  1  0.188930  0.218360  0.185400  1.0  -0.096
  C  C356  1  0.188000  0.232420  0.248070  1.0  0.0375
  C  C357  1  0.216090  0.231120  0.295680  1.0  -0.1582
  C  C358  1  0.245350  0.217430  0.278910  1.0  -0.0463
  C  C359  1  0.160460  0.252230  0.265190  1.0  -0.0511
  C  C360  1  0.179150  0.290920  0.298920  1.0  -0.1454
  C  C361  1  0.577690  0.054450  0.531330  1.0  0.6679
  C  C362  1  0.624190  0.086740  0.549710  1.0  -0.1285
  C  C363  1  0.652740  0.115020  0.501280  1.0  -0.0644
  C  C364  1  0.696090  0.144400  0.518730  1.0  -0.0961
  C  C365  1  0.711080  0.145330  0.581400  1.0  0.0375
  C  C366  1  0.681690  0.117240  0.629010  1.0  -0.1595
  C  C367  1  0.638740  0.087980  0.612240  1.0  -0.048
  C  C368  1  0.758430  0.172870  0.598520  1.0  -0.0537
  C  C369  1  0.778430  0.154180  0.632250  1.0  -0.1445
  C  C370  1  0.244360  0.387780  0.864660  1.0  0.6679
  C  C371  1  0.290860  0.420070  0.883040  1.0  -0.1285
  C  C372  1  0.319410  0.448350  0.834610  1.0  -0.0644
  C  C373  1  0.362760  0.477730  0.852060  1.0  -0.0961
  C  C374  1  0.377750  0.478660  0.914730  1.0  0.0375
  C  C375  1  0.348360  0.450570  0.962340  1.0  -0.1595
  C  C376  1  0.305410  0.421310  0.945570  1.0  -0.048
  C  C377  1  0.425100  0.506200  0.931850  1.0  -0.0537
  C  C378  1  0.445100  0.487510  0.965580  1.0  -0.1443
  C  C379  1  0.911020  0.721120  0.198000  1.0  0.6679
  C  C380  1  0.957520  0.753410  0.216380  1.0  -0.1285
  C  C381  1  0.986070  0.781690  0.167950  1.0  -0.0644
  C  C382  1  0.029420  0.811070  0.185400  1.0  -0.0961
  C  C383  1  0.044410  0.812000  0.248070  1.0  0.0375
  C  C384  1  0.015020  0.783910  0.295680  1.0  -0.1595
  C  C385  1  0.972070  0.754650  0.278910  1.0  -0.048
  C  C386  1  0.091760  0.839540  0.265190  1.0  -0.0538
  C  C387  1  0.111760  0.820850  0.298920  1.0  -0.1443
  C  C388  1  0.476760  0.422310  0.531330  1.0  0.6685
  C  C389  1  0.462550  0.375810  0.549710  1.0  -0.1274
  C  C390  1  0.462280  0.347260  0.501280  1.0  -0.0655
  C  C391  1  0.448310  0.303910  0.518730  1.0  -0.0957
  C  C392  1  0.434250  0.288920  0.581400  1.0  0.0376
  C  C393  1  0.435550  0.318310  0.629010  1.0  -0.159
  C  C394  1  0.449240  0.361260  0.612240  1.0  -0.0475
  C  C395  1  0.414440  0.241570  0.598520  1.0  -0.0525
  C  C396  1  0.375750  0.221570  0.632250  1.0  -0.1445
  C  C397  1  0.143430  0.755640  0.864660  1.0  0.6685
  C  C398  1  0.129220  0.709140  0.883040  1.0  -0.1274
  C  C399  1  0.128950  0.680590  0.834610  1.0  -0.0655
  C  C400  1  0.114980  0.637240  0.852060  1.0  -0.0957
  C  C401  1  0.100920  0.622250  0.914730  1.0  0.0376
  C  C402  1  0.102220  0.651640  0.962340  1.0  -0.159
  C  C403  1  0.115910  0.694590  0.945570  1.0  -0.0475
  C  C404  1  0.081110  0.574900  0.931850  1.0  -0.0524
  C  C405  1  0.042420  0.554900  0.965580  1.0  -0.1445
  C  C406  1  0.810090  0.088980  0.198000  1.0  0.6685
  C  C407  1  0.795880  0.042480  0.216380  1.0  -0.1274
  C  C408  1  0.795610  0.013930  0.167950  1.0  -0.0655
  C  C409  1  0.781640  0.970580  0.185400  1.0  -0.0957
  C  C410  1  0.767580  0.955590  0.248070  1.0  0.0376
  C  C411  1  0.768880  0.984980  0.295680  1.0  -0.159
  C  C412  1  0.782570  0.027930  0.278910  1.0  -0.0475
  C  C413  1  0.747770  0.908240  0.265190  1.0  -0.0524
  C  C414  1  0.709080  0.888240  0.298920  1.0  -0.1465
  C  C415  1  0.476760  0.054450  0.531330  1.0  0.6676
  C  C416  1  0.462550  0.086740  0.549710  1.0  -0.1285
  C  C417  1  0.462280  0.115020  0.501280  1.0  -0.0654
  C  C418  1  0.448310  0.144400  0.518730  1.0  -0.0962
  C  C419  1  0.434250  0.145330  0.581400  1.0  0.038
  C  C420  1  0.435550  0.117240  0.629010  1.0  -0.1609
  C  C421  1  0.449240  0.087980  0.612240  1.0  -0.0475
  C  C422  1  0.414440  0.172870  0.598520  1.0  -0.0525
  C  C423  1  0.375750  0.154180  0.632250  1.0  -0.1447
  C  C424  1  0.143430  0.387780  0.864660  1.0  0.6676
  C  C425  1  0.129220  0.420070  0.883040  1.0  -0.1285
  C  C426  1  0.128950  0.448350  0.834610  1.0  -0.0653
  C  C427  1  0.114980  0.477730  0.852060  1.0  -0.0962
  C  C428  1  0.100920  0.478660  0.914730  1.0  0.038
  C  C429  1  0.102220  0.450570  0.962340  1.0  -0.1609
  C  C430  1  0.115910  0.421310  0.945570  1.0  -0.0475
  C  C431  1  0.081110  0.506200  0.931850  1.0  -0.0525
  C  C432  1  0.042420  0.487510  0.965580  1.0  -0.1449
  C  C433  1  0.810090  0.721120  0.198000  1.0  0.6676
  C  C434  1  0.795880  0.753410  0.216380  1.0  -0.1285
  C  C435  1  0.795610  0.781690  0.167950  1.0  -0.0654
  C  C436  1  0.781640  0.811070  0.185400  1.0  -0.0962
  C  C437  1  0.767580  0.812000  0.248070  1.0  0.0379
  C  C438  1  0.768880  0.783910  0.295680  1.0  -0.1609
  C  C439  1  0.782570  0.754650  0.278910  1.0  -0.0475
  C  C440  1  0.747770  0.839540  0.265190  1.0  -0.0526
  C  C441  1  0.709080  0.820850  0.298920  1.0  -0.1422
  C  C442  1  0.945550  0.422310  0.531330  1.0  0.668
  C  C443  1  0.913260  0.375810  0.549710  1.0  -0.1272
  C  C444  1  0.884980  0.347260  0.501280  1.0  -0.0651
  C  C445  1  0.855600  0.303910  0.518730  1.0  -0.0954
  C  C446  1  0.854670  0.288920  0.581400  1.0  0.038
  C  C447  1  0.882760  0.318310  0.629010  1.0  -0.1588
  C  C448  1  0.912020  0.361260  0.612240  1.0  -0.0462
  C  C449  1  0.827130  0.241570  0.598520  1.0  -0.0512
  C  C450  1  0.845820  0.221570  0.632250  1.0  -0.1466
  C  C451  1  0.612220  0.755640  0.864660  1.0  0.6681
  C  C452  1  0.579930  0.709140  0.883040  1.0  -0.1272
  C  C453  1  0.551650  0.680590  0.834610  1.0  -0.0651
  C  C454  1  0.522270  0.637240  0.852060  1.0  -0.0954
  C  C455  1  0.521340  0.622250  0.914730  1.0  0.038
  C  C456  1  0.549430  0.651640  0.962340  1.0  -0.1588
  C  C457  1  0.578690  0.694590  0.945570  1.0  -0.0462
  C  C458  1  0.493800  0.574900  0.931850  1.0  -0.0513
  C  C459  1  0.512490  0.554900  0.965580  1.0  -0.1465
  C  C460  1  0.278880  0.088980  0.198000  1.0  0.668
  C  C461  1  0.246590  0.042480  0.216380  1.0  -0.1272
  C  C462  1  0.218310  0.013930  0.167950  1.0  -0.0651
  C  C463  1  0.188930  0.970580  0.185400  1.0  -0.0954
  C  C464  1  0.188000  0.955590  0.248070  1.0  0.038
  C  C465  1  0.216090  0.984980  0.295680  1.0  -0.1588
  C  C466  1  0.245350  0.027930  0.278910  1.0  -0.0462
  C  C467  1  0.160460  0.908240  0.265190  1.0  -0.0514
  C  C468  1  0.179150  0.888240  0.298920  1.0  -0.1464
  C  C469  1  0.577690  0.523240  0.531330  1.0  0.6679
  C  C470  1  0.624190  0.537450  0.549710  1.0  -0.1288
  C  C471  1  0.652740  0.537720  0.501280  1.0  -0.0644
  C  C472  1  0.696090  0.551690  0.518730  1.0  -0.0955
  C  C473  1  0.711080  0.565750  0.581400  1.0  0.0377
  C  C474  1  0.681690  0.564450  0.629010  1.0  -0.1578
  C  C475  1  0.638740  0.550760  0.612240  1.0  -0.0466
  C  C476  1  0.758430  0.585560  0.598520  1.0  -0.0521
  C  C477  1  0.778430  0.624250  0.632250  1.0  -0.1444
  C  C478  1  0.244360  0.856570  0.864660  1.0  0.6679
  C  C479  1  0.290860  0.870780  0.883040  1.0  -0.1288
  C  C480  1  0.319410  0.871050  0.834610  1.0  -0.0644
  C  C481  1  0.362760  0.885020  0.852060  1.0  -0.0955
  C  C482  1  0.377750  0.899080  0.914730  1.0  0.0377
  C  C483  1  0.348360  0.897780  0.962340  1.0  -0.1578
  C  C484  1  0.305410  0.884090  0.945570  1.0  -0.0466
  C  C485  1  0.425100  0.918890  0.931850  1.0  -0.0521
  C  C486  1  0.445100  0.957580  0.965580  1.0  -0.1444
  C  C487  1  0.911020  0.189910  0.198000  1.0  0.6679
  C  C488  1  0.957520  0.204120  0.216380  1.0  -0.1288
  C  C489  1  0.986070  0.204390  0.167950  1.0  -0.0644
  C  C490  1  0.029420  0.218360  0.185400  1.0  -0.0955
  C  C491  1  0.044410  0.232420  0.248070  1.0  0.0377
  C  C492  1  0.015020  0.231120  0.295680  1.0  -0.1578
  C  C493  1  0.972070  0.217430  0.278910  1.0  -0.0466
  C  C494  1  0.091760  0.252230  0.265190  1.0  -0.0521
  C  C495  1  0.111760  0.290920  0.298920  1.0  -0.1468
  C  C496  1  0.054450  0.476760  0.468670  1.0  0.6682
  C  C497  1  0.086740  0.462550  0.450290  1.0  -0.1285
  C  C498  1  0.115020  0.462280  0.498720  1.0  -0.0677
  C  C499  1  0.144400  0.448310  0.481270  1.0  -0.096
  C  C500  1  0.145330  0.434250  0.418600  1.0  0.0374
  C  C501  1  0.117240  0.435550  0.370990  1.0  -0.1563
  C  C502  1  0.087980  0.449240  0.387760  1.0  -0.0463
  C  C503  1  0.172870  0.414440  0.401480  1.0  -0.0523
  C  C504  1  0.154180  0.375750  0.367750  1.0  -0.1458
  C  C505  1  0.721120  0.810090  0.802000  1.0  0.6682
  C  C506  1  0.753410  0.795880  0.783620  1.0  -0.1285
  C  C507  1  0.781690  0.795610  0.832050  1.0  -0.0677
  C  C508  1  0.811070  0.781640  0.814600  1.0  -0.096
  C  C509  1  0.812000  0.767580  0.751930  1.0  0.0374
  C  C510  1  0.783910  0.768880  0.704320  1.0  -0.1563
  C  C511  1  0.754650  0.782570  0.721090  1.0  -0.0463
  C  C512  1  0.839540  0.747770  0.734810  1.0  -0.0524
  C  C513  1  0.820850  0.709080  0.701080  1.0  -0.1433
  C  C514  1  0.387780  0.143430  0.135340  1.0  0.6682
  C  C515  1  0.420070  0.129220  0.116960  1.0  -0.1285
  C  C516  1  0.448350  0.128950  0.165390  1.0  -0.0677
  C  C517  1  0.477730  0.114980  0.147940  1.0  -0.096
  C  C518  1  0.478660  0.100920  0.085270  1.0  0.0374
  C  C519  1  0.450570  0.102220  0.037660  1.0  -0.1563
  C  C520  1  0.421310  0.115910  0.054430  1.0  -0.0463
  C  C521  1  0.506200  0.081110  0.068150  1.0  -0.0523
  C  C522  1  0.487510  0.042420  0.034420  1.0  -0.146
  C  C523  1  0.422310  0.945550  0.468670  1.0  0.6679
  C  C524  1  0.375810  0.913260  0.450290  1.0  -0.1288
  C  C525  1  0.347260  0.884980  0.498720  1.0  -0.0674
  C  C526  1  0.303910  0.855600  0.481270  1.0  -0.0978
  C  C527  1  0.288920  0.854670  0.418600  1.0  0.0378
  C  C528  1  0.318310  0.882760  0.370990  1.0  -0.1582
  C  C529  1  0.361260  0.912020  0.387760  1.0  -0.0477
  C  C530  1  0.241570  0.827130  0.401480  1.0  -0.0525
  C  C531  1  0.221570  0.845820  0.367750  1.0  -0.1434
  C  C532  1  0.088980  0.278880  0.802000  1.0  0.6679
  C  C533  1  0.042480  0.246590  0.783620  1.0  -0.1288
  C  C534  1  0.013930  0.218310  0.832050  1.0  -0.0674
  C  C535  1  0.970580  0.188930  0.814600  1.0  -0.0978
  C  C536  1  0.955590  0.188000  0.751930  1.0  0.0378
  C  C537  1  0.984980  0.216090  0.704320  1.0  -0.1582
  C  C538  1  0.027930  0.245350  0.721090  1.0  -0.0477
  C  C539  1  0.908240  0.160460  0.734810  1.0  -0.0528
  C  C540  1  0.888240  0.179150  0.701080  1.0  -0.1431
  C  C541  1  0.755640  0.612220  0.135340  1.0  0.6679
  C  C542  1  0.709140  0.579930  0.116960  1.0  -0.1288
  C  C543  1  0.680590  0.551650  0.165390  1.0  -0.0674
  C  C544  1  0.637240  0.522270  0.147940  1.0  -0.0978
  C  C545  1  0.622250  0.521340  0.085270  1.0  0.0378
  C  C546  1  0.651640  0.549430  0.037660  1.0  -0.1582
  C  C547  1  0.694590  0.578690  0.054430  1.0  -0.0477
  C  C548  1  0.574900  0.493800  0.068150  1.0  -0.0524
  C  C549  1  0.554900  0.512490  0.034420  1.0  -0.1431
  C  C550  1  0.523240  0.577690  0.468670  1.0  0.6678
  C  C551  1  0.537450  0.624190  0.450290  1.0  -0.1281
  C  C552  1  0.537720  0.652740  0.498720  1.0  -0.0674
  C  C553  1  0.551690  0.696090  0.481270  1.0  -0.0975
  C  C554  1  0.565750  0.711080  0.418600  1.0  0.0377
  C  C555  1  0.564450  0.681690  0.370990  1.0  -0.1583
  C  C556  1  0.550760  0.638740  0.387760  1.0  -0.0478
  C  C557  1  0.585560  0.758430  0.401480  1.0  -0.0525
  C  C558  1  0.624250  0.778430  0.367750  1.0  -0.1451
  C  C559  1  0.189910  0.911020  0.802000  1.0  0.6678
  C  C560  1  0.204120  0.957520  0.783620  1.0  -0.1281
  C  C561  1  0.204390  0.986070  0.832050  1.0  -0.0674
  C  C562  1  0.218360  0.029420  0.814600  1.0  -0.0975
  C  C563  1  0.232420  0.044410  0.751930  1.0  0.0377
  C  C564  1  0.231120  0.015020  0.704320  1.0  -0.1583
  C  C565  1  0.217430  0.972070  0.721090  1.0  -0.0479
  C  C566  1  0.252230  0.091760  0.734810  1.0  -0.0524
  C  C567  1  0.290920  0.111760  0.701080  1.0  -0.1464
  C  C568  1  0.856570  0.244360  0.135340  1.0  0.6678
  C  C569  1  0.870780  0.290860  0.116960  1.0  -0.1281
  C  C570  1  0.871050  0.319410  0.165390  1.0  -0.0674
  C  C571  1  0.885020  0.362760  0.147940  1.0  -0.0975
  C  C572  1  0.899080  0.377750  0.085270  1.0  0.0377
  C  C573  1  0.897780  0.348360  0.037660  1.0  -0.1583
  C  C574  1  0.884090  0.305410  0.054430  1.0  -0.0478
  C  C575  1  0.918890  0.425100  0.068150  1.0  -0.0524
  C  C576  1  0.957580  0.445100  0.034420  1.0  -0.1451
  C  C577  1  0.645480  0.822740  0.349260  1.0  0.027
  C  C578  1  0.565510  0.782750  0.418980  1.0  0.2006
  C  C579  1  0.488610  0.744300  0.411100  1.0  -0.0225
  C  C580  1  0.312150  0.156070  0.682590  1.0  0.027
  C  C581  1  0.232180  0.116090  0.752310  1.0  0.2006
  C  C582  1  0.155280  0.077640  0.744430  1.0  -0.0225
  C  C583  1  0.978810  0.489410  0.015930  1.0  0.0269
  C  C584  1  0.898840  0.449420  0.085650  1.0  0.2006
  C  C585  1  0.821940  0.410970  0.077770  1.0  -0.0225
  C  C586  1  0.177260  0.822740  0.349260  1.0  0.033
  C  C587  1  0.217250  0.782750  0.418980  1.0  0.2068
  C  C588  1  0.255700  0.744300  0.411100  1.0  -0.0213
  C  C589  1  0.843930  0.156070  0.682590  1.0  0.0331
  C  C590  1  0.883910  0.116090  0.752310  1.0  0.2073
  C  C591  1  0.922360  0.077640  0.744430  1.0  -0.0197
  C  C592  1  0.510590  0.489410  0.015930  1.0  0.033
  C  C593  1  0.550580  0.449420  0.085650  1.0  0.2068
  C  C594  1  0.589030  0.410970  0.077770  1.0  -0.0213
  C  C595  1  0.177260  0.354520  0.349260  1.0  0.0286
  C  C596  1  0.217240  0.434490  0.418980  1.0  0.2013
  C  C597  1  0.255700  0.511390  0.411100  1.0  -0.0196
  C  C598  1  0.843930  0.687850  0.682590  1.0  0.0285
  C  C599  1  0.883910  0.767820  0.752310  1.0  0.2013
  C  C600  1  0.922360  0.844720  0.744430  1.0  -0.0196
  C  C601  1  0.510590  0.021190  0.015930  1.0  0.0284
  C  C602  1  0.550580  0.101160  0.085650  1.0  0.2013
  C  C603  1  0.589030  0.178060  0.077770  1.0  -0.0196
  C  C604  1  0.822740  0.645480  0.650740  1.0  0.0289
  C  C605  1  0.782750  0.565510  0.581020  1.0  0.2018
  C  C606  1  0.744300  0.488610  0.588900  1.0  -0.0192
  C  C607  1  0.489410  0.978810  0.984070  1.0  0.0288
  C  C608  1  0.449420  0.898840  0.914350  1.0  0.2018
  C  C609  1  0.410970  0.821940  0.922230  1.0  -0.0192
  C  C610  1  0.156070  0.312150  0.317410  1.0  0.0288
  C  C611  1  0.116090  0.232180  0.247690  1.0  0.2018
  C  C612  1  0.077640  0.155280  0.255570  1.0  -0.0191
  C  C613  1  0.822740  0.177260  0.650740  1.0  0.0323
  C  C614  1  0.782750  0.217250  0.581020  1.0  0.2081
  C  C615  1  0.744300  0.255700  0.588900  1.0  -0.0233
  C  C616  1  0.489410  0.510590  0.984070  1.0  0.0322
  C  C617  1  0.449420  0.550580  0.914350  1.0  0.2081
  C  C618  1  0.410970  0.589030  0.922230  1.0  -0.0233
  C  C619  1  0.156070  0.843930  0.317410  1.0  0.0324
  C  C620  1  0.116090  0.883910  0.247690  1.0  0.2085
  C  C621  1  0.077640  0.922360  0.255570  1.0  -0.022
  C  C622  1  0.354520  0.177260  0.650740  1.0  0.0265
  C  C623  1  0.434490  0.217250  0.581020  1.0  0.2012
  C  C624  1  0.511390  0.255700  0.588900  1.0  -0.0227
  C  C625  1  0.021190  0.510590  0.984070  1.0  0.0263
  C  C626  1  0.101160  0.550580  0.914350  1.0  0.2012
  C  C627  1  0.178060  0.589030  0.922230  1.0  -0.0227
  C  C628  1  0.687850  0.843930  0.317410  1.0  0.0264
  C  C629  1  0.767820  0.883910  0.247690  1.0  0.2012
  C  C630  1  0.844720  0.922360  0.255570  1.0  -0.0228
  O  O631  1  0.524330  0.970770  0.424020  1.0  -0.564
  O  O632  1  0.511470  0.944880  0.527790  1.0  -0.5654
  O  O633  1  0.191000  0.304100  0.757350  1.0  -0.564
  O  O634  1  0.178140  0.278210  0.861120  1.0  -0.5641
  O  O635  1  0.857660  0.637440  0.090690  1.0  -0.5654
  O  O636  1  0.844800  0.611550  0.194460  1.0  -0.5653
  O  O637  1  0.029230  0.553560  0.424020  1.0  -0.564
  O  O638  1  0.055120  0.566590  0.527790  1.0  -0.5633
  O  O639  1  0.695900  0.886890  0.757350  1.0  -0.564
  O  O640  1  0.721790  0.899920  0.861120  1.0  -0.5648
  O  O641  1  0.362560  0.220230  0.090690  1.0  -0.5635
  O  O642  1  0.388450  0.233260  0.194460  1.0  -0.5633
  O  O643  1  0.446440  0.475670  0.424020  1.0  -0.5628
  O  O644  1  0.433410  0.488530  0.527790  1.0  -0.5641
  O  O645  1  0.113110  0.809000  0.757350  1.0  -0.5629
  O  O646  1  0.100080  0.821860  0.861120  1.0  -0.5641
  O  O647  1  0.779770  0.142340  0.090690  1.0  -0.5628
  O  O648  1  0.766740  0.155200  0.194460  1.0  -0.5641
  O  O649  1  0.970770  0.524330  0.575980  1.0  -0.5617
  O  O650  1  0.944880  0.511470  0.472210  1.0  -0.5663
  O  O651  1  0.637440  0.857660  0.909310  1.0  -0.5625
  O  O652  1  0.611550  0.844800  0.805540  1.0  -0.5661
  O  O653  1  0.304100  0.191000  0.242650  1.0  -0.5617
  O  O654  1  0.278210  0.178140  0.138880  1.0  -0.565
  O  O655  1  0.553560  0.029230  0.575980  1.0  -0.5634
  O  O656  1  0.566590  0.055120  0.472210  1.0  -0.5648
  O  O657  1  0.220230  0.362560  0.909310  1.0  -0.5636
  O  O658  1  0.233260  0.388450  0.805540  1.0  -0.5648
  O  O659  1  0.886890  0.695900  0.242650  1.0  -0.5634
  O  O660  1  0.899920  0.721790  0.138880  1.0  -0.5664
  O  O661  1  0.475670  0.446440  0.575980  1.0  -0.563
  O  O662  1  0.488530  0.433410  0.472210  1.0  -0.5642
  O  O663  1  0.142340  0.779770  0.909310  1.0  -0.563
  O  O664  1  0.155200  0.766740  0.805540  1.0  -0.5643
  O  O665  1  0.809000  0.113110  0.242650  1.0  -0.563
  O  O666  1  0.821860  0.100080  0.138880  1.0  -0.5641
  O  O667  1  0.475670  0.029230  0.575980  1.0  -0.5627
  O  O668  1  0.488530  0.055120  0.472210  1.0  -0.5663
  O  O669  1  0.142340  0.362560  0.909310  1.0  -0.5635
  O  O670  1  0.155200  0.388450  0.805540  1.0  -0.5662
  O  O671  1  0.809000  0.695900  0.242650  1.0  -0.5627
  O  O672  1  0.821860  0.721790  0.138880  1.0  -0.5652
  O  O673  1  0.970770  0.446440  0.575980  1.0  -0.5621
  O  O674  1  0.944880  0.433410  0.472210  1.0  -0.564
  O  O675  1  0.637440  0.779770  0.909310  1.0  -0.562
  O  O676  1  0.611550  0.766740  0.805540  1.0  -0.5642
  O  O677  1  0.304100  0.113110  0.242650  1.0  -0.5621
  O  O678  1  0.278210  0.100080  0.138880  1.0  -0.5657
  O  O679  1  0.553560  0.524330  0.575980  1.0  -0.5616
  O  O680  1  0.566590  0.511470  0.472210  1.0  -0.5653
  O  O681  1  0.220230  0.857660  0.909310  1.0  -0.5616
  O  O682  1  0.233260  0.844800  0.805540  1.0  -0.5654
  O  O683  1  0.886890  0.191000  0.242650  1.0  -0.5617
  O  O684  1  0.899920  0.178140  0.138880  1.0  -0.5652
  O  O685  1  0.029230  0.475670  0.424020  1.0  -0.5627
  O  O686  1  0.055120  0.488530  0.527790  1.0  -0.5646
  O  O687  1  0.695900  0.809000  0.757350  1.0  -0.5627
  O  O688  1  0.721790  0.821860  0.861120  1.0  -0.5635
  O  O689  1  0.362560  0.142340  0.090690  1.0  -0.5642
  O  O690  1  0.388450  0.155200  0.194460  1.0  -0.5646
  O  O691  1  0.446440  0.970770  0.424020  1.0  -0.5639
  O  O692  1  0.433410  0.944880  0.527790  1.0  -0.5643
  O  O693  1  0.113110  0.304100  0.757350  1.0  -0.5639
  O  O694  1  0.100080  0.278210  0.861120  1.0  -0.5658
  O  O695  1  0.779770  0.637440  0.090690  1.0  -0.5633
  O  O696  1  0.766740  0.611550  0.194460  1.0  -0.5643
  O  O697  1  0.524330  0.553560  0.424020  1.0  -0.5634
  O  O698  1  0.511470  0.566590  0.527790  1.0  -0.5639
  O  O699  1  0.191000  0.886890  0.757350  1.0  -0.5635
  O  O700  1  0.178140  0.899920  0.861120  1.0  -0.5639
  O  O701  1  0.857660  0.220230  0.090690  1.0  -0.5635
  O  O702  1  0.844800  0.233260  0.194460  1.0  -0.5639
  O  O703  1  0.526430  0.763210  0.453140  1.0  -0.2756
  O  O704  1  0.193100  0.096550  0.786470  1.0  -0.2756
  O  O705  1  0.859760  0.429880  0.119810  1.0  -0.2756
  O  O706  1  0.236790  0.763210  0.453140  1.0  -0.276
  O  O707  1  0.903450  0.096550  0.786470  1.0  -0.2762
  O  O708  1  0.570120  0.429880  0.119810  1.0  -0.276
  O  O709  1  0.236790  0.473570  0.453140  1.0  -0.2774
  O  O710  1  0.903450  0.806900  0.786470  1.0  -0.2774
  O  O711  1  0.570120  0.140240  0.119810  1.0  -0.2774
  O  O712  1  0.763210  0.526430  0.546860  1.0  -0.2758
  O  O713  1  0.429880  0.859760  0.880190  1.0  -0.2758
  O  O714  1  0.096550  0.193100  0.213530  1.0  -0.2758
  O  O715  1  0.763210  0.236790  0.546860  1.0  -0.2719
  O  O716  1  0.429880  0.570120  0.880190  1.0  -0.2719
  O  O717  1  0.096550  0.903450  0.213530  1.0  -0.2721
  O  O718  1  0.473570  0.236790  0.546860  1.0  -0.2717
  O  O719  1  0.140240  0.570120  0.880190  1.0  -0.2717
  O  O720  1  0.806900  0.903450  0.213530  1.0  -0.2717
