# generated using pymatgen
data_CuH13C21O5
_symmetry_space_group_name_H-M   'P 1'
_cell_length_a   35.01980000
_cell_length_b   35.01980000
_cell_length_c   22.90200000
_cell_angle_alpha   90.00000000
_cell_angle_beta   90.00000000
_cell_angle_gamma   120.00000000
_symmetry_Int_Tables_number   1
_chemical_formula_structural   CuH13C21O5
_chemical_formula_sum   'Cu18 H234 C378 O90'
_cell_volume   24323.79670483
_cell_formula_units_Z   18
loop_
 _symmetry_equiv_pos_site_id
 _symmetry_equiv_pos_as_xyz
  1  'x, y, z'
loop_
 _atom_site_type_symbol
 _atom_site_label
 _atom_site_symmetry_multiplicity
 _atom_site_fract_x
 _atom_site_fract_y
 _atom_site_fract_z
 _atom_site_occupancy
 _atom_site_charge
  Cu  Cu1  1  0.175030  0.350070  0.280060  1.0  0.8826
  Cu  Cu2  1  0.841700  0.683400  0.613390  1.0  0.8871
  Cu  Cu3  1  0.508370  0.016740  0.946730  1.0  0.8871
  Cu  Cu4  1  0.649930  0.824970  0.280060  1.0  0.8817
  Cu  Cu5  1  0.316600  0.158300  0.613390  1.0  0.8861
  Cu  Cu6  1  0.983260  0.491630  0.946730  1.0  0.8861
  Cu  Cu7  1  0.175030  0.824970  0.280060  1.0  0.8846
  Cu  Cu8  1  0.841700  0.158300  0.613390  1.0  0.8846
  Cu  Cu9  1  0.508370  0.491630  0.946730  1.0  0.8845
  Cu  Cu10  1  0.350070  0.175030  0.719940  1.0  0.882
  Cu  Cu11  1  0.016740  0.508370  0.053270  1.0  0.8867
  Cu  Cu12  1  0.683400  0.841700  0.386610  1.0  0.8867
  Cu  Cu13  1  0.824970  0.649930  0.719940  1.0  0.8827
  Cu  Cu14  1  0.491630  0.983260  0.053270  1.0  0.8877
  Cu  Cu15  1  0.158300  0.316600  0.386610  1.0  0.8877
  Cu  Cu16  1  0.824970  0.175030  0.719940  1.0  0.8844
  Cu  Cu17  1  0.491630  0.508370  0.053270  1.0  0.8842
  Cu  Cu18  1  0.158300  0.841700  0.386610  1.0  0.8844
  H  H19  1  0.313700  0.446400  0.301000  1.0  0.0996
  H  H20  1  0.285400  0.399400  0.462400  1.0  0.0882
  H  H21  1  0.385000  0.494800  0.328500  1.0  0.1026
  H  H22  1  0.356100  0.448400  0.491800  1.0  0.1168
  H  H23  1  0.429300  0.456900  0.475500  1.0  0.1037
  H  H24  1  0.434400  0.610400  0.434700  1.0  0.1012
  H  H25  1  0.980370  0.779730  0.634330  1.0  0.0997
  H  H26  1  0.952070  0.732730  0.795730  1.0  0.0888
  H  H27  1  0.051670  0.828130  0.661830  1.0  0.1026
  H  H28  1  0.022770  0.781730  0.825130  1.0  0.1168
  H  H29  1  0.095970  0.790230  0.808830  1.0  0.1037
  H  H30  1  0.101070  0.943730  0.768030  1.0  0.0968
  H  H31  1  0.647030  0.113070  0.967670  1.0  0.0996
  H  H32  1  0.618730  0.066070  0.129070  1.0  0.088
  H  H33  1  0.718330  0.161470  0.995170  1.0  0.1026
  H  H34  1  0.689430  0.115070  0.158470  1.0  0.1168
  H  H35  1  0.762630  0.123570  0.142170  1.0  0.1037
  H  H36  1  0.767730  0.277070  0.101370  1.0  0.1012
  H  H37  1  0.553600  0.867300  0.301000  1.0  0.0991
  H  H38  1  0.600600  0.886000  0.462400  1.0  0.0899
  H  H39  1  0.505200  0.890200  0.328500  1.0  0.1021
  H  H40  1  0.551600  0.907700  0.491800  1.0  0.1168
  H  H41  1  0.543100  0.972400  0.475500  1.0  0.104
  H  H42  1  0.389600  0.824000  0.434700  1.0  0.0998
  H  H43  1  0.220270  0.200630  0.634330  1.0  0.0993
  H  H44  1  0.267270  0.219330  0.795730  1.0  0.0887
  H  H45  1  0.171870  0.223530  0.661830  1.0  0.1028
  H  H46  1  0.218270  0.241030  0.825130  1.0  0.1164
  H  H47  1  0.209770  0.305730  0.808830  1.0  0.104
  H  H48  1  0.056270  0.157330  0.768030  1.0  0.1004
  H  H49  1  0.886930  0.533970  0.967670  1.0  0.0992
  H  H50  1  0.933930  0.552670  0.129070  1.0  0.0885
  H  H51  1  0.838530  0.556870  0.995170  1.0  0.1015
  H  H52  1  0.884930  0.574370  0.158470  1.0  0.1168
  H  H53  1  0.876430  0.639070  0.142170  1.0  0.104
  H  H54  1  0.722930  0.490670  0.101370  1.0  0.0998
  H  H55  1  0.132700  0.686300  0.301000  1.0  0.1
  H  H56  1  0.114000  0.714600  0.462400  1.0  0.0882
  H  H57  1  0.109800  0.615000  0.328500  1.0  0.1011
  H  H58  1  0.092300  0.643900  0.491800  1.0  0.1164
  H  H59  1  0.027600  0.570700  0.475500  1.0  0.1033
  H  H60  1  0.176000  0.565600  0.434700  1.0  0.1019
  H  H61  1  0.799370  0.019630  0.634330  1.0  0.1
  H  H62  1  0.780670  0.047930  0.795730  1.0  0.0885
  H  H63  1  0.776470  0.948330  0.661830  1.0  0.1015
  H  H64  1  0.758970  0.977230  0.825130  1.0  0.1171
  H  H65  1  0.694270  0.904030  0.808830  1.0  0.1033
  H  H66  1  0.842670  0.898930  0.768030  1.0  0.0993
  H  H67  1  0.466030  0.352970  0.967670  1.0  0.0999
  H  H68  1  0.447330  0.381270  0.129070  1.0  0.0881
  H  H69  1  0.443130  0.281670  0.995170  1.0  0.1025
  H  H70  1  0.425630  0.310570  0.158470  1.0  0.1164
  H  H71  1  0.360930  0.237370  0.142170  1.0  0.1033
  H  H72  1  0.509330  0.232270  0.101370  1.0  0.1019
  H  H73  1  0.446400  0.313700  0.699000  1.0  0.0997
  H  H74  1  0.399400  0.285400  0.537600  1.0  0.0875
  H  H75  1  0.494800  0.385000  0.671500  1.0  0.1025
  H  H76  1  0.448400  0.356100  0.508200  1.0  0.1163
  H  H77  1  0.456900  0.429300  0.524500  1.0  0.1029
  H  H78  1  0.610400  0.434400  0.565300  1.0  0.1016
  H  H79  1  0.113070  0.647030  0.032330  1.0  0.0996
  H  H80  1  0.066070  0.618730  0.870930  1.0  0.0874
  H  H81  1  0.161470  0.718330  0.004830  1.0  0.1025
  H  H82  1  0.115070  0.689430  0.841530  1.0  0.1163
  H  H83  1  0.123570  0.762630  0.857830  1.0  0.1029
  H  H84  1  0.277070  0.767730  0.898630  1.0  0.1016
  H  H85  1  0.779730  0.980370  0.365670  1.0  0.0995
  H  H86  1  0.732730  0.952070  0.204270  1.0  0.0886
  H  H87  1  0.828130  0.051670  0.338170  1.0  0.1025
  H  H88  1  0.781730  0.022770  0.174870  1.0  0.1163
  H  H89  1  0.790230  0.095970  0.191170  1.0  0.1029
  H  H90  1  0.943730  0.101070  0.231970  1.0  0.0974
  H  H91  1  0.867300  0.553600  0.699000  1.0  0.0995
  H  H92  1  0.886000  0.600600  0.537600  1.0  0.0897
  H  H93  1  0.890200  0.505200  0.671500  1.0  0.1023
  H  H94  1  0.907700  0.551600  0.508200  1.0  0.1164
  H  H95  1  0.972400  0.543100  0.524500  1.0  0.1038
  H  H96  1  0.824000  0.389600  0.565300  1.0  0.0983
  H  H97  1  0.533970  0.886930  0.032330  1.0  0.0997
  H  H98  1  0.552670  0.933930  0.870930  1.0  0.0885
  H  H99  1  0.556870  0.838530  0.004830  1.0  0.1019
  H  H100  1  0.574370  0.884930  0.841530  1.0  0.1164
  H  H101  1  0.639070  0.876430  0.857830  1.0  0.1038
  H  H102  1  0.490670  0.722930  0.898630  1.0  0.0983
  H  H103  1  0.200630  0.220270  0.365670  1.0  0.0999
  H  H104  1  0.219330  0.267270  0.204270  1.0  0.0882
  H  H105  1  0.223530  0.171870  0.338170  1.0  0.1024
  H  H106  1  0.241030  0.218270  0.174870  1.0  0.1162
  H  H107  1  0.305730  0.209770  0.191170  1.0  0.1038
  H  H108  1  0.157330  0.056270  0.231970  1.0  0.098
  H  H109  1  0.686300  0.132700  0.699000  1.0  0.0991
  H  H110  1  0.714600  0.114000  0.537600  1.0  0.0887
  H  H111  1  0.615000  0.109800  0.671500  1.0  0.1012
  H  H112  1  0.643900  0.092300  0.508200  1.0  0.1162
  H  H113  1  0.570700  0.027600  0.524500  1.0  0.1039
  H  H114  1  0.565600  0.176000  0.565300  1.0  0.1007
  H  H115  1  0.352970  0.466030  0.032330  1.0  0.0991
  H  H116  1  0.381270  0.447330  0.870930  1.0  0.0887
  H  H117  1  0.281670  0.443130  0.004830  1.0  0.1024
  H  H118  1  0.310570  0.425630  0.841530  1.0  0.1162
  H  H119  1  0.237370  0.360930  0.857830  1.0  0.1039
  H  H120  1  0.232270  0.509330  0.898630  1.0  0.1007
  H  H121  1  0.019630  0.799370  0.365670  1.0  0.0991
  H  H122  1  0.047930  0.780670  0.204270  1.0  0.0891
  H  H123  1  0.948330  0.776470  0.338170  1.0  0.1021
  H  H124  1  0.977230  0.758970  0.174870  1.0  0.1167
  H  H125  1  0.904030  0.694270  0.191170  1.0  0.1039
  H  H126  1  0.898930  0.842670  0.231970  1.0  0.0981
  H  H127  1  0.686300  0.553600  0.699000  1.0  0.0996
  H  H128  1  0.714600  0.600600  0.537600  1.0  0.0881
  H  H129  1  0.615000  0.505200  0.671500  1.0  0.1024
  H  H130  1  0.643900  0.551600  0.508200  1.0  0.1162
  H  H131  1  0.570700  0.543100  0.524500  1.0  0.103
  H  H132  1  0.565600  0.389600  0.565300  1.0  0.101
  H  H133  1  0.352970  0.886930  0.032330  1.0  0.0996
  H  H134  1  0.381270  0.933930  0.870930  1.0  0.088
  H  H135  1  0.281670  0.838530  0.004830  1.0  0.1024
  H  H136  1  0.310570  0.884930  0.841530  1.0  0.1162
  H  H137  1  0.237370  0.876430  0.857830  1.0  0.103
  H  H138  1  0.232270  0.722930  0.898630  1.0  0.101
  H  H139  1  0.019630  0.220270  0.365670  1.0  0.0995
  H  H140  1  0.047930  0.267270  0.204270  1.0  0.0892
  H  H141  1  0.948330  0.171870  0.338170  1.0  0.1024
  H  H142  1  0.977230  0.218270  0.174870  1.0  0.1161
  H  H143  1  0.904030  0.209770  0.191170  1.0  0.103
  H  H144  1  0.898930  0.056270  0.231970  1.0  0.0973
  H  H145  1  0.446400  0.132700  0.699000  1.0  0.0988
  H  H146  1  0.399400  0.114000  0.537600  1.0  0.0899
  H  H147  1  0.494800  0.109800  0.671500  1.0  0.1023
  H  H148  1  0.448400  0.092300  0.508200  1.0  0.1163
  H  H149  1  0.456900  0.027600  0.524500  1.0  0.1032
  H  H150  1  0.610400  0.176000  0.565300  1.0  0.0981
  H  H151  1  0.113070  0.466030  0.032330  1.0  0.099
  H  H152  1  0.066070  0.447330  0.870930  1.0  0.0886
  H  H153  1  0.161470  0.443130  0.004830  1.0  0.1018
  H  H154  1  0.115070  0.425630  0.841530  1.0  0.1163
  H  H155  1  0.123570  0.360930  0.857830  1.0  0.1032
  H  H156  1  0.277070  0.509330  0.898630  1.0  0.0981
  H  H157  1  0.779730  0.799370  0.365670  1.0  0.0993
  H  H158  1  0.732730  0.780670  0.204270  1.0  0.0884
  H  H159  1  0.828130  0.776470  0.338170  1.0  0.1025
  H  H160  1  0.781730  0.758970  0.174870  1.0  0.1162
  H  H161  1  0.790230  0.694270  0.191170  1.0  0.1032
  H  H162  1  0.943730  0.842670  0.231970  1.0  0.0989
  H  H163  1  0.867300  0.313700  0.699000  1.0  0.0993
  H  H164  1  0.886000  0.285400  0.537600  1.0  0.0884
  H  H165  1  0.890200  0.385000  0.671500  1.0  0.1009
  H  H166  1  0.907700  0.356100  0.508200  1.0  0.1155
  H  H167  1  0.972400  0.429300  0.524500  1.0  0.1027
  H  H168  1  0.824000  0.434400  0.565300  1.0  0.1007
  H  H169  1  0.533970  0.647030  0.032330  1.0  0.0992
  H  H170  1  0.552670  0.618730  0.870930  1.0  0.0883
  H  H171  1  0.556870  0.718330  0.004830  1.0  0.1022
  H  H172  1  0.574370  0.689430  0.841530  1.0  0.1155
  H  H173  1  0.639070  0.762630  0.857830  1.0  0.1027
  H  H174  1  0.490670  0.767730  0.898630  1.0  0.1007
  H  H175  1  0.200630  0.980370  0.365670  1.0  0.0993
  H  H176  1  0.219330  0.952070  0.204270  1.0  0.0886
  H  H177  1  0.223530  0.051670  0.338170  1.0  0.1016
  H  H178  1  0.241030  0.022770  0.174870  1.0  0.1165
  H  H179  1  0.305730  0.095970  0.191170  1.0  0.1027
  H  H180  1  0.157330  0.101070  0.231970  1.0  0.0988
  H  H181  1  0.553600  0.686300  0.301000  1.0  0.0997
  H  H182  1  0.600600  0.714600  0.462400  1.0  0.0877
  H  H183  1  0.505200  0.615000  0.328500  1.0  0.1023
  H  H184  1  0.551600  0.643900  0.491800  1.0  0.1163
  H  H185  1  0.543100  0.570700  0.475500  1.0  0.1027
  H  H186  1  0.389600  0.565600  0.434700  1.0  0.1021
  H  H187  1  0.220270  0.019630  0.634330  1.0  0.0999
  H  H188  1  0.267270  0.047930  0.795730  1.0  0.0886
  H  H189  1  0.171870  0.948330  0.661830  1.0  0.1023
  H  H190  1  0.218270  0.977230  0.825130  1.0  0.1163
  H  H191  1  0.209770  0.904030  0.808830  1.0  0.1027
  H  H192  1  0.056270  0.898930  0.768030  1.0  0.0979
  H  H193  1  0.886930  0.352970  0.967670  1.0  0.0997
  H  H194  1  0.933930  0.381270  0.129070  1.0  0.0876
  H  H195  1  0.838530  0.281670  0.995170  1.0  0.1023
  H  H196  1  0.884930  0.310570  0.158470  1.0  0.1163
  H  H197  1  0.876430  0.237370  0.142170  1.0  0.1027
  H  H198  1  0.722930  0.232270  0.101370  1.0  0.1021
  H  H199  1  0.132700  0.446400  0.301000  1.0  0.0995
  H  H200  1  0.114000  0.399400  0.462400  1.0  0.0899
  H  H201  1  0.109800  0.494800  0.328500  1.0  0.1019
  H  H202  1  0.092300  0.448400  0.491800  1.0  0.1169
  H  H203  1  0.027600  0.456900  0.475500  1.0  0.1026
  H  H204  1  0.176000  0.610400  0.434700  1.0  0.0996
  H  H205  1  0.799370  0.779730  0.634330  1.0  0.0997
  H  H206  1  0.780670  0.732730  0.795730  1.0  0.0885
  H  H207  1  0.776470  0.828130  0.661830  1.0  0.1026
  H  H208  1  0.758970  0.781730  0.825130  1.0  0.1165
  H  H209  1  0.694270  0.790230  0.808830  1.0  0.1026
  H  H210  1  0.842670  0.943730  0.768030  1.0  0.0997
  H  H211  1  0.466030  0.113070  0.967670  1.0  0.0997
  H  H212  1  0.447330  0.066070  0.129070  1.0  0.0885
  H  H213  1  0.443130  0.161470  0.995170  1.0  0.1012
  H  H214  1  0.425630  0.115070  0.158470  1.0  0.1169
  H  H215  1  0.360930  0.123570  0.142170  1.0  0.1026
  H  H216  1  0.509330  0.277070  0.101370  1.0  0.0996
  H  H217  1  0.313700  0.867300  0.301000  1.0  0.0992
  H  H218  1  0.285400  0.886000  0.462400  1.0  0.0886
  H  H219  1  0.385000  0.890200  0.328500  1.0  0.1011
  H  H220  1  0.356100  0.907700  0.491800  1.0  0.1165
  H  H221  1  0.429300  0.972400  0.475500  1.0  0.1029
  H  H222  1  0.434400  0.824000  0.434700  1.0  0.1
  H  H223  1  0.980370  0.200630  0.634330  1.0  0.0992
  H  H224  1  0.952070  0.219330  0.795730  1.0  0.089
  H  H225  1  0.051670  0.223530  0.661830  1.0  0.1017
  H  H226  1  0.022770  0.241030  0.825130  1.0  0.1172
  H  H227  1  0.095970  0.305730  0.808830  1.0  0.1029
  H  H228  1  0.101070  0.157330  0.768030  1.0  0.0979
  H  H229  1  0.647030  0.533970  0.967670  1.0  0.0992
  H  H230  1  0.618730  0.552670  0.129070  1.0  0.0885
  H  H231  1  0.718330  0.556870  0.995170  1.0  0.1024
  H  H232  1  0.689430  0.574370  0.158470  1.0  0.1165
  H  H233  1  0.762630  0.639070  0.142170  1.0  0.1029
  H  H234  1  0.767730  0.490670  0.101370  1.0  0.1
  H  H235  1  0.400500  0.599500  0.383900  1.0  0.1077
  H  H236  1  0.067170  0.932830  0.717230  1.0  0.1078
  H  H237  1  0.733830  0.266170  0.050570  1.0  0.1077
  H  H238  1  0.400500  0.801000  0.383900  1.0  0.1063
  H  H239  1  0.067170  0.134330  0.717230  1.0  0.1063
  H  H240  1  0.733830  0.467670  0.050570  1.0  0.1063
  H  H241  1  0.199000  0.599500  0.383900  1.0  0.1067
  H  H242  1  0.865670  0.932830  0.717230  1.0  0.1067
  H  H243  1  0.532330  0.266170  0.050570  1.0  0.1067
  H  H244  1  0.599500  0.400500  0.616100  1.0  0.1097
  H  H245  1  0.266170  0.733830  0.949430  1.0  0.1097
  H  H246  1  0.932830  0.067170  0.282770  1.0  0.11
  H  H247  1  0.801000  0.400500  0.616100  1.0  0.1064
  H  H248  1  0.467670  0.733830  0.949430  1.0  0.1064
  H  H249  1  0.134330  0.067170  0.282770  1.0  0.1064
  H  H250  1  0.599500  0.199000  0.616100  1.0  0.107
  H  H251  1  0.266170  0.532330  0.949430  1.0  0.107
  H  H252  1  0.932830  0.865670  0.282770  1.0  0.107
  C  C253  1  0.244640  0.387280  0.361940  1.0  0.68
  C  C254  1  0.291500  0.418740  0.380540  1.0  -0.1566
  C  C255  1  0.322270  0.446940  0.339550  1.0  -0.0606
  C  C256  1  0.305320  0.419160  0.435330  1.0  -0.0252
  C  C257  1  0.365180  0.475550  0.355920  1.0  -0.1102
  C  C258  1  0.348010  0.447800  0.452990  1.0  -0.1828
  C  C259  1  0.379080  0.476100  0.411860  1.0  0.0952
  C  C260  1  0.426290  0.504510  0.429960  1.0  0.0168
  C  C261  1  0.446110  0.486310  0.464530  1.0  -0.1037
  C  C262  1  0.911310  0.720610  0.695270  1.0  0.68
  C  C263  1  0.958170  0.752070  0.713870  1.0  -0.1566
  C  C264  1  0.988940  0.780270  0.672880  1.0  -0.0606
  C  C265  1  0.971990  0.752490  0.768660  1.0  -0.0252
  C  C266  1  0.031850  0.808880  0.689250  1.0  -0.1102
  C  C267  1  0.014680  0.781130  0.786320  1.0  -0.1828
  C  C268  1  0.045750  0.809430  0.745190  1.0  0.0952
  C  C269  1  0.092960  0.837840  0.763290  1.0  0.0168
  C  C270  1  0.112780  0.819640  0.797860  1.0  -0.1037
  C  C271  1  0.577970  0.053950  0.028610  1.0  0.6824
  C  C272  1  0.624830  0.085410  0.047210  1.0  -0.1566
  C  C273  1  0.655600  0.113610  0.006220  1.0  -0.0606
  C  C274  1  0.638650  0.085830  0.102000  1.0  -0.0252
  C  C275  1  0.698510  0.142220  0.022590  1.0  -0.1102
  C  C276  1  0.681340  0.114470  0.119660  1.0  -0.1828
  C  C277  1  0.712410  0.142770  0.078530  1.0  0.0952
  C  C278  1  0.759620  0.171180  0.096630  1.0  0.0168
  C  C279  1  0.779440  0.152980  0.131200  1.0  -0.1037
  C  C280  1  0.612720  0.857360  0.361940  1.0  0.6822
  C  C281  1  0.581260  0.872760  0.380540  1.0  -0.1574
  C  C282  1  0.553060  0.875330  0.339550  1.0  -0.0618
  C  C283  1  0.580840  0.886160  0.435330  1.0  -0.0225
  C  C284  1  0.524450  0.889630  0.355920  1.0  -0.1093
  C  C285  1  0.552200  0.900210  0.452990  1.0  -0.1811
  C  C286  1  0.523900  0.902980  0.411860  1.0  0.0938
  C  C287  1  0.495490  0.921780  0.429960  1.0  0.019
  C  C288  1  0.513690  0.959800  0.464530  1.0  -0.1099
  C  C289  1  0.279390  0.190690  0.695270  1.0  0.6822
  C  C290  1  0.247930  0.206090  0.713870  1.0  -0.1574
  C  C291  1  0.219730  0.208660  0.672880  1.0  -0.0618
  C  C292  1  0.247510  0.219490  0.768660  1.0  -0.0225
  C  C293  1  0.191120  0.222960  0.689250  1.0  -0.1093
  C  C294  1  0.218870  0.233540  0.786320  1.0  -0.1811
  C  C295  1  0.190570  0.236310  0.745190  1.0  0.0938
  C  C296  1  0.162160  0.255110  0.763290  1.0  0.019
  C  C297  1  0.180360  0.293130  0.797860  1.0  -0.1099
  C  C298  1  0.946050  0.524030  0.028610  1.0  0.679
  C  C299  1  0.914590  0.539430  0.047210  1.0  -0.1574
  C  C300  1  0.886390  0.542000  0.006220  1.0  -0.0618
  C  C301  1  0.914170  0.552830  0.102000  1.0  -0.0225
  C  C302  1  0.857780  0.556300  0.022590  1.0  -0.1093
  C  C303  1  0.885530  0.566880  0.119660  1.0  -0.1811
  C  C304  1  0.857230  0.569650  0.078530  1.0  0.0938
  C  C305  1  0.828820  0.588450  0.096630  1.0  0.019
  C  C306  1  0.847020  0.626470  0.131200  1.0  -0.1082
  C  C307  1  0.142640  0.755360  0.361940  1.0  0.6804
  C  C308  1  0.127240  0.708500  0.380540  1.0  -0.1557
  C  C309  1  0.124670  0.677730  0.339550  1.0  -0.0622
  C  C310  1  0.113840  0.694680  0.435330  1.0  -0.0251
  C  C311  1  0.110370  0.634820  0.355920  1.0  -0.1103
  C  C312  1  0.099790  0.651990  0.452990  1.0  -0.1822
  C  C313  1  0.097020  0.620920  0.411860  1.0  0.095
  C  C314  1  0.078220  0.573710  0.429960  1.0  0.0187
  C  C315  1  0.040200  0.553890  0.464530  1.0  -0.1085
  C  C316  1  0.809310  0.088690  0.695270  1.0  0.6804
  C  C317  1  0.793910  0.041830  0.713870  1.0  -0.1557
  C  C318  1  0.791340  0.011060  0.672880  1.0  -0.0622
  C  C319  1  0.780510  0.028010  0.768660  1.0  -0.0251
  C  C320  1  0.777040  0.968150  0.689250  1.0  -0.1103
  C  C321  1  0.766460  0.985320  0.786320  1.0  -0.1822
  C  C322  1  0.763690  0.954250  0.745190  1.0  0.095
  C  C323  1  0.744890  0.907040  0.763290  1.0  0.0187
  C  C324  1  0.706870  0.887220  0.797860  1.0  -0.1085
  C  C325  1  0.475970  0.422030  0.028610  1.0  0.6799
  C  C326  1  0.460570  0.375170  0.047210  1.0  -0.1557
  C  C327  1  0.458000  0.344400  0.006220  1.0  -0.0622
  C  C328  1  0.447170  0.361350  0.102000  1.0  -0.0251
  C  C329  1  0.443700  0.301490  0.022590  1.0  -0.1103
  C  C330  1  0.433120  0.318660  0.119660  1.0  -0.1822
  C  C331  1  0.430350  0.287590  0.078530  1.0  0.095
  C  C332  1  0.411550  0.240380  0.096630  1.0  0.0187
  C  C333  1  0.373530  0.220560  0.131200  1.0  -0.1105
  C  C334  1  0.387280  0.244640  0.638060  1.0  0.6803
  C  C335  1  0.418740  0.291500  0.619460  1.0  -0.1561
  C  C336  1  0.446940  0.322270  0.660450  1.0  -0.0609
  C  C337  1  0.419160  0.305320  0.564670  1.0  -0.0246
  C  C338  1  0.475550  0.365180  0.644080  1.0  -0.111
  C  C339  1  0.447800  0.348010  0.547010  1.0  -0.1787
  C  C340  1  0.476100  0.379080  0.588140  1.0  0.0953
  C  C341  1  0.504510  0.426290  0.570040  1.0  0.0177
  C  C342  1  0.486310  0.446110  0.535470  1.0  -0.1116
  C  C343  1  0.053950  0.577970  0.971390  1.0  0.6826
  C  C344  1  0.085410  0.624830  0.952790  1.0  -0.1561
  C  C345  1  0.113610  0.655600  0.993780  1.0  -0.0609
  C  C346  1  0.085830  0.638650  0.898000  1.0  -0.0246
  C  C347  1  0.142220  0.698510  0.977410  1.0  -0.111
  C  C348  1  0.114470  0.681340  0.880340  1.0  -0.1787
  C  C349  1  0.142770  0.712410  0.921470  1.0  0.0953
  C  C350  1  0.171180  0.759620  0.903370  1.0  0.0177
  C  C351  1  0.152980  0.779440  0.868800  1.0  -0.1116
  C  C352  1  0.720610  0.911310  0.304730  1.0  0.6803
  C  C353  1  0.752070  0.958170  0.286130  1.0  -0.1561
  C  C354  1  0.780270  0.988940  0.327120  1.0  -0.0609
  C  C355  1  0.752490  0.971990  0.231340  1.0  -0.0246
  C  C356  1  0.808880  0.031850  0.310750  1.0  -0.111
  C  C357  1  0.781130  0.014680  0.213680  1.0  -0.1787
  C  C358  1  0.809430  0.045750  0.254810  1.0  0.0953
  C  C359  1  0.837840  0.092960  0.236710  1.0  0.0177
  C  C360  1  0.819640  0.112780  0.202140  1.0  -0.1116
  C  C361  1  0.857360  0.612720  0.638060  1.0  0.683
  C  C362  1  0.872760  0.581260  0.619460  1.0  -0.1564
  C  C363  1  0.875330  0.553060  0.660450  1.0  -0.0615
  C  C364  1  0.886160  0.580840  0.564670  1.0  -0.0255
  C  C365  1  0.889630  0.524450  0.644080  1.0  -0.1109
  C  C366  1  0.900210  0.552200  0.547010  1.0  -0.179
  C  C367  1  0.902980  0.523900  0.588140  1.0  0.0959
  C  C368  1  0.921780  0.495490  0.570040  1.0  0.017
  C  C369  1  0.959800  0.513690  0.535470  1.0  -0.1066
  C  C370  1  0.524030  0.946050  0.971390  1.0  0.6801
  C  C371  1  0.539430  0.914590  0.952790  1.0  -0.1564
  C  C372  1  0.542000  0.886390  0.993780  1.0  -0.0615
  C  C373  1  0.552830  0.914170  0.898000  1.0  -0.0255
  C  C374  1  0.556300  0.857780  0.977410  1.0  -0.1109
  C  C375  1  0.566880  0.885530  0.880340  1.0  -0.179
  C  C376  1  0.569650  0.857230  0.921470  1.0  0.0959
  C  C377  1  0.588450  0.828820  0.903370  1.0  0.017
  C  C378  1  0.626470  0.847020  0.868800  1.0  -0.1038
  C  C379  1  0.190690  0.279390  0.304730  1.0  0.683
  C  C380  1  0.206090  0.247930  0.286130  1.0  -0.1564
  C  C381  1  0.208660  0.219730  0.327120  1.0  -0.0615
  C  C382  1  0.219490  0.247510  0.231340  1.0  -0.0255
  C  C383  1  0.222960  0.191120  0.310750  1.0  -0.1109
  C  C384  1  0.233540  0.218870  0.213680  1.0  -0.179
  C  C385  1  0.236310  0.190570  0.254810  1.0  0.0959
  C  C386  1  0.255110  0.162160  0.236710  1.0  0.017
  C  C387  1  0.293130  0.180360  0.202140  1.0  -0.1066
  C  C388  1  0.755360  0.142640  0.638060  1.0  0.6799
  C  C389  1  0.708500  0.127240  0.619460  1.0  -0.1581
  C  C390  1  0.677730  0.124670  0.660450  1.0  -0.0613
  C  C391  1  0.694680  0.113840  0.564670  1.0  -0.0238
  C  C392  1  0.634820  0.110370  0.644080  1.0  -0.1109
  C  C393  1  0.651990  0.099790  0.547010  1.0  -0.1765
  C  C394  1  0.620920  0.097020  0.588140  1.0  0.094
  C  C395  1  0.573710  0.078220  0.570040  1.0  0.0189
  C  C396  1  0.553890  0.040200  0.535470  1.0  -0.1095
  C  C397  1  0.422030  0.475970  0.971390  1.0  0.6793
  C  C398  1  0.375170  0.460570  0.952790  1.0  -0.1581
  C  C399  1  0.344400  0.458000  0.993780  1.0  -0.0613
  C  C400  1  0.361350  0.447170  0.898000  1.0  -0.0238
  C  C401  1  0.301490  0.443700  0.977410  1.0  -0.1109
  C  C402  1  0.318660  0.433120  0.880340  1.0  -0.1765
  C  C403  1  0.287590  0.430350  0.921470  1.0  0.094
  C  C404  1  0.240380  0.411550  0.903370  1.0  0.0189
  C  C405  1  0.220560  0.373530  0.868800  1.0  -0.1111
  C  C406  1  0.088690  0.809310  0.304730  1.0  0.6799
  C  C407  1  0.041830  0.793910  0.286130  1.0  -0.1581
  C  C408  1  0.011060  0.791340  0.327120  1.0  -0.0613
  C  C409  1  0.028010  0.780510  0.231340  1.0  -0.0238
  C  C410  1  0.968150  0.777040  0.310750  1.0  -0.1109
  C  C411  1  0.985320  0.766460  0.213680  1.0  -0.1765
  C  C412  1  0.954250  0.763690  0.254810  1.0  0.094
  C  C413  1  0.907040  0.744890  0.236710  1.0  0.0189
  C  C414  1  0.887220  0.706870  0.202140  1.0  -0.1095
  C  C415  1  0.755360  0.612720  0.638060  1.0  0.6804
  C  C416  1  0.708500  0.581260  0.619460  1.0  -0.1578
  C  C417  1  0.677730  0.553060  0.660450  1.0  -0.0608
  C  C418  1  0.694680  0.580840  0.564670  1.0  -0.0264
  C  C419  1  0.634820  0.524450  0.644080  1.0  -0.1119
  C  C420  1  0.651990  0.552200  0.547010  1.0  -0.179
  C  C421  1  0.620920  0.523900  0.588140  1.0  0.0955
  C  C422  1  0.573710  0.495490  0.570040  1.0  0.0168
  C  C423  1  0.553890  0.513690  0.535470  1.0  -0.1059
  C  C424  1  0.422030  0.946050  0.971390  1.0  0.6827
  C  C425  1  0.375170  0.914590  0.952790  1.0  -0.1578
  C  C426  1  0.344400  0.886390  0.993780  1.0  -0.0608
  C  C427  1  0.361350  0.914170  0.898000  1.0  -0.0264
  C  C428  1  0.301490  0.857780  0.977410  1.0  -0.1119
  C  C429  1  0.318660  0.885530  0.880340  1.0  -0.179
  C  C430  1  0.287590  0.857230  0.921470  1.0  0.0955
  C  C431  1  0.240380  0.828820  0.903370  1.0  0.0168
  C  C432  1  0.220560  0.847020  0.868800  1.0  -0.1059
  C  C433  1  0.088690  0.279390  0.304730  1.0  0.6804
  C  C434  1  0.041830  0.247930  0.286130  1.0  -0.1578
  C  C435  1  0.011060  0.219730  0.327120  1.0  -0.0608
  C  C436  1  0.028010  0.247510  0.231340  1.0  -0.0264
  C  C437  1  0.968150  0.191120  0.310750  1.0  -0.1119
  C  C438  1  0.985320  0.218870  0.213680  1.0  -0.179
  C  C439  1  0.954250  0.190570  0.254810  1.0  0.0955
  C  C440  1  0.907040  0.162160  0.236710  1.0  0.0168
  C  C441  1  0.887220  0.180360  0.202140  1.0  -0.1059
  C  C442  1  0.387280  0.142640  0.638060  1.0  0.6836
  C  C443  1  0.418740  0.127240  0.619460  1.0  -0.1569
  C  C444  1  0.446940  0.124670  0.660450  1.0  -0.0618
  C  C445  1  0.419160  0.113840  0.564670  1.0  -0.0228
  C  C446  1  0.475550  0.110370  0.644080  1.0  -0.1108
  C  C447  1  0.447800  0.099790  0.547010  1.0  -0.1767
  C  C448  1  0.476100  0.097020  0.588140  1.0  0.0942
  C  C449  1  0.504510  0.078220  0.570040  1.0  0.0184
  C  C450  1  0.486310  0.040200  0.535470  1.0  -0.1121
  C  C451  1  0.053950  0.475970  0.971390  1.0  0.6801
  C  C452  1  0.085410  0.460570  0.952790  1.0  -0.1569
  C  C453  1  0.113610  0.458000  0.993780  1.0  -0.0618
  C  C454  1  0.085830  0.447170  0.898000  1.0  -0.0228
  C  C455  1  0.142220  0.443700  0.977410  1.0  -0.1108
  C  C456  1  0.114470  0.433120  0.880340  1.0  -0.1767
  C  C457  1  0.142770  0.430350  0.921470  1.0  0.0942
  C  C458  1  0.171180  0.411550  0.903370  1.0  0.0184
  C  C459  1  0.152980  0.373530  0.868800  1.0  -0.11
  C  C460  1  0.720610  0.809310  0.304730  1.0  0.6836
  C  C461  1  0.752070  0.793910  0.286130  1.0  -0.1569
  C  C462  1  0.780270  0.791340  0.327120  1.0  -0.0618
  C  C463  1  0.752490  0.780510  0.231340  1.0  -0.0228
  C  C464  1  0.808880  0.777040  0.310750  1.0  -0.1108
  C  C465  1  0.781130  0.766460  0.213680  1.0  -0.1767
  C  C466  1  0.809430  0.763690  0.254810  1.0  0.0942
  C  C467  1  0.837840  0.744890  0.236710  1.0  0.0184
  C  C468  1  0.819640  0.706870  0.202140  1.0  -0.1121
  C  C469  1  0.857360  0.244640  0.638060  1.0  0.6802
  C  C470  1  0.872760  0.291500  0.619460  1.0  -0.1562
  C  C471  1  0.875330  0.322270  0.660450  1.0  -0.0611
  C  C472  1  0.886160  0.305320  0.564670  1.0  -0.0256
  C  C473  1  0.889630  0.365180  0.644080  1.0  -0.1112
  C  C474  1  0.900210  0.348010  0.547010  1.0  -0.1787
  C  C475  1  0.902980  0.379080  0.588140  1.0  0.0945
  C  C476  1  0.921780  0.426290  0.570040  1.0  0.0182
  C  C477  1  0.959800  0.446110  0.535470  1.0  -0.1092
  C  C478  1  0.524030  0.577970  0.971390  1.0  0.6797
  C  C479  1  0.539430  0.624830  0.952790  1.0  -0.1562
  C  C480  1  0.542000  0.655600  0.993780  1.0  -0.061
  C  C481  1  0.552830  0.638650  0.898000  1.0  -0.0255
  C  C482  1  0.556300  0.698510  0.977410  1.0  -0.1112
  C  C483  1  0.566880  0.681340  0.880340  1.0  -0.1787
  C  C484  1  0.569650  0.712410  0.921470  1.0  0.0945
  C  C485  1  0.588450  0.759620  0.903370  1.0  0.0182
  C  C486  1  0.626470  0.779440  0.868800  1.0  -0.1107
  C  C487  1  0.190690  0.911310  0.304730  1.0  0.6802
  C  C488  1  0.206090  0.958170  0.286130  1.0  -0.1562
  C  C489  1  0.208660  0.988940  0.327120  1.0  -0.0611
  C  C490  1  0.219490  0.971990  0.231340  1.0  -0.0256
  C  C491  1  0.222960  0.031850  0.310750  1.0  -0.1112
  C  C492  1  0.233540  0.014680  0.213680  1.0  -0.1787
  C  C493  1  0.236310  0.045750  0.254810  1.0  0.0945
  C  C494  1  0.255110  0.092960  0.236710  1.0  0.0182
  C  C495  1  0.293130  0.112780  0.202140  1.0  -0.1092
  C  C496  1  0.612720  0.755360  0.361940  1.0  0.6804
  C  C497  1  0.581260  0.708500  0.380540  1.0  -0.1556
  C  C498  1  0.553060  0.677730  0.339550  1.0  -0.0614
  C  C499  1  0.580840  0.694680  0.435330  1.0  -0.0237
  C  C500  1  0.524450  0.634820  0.355920  1.0  -0.1099
  C  C501  1  0.552200  0.651990  0.452990  1.0  -0.1818
  C  C502  1  0.523900  0.620920  0.411860  1.0  0.0944
  C  C503  1  0.495490  0.573710  0.429960  1.0  0.0193
  C  C504  1  0.513690  0.553890  0.464530  1.0  -0.11
  C  C505  1  0.279390  0.088690  0.695270  1.0  0.6804
  C  C506  1  0.247930  0.041830  0.713870  1.0  -0.1556
  C  C507  1  0.219730  0.011060  0.672880  1.0  -0.0614
  C  C508  1  0.247510  0.028010  0.768660  1.0  -0.0237
  C  C509  1  0.191120  0.968150  0.689250  1.0  -0.1099
  C  C510  1  0.218870  0.985320  0.786320  1.0  -0.1818
  C  C511  1  0.190570  0.954250  0.745190  1.0  0.0944
  C  C512  1  0.162160  0.907040  0.763290  1.0  0.0193
  C  C513  1  0.180360  0.887220  0.797860  1.0  -0.11
  C  C514  1  0.946050  0.422030  0.028610  1.0  0.6827
  C  C515  1  0.914590  0.375170  0.047210  1.0  -0.1556
  C  C516  1  0.886390  0.344400  0.006220  1.0  -0.0614
  C  C517  1  0.914170  0.361350  0.102000  1.0  -0.0237
  C  C518  1  0.857780  0.301490  0.022590  1.0  -0.1099
  C  C519  1  0.885530  0.318660  0.119660  1.0  -0.1818
  C  C520  1  0.857230  0.287590  0.078530  1.0  0.0944
  C  C521  1  0.828820  0.240380  0.096630  1.0  0.0193
  C  C522  1  0.847020  0.220560  0.131200  1.0  -0.11
  C  C523  1  0.142640  0.387280  0.361940  1.0  0.6822
  C  C524  1  0.127240  0.418740  0.380540  1.0  -0.1574
  C  C525  1  0.124670  0.446940  0.339550  1.0  -0.0614
  C  C526  1  0.113840  0.419160  0.435330  1.0  -0.0242
  C  C527  1  0.110370  0.475550  0.355920  1.0  -0.1096
  C  C528  1  0.099790  0.447800  0.452990  1.0  -0.1838
  C  C529  1  0.097020  0.476100  0.411860  1.0  0.0945
  C  C530  1  0.078220  0.504510  0.429960  1.0  0.0169
  C  C531  1  0.040200  0.486310  0.464530  1.0  -0.1039
  C  C532  1  0.809310  0.720610  0.695270  1.0  0.6822
  C  C533  1  0.793910  0.752070  0.713870  1.0  -0.1574
  C  C534  1  0.791340  0.780270  0.672880  1.0  -0.0614
  C  C535  1  0.780510  0.752490  0.768660  1.0  -0.0242
  C  C536  1  0.777040  0.808880  0.689250  1.0  -0.1096
  C  C537  1  0.766460  0.781130  0.786320  1.0  -0.1838
  C  C538  1  0.763690  0.809430  0.745190  1.0  0.0945
  C  C539  1  0.744890  0.837840  0.763290  1.0  0.0169
  C  C540  1  0.706870  0.819640  0.797860  1.0  -0.1039
  C  C541  1  0.475970  0.053950  0.028610  1.0  0.6793
  C  C542  1  0.460570  0.085410  0.047210  1.0  -0.1574
  C  C543  1  0.458000  0.113610  0.006220  1.0  -0.0614
  C  C544  1  0.447170  0.085830  0.102000  1.0  -0.0242
  C  C545  1  0.443700  0.142220  0.022590  1.0  -0.1096
  C  C546  1  0.433120  0.114470  0.119660  1.0  -0.1838
  C  C547  1  0.430350  0.142770  0.078530  1.0  0.0945
  C  C548  1  0.411550  0.171180  0.096630  1.0  0.0169
  C  C549  1  0.373530  0.152980  0.131200  1.0  -0.101
  C  C550  1  0.244640  0.857360  0.361940  1.0  0.6803
  C  C551  1  0.291500  0.872760  0.380540  1.0  -0.1563
  C  C552  1  0.322270  0.875330  0.339550  1.0  -0.0612
  C  C553  1  0.305320  0.886160  0.435330  1.0  -0.0223
  C  C554  1  0.365180  0.889630  0.355920  1.0  -0.1098
  C  C555  1  0.348010  0.900210  0.452990  1.0  -0.1806
  C  C556  1  0.379080  0.902980  0.411860  1.0  0.094
  C  C557  1  0.426290  0.921780  0.429960  1.0  0.0186
  C  C558  1  0.446110  0.959800  0.464530  1.0  -0.1102
  C  C559  1  0.911310  0.190690  0.695270  1.0  0.6803
  C  C560  1  0.958170  0.206090  0.713870  1.0  -0.1563
  C  C561  1  0.988940  0.208660  0.672880  1.0  -0.0612
  C  C562  1  0.971990  0.219490  0.768660  1.0  -0.0223
  C  C563  1  0.031850  0.222960  0.689250  1.0  -0.1098
  C  C564  1  0.014680  0.233540  0.786320  1.0  -0.1806
  C  C565  1  0.045750  0.236310  0.745190  1.0  0.094
  C  C566  1  0.092960  0.255110  0.763290  1.0  0.0186
  C  C567  1  0.112780  0.293130  0.797860  1.0  -0.1102
  C  C568  1  0.577970  0.524030  0.028610  1.0  0.6797
  C  C569  1  0.624830  0.539430  0.047210  1.0  -0.1563
  C  C570  1  0.655600  0.542000  0.006220  1.0  -0.0612
  C  C571  1  0.638650  0.552830  0.102000  1.0  -0.0223
  C  C572  1  0.698510  0.556300  0.022590  1.0  -0.1098
  C  C573  1  0.681340  0.566880  0.119660  1.0  -0.1806
  C  C574  1  0.712410  0.569650  0.078530  1.0  0.094
  C  C575  1  0.759620  0.588450  0.096630  1.0  0.0186
  C  C576  1  0.779440  0.626470  0.131200  1.0  -0.1117
  C  C577  1  0.451510  0.548490  0.413500  1.0  0.1628
  C  C578  1  0.489840  0.510160  0.483300  1.0  -0.037
  C  C579  1  0.412660  0.587340  0.410600  1.0  -0.0517
  C  C580  1  0.118180  0.881820  0.746830  1.0  0.1628
  C  C581  1  0.156510  0.843490  0.816630  1.0  -0.037
  C  C582  1  0.079330  0.920670  0.743930  1.0  -0.0517
  C  C583  1  0.784840  0.215160  0.080170  1.0  0.1628
  C  C584  1  0.823170  0.176830  0.149970  1.0  -0.037
  C  C585  1  0.745990  0.254010  0.077270  1.0  -0.0517
  C  C586  1  0.451510  0.903020  0.413500  1.0  0.1634
  C  C587  1  0.489840  0.979680  0.483300  1.0  -0.0334
  C  C588  1  0.412660  0.825320  0.410600  1.0  -0.0483
  C  C589  1  0.118180  0.236350  0.746830  1.0  0.1634
  C  C590  1  0.156510  0.313010  0.816630  1.0  -0.0334
  C  C591  1  0.079330  0.158650  0.743930  1.0  -0.0483
  C  C592  1  0.784840  0.569690  0.080170  1.0  0.1634
  C  C593  1  0.823170  0.646350  0.149970  1.0  -0.0335
  C  C594  1  0.745990  0.491990  0.077270  1.0  -0.0483
  C  C595  1  0.096980  0.548490  0.413500  1.0  0.1626
  C  C596  1  0.020320  0.510160  0.483300  1.0  -0.0348
  C  C597  1  0.174680  0.587340  0.410600  1.0  -0.0518
  C  C598  1  0.763650  0.881820  0.746830  1.0  0.1626
  C  C599  1  0.686990  0.843490  0.816630  1.0  -0.0348
  C  C600  1  0.841350  0.920670  0.743930  1.0  -0.0518
  C  C601  1  0.430310  0.215160  0.080170  1.0  0.1626
  C  C602  1  0.353650  0.176830  0.149970  1.0  -0.0348
  C  C603  1  0.508010  0.254010  0.077270  1.0  -0.0518
  C  C604  1  0.548490  0.451510  0.586500  1.0  0.1618
  C  C605  1  0.510160  0.489840  0.516700  1.0  -0.0374
  C  C606  1  0.587340  0.412660  0.589400  1.0  -0.051
  C  C607  1  0.215160  0.784840  0.919830  1.0  0.1618
  C  C608  1  0.176830  0.823170  0.850030  1.0  -0.0374
  C  C609  1  0.254010  0.745990  0.922730  1.0  -0.051
  C  C610  1  0.881820  0.118180  0.253170  1.0  0.1618
  C  C611  1  0.843490  0.156510  0.183370  1.0  -0.0374
  C  C612  1  0.920670  0.079330  0.256070  1.0  -0.051
  C  C613  1  0.903020  0.451510  0.586500  1.0  0.1622
  C  C614  1  0.979680  0.489840  0.516700  1.0  -0.0351
  C  C615  1  0.825320  0.412660  0.589400  1.0  -0.0519
  C  C616  1  0.569690  0.784840  0.919830  1.0  0.1622
  C  C617  1  0.646350  0.823170  0.850030  1.0  -0.0352
  C  C618  1  0.491990  0.745990  0.922730  1.0  -0.0519
  C  C619  1  0.236350  0.118180  0.253170  1.0  0.1622
  C  C620  1  0.313010  0.156510  0.183370  1.0  -0.0351
  C  C621  1  0.158650  0.079330  0.256070  1.0  -0.0519
  C  C622  1  0.548490  0.096980  0.586500  1.0  0.1625
  C  C623  1  0.510160  0.020320  0.516700  1.0  -0.0339
  C  C624  1  0.587340  0.174680  0.589400  1.0  -0.05
  C  C625  1  0.215160  0.430310  0.919830  1.0  0.1625
  C  C626  1  0.176830  0.353650  0.850030  1.0  -0.034
  C  C627  1  0.254010  0.508010  0.922730  1.0  -0.05
  C  C628  1  0.881820  0.763650  0.253170  1.0  0.1625
  C  C629  1  0.843490  0.686990  0.183370  1.0  -0.0339
  C  C630  1  0.920670  0.841350  0.256070  1.0  -0.05
  O  O631  1  0.234270  0.389560  0.310660  1.0  -0.5777
  O  O632  1  0.191950  0.305350  0.265620  1.0  -0.5858
  O  O633  1  0.900940  0.722890  0.643990  1.0  -0.5786
  O  O634  1  0.858620  0.638680  0.598950  1.0  -0.5865
  O  O635  1  0.567600  0.056230  0.977330  1.0  -0.5788
  O  O636  1  0.525280  0.972020  0.932290  1.0  -0.5853
  O  O637  1  0.610440  0.844710  0.310660  1.0  -0.5767
  O  O638  1  0.694650  0.886600  0.265620  1.0  -0.5852
  O  O639  1  0.277110  0.178040  0.643990  1.0  -0.5783
  O  O640  1  0.361320  0.219930  0.598950  1.0  -0.5851
  O  O641  1  0.943770  0.511380  0.977330  1.0  -0.5774
  O  O642  1  0.027980  0.553270  0.932290  1.0  -0.5864
  O  O643  1  0.155290  0.765730  0.310660  1.0  -0.5766
  O  O644  1  0.113400  0.808050  0.265620  1.0  -0.5869
  O  O645  1  0.821960  0.099060  0.643990  1.0  -0.5766
  O  O646  1  0.780070  0.141380  0.598950  1.0  -0.5869
  O  O647  1  0.488620  0.432400  0.977330  1.0  -0.5759
  O  O648  1  0.446730  0.474720  0.932290  1.0  -0.5867
  O  O649  1  0.389560  0.234270  0.689340  1.0  -0.5756
  O  O650  1  0.305350  0.191950  0.734380  1.0  -0.5843
  O  O651  1  0.056230  0.567600  0.022670  1.0  -0.5765
  O  O652  1  0.972020  0.525280  0.067710  1.0  -0.5836
  O  O653  1  0.722890  0.900940  0.356010  1.0  -0.577
  O  O654  1  0.638680  0.858620  0.401050  1.0  -0.5852
  O  O655  1  0.844710  0.610440  0.689340  1.0  -0.5772
  O  O656  1  0.886600  0.694650  0.734380  1.0  -0.5852
  O  O657  1  0.511380  0.943770  0.022670  1.0  -0.5791
  O  O658  1  0.553270  0.027980  0.067710  1.0  -0.5862
  O  O659  1  0.178040  0.277110  0.356010  1.0  -0.5789
  O  O660  1  0.219930  0.361320  0.401050  1.0  -0.5847
  O  O661  1  0.765730  0.155290  0.689340  1.0  -0.5785
  O  O662  1  0.808050  0.113400  0.734380  1.0  -0.5853
  O  O663  1  0.432400  0.488620  0.022670  1.0  -0.5777
  O  O664  1  0.474720  0.446730  0.067710  1.0  -0.5851
  O  O665  1  0.099060  0.821960  0.356010  1.0  -0.5785
  O  O666  1  0.141380  0.780070  0.401050  1.0  -0.5853
  O  O667  1  0.765730  0.610440  0.689340  1.0  -0.5769
  O  O668  1  0.808050  0.694650  0.734380  1.0  -0.585
  O  O669  1  0.432400  0.943770  0.022670  1.0  -0.5781
  O  O670  1  0.474720  0.027980  0.067710  1.0  -0.5845
  O  O671  1  0.099060  0.277110  0.356010  1.0  -0.5786
  O  O672  1  0.141380  0.361320  0.401050  1.0  -0.5859
  O  O673  1  0.389560  0.155290  0.689340  1.0  -0.5759
  O  O674  1  0.305350  0.113400  0.734380  1.0  -0.5833
  O  O675  1  0.056230  0.488620  0.022670  1.0  -0.577
  O  O676  1  0.972020  0.446730  0.067710  1.0  -0.5845
  O  O677  1  0.722890  0.821960  0.356010  1.0  -0.5774
  O  O678  1  0.638680  0.780070  0.401050  1.0  -0.583
  O  O679  1  0.844710  0.234270  0.689340  1.0  -0.5779
  O  O680  1  0.886600  0.191950  0.734380  1.0  -0.5849
  O  O681  1  0.511380  0.567600  0.022670  1.0  -0.5772
  O  O682  1  0.553270  0.525280  0.067710  1.0  -0.5846
  O  O683  1  0.178040  0.900940  0.356010  1.0  -0.5779
  O  O684  1  0.219930  0.858620  0.401050  1.0  -0.5849
  O  O685  1  0.610440  0.765730  0.310660  1.0  -0.5769
  O  O686  1  0.694650  0.808050  0.265620  1.0  -0.5857
  O  O687  1  0.277110  0.099060  0.643990  1.0  -0.5773
  O  O688  1  0.361320  0.141380  0.598950  1.0  -0.5864
  O  O689  1  0.943770  0.432400  0.977330  1.0  -0.5779
  O  O690  1  0.027980  0.474720  0.932290  1.0  -0.5854
  O  O691  1  0.155290  0.389560  0.310660  1.0  -0.5771
  O  O692  1  0.113400  0.305350  0.265620  1.0  -0.5857
  O  O693  1  0.821960  0.722890  0.643990  1.0  -0.5787
  O  O694  1  0.780070  0.638680  0.598950  1.0  -0.5854
  O  O695  1  0.488620  0.056230  0.977330  1.0  -0.5782
  O  O696  1  0.446730  0.972020  0.932290  1.0  -0.5867
  O  O697  1  0.234270  0.844710  0.310660  1.0  -0.5767
  O  O698  1  0.191950  0.886600  0.265620  1.0  -0.5863
  O  O699  1  0.900940  0.178040  0.643990  1.0  -0.5767
  O  O700  1  0.858620  0.219930  0.598950  1.0  -0.5863
  O  O701  1  0.567600  0.511380  0.977330  1.0  -0.5759
  O  O702  1  0.525280  0.553270  0.932290  1.0  -0.5861
  O  O703  1  0.432540  0.567460  0.378930  1.0  -0.2641
  O  O704  1  0.099210  0.900790  0.712260  1.0  -0.2641
  O  O705  1  0.765870  0.234130  0.045600  1.0  -0.2641
  O  O706  1  0.432540  0.865080  0.378930  1.0  -0.2671
  O  O707  1  0.099210  0.198410  0.712260  1.0  -0.2671
  O  O708  1  0.765870  0.531750  0.045600  1.0  -0.2671
  O  O709  1  0.134920  0.567460  0.378930  1.0  -0.265
  O  O710  1  0.801590  0.900790  0.712260  1.0  -0.265
  O  O711  1  0.468250  0.234130  0.045600  1.0  -0.265
  O  O712  1  0.567460  0.432540  0.621070  1.0  -0.2693
  O  O713  1  0.234130  0.765870  0.954400  1.0  -0.2693
  O  O714  1  0.900790  0.099210  0.287740  1.0  -0.2693
  O  O715  1  0.865080  0.432540  0.621070  1.0  -0.2677
  O  O716  1  0.531750  0.765870  0.954400  1.0  -0.2677
  O  O717  1  0.198410  0.099210  0.287740  1.0  -0.2677
  O  O718  1  0.567460  0.134920  0.621070  1.0  -0.2692
  O  O719  1  0.234130  0.468250  0.954400  1.0  -0.2692
  O  O720  1  0.900790  0.801590  0.287740  1.0  -0.2692
