# generated using pymatgen
data_CuH13C21O5
_symmetry_space_group_name_H-M   'P 1'
_cell_length_a   34.82900000
_cell_length_b   34.82900000
_cell_length_c   23.49700000
_cell_angle_alpha   90.00000000
_cell_angle_beta   90.00000000
_cell_angle_gamma   120.00000000
_symmetry_Int_Tables_number   1
_chemical_formula_structural   CuH13C21O5
_chemical_formula_sum   'Cu18 H234 C378 O90'
_cell_volume   24684.54117618
_cell_formula_units_Z   18
loop_
 _symmetry_equiv_pos_site_id
 _symmetry_equiv_pos_as_xyz
  1  'x, y, z'
loop_
 _atom_site_type_symbol
 _atom_site_label
 _atom_site_symmetry_multiplicity
 _atom_site_fract_x
 _atom_site_fract_y
 _atom_site_fract_z
 _atom_site_occupancy
 _atom_site_charge
  Cu  Cu1  1  0.508850  0.491150  0.448860  1.0  0.9119
  Cu  Cu2  1  0.175520  0.824480  0.782190  1.0  0.9119
  Cu  Cu3  1  0.842180  0.157820  0.115530  1.0  0.9119
  Cu  Cu4  1  0.508850  0.017700  0.448860  1.0  0.9126
  Cu  Cu5  1  0.175520  0.351030  0.782190  1.0  0.9126
  Cu  Cu6  1  0.842180  0.684370  0.115530  1.0  0.9126
  Cu  Cu7  1  0.982300  0.491150  0.448860  1.0  0.9122
  Cu  Cu8  1  0.648970  0.824480  0.782190  1.0  0.9122
  Cu  Cu9  1  0.315630  0.157820  0.115530  1.0  0.9122
  Cu  Cu10  1  0.491150  0.508850  0.551140  1.0  0.9118
  Cu  Cu11  1  0.157820  0.842180  0.884470  1.0  0.9118
  Cu  Cu12  1  0.824480  0.175520  0.217810  1.0  0.9118
  Cu  Cu13  1  0.017700  0.508850  0.551140  1.0  0.9122
  Cu  Cu14  1  0.684370  0.842180  0.884470  1.0  0.9122
  Cu  Cu15  1  0.351030  0.175520  0.217810  1.0  0.9122
  Cu  Cu16  1  0.491150  0.982300  0.551140  1.0  0.9125
  Cu  Cu17  1  0.157820  0.315630  0.884470  1.0  0.9125
  Cu  Cu18  1  0.824480  0.648970  0.217810  1.0  0.9125
  H  H19  1  0.351800  0.464900  0.528800  1.0  0.0875
  H  H20  1  0.281200  0.441000  0.502900  1.0  0.1072
  H  H21  1  0.311000  0.422700  0.345500  1.0  0.1106
  H  H22  1  0.382200  0.447300  0.374800  1.0  0.0887
  H  H23  1  0.238100  0.361200  0.356200  1.0  0.1162
  H  H24  1  0.230800  0.506600  0.399200  1.0  0.0828
  H  H25  1  0.018470  0.798230  0.862130  1.0  0.0875
  H  H26  1  0.947870  0.774330  0.836230  1.0  0.1065
  H  H27  1  0.977670  0.756030  0.678830  1.0  0.1106
  H  H28  1  0.048870  0.780630  0.708130  1.0  0.0887
  H  H29  1  0.904770  0.694530  0.689530  1.0  0.1162
  H  H30  1  0.897470  0.839930  0.732530  1.0  0.0841
  H  H31  1  0.685130  0.131570  0.195470  1.0  0.0875
  H  H32  1  0.614530  0.107670  0.169570  1.0  0.1072
  H  H33  1  0.644330  0.089370  0.012170  1.0  0.1102
  H  H34  1  0.715530  0.113970  0.041470  1.0  0.0888
  H  H35  1  0.571430  0.027870  0.022870  1.0  0.1167
  H  H36  1  0.564130  0.173270  0.065870  1.0  0.0818
  H  H37  1  0.535100  0.886900  0.528800  1.0  0.0875
  H  H38  1  0.559000  0.840200  0.502900  1.0  0.1068
  H  H39  1  0.577300  0.888300  0.345500  1.0  0.1118
  H  H40  1  0.552700  0.934900  0.374800  1.0  0.0873
  H  H41  1  0.638800  0.876900  0.356200  1.0  0.1162
  H  H42  1  0.493400  0.724200  0.399200  1.0  0.0821
  H  H43  1  0.201770  0.220230  0.862130  1.0  0.0878
  H  H44  1  0.225670  0.173530  0.836230  1.0  0.1079
  H  H45  1  0.243970  0.221630  0.678830  1.0  0.1105
  H  H46  1  0.219370  0.268230  0.708130  1.0  0.0885
  H  H47  1  0.305470  0.210230  0.689530  1.0  0.1162
  H  H48  1  0.160070  0.057530  0.732530  1.0  0.0837
  H  H49  1  0.868430  0.553570  0.195470  1.0  0.0875
  H  H50  1  0.892330  0.506870  0.169570  1.0  0.1068
  H  H51  1  0.910630  0.554970  0.012170  1.0  0.1118
  H  H52  1  0.886030  0.601570  0.041470  1.0  0.0879
  H  H53  1  0.972130  0.543570  0.022870  1.0  0.1162
  H  H54  1  0.826730  0.390870  0.065870  1.0  0.0805
  H  H55  1  0.113100  0.648200  0.528800  1.0  0.088
  H  H56  1  0.159800  0.718800  0.502900  1.0  0.1065
  H  H57  1  0.111700  0.689000  0.345500  1.0  0.1105
  H  H58  1  0.065100  0.617800  0.374800  1.0  0.0872
  H  H59  1  0.123100  0.761900  0.356200  1.0  0.1155
  H  H60  1  0.275800  0.769200  0.399200  1.0  0.0843
  H  H61  1  0.779770  0.981530  0.862130  1.0  0.0874
  H  H62  1  0.826470  0.052130  0.836230  1.0  0.1065
  H  H63  1  0.778370  0.022330  0.678830  1.0  0.1123
  H  H64  1  0.731770  0.951130  0.708130  1.0  0.0871
  H  H65  1  0.789770  0.095230  0.689530  1.0  0.1155
  H  H66  1  0.942470  0.102530  0.732530  1.0  0.0835
  H  H67  1  0.446430  0.314870  0.195470  1.0  0.088
  H  H68  1  0.493130  0.385470  0.169570  1.0  0.1065
  H  H69  1  0.445030  0.355670  0.012170  1.0  0.1105
  H  H70  1  0.398430  0.284470  0.041470  1.0  0.0885
  H  H71  1  0.456430  0.428570  0.022870  1.0  0.1155
  H  H72  1  0.609130  0.435870  0.065870  1.0  0.0849
  H  H73  1  0.464900  0.351800  0.471200  1.0  0.089
  H  H74  1  0.441000  0.281200  0.497100  1.0  0.1069
  H  H75  1  0.422700  0.311000  0.654500  1.0  0.1109
  H  H76  1  0.447300  0.382200  0.625200  1.0  0.0883
  H  H77  1  0.361200  0.238100  0.643800  1.0  0.1156
  H  H78  1  0.506600  0.230800  0.600800  1.0  0.0839
  H  H79  1  0.131570  0.685130  0.804530  1.0  0.089
  H  H80  1  0.107670  0.614530  0.830430  1.0  0.1069
  H  H81  1  0.089370  0.644330  0.987830  1.0  0.1106
  H  H82  1  0.113970  0.715530  0.958530  1.0  0.0885
  H  H83  1  0.027870  0.571430  0.977130  1.0  0.1162
  H  H84  1  0.173270  0.564130  0.934130  1.0  0.0828
  H  H85  1  0.798230  0.018470  0.137870  1.0  0.089
  H  H86  1  0.774330  0.947870  0.163770  1.0  0.1063
  H  H87  1  0.756030  0.977670  0.321170  1.0  0.1109
  H  H88  1  0.780630  0.048870  0.291870  1.0  0.0883
  H  H89  1  0.694530  0.904770  0.310470  1.0  0.1156
  H  H90  1  0.839930  0.897470  0.267470  1.0  0.0851
  H  H91  1  0.886900  0.535100  0.471200  1.0  0.0878
  H  H92  1  0.840200  0.559000  0.497100  1.0  0.1068
  H  H93  1  0.888300  0.577300  0.654500  1.0  0.1115
  H  H94  1  0.934900  0.552700  0.625200  1.0  0.0876
  H  H95  1  0.876900  0.638800  0.643800  1.0  0.1159
  H  H96  1  0.724200  0.493400  0.600800  1.0  0.084
  H  H97  1  0.553570  0.868430  0.804530  1.0  0.0878
  H  H98  1  0.506870  0.892330  0.830430  1.0  0.1068
  H  H99  1  0.554970  0.910630  0.987830  1.0  0.1115
  H  H100  1  0.601570  0.886030  0.958530  1.0  0.0881
  H  H101  1  0.543570  0.972130  0.977130  1.0  0.1158
  H  H102  1  0.390870  0.826730  0.934130  1.0  0.0825
  H  H103  1  0.220230  0.201770  0.137870  1.0  0.0882
  H  H104  1  0.173530  0.225670  0.163770  1.0  0.1075
  H  H105  1  0.221630  0.243970  0.321170  1.0  0.1103
  H  H106  1  0.268230  0.219370  0.291870  1.0  0.0882
  H  H107  1  0.210230  0.305470  0.310470  1.0  0.1159
  H  H108  1  0.057530  0.160070  0.267470  1.0  0.0848
  H  H109  1  0.648200  0.113100  0.471200  1.0  0.0886
  H  H110  1  0.718800  0.159800  0.497100  1.0  0.1068
  H  H111  1  0.689000  0.111700  0.654500  1.0  0.1108
  H  H112  1  0.617800  0.065100  0.625200  1.0  0.0877
  H  H113  1  0.761900  0.123100  0.643800  1.0  0.1164
  H  H114  1  0.769200  0.275800  0.600800  1.0  0.0835
  H  H115  1  0.314870  0.446430  0.804530  1.0  0.0886
  H  H116  1  0.385470  0.493130  0.830430  1.0  0.1068
  H  H117  1  0.355670  0.445030  0.987830  1.0  0.1108
  H  H118  1  0.284470  0.398430  0.958530  1.0  0.0887
  H  H119  1  0.428570  0.456430  0.977130  1.0  0.1164
  H  H120  1  0.435870  0.609130  0.934130  1.0  0.0839
  H  H121  1  0.981530  0.779770  0.137870  1.0  0.0882
  H  H122  1  0.052130  0.826470  0.163770  1.0  0.1068
  H  H123  1  0.022330  0.778370  0.321170  1.0  0.1129
  H  H124  1  0.951130  0.731770  0.291870  1.0  0.0875
  H  H125  1  0.095230  0.789770  0.310470  1.0  0.1164
  H  H126  1  0.102530  0.942470  0.267470  1.0  0.0826
  H  H127  1  0.648200  0.535100  0.471200  1.0  0.0885
  H  H128  1  0.718800  0.559000  0.497100  1.0  0.107
  H  H129  1  0.689000  0.577300  0.654500  1.0  0.1108
  H  H130  1  0.617800  0.552700  0.625200  1.0  0.0886
  H  H131  1  0.761900  0.638800  0.643800  1.0  0.1158
  H  H132  1  0.769200  0.493400  0.600800  1.0  0.0821
  H  H133  1  0.314870  0.868430  0.804530  1.0  0.0885
  H  H134  1  0.385470  0.892330  0.830430  1.0  0.107
  H  H135  1  0.355670  0.910630  0.987830  1.0  0.1104
  H  H136  1  0.284470  0.886030  0.958530  1.0  0.0889
  H  H137  1  0.428570  0.972130  0.977130  1.0  0.1163
  H  H138  1  0.435870  0.826730  0.934130  1.0  0.0814
  H  H139  1  0.981530  0.201770  0.137870  1.0  0.0885
  H  H140  1  0.052130  0.225670  0.163770  1.0  0.1065
  H  H141  1  0.022330  0.243970  0.321170  1.0  0.1108
  H  H142  1  0.951130  0.219370  0.291870  1.0  0.0886
  H  H143  1  0.095230  0.305470  0.310470  1.0  0.1158
  H  H144  1  0.102530  0.160070  0.267470  1.0  0.0833
  H  H145  1  0.464900  0.113100  0.471200  1.0  0.0882
  H  H146  1  0.441000  0.159800  0.497100  1.0  0.1067
  H  H147  1  0.422700  0.111700  0.654500  1.0  0.112
  H  H148  1  0.447300  0.065100  0.625200  1.0  0.0876
  H  H149  1  0.361200  0.123100  0.643800  1.0  0.1163
  H  H150  1  0.506600  0.275800  0.600800  1.0  0.084
  H  H151  1  0.131570  0.446430  0.804530  1.0  0.0882
  H  H152  1  0.107670  0.493130  0.830430  1.0  0.1067
  H  H153  1  0.089370  0.445030  0.987830  1.0  0.112
  H  H154  1  0.113970  0.398430  0.958530  1.0  0.0882
  H  H155  1  0.027870  0.456430  0.977130  1.0  0.1162
  H  H156  1  0.173270  0.609130  0.934130  1.0  0.0826
  H  H157  1  0.798230  0.779770  0.137870  1.0  0.0886
  H  H158  1  0.774330  0.826470  0.163770  1.0  0.1076
  H  H159  1  0.756030  0.778370  0.321170  1.0  0.1106
  H  H160  1  0.780630  0.731770  0.291870  1.0  0.0884
  H  H161  1  0.694530  0.789770  0.310470  1.0  0.1163
  H  H162  1  0.839930  0.942470  0.267470  1.0  0.0851
  H  H163  1  0.886900  0.351800  0.471200  1.0  0.0889
  H  H164  1  0.840200  0.281200  0.497100  1.0  0.1062
  H  H165  1  0.888300  0.311000  0.654500  1.0  0.1101
  H  H166  1  0.934900  0.382200  0.625200  1.0  0.0871
  H  H167  1  0.876900  0.238100  0.643800  1.0  0.1154
  H  H168  1  0.724200  0.230800  0.600800  1.0  0.0844
  H  H169  1  0.553570  0.685130  0.804530  1.0  0.0889
  H  H170  1  0.506870  0.614530  0.830430  1.0  0.1062
  H  H171  1  0.554970  0.644330  0.987830  1.0  0.1101
  H  H172  1  0.601570  0.715530  0.958530  1.0  0.0885
  H  H173  1  0.543570  0.571430  0.977130  1.0  0.1154
  H  H174  1  0.390870  0.564130  0.934130  1.0  0.0843
  H  H175  1  0.220230  0.018470  0.137870  1.0  0.0885
  H  H176  1  0.173530  0.947870  0.163770  1.0  0.1062
  H  H177  1  0.221630  0.977670  0.321170  1.0  0.1119
  H  H178  1  0.268230  0.048870  0.291870  1.0  0.0871
  H  H179  1  0.210230  0.904770  0.310470  1.0  0.1154
  H  H180  1  0.057530  0.897470  0.267470  1.0  0.0837
  H  H181  1  0.535100  0.648200  0.528800  1.0  0.0881
  H  H182  1  0.559000  0.718800  0.502900  1.0  0.1067
  H  H183  1  0.577300  0.689000  0.345500  1.0  0.1105
  H  H184  1  0.552700  0.617800  0.374800  1.0  0.0884
  H  H185  1  0.638800  0.761900  0.356200  1.0  0.1156
  H  H186  1  0.493400  0.769200  0.399200  1.0  0.0834
  H  H187  1  0.201770  0.981530  0.862130  1.0  0.0881
  H  H188  1  0.225670  0.052130  0.836230  1.0  0.106
  H  H189  1  0.243970  0.022330  0.678830  1.0  0.1105
  H  H190  1  0.219370  0.951130  0.708130  1.0  0.0884
  H  H191  1  0.305470  0.095230  0.689530  1.0  0.1156
  H  H192  1  0.160070  0.102530  0.732530  1.0  0.0841
  H  H193  1  0.868430  0.314870  0.195470  1.0  0.0881
  H  H194  1  0.892330  0.385470  0.169570  1.0  0.1067
  H  H195  1  0.910630  0.355670  0.012170  1.0  0.1102
  H  H196  1  0.886030  0.284470  0.041470  1.0  0.0886
  H  H197  1  0.972130  0.428570  0.022870  1.0  0.116
  H  H198  1  0.826730  0.435870  0.065870  1.0  0.0823
  H  H199  1  0.113100  0.464900  0.528800  1.0  0.0874
  H  H200  1  0.159800  0.441000  0.502900  1.0  0.1069
  H  H201  1  0.111700  0.422700  0.345500  1.0  0.1109
  H  H202  1  0.065100  0.447300  0.374800  1.0  0.0877
  H  H203  1  0.123100  0.361200  0.356200  1.0  0.1163
  H  H204  1  0.275800  0.506600  0.399200  1.0  0.0835
  H  H205  1  0.779770  0.798230  0.862130  1.0  0.0876
  H  H206  1  0.826470  0.774330  0.836230  1.0  0.1076
  H  H207  1  0.778370  0.756030  0.678830  1.0  0.1097
  H  H208  1  0.731770  0.780630  0.708130  1.0  0.0888
  H  H209  1  0.789770  0.694530  0.689530  1.0  0.1163
  H  H210  1  0.942470  0.839930  0.732530  1.0  0.0842
  H  H211  1  0.446430  0.131570  0.195470  1.0  0.0874
  H  H212  1  0.493130  0.107670  0.169570  1.0  0.1069
  H  H213  1  0.445030  0.089370  0.012170  1.0  0.1109
  H  H214  1  0.398430  0.113970  0.041470  1.0  0.0881
  H  H215  1  0.456430  0.027870  0.022870  1.0  0.1163
  H  H216  1  0.609130  0.173270  0.065870  1.0  0.0824
  H  H217  1  0.351800  0.886900  0.528800  1.0  0.0879
  H  H218  1  0.281200  0.840200  0.502900  1.0  0.1065
  H  H219  1  0.311000  0.888300  0.345500  1.0  0.1105
  H  H220  1  0.382200  0.934900  0.374800  1.0  0.0878
  H  H221  1  0.238100  0.876900  0.356200  1.0  0.1163
  H  H222  1  0.230800  0.724200  0.399200  1.0  0.0836
  H  H223  1  0.018470  0.220230  0.862130  1.0  0.0874
  H  H224  1  0.947870  0.173530  0.836230  1.0  0.1065
  H  H225  1  0.977670  0.221630  0.678830  1.0  0.1124
  H  H226  1  0.048870  0.268230  0.708130  1.0  0.0876
  H  H227  1  0.904770  0.210230  0.689530  1.0  0.1163
  H  H228  1  0.897470  0.057530  0.732530  1.0  0.0827
  H  H229  1  0.685130  0.553570  0.195470  1.0  0.0879
  H  H230  1  0.614530  0.506870  0.169570  1.0  0.1065
  H  H231  1  0.644330  0.554970  0.012170  1.0  0.1105
  H  H232  1  0.715530  0.601570  0.041470  1.0  0.0891
  H  H233  1  0.571430  0.543570  0.022870  1.0  0.1162
  H  H234  1  0.564130  0.390870  0.065870  1.0  0.0837
  H  H235  1  0.265350  0.530700  0.448000  1.0  0.1031
  H  H236  1  0.932020  0.864030  0.781330  1.0  0.103
  H  H237  1  0.598680  0.197370  0.114670  1.0  0.1031
  H  H238  1  0.469300  0.734650  0.448000  1.0  0.1029
  H  H239  1  0.135970  0.067980  0.781330  1.0  0.1025
  H  H240  1  0.802630  0.401320  0.114670  1.0  0.1029
  H  H241  1  0.265350  0.734650  0.448000  1.0  0.1053
  H  H242  1  0.932020  0.067980  0.781330  1.0  0.1046
  H  H243  1  0.598680  0.401320  0.114670  1.0  0.1053
  H  H244  1  0.530700  0.265350  0.552000  1.0  0.1038
  H  H245  1  0.197370  0.598680  0.885330  1.0  0.1038
  H  H246  1  0.864030  0.932020  0.218670  1.0  0.1042
  H  H247  1  0.734650  0.469300  0.552000  1.0  0.1032
  H  H248  1  0.401320  0.802630  0.885330  1.0  0.1032
  H  H249  1  0.067980  0.135970  0.218670  1.0  0.1033
  H  H250  1  0.734650  0.265350  0.552000  1.0  0.1039
  H  H251  1  0.401320  0.598680  0.885330  1.0  0.1039
  H  H252  1  0.067980  0.932020  0.218670  1.0  0.1033
  C  C253  1  0.422360  0.475900  0.469600  1.0  0.6811
  C  C254  1  0.375540  0.460550  0.454400  1.0  -0.1017
  C  C255  1  0.343830  0.456910  0.491000  1.0  -0.0352
  C  C256  1  0.301170  0.442280  0.475800  1.0  -0.1449
  C  C257  1  0.286860  0.429160  0.420400  1.0  0.1072
  C  C258  1  0.318710  0.431470  0.383100  1.0  -0.216
  C  C259  1  0.361830  0.446680  0.401000  1.0  -0.0629
  C  C260  1  0.240160  0.411100  0.403900  1.0  0.0529
  C  C261  1  0.220930  0.373330  0.368000  1.0  -0.141
  C  C262  1  0.089030  0.809230  0.802930  1.0  0.6811
  C  C263  1  0.042210  0.793880  0.787730  1.0  -0.1017
  C  C264  1  0.010500  0.790240  0.824330  1.0  -0.0352
  C  C265  1  0.967840  0.775610  0.809130  1.0  -0.1449
  C  C266  1  0.953530  0.762490  0.753730  1.0  0.1072
  C  C267  1  0.985380  0.764800  0.716430  1.0  -0.216
  C  C268  1  0.028500  0.780010  0.734330  1.0  -0.0629
  C  C269  1  0.906830  0.744430  0.737230  1.0  0.0529
  C  C270  1  0.887600  0.706660  0.701330  1.0  -0.141
  C  C271  1  0.755690  0.142570  0.136270  1.0  0.6811
  C  C272  1  0.708870  0.127220  0.121070  1.0  -0.1017
  C  C273  1  0.677160  0.123580  0.157670  1.0  -0.0352
  C  C274  1  0.634500  0.108950  0.142470  1.0  -0.1449
  C  C275  1  0.620190  0.095830  0.087070  1.0  0.1072
  C  C276  1  0.652040  0.098140  0.049770  1.0  -0.216
  C  C277  1  0.695160  0.113350  0.067670  1.0  -0.0629
  C  C278  1  0.573490  0.077770  0.070570  1.0  0.0529
  C  C279  1  0.554260  0.040000  0.034670  1.0  -0.1408
  C  C280  1  0.524100  0.946460  0.469600  1.0  0.682
  C  C281  1  0.539450  0.914990  0.454400  1.0  -0.1002
  C  C282  1  0.543090  0.886920  0.491000  1.0  -0.0353
  C  C283  1  0.557720  0.858890  0.475800  1.0  -0.1434
  C  C284  1  0.570840  0.857700  0.420400  1.0  0.1055
  C  C285  1  0.568530  0.887240  0.383100  1.0  -0.2191
  C  C286  1  0.553320  0.915150  0.401000  1.0  -0.0649
  C  C287  1  0.588900  0.829060  0.403900  1.0  0.052
  C  C288  1  0.626670  0.847600  0.368000  1.0  -0.1356
  C  C289  1  0.190770  0.279790  0.802930  1.0  0.682
  C  C290  1  0.206120  0.248320  0.787730  1.0  -0.1002
  C  C291  1  0.209760  0.220250  0.824330  1.0  -0.0353
  C  C292  1  0.224390  0.192220  0.809130  1.0  -0.1434
  C  C293  1  0.237510  0.191030  0.753730  1.0  0.1055
  C  C294  1  0.235200  0.220570  0.716430  1.0  -0.2191
  C  C295  1  0.219990  0.248480  0.734330  1.0  -0.0649
  C  C296  1  0.255570  0.162390  0.737230  1.0  0.052
  C  C297  1  0.293340  0.180930  0.701330  1.0  -0.1356
  C  C298  1  0.857430  0.613130  0.136270  1.0  0.682
  C  C299  1  0.872780  0.581660  0.121070  1.0  -0.1002
  C  C300  1  0.876420  0.553590  0.157670  1.0  -0.0353
  C  C301  1  0.891050  0.525560  0.142470  1.0  -0.1434
  C  C302  1  0.904170  0.524370  0.087070  1.0  0.1055
  C  C303  1  0.901860  0.553910  0.049770  1.0  -0.2191
  C  C304  1  0.886650  0.581820  0.067670  1.0  -0.0649
  C  C305  1  0.922230  0.495730  0.070570  1.0  0.052
  C  C306  1  0.960000  0.514270  0.034670  1.0  -0.1355
  C  C307  1  0.053540  0.577640  0.469600  1.0  0.6823
  C  C308  1  0.085010  0.624460  0.454400  1.0  -0.1003
  C  C309  1  0.113080  0.656170  0.491000  1.0  -0.0342
  C  C310  1  0.141110  0.698830  0.475800  1.0  -0.1458
  C  C311  1  0.142300  0.713140  0.420400  1.0  0.1073
  C  C312  1  0.112760  0.681290  0.383100  1.0  -0.2175
  C  C313  1  0.084850  0.638170  0.401000  1.0  -0.0642
  C  C314  1  0.170940  0.759840  0.403900  1.0  0.0507
  C  C315  1  0.152400  0.779070  0.368000  1.0  -0.1416
  C  C316  1  0.720210  0.910970  0.802930  1.0  0.6823
  C  C317  1  0.751680  0.957790  0.787730  1.0  -0.1003
  C  C318  1  0.779750  0.989500  0.824330  1.0  -0.0342
  C  C319  1  0.807780  0.032160  0.809130  1.0  -0.1458
  C  C320  1  0.808970  0.046470  0.753730  1.0  0.1073
  C  C321  1  0.779430  0.014620  0.716430  1.0  -0.2175
  C  C322  1  0.751520  0.971500  0.734330  1.0  -0.0642
  C  C323  1  0.837610  0.093170  0.737230  1.0  0.0507
  C  C324  1  0.819070  0.112400  0.701330  1.0  -0.1416
  C  C325  1  0.386870  0.244310  0.136270  1.0  0.6823
  C  C326  1  0.418340  0.291130  0.121070  1.0  -0.1003
  C  C327  1  0.446410  0.322840  0.157670  1.0  -0.0342
  C  C328  1  0.474440  0.365500  0.142470  1.0  -0.1458
  C  C329  1  0.475630  0.379810  0.087070  1.0  0.1073
  C  C330  1  0.446090  0.347960  0.049770  1.0  -0.2174
  C  C331  1  0.418180  0.304840  0.067670  1.0  -0.0642
  C  C332  1  0.504270  0.426510  0.070570  1.0  0.0507
  C  C333  1  0.485730  0.445740  0.034670  1.0  -0.1419
  C  C334  1  0.475900  0.422360  0.530400  1.0  0.6824
  C  C335  1  0.460550  0.375540  0.545600  1.0  -0.0994
  C  C336  1  0.456910  0.343830  0.509000  1.0  -0.0365
  C  C337  1  0.442280  0.301170  0.524200  1.0  -0.1446
  C  C338  1  0.429160  0.286860  0.579600  1.0  0.1076
  C  C339  1  0.431470  0.318710  0.616900  1.0  -0.2196
  C  C340  1  0.446680  0.361830  0.599000  1.0  -0.0664
  C  C341  1  0.411100  0.240160  0.596100  1.0  0.0511
  C  C342  1  0.373330  0.220930  0.632000  1.0  -0.1433
  C  C343  1  0.142570  0.755690  0.863730  1.0  0.6824
  C  C344  1  0.127220  0.708870  0.878930  1.0  -0.0994
  C  C345  1  0.123580  0.677160  0.842330  1.0  -0.0365
  C  C346  1  0.108950  0.634500  0.857530  1.0  -0.1446
  C  C347  1  0.095830  0.620190  0.912930  1.0  0.1076
  C  C348  1  0.098140  0.652040  0.950230  1.0  -0.2196
  C  C349  1  0.113350  0.695160  0.932330  1.0  -0.0664
  C  C350  1  0.077770  0.573490  0.929430  1.0  0.0511
  C  C351  1  0.040000  0.554260  0.965330  1.0  -0.1433
  C  C352  1  0.809230  0.089030  0.197070  1.0  0.6824
  C  C353  1  0.793880  0.042210  0.212270  1.0  -0.0994
  C  C354  1  0.790240  0.010500  0.175670  1.0  -0.0365
  C  C355  1  0.775610  0.967840  0.190870  1.0  -0.1446
  C  C356  1  0.762490  0.953530  0.246270  1.0  0.1076
  C  C357  1  0.764800  0.985380  0.283570  1.0  -0.2196
  C  C358  1  0.780010  0.028500  0.265670  1.0  -0.0664
  C  C359  1  0.744430  0.906830  0.262770  1.0  0.0511
  C  C360  1  0.706660  0.887600  0.298670  1.0  -0.1433
  C  C361  1  0.946460  0.524100  0.530400  1.0  0.6806
  C  C362  1  0.914990  0.539450  0.545600  1.0  -0.1009
  C  C363  1  0.886920  0.543090  0.509000  1.0  -0.0349
  C  C364  1  0.858890  0.557720  0.524200  1.0  -0.1442
  C  C365  1  0.857700  0.570840  0.579600  1.0  0.1067
  C  C366  1  0.887240  0.568530  0.616900  1.0  -0.2178
  C  C367  1  0.915150  0.553320  0.599000  1.0  -0.0628
  C  C368  1  0.829060  0.588900  0.596100  1.0  0.0531
  C  C369  1  0.847600  0.626670  0.632000  1.0  -0.1423
  C  C370  1  0.613130  0.857430  0.863730  1.0  0.6806
  C  C371  1  0.581660  0.872780  0.878930  1.0  -0.1009
  C  C372  1  0.553590  0.876420  0.842330  1.0  -0.0349
  C  C373  1  0.525560  0.891050  0.857530  1.0  -0.1442
  C  C374  1  0.524370  0.904170  0.912930  1.0  0.1067
  C  C375  1  0.553910  0.901860  0.950230  1.0  -0.2178
  C  C376  1  0.581820  0.886650  0.932330  1.0  -0.0628
  C  C377  1  0.495730  0.922230  0.929430  1.0  0.0531
  C  C378  1  0.514270  0.960000  0.965330  1.0  -0.1422
  C  C379  1  0.279790  0.190770  0.197070  1.0  0.6806
  C  C380  1  0.248320  0.206120  0.212270  1.0  -0.1009
  C  C381  1  0.220250  0.209760  0.175670  1.0  -0.0349
  C  C382  1  0.192220  0.224390  0.190870  1.0  -0.1442
  C  C383  1  0.191030  0.237510  0.246270  1.0  0.1067
  C  C384  1  0.220570  0.235200  0.283570  1.0  -0.2178
  C  C385  1  0.248480  0.219990  0.265670  1.0  -0.0628
  C  C386  1  0.162390  0.255570  0.262770  1.0  0.0531
  C  C387  1  0.180930  0.293340  0.298670  1.0  -0.1423
  C  C388  1  0.577640  0.053540  0.530400  1.0  0.6819
  C  C389  1  0.624460  0.085010  0.545600  1.0  -0.1002
  C  C390  1  0.656170  0.113080  0.509000  1.0  -0.0361
  C  C391  1  0.698830  0.141110  0.524200  1.0  -0.1431
  C  C392  1  0.713140  0.142300  0.579600  1.0  0.1061
  C  C393  1  0.681290  0.112760  0.616900  1.0  -0.2194
  C  C394  1  0.638170  0.084850  0.599000  1.0  -0.0655
  C  C395  1  0.759840  0.170940  0.596100  1.0  0.0515
  C  C396  1  0.779070  0.152400  0.632000  1.0  -0.1376
  C  C397  1  0.244310  0.386870  0.863730  1.0  0.6819
  C  C398  1  0.291130  0.418340  0.878930  1.0  -0.1002
  C  C399  1  0.322840  0.446410  0.842330  1.0  -0.0361
  C  C400  1  0.365500  0.474440  0.857530  1.0  -0.1431
  C  C401  1  0.379810  0.475630  0.912930  1.0  0.1061
  C  C402  1  0.347960  0.446090  0.950230  1.0  -0.2194
  C  C403  1  0.304840  0.418180  0.932330  1.0  -0.0655
  C  C404  1  0.426510  0.504270  0.929430  1.0  0.0515
  C  C405  1  0.445740  0.485730  0.965330  1.0  -0.1379
  C  C406  1  0.910970  0.720210  0.197070  1.0  0.6819
  C  C407  1  0.957790  0.751680  0.212270  1.0  -0.1002
  C  C408  1  0.989500  0.779750  0.175670  1.0  -0.0361
  C  C409  1  0.032160  0.807780  0.190870  1.0  -0.1431
  C  C410  1  0.046470  0.808970  0.246270  1.0  0.1061
  C  C411  1  0.014620  0.779430  0.283570  1.0  -0.2194
  C  C412  1  0.971500  0.751520  0.265670  1.0  -0.0655
  C  C413  1  0.093170  0.837610  0.262770  1.0  0.0515
  C  C414  1  0.112400  0.819070  0.298670  1.0  -0.1376
  C  C415  1  0.577640  0.524100  0.530400  1.0  0.6814
  C  C416  1  0.624460  0.539450  0.545600  1.0  -0.1019
  C  C417  1  0.656170  0.543090  0.509000  1.0  -0.0347
  C  C418  1  0.698830  0.557720  0.524200  1.0  -0.1437
  C  C419  1  0.713140  0.570840  0.579600  1.0  0.1072
  C  C420  1  0.681290  0.568530  0.616900  1.0  -0.2173
  C  C421  1  0.638170  0.553320  0.599000  1.0  -0.0641
  C  C422  1  0.759840  0.588900  0.596100  1.0  0.0525
  C  C423  1  0.779070  0.626670  0.632000  1.0  -0.1436
  C  C424  1  0.244310  0.857430  0.863730  1.0  0.6814
  C  C425  1  0.291130  0.872780  0.878930  1.0  -0.1019
  C  C426  1  0.322840  0.876420  0.842330  1.0  -0.0347
  C  C427  1  0.365500  0.891050  0.857530  1.0  -0.1437
  C  C428  1  0.379810  0.904170  0.912930  1.0  0.1072
  C  C429  1  0.347960  0.901860  0.950230  1.0  -0.2173
  C  C430  1  0.304840  0.886650  0.932330  1.0  -0.0641
  C  C431  1  0.426510  0.922230  0.929430  1.0  0.0525
  C  C432  1  0.445740  0.960000  0.965330  1.0  -0.1435
  C  C433  1  0.910970  0.190770  0.197070  1.0  0.6814
  C  C434  1  0.957790  0.206120  0.212270  1.0  -0.1019
  C  C435  1  0.989500  0.209760  0.175670  1.0  -0.0347
  C  C436  1  0.032160  0.224390  0.190870  1.0  -0.1437
  C  C437  1  0.046470  0.237510  0.246270  1.0  0.1072
  C  C438  1  0.014620  0.235200  0.283570  1.0  -0.2173
  C  C439  1  0.971500  0.219990  0.265670  1.0  -0.0641
  C  C440  1  0.093170  0.255570  0.262770  1.0  0.0525
  C  C441  1  0.112400  0.293340  0.298670  1.0  -0.1436
  C  C442  1  0.475900  0.053540  0.530400  1.0  0.6814
  C  C443  1  0.460550  0.085010  0.545600  1.0  -0.1004
  C  C444  1  0.456910  0.113080  0.509000  1.0  -0.0358
  C  C445  1  0.442280  0.141110  0.524200  1.0  -0.1432
  C  C446  1  0.429160  0.142300  0.579600  1.0  0.1067
  C  C447  1  0.431470  0.112760  0.616900  1.0  -0.2199
  C  C448  1  0.446680  0.084850  0.599000  1.0  -0.0647
  C  C449  1  0.411100  0.170940  0.596100  1.0  0.0515
  C  C450  1  0.373330  0.152400  0.632000  1.0  -0.1383
  C  C451  1  0.142570  0.386870  0.863730  1.0  0.6814
  C  C452  1  0.127220  0.418340  0.878930  1.0  -0.1005
  C  C453  1  0.123580  0.446410  0.842330  1.0  -0.0358
  C  C454  1  0.108950  0.474440  0.857530  1.0  -0.1432
  C  C455  1  0.095830  0.475630  0.912930  1.0  0.1067
  C  C456  1  0.098140  0.446090  0.950230  1.0  -0.2199
  C  C457  1  0.113350  0.418180  0.932330  1.0  -0.0647
  C  C458  1  0.077770  0.504270  0.929430  1.0  0.0515
  C  C459  1  0.040000  0.485730  0.965330  1.0  -0.1382
  C  C460  1  0.809230  0.720210  0.197070  1.0  0.6814
  C  C461  1  0.793880  0.751680  0.212270  1.0  -0.1004
  C  C462  1  0.790240  0.779750  0.175670  1.0  -0.0358
  C  C463  1  0.775610  0.807780  0.190870  1.0  -0.1432
  C  C464  1  0.762490  0.808970  0.246270  1.0  0.1067
  C  C465  1  0.764800  0.779430  0.283570  1.0  -0.2199
  C  C466  1  0.780010  0.751520  0.265670  1.0  -0.0647
  C  C467  1  0.744430  0.837610  0.262770  1.0  0.0515
  C  C468  1  0.706660  0.819070  0.298670  1.0  -0.1383
  C  C469  1  0.946460  0.422360  0.530400  1.0  0.6821
  C  C470  1  0.914990  0.375540  0.545600  1.0  -0.0995
  C  C471  1  0.886920  0.343830  0.509000  1.0  -0.036
  C  C472  1  0.858890  0.301170  0.524200  1.0  -0.1447
  C  C473  1  0.857700  0.286860  0.579600  1.0  0.1068
  C  C474  1  0.887240  0.318710  0.616900  1.0  -0.2199
  C  C475  1  0.915150  0.361830  0.599000  1.0  -0.0642
  C  C476  1  0.829060  0.240160  0.596100  1.0  0.0518
  C  C477  1  0.847600  0.220930  0.632000  1.0  -0.1426
  C  C478  1  0.613130  0.755690  0.863730  1.0  0.6821
  C  C479  1  0.581660  0.708870  0.878930  1.0  -0.0995
  C  C480  1  0.553590  0.677160  0.842330  1.0  -0.036
  C  C481  1  0.525560  0.634500  0.857530  1.0  -0.1447
  C  C482  1  0.524370  0.620190  0.912930  1.0  0.1068
  C  C483  1  0.553910  0.652040  0.950230  1.0  -0.2199
  C  C484  1  0.581820  0.695160  0.932330  1.0  -0.0642
  C  C485  1  0.495730  0.573490  0.929430  1.0  0.0518
  C  C486  1  0.514270  0.554260  0.965330  1.0  -0.143
  C  C487  1  0.279790  0.089030  0.197070  1.0  0.6821
  C  C488  1  0.248320  0.042210  0.212270  1.0  -0.0995
  C  C489  1  0.220250  0.010500  0.175670  1.0  -0.036
  C  C490  1  0.192220  0.967840  0.190870  1.0  -0.1447
  C  C491  1  0.191030  0.953530  0.246270  1.0  0.1068
  C  C492  1  0.220570  0.985380  0.283570  1.0  -0.2199
  C  C493  1  0.248480  0.028500  0.265670  1.0  -0.0642
  C  C494  1  0.162390  0.906830  0.262770  1.0  0.0518
  C  C495  1  0.180930  0.887600  0.298670  1.0  -0.1426
  C  C496  1  0.524100  0.577640  0.469600  1.0  0.682
  C  C497  1  0.539450  0.624460  0.454400  1.0  -0.1004
  C  C498  1  0.543090  0.656170  0.491000  1.0  -0.0346
  C  C499  1  0.557720  0.698830  0.475800  1.0  -0.1464
  C  C500  1  0.570840  0.713140  0.420400  1.0  0.1068
  C  C501  1  0.568530  0.681290  0.383100  1.0  -0.2184
  C  C502  1  0.553320  0.638170  0.401000  1.0  -0.0646
  C  C503  1  0.588900  0.759840  0.403900  1.0  0.0514
  C  C504  1  0.626670  0.779070  0.368000  1.0  -0.1417
  C  C505  1  0.190770  0.910970  0.802930  1.0  0.682
  C  C506  1  0.206120  0.957790  0.787730  1.0  -0.1004
  C  C507  1  0.209760  0.989500  0.824330  1.0  -0.0346
  C  C508  1  0.224390  0.032160  0.809130  1.0  -0.1464
  C  C509  1  0.237510  0.046470  0.753730  1.0  0.1068
  C  C510  1  0.235200  0.014620  0.716430  1.0  -0.2184
  C  C511  1  0.219990  0.971500  0.734330  1.0  -0.0646
  C  C512  1  0.255570  0.093170  0.737230  1.0  0.0514
  C  C513  1  0.293340  0.112400  0.701330  1.0  -0.1417
  C  C514  1  0.857430  0.244310  0.136270  1.0  0.682
  C  C515  1  0.872780  0.291130  0.121070  1.0  -0.1004
  C  C516  1  0.876420  0.322840  0.157670  1.0  -0.0346
  C  C517  1  0.891050  0.365500  0.142470  1.0  -0.1464
  C  C518  1  0.904170  0.379810  0.087070  1.0  0.1068
  C  C519  1  0.901860  0.347960  0.049770  1.0  -0.2184
  C  C520  1  0.886650  0.304840  0.067670  1.0  -0.0646
  C  C521  1  0.922230  0.426510  0.070570  1.0  0.0514
  C  C522  1  0.960000  0.445740  0.034670  1.0  -0.1415
  C  C523  1  0.053540  0.475900  0.469600  1.0  0.6817
  C  C524  1  0.085010  0.460550  0.454400  1.0  -0.1021
  C  C525  1  0.113080  0.456910  0.491000  1.0  -0.0354
  C  C526  1  0.141110  0.442280  0.475800  1.0  -0.1442
  C  C527  1  0.142300  0.429160  0.420400  1.0  0.1073
  C  C528  1  0.112760  0.431470  0.383100  1.0  -0.2159
  C  C529  1  0.084850  0.446680  0.401000  1.0  -0.0632
  C  C530  1  0.170940  0.411100  0.403900  1.0  0.0522
  C  C531  1  0.152400  0.373330  0.368000  1.0  -0.1426
  C  C532  1  0.720210  0.809230  0.802930  1.0  0.6817
  C  C533  1  0.751680  0.793880  0.787730  1.0  -0.1021
  C  C534  1  0.779750  0.790240  0.824330  1.0  -0.0354
  C  C535  1  0.807780  0.775610  0.809130  1.0  -0.1442
  C  C536  1  0.808970  0.762490  0.753730  1.0  0.1073
  C  C537  1  0.779430  0.764800  0.716430  1.0  -0.2159
  C  C538  1  0.751520  0.780010  0.734330  1.0  -0.0632
  C  C539  1  0.837610  0.744430  0.737230  1.0  0.0522
  C  C540  1  0.819070  0.706660  0.701330  1.0  -0.1426
  C  C541  1  0.386870  0.142570  0.136270  1.0  0.6817
  C  C542  1  0.418340  0.127220  0.121070  1.0  -0.1022
  C  C543  1  0.446410  0.123580  0.157670  1.0  -0.0354
  C  C544  1  0.474440  0.108950  0.142470  1.0  -0.1442
  C  C545  1  0.475630  0.095830  0.087070  1.0  0.1073
  C  C546  1  0.446090  0.098140  0.049770  1.0  -0.2159
  C  C547  1  0.418180  0.113350  0.067670  1.0  -0.0632
  C  C548  1  0.504270  0.077770  0.070570  1.0  0.0522
  C  C549  1  0.485730  0.040000  0.034670  1.0  -0.1426
  C  C550  1  0.422360  0.946460  0.469600  1.0  0.6816
  C  C551  1  0.375540  0.914990  0.454400  1.0  -0.1013
  C  C552  1  0.343830  0.886920  0.491000  1.0  -0.0348
  C  C553  1  0.301170  0.858890  0.475800  1.0  -0.1446
  C  C554  1  0.286860  0.857700  0.420400  1.0  0.1061
  C  C555  1  0.318710  0.887240  0.383100  1.0  -0.2198
  C  C556  1  0.361830  0.915150  0.401000  1.0  -0.0654
  C  C557  1  0.240160  0.829060  0.403900  1.0  0.0519
  C  C558  1  0.220930  0.847600  0.368000  1.0  -0.1359
  C  C559  1  0.089030  0.279790  0.802930  1.0  0.6816
  C  C560  1  0.042210  0.248320  0.787730  1.0  -0.1013
  C  C561  1  0.010500  0.220250  0.824330  1.0  -0.0348
  C  C562  1  0.967840  0.192220  0.809130  1.0  -0.1446
  C  C563  1  0.953530  0.191030  0.753730  1.0  0.1061
  C  C564  1  0.985380  0.220570  0.716430  1.0  -0.2198
  C  C565  1  0.028500  0.248480  0.734330  1.0  -0.0654
  C  C566  1  0.906830  0.162390  0.737230  1.0  0.0519
  C  C567  1  0.887600  0.180930  0.701330  1.0  -0.1359
  C  C568  1  0.755690  0.613130  0.136270  1.0  0.6816
  C  C569  1  0.708870  0.581660  0.121070  1.0  -0.1013
  C  C570  1  0.677160  0.553590  0.157670  1.0  -0.0348
  C  C571  1  0.634500  0.525560  0.142470  1.0  -0.1446
  C  C572  1  0.620190  0.524370  0.087070  1.0  0.1061
  C  C573  1  0.652040  0.553910  0.049770  1.0  -0.2198
  C  C574  1  0.695160  0.581820  0.067670  1.0  -0.0654
  C  C575  1  0.573490  0.495730  0.070570  1.0  0.0519
  C  C576  1  0.554260  0.514270  0.034670  1.0  -0.1361
  C  C577  1  0.176870  0.353740  0.349900  1.0  -0.0511
  C  C578  1  0.214800  0.429600  0.417200  1.0  0.2448
  C  C579  1  0.252850  0.505700  0.422700  1.0  -0.0287
  C  C580  1  0.843540  0.687070  0.683230  1.0  -0.0511
  C  C581  1  0.881470  0.762930  0.750530  1.0  0.2448
  C  C582  1  0.919520  0.839030  0.756030  1.0  -0.0287
  C  C583  1  0.510200  0.020410  0.016570  1.0  -0.0514
  C  C584  1  0.548130  0.096270  0.083870  1.0  0.2448
  C  C585  1  0.586180  0.172370  0.089370  1.0  -0.0287
  C  C586  1  0.646260  0.823130  0.349900  1.0  -0.0523
  C  C587  1  0.570400  0.785200  0.417200  1.0  0.2446
  C  C588  1  0.494300  0.747150  0.422700  1.0  -0.0315
  C  C589  1  0.312930  0.156460  0.683230  1.0  -0.0523
  C  C590  1  0.237070  0.118530  0.750530  1.0  0.2446
  C  C591  1  0.160970  0.080480  0.756030  1.0  -0.0315
  C  C592  1  0.979590  0.489800  0.016570  1.0  -0.0527
  C  C593  1  0.903730  0.451870  0.083870  1.0  0.2446
  C  C594  1  0.827630  0.413820  0.089370  1.0  -0.0315
  C  C595  1  0.176870  0.823130  0.349900  1.0  -0.0521
  C  C596  1  0.214800  0.785200  0.417200  1.0  0.2441
  C  C597  1  0.252850  0.747150  0.422700  1.0  -0.0297
  C  C598  1  0.843540  0.156460  0.683230  1.0  -0.0521
  C  C599  1  0.881470  0.118530  0.750530  1.0  0.2441
  C  C600  1  0.919520  0.080480  0.756030  1.0  -0.0297
  C  C601  1  0.510200  0.489800  0.016570  1.0  -0.052
  C  C602  1  0.548130  0.451870  0.083870  1.0  0.2441
  C  C603  1  0.586180  0.413820  0.089370  1.0  -0.0297
  C  C604  1  0.353740  0.176870  0.650100  1.0  -0.0524
  C  C605  1  0.429600  0.214800  0.582800  1.0  0.2438
  C  C606  1  0.505700  0.252850  0.577300  1.0  -0.0311
  C  C607  1  0.020410  0.510200  0.983430  1.0  -0.0528
  C  C608  1  0.096270  0.548130  0.916130  1.0  0.2438
  C  C609  1  0.172370  0.586180  0.910630  1.0  -0.0311
  C  C610  1  0.687070  0.843540  0.316770  1.0  -0.0524
  C  C611  1  0.762930  0.881470  0.249470  1.0  0.2438
  C  C612  1  0.839030  0.919520  0.243970  1.0  -0.0311
  C  C613  1  0.823130  0.646260  0.650100  1.0  -0.0508
  C  C614  1  0.785200  0.570400  0.582800  1.0  0.2445
  C  C615  1  0.747150  0.494300  0.577300  1.0  -0.0263
  C  C616  1  0.489800  0.979590  0.983430  1.0  -0.0512
  C  C617  1  0.451870  0.903730  0.916130  1.0  0.2445
  C  C618  1  0.413820  0.827630  0.910630  1.0  -0.0263
  C  C619  1  0.156460  0.312930  0.316770  1.0  -0.0508
  C  C620  1  0.118530  0.237070  0.249470  1.0  0.2445
  C  C621  1  0.080480  0.160970  0.243970  1.0  -0.0263
  C  C622  1  0.823130  0.176870  0.650100  1.0  -0.0531
  C  C623  1  0.785200  0.214800  0.582800  1.0  0.2444
  C  C624  1  0.747150  0.252850  0.577300  1.0  -0.0317
  C  C625  1  0.489800  0.510200  0.983430  1.0  -0.0529
  C  C626  1  0.451870  0.548130  0.916130  1.0  0.2444
  C  C627  1  0.413820  0.586180  0.910630  1.0  -0.0317
  C  C628  1  0.156460  0.843540  0.316770  1.0  -0.0531
  C  C629  1  0.118530  0.881470  0.249470  1.0  0.2444
  C  C630  1  0.080480  0.919520  0.243970  1.0  -0.0317
  O  O631  1  0.447170  0.473870  0.433110  1.0  -0.5752
  O  O632  1  0.432180  0.489120  0.519950  1.0  -0.5787
  O  O633  1  0.113840  0.807200  0.766440  1.0  -0.5752
  O  O634  1  0.098850  0.822450  0.853280  1.0  -0.5787
  O  O635  1  0.780500  0.140540  0.099780  1.0  -0.5752
  O  O636  1  0.765510  0.155790  0.186620  1.0  -0.5787
  O  O637  1  0.526130  0.973300  0.433110  1.0  -0.5756
  O  O638  1  0.510880  0.943060  0.519950  1.0  -0.5788
  O  O639  1  0.192800  0.306630  0.766440  1.0  -0.5756
  O  O640  1  0.177550  0.276390  0.853280  1.0  -0.5791
  O  O641  1  0.859460  0.639970  0.099780  1.0  -0.5747
  O  O642  1  0.844210  0.609730  0.186620  1.0  -0.5788
  O  O643  1  0.026700  0.552830  0.433110  1.0  -0.5753
  O  O644  1  0.056940  0.567820  0.519950  1.0  -0.5775
  O  O645  1  0.693370  0.886160  0.766440  1.0  -0.5753
  O  O646  1  0.723610  0.901150  0.853280  1.0  -0.5774
  O  O647  1  0.360030  0.219500  0.099780  1.0  -0.5755
  O  O648  1  0.390270  0.234490  0.186620  1.0  -0.5775
  O  O649  1  0.473870  0.447170  0.566890  1.0  -0.574
  O  O650  1  0.489120  0.432180  0.480050  1.0  -0.5763
  O  O651  1  0.140540  0.780500  0.900220  1.0  -0.574
  O  O652  1  0.155790  0.765510  0.813380  1.0  -0.5763
  O  O653  1  0.807200  0.113840  0.233560  1.0  -0.574
  O  O654  1  0.822450  0.098850  0.146720  1.0  -0.5763
  O  O655  1  0.973300  0.526130  0.566890  1.0  -0.5736
  O  O656  1  0.943060  0.510880  0.480050  1.0  -0.578
  O  O657  1  0.639970  0.859460  0.900220  1.0  -0.5722
  O  O658  1  0.609730  0.844210  0.813380  1.0  -0.578
  O  O659  1  0.306630  0.192800  0.233560  1.0  -0.5736
  O  O660  1  0.276390  0.177550  0.146720  1.0  -0.5771
  O  O661  1  0.552830  0.026700  0.566890  1.0  -0.5739
  O  O662  1  0.567820  0.056940  0.480050  1.0  -0.5787
  O  O663  1  0.219500  0.360030  0.900220  1.0  -0.5745
  O  O664  1  0.234490  0.390270  0.813380  1.0  -0.5787
  O  O665  1  0.886160  0.693370  0.233560  1.0  -0.5739
  O  O666  1  0.901150  0.723610  0.146720  1.0  -0.579
  O  O667  1  0.552830  0.526130  0.566890  1.0  -0.573
  O  O668  1  0.567820  0.510880  0.480050  1.0  -0.577
  O  O669  1  0.219500  0.859460  0.900220  1.0  -0.573
  O  O670  1  0.234490  0.844210  0.813380  1.0  -0.577
  O  O671  1  0.886160  0.192800  0.233560  1.0  -0.573
  O  O672  1  0.901150  0.177550  0.146720  1.0  -0.577
  O  O673  1  0.473870  0.026700  0.566890  1.0  -0.5744
  O  O674  1  0.489120  0.056940  0.480050  1.0  -0.5784
  O  O675  1  0.140540  0.360030  0.900220  1.0  -0.5733
  O  O676  1  0.155790  0.390270  0.813380  1.0  -0.5784
  O  O677  1  0.807200  0.693370  0.233560  1.0  -0.5744
  O  O678  1  0.822450  0.723610  0.146720  1.0  -0.5786
  O  O679  1  0.973300  0.447170  0.566890  1.0  -0.5731
  O  O680  1  0.943060  0.432180  0.480050  1.0  -0.5772
  O  O681  1  0.639970  0.780500  0.900220  1.0  -0.5735
  O  O682  1  0.609730  0.765510  0.813380  1.0  -0.5772
  O  O683  1  0.306630  0.113840  0.233560  1.0  -0.5731
  O  O684  1  0.276390  0.098850  0.146720  1.0  -0.5778
  O  O685  1  0.526130  0.552830  0.433110  1.0  -0.575
  O  O686  1  0.510880  0.567820  0.519950  1.0  -0.578
  O  O687  1  0.192800  0.886160  0.766440  1.0  -0.575
  O  O688  1  0.177550  0.901150  0.853280  1.0  -0.578
  O  O689  1  0.859460  0.219500  0.099780  1.0  -0.575
  O  O690  1  0.844210  0.234490  0.186620  1.0  -0.578
  O  O691  1  0.026700  0.473870  0.433110  1.0  -0.5747
  O  O692  1  0.056940  0.489120  0.519950  1.0  -0.5777
  O  O693  1  0.693370  0.807200  0.766440  1.0  -0.5747
  O  O694  1  0.723610  0.822450  0.853280  1.0  -0.5778
  O  O695  1  0.360030  0.140540  0.099780  1.0  -0.574
  O  O696  1  0.390270  0.155790  0.186620  1.0  -0.5777
  O  O697  1  0.447170  0.973300  0.433110  1.0  -0.575
  O  O698  1  0.432180  0.943060  0.519950  1.0  -0.5787
  O  O699  1  0.113840  0.306630  0.766440  1.0  -0.575
  O  O700  1  0.098850  0.276390  0.853280  1.0  -0.5785
  O  O701  1  0.780500  0.639970  0.099780  1.0  -0.5755
  O  O702  1  0.765510  0.609730  0.186620  1.0  -0.5787
  O  O703  1  0.233260  0.466520  0.454600  1.0  -0.3355
  O  O704  1  0.899930  0.799850  0.787930  1.0  -0.3355
  O  O705  1  0.566590  0.133190  0.121270  1.0  -0.3354
  O  O706  1  0.533480  0.766740  0.454600  1.0  -0.3351
  O  O707  1  0.200150  0.100070  0.787930  1.0  -0.3351
  O  O708  1  0.866810  0.433410  0.121270  1.0  -0.335
  O  O709  1  0.233260  0.766740  0.454600  1.0  -0.3364
  O  O710  1  0.899930  0.100070  0.787930  1.0  -0.3364
  O  O711  1  0.566590  0.433410  0.121270  1.0  -0.3365
  O  O712  1  0.466520  0.233260  0.545400  1.0  -0.3321
  O  O713  1  0.133190  0.566590  0.878730  1.0  -0.332
  O  O714  1  0.799850  0.899930  0.212070  1.0  -0.3321
  O  O715  1  0.766740  0.533480  0.545400  1.0  -0.3328
  O  O716  1  0.433410  0.866810  0.878730  1.0  -0.3328
  O  O717  1  0.100070  0.200150  0.212070  1.0  -0.3328
  O  O718  1  0.766740  0.233260  0.545400  1.0  -0.3313
  O  O719  1  0.433410  0.566590  0.878730  1.0  -0.3314
  O  O720  1  0.100070  0.899930  0.212070  1.0  -0.3313
