# generated using pymatgen
data_CuH13C21O5
_symmetry_space_group_name_H-M   'P 1'
_cell_length_a   34.80040000
_cell_length_b   34.80040000
_cell_length_c   24.22230000
_cell_angle_alpha   90.00000000
_cell_angle_beta   90.00000000
_cell_angle_gamma   120.00000000
_symmetry_Int_Tables_number   1
_chemical_formula_structural   CuH13C21O5
_chemical_formula_sum   'Cu18 H234 C378 O90'
_cell_volume   25404.72405589
_cell_formula_units_Z   18
loop_
 _symmetry_equiv_pos_site_id
 _symmetry_equiv_pos_as_xyz
  1  'x, y, z'
loop_
 _atom_site_type_symbol
 _atom_site_label
 _atom_site_symmetry_multiplicity
 _atom_site_fract_x
 _atom_site_fract_y
 _atom_site_fract_z
 _atom_site_occupancy
 _atom_site_charge
  Cu  Cu1  1  0.648710  0.824350  0.283560  1.0  0.8917
  Cu  Cu2  1  0.315380  0.157690  0.616890  1.0  0.8916
  Cu  Cu3  1  0.982040  0.491020  0.950230  1.0  0.9013
  Cu  Cu4  1  0.175650  0.824350  0.283560  1.0  0.8881
  Cu  Cu5  1  0.842310  0.157690  0.616890  1.0  0.8878
  Cu  Cu6  1  0.508980  0.491020  0.950230  1.0  0.8889
  Cu  Cu7  1  0.175650  0.351290  0.283560  1.0  0.8928
  Cu  Cu8  1  0.842310  0.684620  0.616890  1.0  0.8927
  Cu  Cu9  1  0.508980  0.017960  0.950230  1.0  0.9024
  Cu  Cu10  1  0.824350  0.648710  0.716440  1.0  0.8918
  Cu  Cu11  1  0.491020  0.982040  0.049770  1.0  0.9017
  Cu  Cu12  1  0.157690  0.315380  0.383110  1.0  0.8917
  Cu  Cu13  1  0.824350  0.175650  0.716440  1.0  0.8875
  Cu  Cu14  1  0.491020  0.508980  0.049770  1.0  0.8883
  Cu  Cu15  1  0.157690  0.842310  0.383110  1.0  0.8873
  Cu  Cu16  1  0.351290  0.175650  0.716440  1.0  0.8906
  Cu  Cu17  1  0.017960  0.508980  0.049770  1.0  0.9005
  Cu  Cu18  1  0.684620  0.842310  0.383110  1.0  0.8906
  H  H19  1  0.553900  0.685000  0.306600  1.0  0.1023
  H  H20  1  0.505600  0.613800  0.334300  1.0  0.0969
  H  H21  1  0.554400  0.643700  0.486500  1.0  0.0992
  H  H22  1  0.601800  0.715400  0.459400  1.0  0.0997
  H  H23  1  0.544100  0.570500  0.474600  1.0  0.1019
  H  H24  1  0.434600  0.610500  0.430200  1.0  0.1051
  H  H25  1  0.220570  0.018330  0.639930  1.0  0.1034
  H  H26  1  0.172270  0.947130  0.667630  1.0  0.0969
  H  H27  1  0.221070  0.977030  0.819830  1.0  0.1005
  H  H28  1  0.268470  0.048730  0.792730  1.0  0.0993
  H  H29  1  0.210770  0.903830  0.807930  1.0  0.1019
  H  H30  1  0.101270  0.943830  0.763530  1.0  0.1026
  H  H31  1  0.887230  0.351670  0.973270  1.0  0.1023
  H  H32  1  0.838930  0.280470  0.000970  1.0  0.0969
  H  H33  1  0.887730  0.310370  0.153170  1.0  0.0992
  H  H34  1  0.935130  0.382070  0.126070  1.0  0.0997
  H  H35  1  0.877430  0.237170  0.141270  1.0  0.1019
  H  H36  1  0.767930  0.277170  0.096870  1.0  0.1051
  H  H37  1  0.315000  0.868900  0.306600  1.0  0.1025
  H  H38  1  0.386200  0.891800  0.334300  1.0  0.0961
  H  H39  1  0.356300  0.910700  0.486500  1.0  0.1006
  H  H40  1  0.284600  0.886400  0.459400  1.0  0.1005
  H  H41  1  0.429500  0.973600  0.474600  1.0  0.1022
  H  H42  1  0.389500  0.824100  0.430200  1.0  0.1045
  H  H43  1  0.981670  0.202230  0.639930  1.0  0.1025
  H  H44  1  0.052870  0.225130  0.667630  1.0  0.0962
  H  H45  1  0.022970  0.244030  0.819830  1.0  0.1007
  H  H46  1  0.951270  0.219730  0.792730  1.0  0.0998
  H  H47  1  0.096170  0.306930  0.807930  1.0  0.1022
  H  H48  1  0.056170  0.157430  0.763530  1.0  0.1057
  H  H49  1  0.648330  0.535570  0.973270  1.0  0.1025
  H  H50  1  0.719530  0.558470  0.000970  1.0  0.097
  H  H51  1  0.689630  0.577370  0.153170  1.0  0.1006
  H  H52  1  0.617930  0.553070  0.126070  1.0  0.1005
  H  H53  1  0.762830  0.640270  0.141270  1.0  0.1022
  H  H54  1  0.722830  0.490770  0.096870  1.0  0.1045
  H  H55  1  0.131100  0.446100  0.306600  1.0  0.1032
  H  H56  1  0.108200  0.494400  0.334300  1.0  0.0967
  H  H57  1  0.089300  0.445600  0.486500  1.0  0.0999
  H  H58  1  0.113600  0.398200  0.459400  1.0  0.1001
  H  H59  1  0.026400  0.455900  0.474600  1.0  0.103
  H  H60  1  0.175900  0.565400  0.430200  1.0  0.1053
  H  H61  1  0.797770  0.779430  0.639930  1.0  0.1023
  H  H62  1  0.774870  0.827730  0.667630  1.0  0.0972
  H  H63  1  0.755970  0.778930  0.819830  1.0  0.0994
  H  H64  1  0.780270  0.731530  0.792730  1.0  0.0996
  H  H65  1  0.693070  0.789230  0.807930  1.0  0.103
  H  H66  1  0.842570  0.898730  0.763530  1.0  0.1062
  H  H67  1  0.464430  0.112770  0.973270  1.0  0.1032
  H  H68  1  0.441530  0.161070  0.000970  1.0  0.0965
  H  H69  1  0.422630  0.112270  0.153170  1.0  0.0999
  H  H70  1  0.446930  0.064870  0.126070  1.0  0.1001
  H  H71  1  0.359730  0.122570  0.141270  1.0  0.103
  H  H72  1  0.509230  0.232070  0.096870  1.0  0.1053
  H  H73  1  0.685000  0.553900  0.693400  1.0  0.102
  H  H74  1  0.613800  0.505600  0.665700  1.0  0.0977
  H  H75  1  0.643700  0.554400  0.513500  1.0  0.0995
  H  H76  1  0.715400  0.601800  0.540600  1.0  0.0998
  H  H77  1  0.570500  0.544100  0.525400  1.0  0.1034
  H  H78  1  0.610500  0.434600  0.569800  1.0  0.1059
  H  H79  1  0.351670  0.887230  0.026730  1.0  0.102
  H  H80  1  0.280470  0.838930  0.999030  1.0  0.0977
  H  H81  1  0.310370  0.887730  0.846830  1.0  0.0995
  H  H82  1  0.382070  0.935130  0.873930  1.0  0.0998
  H  H83  1  0.237170  0.877430  0.858730  1.0  0.1034
  H  H84  1  0.277170  0.767930  0.903130  1.0  0.1059
  H  H85  1  0.018330  0.220570  0.360070  1.0  0.1029
  H  H86  1  0.947130  0.172270  0.332370  1.0  0.0977
  H  H87  1  0.977030  0.221070  0.180170  1.0  0.1009
  H  H88  1  0.048730  0.268470  0.207270  1.0  0.0993
  H  H89  1  0.903830  0.210770  0.192070  1.0  0.1034
  H  H90  1  0.943830  0.101270  0.236470  1.0  0.1038
  H  H91  1  0.868900  0.315000  0.693400  1.0  0.1028
  H  H92  1  0.891800  0.386200  0.665700  1.0  0.0962
  H  H93  1  0.910700  0.356300  0.513500  1.0  0.1001
  H  H94  1  0.886400  0.284600  0.540600  1.0  0.0996
  H  H95  1  0.973600  0.429500  0.525400  1.0  0.1022
  H  H96  1  0.824100  0.389500  0.569800  1.0  0.1029
  H  H97  1  0.535570  0.648330  0.026730  1.0  0.1028
  H  H98  1  0.558470  0.719530  0.999030  1.0  0.0972
  H  H99  1  0.577370  0.689630  0.846830  1.0  0.1001
  H  H100  1  0.553070  0.617930  0.873930  1.0  0.0996
  H  H101  1  0.640270  0.762830  0.858730  1.0  0.1022
  H  H102  1  0.490770  0.722830  0.903130  1.0  0.1029
  H  H103  1  0.202230  0.981670  0.360070  1.0  0.1028
  H  H104  1  0.225130  0.052870  0.332370  1.0  0.096
  H  H105  1  0.244030  0.022970  0.180170  1.0  0.0998
  H  H106  1  0.219730  0.951270  0.207270  1.0  0.099
  H  H107  1  0.306930  0.096170  0.192070  1.0  0.1022
  H  H108  1  0.157430  0.056170  0.236470  1.0  0.1037
  H  H109  1  0.446100  0.131100  0.693400  1.0  0.1022
  H  H110  1  0.494400  0.108200  0.665700  1.0  0.0972
  H  H111  1  0.445600  0.089300  0.513500  1.0  0.0987
  H  H112  1  0.398200  0.113600  0.540600  1.0  0.1
  H  H113  1  0.455900  0.026400  0.525400  1.0  0.1026
  H  H114  1  0.565400  0.175900  0.569800  1.0  0.1047
  H  H115  1  0.112770  0.464430  0.026730  1.0  0.1022
  H  H116  1  0.161070  0.441530  0.999030  1.0  0.0968
  H  H117  1  0.112270  0.422630  0.846830  1.0  0.0987
  H  H118  1  0.064870  0.446930  0.873930  1.0  0.1
  H  H119  1  0.122570  0.359730  0.858730  1.0  0.1026
  H  H120  1  0.232070  0.509230  0.903130  1.0  0.1047
  H  H121  1  0.779430  0.797770  0.360070  1.0  0.1013
  H  H122  1  0.827730  0.774870  0.332370  1.0  0.0977
  H  H123  1  0.778930  0.755970  0.180170  1.0  0.0987
  H  H124  1  0.731530  0.780270  0.207270  1.0  0.0993
  H  H125  1  0.789230  0.693070  0.192070  1.0  0.1026
  H  H126  1  0.898730  0.842570  0.236470  1.0  0.1056
  H  H127  1  0.446100  0.315000  0.693400  1.0  0.1019
  H  H128  1  0.494400  0.386200  0.665700  1.0  0.0976
  H  H129  1  0.445600  0.356300  0.513500  1.0  0.099
  H  H130  1  0.398200  0.284600  0.540600  1.0  0.0992
  H  H131  1  0.455900  0.429500  0.525400  1.0  0.1022
  H  H132  1  0.565400  0.389500  0.569800  1.0  0.1042
  H  H133  1  0.112770  0.648330  0.026730  1.0  0.1019
  H  H134  1  0.161070  0.719530  0.999030  1.0  0.0976
  H  H135  1  0.112270  0.689630  0.846830  1.0  0.099
  H  H136  1  0.064870  0.617930  0.873930  1.0  0.0992
  H  H137  1  0.122570  0.762830  0.858730  1.0  0.1022
  H  H138  1  0.232070  0.722830  0.903130  1.0  0.1042
  H  H139  1  0.779430  0.981670  0.360070  1.0  0.1028
  H  H140  1  0.827730  0.052870  0.332370  1.0  0.0976
  H  H141  1  0.778930  0.022970  0.180170  1.0  0.1005
  H  H142  1  0.731530  0.951270  0.207270  1.0  0.0989
  H  H143  1  0.789230  0.096170  0.192070  1.0  0.1022
  H  H144  1  0.898730  0.056170  0.236470  1.0  0.1021
  H  H145  1  0.685000  0.131100  0.693400  1.0  0.1024
  H  H146  1  0.613800  0.108200  0.665700  1.0  0.0969
  H  H147  1  0.643700  0.089300  0.513500  1.0  0.1004
  H  H148  1  0.715400  0.113600  0.540600  1.0  0.1004
  H  H149  1  0.570500  0.026400  0.525400  1.0  0.1027
  H  H150  1  0.610500  0.175900  0.569800  1.0  0.1035
  H  H151  1  0.351670  0.464430  0.026730  1.0  0.1024
  H  H152  1  0.280470  0.441530  0.999030  1.0  0.0978
  H  H153  1  0.310370  0.422630  0.846830  1.0  0.1004
  H  H154  1  0.382070  0.446930  0.873930  1.0  0.1004
  H  H155  1  0.237170  0.359730  0.858730  1.0  0.1027
  H  H156  1  0.277170  0.509230  0.903130  1.0  0.1035
  H  H157  1  0.018330  0.797770  0.360070  1.0  0.1024
  H  H158  1  0.947130  0.774870  0.332370  1.0  0.0969
  H  H159  1  0.977030  0.755970  0.180170  1.0  0.1002
  H  H160  1  0.048730  0.780270  0.207270  1.0  0.0997
  H  H161  1  0.903830  0.693070  0.192070  1.0  0.1027
  H  H162  1  0.943830  0.842570  0.236470  1.0  0.1045
  H  H163  1  0.868900  0.553900  0.693400  1.0  0.1031
  H  H164  1  0.891800  0.505600  0.665700  1.0  0.0972
  H  H165  1  0.910700  0.554400  0.513500  1.0  0.0994
  H  H166  1  0.886400  0.601800  0.540600  1.0  0.0998
  H  H167  1  0.973600  0.544100  0.525400  1.0  0.1035
  H  H168  1  0.824100  0.434600  0.569800  1.0  0.1047
  H  H169  1  0.535570  0.887230  0.026730  1.0  0.1031
  H  H170  1  0.558470  0.838930  0.999030  1.0  0.0969
  H  H171  1  0.577370  0.887730  0.846830  1.0  0.0994
  H  H172  1  0.553070  0.935130  0.873930  1.0  0.0998
  H  H173  1  0.640270  0.877430  0.858730  1.0  0.1035
  H  H174  1  0.490770  0.767930  0.903130  1.0  0.1047
  H  H175  1  0.202230  0.220570  0.360070  1.0  0.1021
  H  H176  1  0.225130  0.172270  0.332370  1.0  0.0976
  H  H177  1  0.244030  0.221070  0.180170  1.0  0.0993
  H  H178  1  0.219730  0.268470  0.207270  1.0  0.0989
  H  H179  1  0.306930  0.210770  0.192070  1.0  0.1035
  H  H180  1  0.157430  0.101270  0.236470  1.0  0.1058
  H  H181  1  0.315000  0.446100  0.306600  1.0  0.1023
  H  H182  1  0.386200  0.494400  0.334300  1.0  0.097
  H  H183  1  0.356300  0.445600  0.486500  1.0  0.1
  H  H184  1  0.284600  0.398200  0.459400  1.0  0.1
  H  H185  1  0.429500  0.455900  0.474600  1.0  0.103
  H  H186  1  0.389500  0.565400  0.430200  1.0  0.1057
  H  H187  1  0.981670  0.779430  0.639930  1.0  0.1032
  H  H188  1  0.052870  0.827730  0.667630  1.0  0.097
  H  H189  1  0.022970  0.778930  0.819830  1.0  0.1011
  H  H190  1  0.951270  0.731530  0.792730  1.0  0.0996
  H  H191  1  0.096170  0.789230  0.807930  1.0  0.103
  H  H192  1  0.056170  0.898730  0.763530  1.0  0.1034
  H  H193  1  0.648330  0.112770  0.973270  1.0  0.1023
  H  H194  1  0.719530  0.161070  0.000970  1.0  0.097
  H  H195  1  0.689630  0.112270  0.153170  1.0  0.1
  H  H196  1  0.617930  0.064870  0.126070  1.0  0.1
  H  H197  1  0.762830  0.122570  0.141270  1.0  0.103
  H  H198  1  0.722830  0.232070  0.096870  1.0  0.1057
  H  H199  1  0.131100  0.685000  0.306600  1.0  0.1036
  H  H200  1  0.108200  0.613800  0.334300  1.0  0.0961
  H  H201  1  0.089300  0.643700  0.486500  1.0  0.1002
  H  H202  1  0.113600  0.715400  0.459400  1.0  0.0999
  H  H203  1  0.026400  0.570500  0.474600  1.0  0.102
  H  H204  1  0.175900  0.610500  0.430200  1.0  0.1042
  H  H205  1  0.797770  0.018330  0.639930  1.0  0.1036
  H  H206  1  0.774870  0.947130  0.667630  1.0  0.096
  H  H207  1  0.755970  0.977030  0.819830  1.0  0.1002
  H  H208  1  0.780270  0.048730  0.792730  1.0  0.0993
  H  H209  1  0.693070  0.903830  0.807930  1.0  0.102
  H  H210  1  0.842570  0.943830  0.763530  1.0  0.1044
  H  H211  1  0.464430  0.351670  0.973270  1.0  0.1036
  H  H212  1  0.441530  0.280470  0.000970  1.0  0.097
  H  H213  1  0.422630  0.310370  0.153170  1.0  0.1002
  H  H214  1  0.446930  0.382070  0.126070  1.0  0.0999
  H  H215  1  0.359730  0.237170  0.141270  1.0  0.102
  H  H216  1  0.509230  0.277170  0.096870  1.0  0.1042
  H  H217  1  0.553900  0.868900  0.306600  1.0  0.1023
  H  H218  1  0.505600  0.891800  0.334300  1.0  0.0969
  H  H219  1  0.554400  0.910700  0.486500  1.0  0.0995
  H  H220  1  0.601800  0.886400  0.459400  1.0  0.1005
  H  H221  1  0.544100  0.973600  0.474600  1.0  0.1022
  H  H222  1  0.434600  0.824100  0.430200  1.0  0.1037
  H  H223  1  0.220570  0.202230  0.639930  1.0  0.1013
  H  H224  1  0.172270  0.225130  0.667630  1.0  0.0974
  H  H225  1  0.221070  0.244030  0.819830  1.0  0.0991
  H  H226  1  0.268470  0.219730  0.792730  1.0  0.1
  H  H227  1  0.210770  0.306930  0.807930  1.0  0.1022
  H  H228  1  0.101270  0.157430  0.763530  1.0  0.1043
  H  H229  1  0.887230  0.535570  0.973270  1.0  0.1023
  H  H230  1  0.838930  0.558470  0.000970  1.0  0.0966
  H  H231  1  0.887730  0.577370  0.153170  1.0  0.0995
  H  H232  1  0.935130  0.553070  0.126070  1.0  0.1005
  H  H233  1  0.877430  0.640270  0.141270  1.0  0.1022
  H  H234  1  0.767930  0.490770  0.096870  1.0  0.1037
  H  H235  1  0.401600  0.598400  0.380500  1.0  0.1189
  H  H236  1  0.068270  0.931730  0.713830  1.0  0.1178
  H  H237  1  0.734930  0.265070  0.047170  1.0  0.1208
  H  H238  1  0.401600  0.803200  0.380500  1.0  0.1178
  H  H239  1  0.068270  0.136530  0.713830  1.0  0.1178
  H  H240  1  0.734930  0.469870  0.047170  1.0  0.1175
  H  H241  1  0.196800  0.598400  0.380500  1.0  0.1191
  H  H242  1  0.863470  0.931730  0.713830  1.0  0.1191
  H  H243  1  0.530130  0.265070  0.047170  1.0  0.1188
  H  H244  1  0.598400  0.401600  0.619500  1.0  0.121
  H  H245  1  0.265070  0.734930  0.952830  1.0  0.1235
  H  H246  1  0.931730  0.068270  0.286170  1.0  0.1205
  H  H247  1  0.803200  0.401600  0.619500  1.0  0.1198
  H  H248  1  0.469870  0.734930  0.952830  1.0  0.1195
  H  H249  1  0.136530  0.068270  0.286170  1.0  0.1198
  H  H250  1  0.598400  0.196800  0.619500  1.0  0.1187
  H  H251  1  0.265070  0.530130  0.952830  1.0  0.1185
  H  H252  1  0.931730  0.863470  0.286170  1.0  0.1187
  C  C253  1  0.613110  0.755040  0.363400  1.0  0.6665
  C  C254  1  0.581960  0.708240  0.381200  1.0  -0.137
  C  C255  1  0.553650  0.676930  0.343220  1.0  -0.059
  C  C256  1  0.525260  0.634080  0.359760  1.0  -0.1239
  C  C257  1  0.525130  0.620390  0.413300  1.0  0.0908
  C  C258  1  0.553960  0.651770  0.450050  1.0  -0.1487
  C  C259  1  0.582280  0.695070  0.433870  1.0  -0.0421
  C  C260  1  0.496350  0.573580  0.431140  1.0  0.0063
  C  C261  1  0.514440  0.553730  0.464190  1.0  -0.1134
  C  C262  1  0.279780  0.088370  0.696730  1.0  0.6665
  C  C263  1  0.248630  0.041570  0.714530  1.0  -0.137
  C  C264  1  0.220320  0.010260  0.676550  1.0  -0.059
  C  C265  1  0.191930  0.967410  0.693090  1.0  -0.1239
  C  C266  1  0.191800  0.953720  0.746630  1.0  0.0908
  C  C267  1  0.220630  0.985100  0.783380  1.0  -0.1487
  C  C268  1  0.248950  0.028400  0.767200  1.0  -0.0421
  C  C269  1  0.163020  0.906910  0.764470  1.0  0.0063
  C  C270  1  0.181110  0.887060  0.797520  1.0  -0.1134
  C  C271  1  0.946440  0.421710  0.030070  1.0  0.6668
  C  C272  1  0.915290  0.374910  0.047870  1.0  -0.137
  C  C273  1  0.886980  0.343600  0.009890  1.0  -0.059
  C  C274  1  0.858590  0.300750  0.026430  1.0  -0.1239
  C  C275  1  0.858460  0.287060  0.079970  1.0  0.0908
  C  C276  1  0.887290  0.318440  0.116720  1.0  -0.1487
  C  C277  1  0.915610  0.361740  0.100540  1.0  -0.0421
  C  C278  1  0.829680  0.240250  0.097810  1.0  0.0063
  C  C279  1  0.847770  0.220400  0.130860  1.0  -0.1134
  C  C280  1  0.244960  0.858070  0.363400  1.0  0.6664
  C  C281  1  0.291760  0.873720  0.381200  1.0  -0.1373
  C  C282  1  0.323070  0.876720  0.343220  1.0  -0.0587
  C  C283  1  0.365920  0.891180  0.359760  1.0  -0.1241
  C  C284  1  0.379610  0.904740  0.413300  1.0  0.0892
  C  C285  1  0.348230  0.902190  0.450050  1.0  -0.149
  C  C286  1  0.304930  0.887210  0.433870  1.0  -0.0407
  C  C287  1  0.426420  0.922770  0.431140  1.0  0.0066
  C  C288  1  0.446270  0.960710  0.464190  1.0  -0.1148
  C  C289  1  0.911630  0.191400  0.696730  1.0  0.6664
  C  C290  1  0.958430  0.207050  0.714530  1.0  -0.1374
  C  C291  1  0.989740  0.210050  0.676550  1.0  -0.0587
  C  C292  1  0.032590  0.224510  0.693090  1.0  -0.1241
  C  C293  1  0.046280  0.238070  0.746630  1.0  0.0892
  C  C294  1  0.014900  0.235520  0.783380  1.0  -0.149
  C  C295  1  0.971600  0.220540  0.767200  1.0  -0.0407
  C  C296  1  0.093090  0.256100  0.764470  1.0  0.0066
  C  C297  1  0.112940  0.294040  0.797520  1.0  -0.1148
  C  C298  1  0.578290  0.524740  0.030070  1.0  0.6668
  C  C299  1  0.625090  0.540390  0.047870  1.0  -0.1373
  C  C300  1  0.656400  0.543390  0.009890  1.0  -0.0587
  C  C301  1  0.699250  0.557850  0.026430  1.0  -0.1241
  C  C302  1  0.712940  0.571410  0.079970  1.0  0.0892
  C  C303  1  0.681560  0.568860  0.116720  1.0  -0.149
  C  C304  1  0.638260  0.553880  0.100540  1.0  -0.0407
  C  C305  1  0.759750  0.589440  0.097810  1.0  0.0066
  C  C306  1  0.779600  0.627380  0.130860  1.0  -0.1149
  C  C307  1  0.141930  0.386890  0.363400  1.0  0.6659
  C  C308  1  0.126280  0.418040  0.381200  1.0  -0.138
  C  C309  1  0.123280  0.446350  0.343220  1.0  -0.0593
  C  C310  1  0.108820  0.474740  0.359760  1.0  -0.1232
  C  C311  1  0.095260  0.474870  0.413300  1.0  0.0895
  C  C312  1  0.097810  0.446040  0.450050  1.0  -0.1501
  C  C313  1  0.112790  0.417720  0.433870  1.0  -0.042
  C  C314  1  0.077230  0.503650  0.431140  1.0  0.0044
  C  C315  1  0.039290  0.485560  0.464190  1.0  -0.1079
  C  C316  1  0.808600  0.720220  0.696730  1.0  0.6659
  C  C317  1  0.792950  0.751370  0.714530  1.0  -0.138
  C  C318  1  0.789950  0.779680  0.676550  1.0  -0.0593
  C  C319  1  0.775490  0.808070  0.693090  1.0  -0.1232
  C  C320  1  0.761930  0.808200  0.746630  1.0  0.0895
  C  C321  1  0.764480  0.779370  0.783380  1.0  -0.1501
  C  C322  1  0.779460  0.751050  0.767200  1.0  -0.042
  C  C323  1  0.743900  0.836980  0.764470  1.0  0.0044
  C  C324  1  0.705960  0.818890  0.797520  1.0  -0.1079
  C  C325  1  0.475260  0.053560  0.030070  1.0  0.6662
  C  C326  1  0.459610  0.084710  0.047870  1.0  -0.1381
  C  C327  1  0.456610  0.113020  0.009890  1.0  -0.0593
  C  C328  1  0.442150  0.141410  0.026430  1.0  -0.1232
  C  C329  1  0.428590  0.141540  0.079970  1.0  0.0895
  C  C330  1  0.431140  0.112710  0.116720  1.0  -0.1501
  C  C331  1  0.446120  0.084390  0.100540  1.0  -0.0422
  C  C332  1  0.410560  0.170320  0.097810  1.0  0.0044
  C  C333  1  0.372620  0.152230  0.130860  1.0  -0.1069
  C  C334  1  0.755040  0.613110  0.636600  1.0  0.6661
  C  C335  1  0.708240  0.581960  0.618800  1.0  -0.1385
  C  C336  1  0.676930  0.553650  0.656780  1.0  -0.0572
  C  C337  1  0.634080  0.525260  0.640240  1.0  -0.124
  C  C338  1  0.620390  0.525130  0.586700  1.0  0.09
  C  C339  1  0.651770  0.553960  0.549950  1.0  -0.1479
  C  C340  1  0.695070  0.582280  0.566130  1.0  -0.0433
  C  C341  1  0.573580  0.496350  0.568860  1.0  0.0043
  C  C342  1  0.553730  0.514440  0.535810  1.0  -0.1093
  C  C343  1  0.421710  0.946440  0.969930  1.0  0.6665
  C  C344  1  0.374910  0.915290  0.952130  1.0  -0.1385
  C  C345  1  0.343600  0.886980  0.990110  1.0  -0.0572
  C  C346  1  0.300750  0.858590  0.973570  1.0  -0.124
  C  C347  1  0.287060  0.858460  0.920030  1.0  0.09
  C  C348  1  0.318440  0.887290  0.883280  1.0  -0.1479
  C  C349  1  0.361740  0.915610  0.899460  1.0  -0.0433
  C  C350  1  0.240250  0.829680  0.902190  1.0  0.0043
  C  C351  1  0.220400  0.847770  0.869140  1.0  -0.1093
  C  C352  1  0.088370  0.279780  0.303270  1.0  0.6661
  C  C353  1  0.041570  0.248630  0.285470  1.0  -0.1385
  C  C354  1  0.010260  0.220320  0.323450  1.0  -0.0572
  C  C355  1  0.967410  0.191930  0.306910  1.0  -0.124
  C  C356  1  0.953720  0.191800  0.253370  1.0  0.09
  C  C357  1  0.985100  0.220630  0.216620  1.0  -0.1479
  C  C358  1  0.028400  0.248950  0.232800  1.0  -0.0433
  C  C359  1  0.906910  0.163020  0.235530  1.0  0.0043
  C  C360  1  0.887060  0.181110  0.202480  1.0  -0.1093
  C  C361  1  0.858070  0.244960  0.636600  1.0  0.6661
  C  C362  1  0.873720  0.291760  0.618800  1.0  -0.1361
  C  C363  1  0.876720  0.323070  0.656780  1.0  -0.0575
  C  C364  1  0.891180  0.365920  0.640240  1.0  -0.1245
  C  C365  1  0.904740  0.379610  0.586700  1.0  0.0908
  C  C366  1  0.902190  0.348230  0.549950  1.0  -0.1472
  C  C367  1  0.887210  0.304930  0.566130  1.0  -0.0427
  C  C368  1  0.922770  0.426420  0.568860  1.0  0.0057
  C  C369  1  0.960710  0.446270  0.535810  1.0  -0.1146
  C  C370  1  0.524740  0.578290  0.969930  1.0  0.6665
  C  C371  1  0.540390  0.625090  0.952130  1.0  -0.1361
  C  C372  1  0.543390  0.656400  0.990110  1.0  -0.0575
  C  C373  1  0.557850  0.699250  0.973570  1.0  -0.1245
  C  C374  1  0.571410  0.712940  0.920030  1.0  0.0908
  C  C375  1  0.568860  0.681560  0.883280  1.0  -0.1472
  C  C376  1  0.553880  0.638260  0.899460  1.0  -0.0427
  C  C377  1  0.589440  0.759750  0.902190  1.0  0.0057
  C  C378  1  0.627380  0.779600  0.869140  1.0  -0.1143
  C  C379  1  0.191400  0.911630  0.303270  1.0  0.6661
  C  C380  1  0.207050  0.958430  0.285470  1.0  -0.1362
  C  C381  1  0.210050  0.989740  0.323450  1.0  -0.0575
  C  C382  1  0.224510  0.032590  0.306910  1.0  -0.1245
  C  C383  1  0.238070  0.046280  0.253370  1.0  0.0908
  C  C384  1  0.235520  0.014900  0.216620  1.0  -0.1472
  C  C385  1  0.220540  0.971600  0.232800  1.0  -0.0427
  C  C386  1  0.256100  0.093090  0.235530  1.0  0.0057
  C  C387  1  0.294040  0.112940  0.202480  1.0  -0.1146
  C  C388  1  0.386890  0.141930  0.636600  1.0  0.6669
  C  C389  1  0.418040  0.126280  0.618800  1.0  -0.1374
  C  C390  1  0.446350  0.123280  0.656780  1.0  -0.0581
  C  C391  1  0.474740  0.108820  0.640240  1.0  -0.1248
  C  C392  1  0.474870  0.095260  0.586700  1.0  0.0895
  C  C393  1  0.446040  0.097810  0.549950  1.0  -0.1466
  C  C394  1  0.417720  0.112790  0.566130  1.0  -0.04
  C  C395  1  0.503650  0.077230  0.568860  1.0  0.0061
  C  C396  1  0.485560  0.039290  0.535810  1.0  -0.1153
  C  C397  1  0.053560  0.475260  0.969930  1.0  0.667
  C  C398  1  0.084710  0.459610  0.952130  1.0  -0.1375
  C  C399  1  0.113020  0.456610  0.990110  1.0  -0.0581
  C  C400  1  0.141410  0.442150  0.973570  1.0  -0.1248
  C  C401  1  0.141540  0.428590  0.920030  1.0  0.0895
  C  C402  1  0.112710  0.431140  0.883280  1.0  -0.1466
  C  C403  1  0.084390  0.446120  0.899460  1.0  -0.0401
  C  C404  1  0.170320  0.410560  0.902190  1.0  0.0061
  C  C405  1  0.152230  0.372620  0.869140  1.0  -0.1156
  C  C406  1  0.720220  0.808600  0.303270  1.0  0.6669
  C  C407  1  0.751370  0.792950  0.285470  1.0  -0.1374
  C  C408  1  0.779680  0.789950  0.323450  1.0  -0.0581
  C  C409  1  0.808070  0.775490  0.306910  1.0  -0.1248
  C  C410  1  0.808200  0.761930  0.253370  1.0  0.0895
  C  C411  1  0.779370  0.764480  0.216620  1.0  -0.1466
  C  C412  1  0.751050  0.779460  0.232800  1.0  -0.04
  C  C413  1  0.836980  0.743900  0.235530  1.0  0.0061
  C  C414  1  0.818890  0.705960  0.202480  1.0  -0.1153
  C  C415  1  0.386890  0.244960  0.636600  1.0  0.6664
  C  C416  1  0.418040  0.291760  0.618800  1.0  -0.1361
  C  C417  1  0.446350  0.323070  0.656780  1.0  -0.057
  C  C418  1  0.474740  0.365920  0.640240  1.0  -0.1246
  C  C419  1  0.474870  0.379610  0.586700  1.0  0.0905
  C  C420  1  0.446040  0.348230  0.549950  1.0  -0.1478
  C  C421  1  0.417720  0.304930  0.566130  1.0  -0.042
  C  C422  1  0.503650  0.426420  0.568860  1.0  0.0053
  C  C423  1  0.485560  0.446270  0.535810  1.0  -0.114
  C  C424  1  0.053560  0.578290  0.969930  1.0  0.6668
  C  C425  1  0.084710  0.625090  0.952130  1.0  -0.1361
  C  C426  1  0.113020  0.656400  0.990110  1.0  -0.057
  C  C427  1  0.141410  0.699250  0.973570  1.0  -0.1246
  C  C428  1  0.141540  0.712940  0.920030  1.0  0.0905
  C  C429  1  0.112710  0.681560  0.883280  1.0  -0.1478
  C  C430  1  0.084390  0.638260  0.899460  1.0  -0.042
  C  C431  1  0.170320  0.759750  0.902190  1.0  0.0053
  C  C432  1  0.152230  0.779600  0.869140  1.0  -0.114
  C  C433  1  0.720220  0.911630  0.303270  1.0  0.6664
  C  C434  1  0.751370  0.958430  0.285470  1.0  -0.1361
  C  C435  1  0.779680  0.989740  0.323450  1.0  -0.057
  C  C436  1  0.808070  0.032590  0.306910  1.0  -0.1246
  C  C437  1  0.808200  0.046280  0.253370  1.0  0.0905
  C  C438  1  0.779370  0.014900  0.216620  1.0  -0.1478
  C  C439  1  0.751050  0.971600  0.232800  1.0  -0.042
  C  C440  1  0.836980  0.093090  0.235530  1.0  0.0053
  C  C441  1  0.818890  0.112940  0.202480  1.0  -0.114
  C  C442  1  0.755040  0.141930  0.636600  1.0  0.6661
  C  C443  1  0.708240  0.126280  0.618800  1.0  -0.1389
  C  C444  1  0.676930  0.123280  0.656780  1.0  -0.0574
  C  C445  1  0.634080  0.108820  0.640240  1.0  -0.1238
  C  C446  1  0.620390  0.095260  0.586700  1.0  0.0901
  C  C447  1  0.651770  0.097810  0.549950  1.0  -0.1446
  C  C448  1  0.695070  0.112790  0.566130  1.0  -0.0408
  C  C449  1  0.573580  0.077230  0.568860  1.0  0.0071
  C  C450  1  0.553730  0.039290  0.535810  1.0  -0.1142
  C  C451  1  0.421710  0.475260  0.969930  1.0  0.6664
  C  C452  1  0.374910  0.459610  0.952130  1.0  -0.1389
  C  C453  1  0.343600  0.456610  0.990110  1.0  -0.0574
  C  C454  1  0.300750  0.442150  0.973570  1.0  -0.1238
  C  C455  1  0.287060  0.428590  0.920030  1.0  0.0901
  C  C456  1  0.318440  0.431140  0.883280  1.0  -0.1446
  C  C457  1  0.361740  0.446120  0.899460  1.0  -0.0408
  C  C458  1  0.240250  0.410560  0.902190  1.0  0.0071
  C  C459  1  0.220400  0.372620  0.869140  1.0  -0.1141
  C  C460  1  0.088370  0.808600  0.303270  1.0  0.6661
  C  C461  1  0.041570  0.792950  0.285470  1.0  -0.139
  C  C462  1  0.010260  0.789950  0.323450  1.0  -0.0574
  C  C463  1  0.967410  0.775490  0.306910  1.0  -0.1238
  C  C464  1  0.953720  0.761930  0.253370  1.0  0.0901
  C  C465  1  0.985100  0.764480  0.216620  1.0  -0.1446
  C  C466  1  0.028400  0.779460  0.232800  1.0  -0.0408
  C  C467  1  0.906910  0.743900  0.235530  1.0  0.0071
  C  C468  1  0.887060  0.705960  0.202480  1.0  -0.1142
  C  C469  1  0.858070  0.613110  0.636600  1.0  0.6667
  C  C470  1  0.873720  0.581960  0.618800  1.0  -0.1374
  C  C471  1  0.876720  0.553650  0.656780  1.0  -0.0579
  C  C472  1  0.891180  0.525260  0.640240  1.0  -0.1232
  C  C473  1  0.904740  0.525130  0.586700  1.0  0.09
  C  C474  1  0.902190  0.553960  0.549950  1.0  -0.1485
  C  C475  1  0.887210  0.582280  0.566130  1.0  -0.0431
  C  C476  1  0.922770  0.496350  0.568860  1.0  0.0045
  C  C477  1  0.960710  0.514440  0.535810  1.0  -0.1088
  C  C478  1  0.524740  0.946440  0.969930  1.0  0.6669
  C  C479  1  0.540390  0.915290  0.952130  1.0  -0.1375
  C  C480  1  0.543390  0.886980  0.990110  1.0  -0.0579
  C  C481  1  0.557850  0.858590  0.973570  1.0  -0.1232
  C  C482  1  0.571410  0.858460  0.920030  1.0  0.09
  C  C483  1  0.568860  0.887290  0.883280  1.0  -0.1485
  C  C484  1  0.553880  0.915610  0.899460  1.0  -0.0432
  C  C485  1  0.589440  0.829680  0.902190  1.0  0.0045
  C  C486  1  0.627380  0.847770  0.869140  1.0  -0.1074
  C  C487  1  0.191400  0.279780  0.303270  1.0  0.6667
  C  C488  1  0.207050  0.248630  0.285470  1.0  -0.1374
  C  C489  1  0.210050  0.220320  0.323450  1.0  -0.0579
  C  C490  1  0.224510  0.191930  0.306910  1.0  -0.1232
  C  C491  1  0.238070  0.191800  0.253370  1.0  0.09
  C  C492  1  0.235520  0.220630  0.216620  1.0  -0.1485
  C  C493  1  0.220540  0.248950  0.232800  1.0  -0.0431
  C  C494  1  0.256100  0.163020  0.235530  1.0  0.0045
  C  C495  1  0.294040  0.181110  0.202480  1.0  -0.1088
  C  C496  1  0.244960  0.386890  0.363400  1.0  0.6662
  C  C497  1  0.291760  0.418040  0.381200  1.0  -0.1375
  C  C498  1  0.323070  0.446350  0.343220  1.0  -0.0581
  C  C499  1  0.365920  0.474740  0.359760  1.0  -0.1235
  C  C500  1  0.379610  0.474870  0.413300  1.0  0.0898
  C  C501  1  0.348230  0.446040  0.450050  1.0  -0.1503
  C  C502  1  0.304930  0.417720  0.433870  1.0  -0.0431
  C  C503  1  0.426420  0.503650  0.431140  1.0  0.0042
  C  C504  1  0.446270  0.485560  0.464190  1.0  -0.1074
  C  C505  1  0.911630  0.720220  0.696730  1.0  0.6662
  C  C506  1  0.958430  0.751370  0.714530  1.0  -0.1375
  C  C507  1  0.989740  0.779680  0.676550  1.0  -0.0581
  C  C508  1  0.032590  0.808070  0.693090  1.0  -0.1235
  C  C509  1  0.046280  0.808200  0.746630  1.0  0.0898
  C  C510  1  0.014900  0.779370  0.783380  1.0  -0.1503
  C  C511  1  0.971600  0.751050  0.767200  1.0  -0.0431
  C  C512  1  0.093090  0.836980  0.764470  1.0  0.0042
  C  C513  1  0.112940  0.818890  0.797520  1.0  -0.1074
  C  C514  1  0.578290  0.053560  0.030070  1.0  0.6666
  C  C515  1  0.625090  0.084710  0.047870  1.0  -0.1375
  C  C516  1  0.656400  0.113020  0.009890  1.0  -0.0581
  C  C517  1  0.699250  0.141410  0.026430  1.0  -0.1235
  C  C518  1  0.712940  0.141540  0.079970  1.0  0.0898
  C  C519  1  0.681560  0.112710  0.116720  1.0  -0.1503
  C  C520  1  0.638260  0.084390  0.100540  1.0  -0.0431
  C  C521  1  0.759750  0.170320  0.097810  1.0  0.0042
  C  C522  1  0.779600  0.152230  0.130860  1.0  -0.1074
  C  C523  1  0.141930  0.755040  0.363400  1.0  0.6666
  C  C524  1  0.126280  0.708240  0.381200  1.0  -0.1371
  C  C525  1  0.123280  0.676930  0.343220  1.0  -0.0598
  C  C526  1  0.108820  0.634080  0.359760  1.0  -0.1241
  C  C527  1  0.095260  0.620390  0.413300  1.0  0.0903
  C  C528  1  0.097810  0.651770  0.450050  1.0  -0.1505
  C  C529  1  0.112790  0.695070  0.433870  1.0  -0.0438
  C  C530  1  0.077230  0.573580  0.431140  1.0  0.0061
  C  C531  1  0.039290  0.553730  0.464190  1.0  -0.1133
  C  C532  1  0.808600  0.088370  0.696730  1.0  0.6666
  C  C533  1  0.792950  0.041570  0.714530  1.0  -0.1371
  C  C534  1  0.789950  0.010260  0.676550  1.0  -0.0599
  C  C535  1  0.775490  0.967410  0.693090  1.0  -0.1241
  C  C536  1  0.761930  0.953720  0.746630  1.0  0.0903
  C  C537  1  0.764480  0.985100  0.783380  1.0  -0.1505
  C  C538  1  0.779460  0.028400  0.767200  1.0  -0.0438
  C  C539  1  0.743900  0.906910  0.764470  1.0  0.0061
  C  C540  1  0.705960  0.887060  0.797520  1.0  -0.1133
  C  C541  1  0.475260  0.421710  0.030070  1.0  0.667
  C  C542  1  0.459610  0.374910  0.047870  1.0  -0.1371
  C  C543  1  0.456610  0.343600  0.009890  1.0  -0.0598
  C  C544  1  0.442150  0.300750  0.026430  1.0  -0.1241
  C  C545  1  0.428590  0.287060  0.079970  1.0  0.0903
  C  C546  1  0.431140  0.318440  0.116720  1.0  -0.1505
  C  C547  1  0.446120  0.361740  0.100540  1.0  -0.0438
  C  C548  1  0.410560  0.240250  0.097810  1.0  0.0061
  C  C549  1  0.372620  0.220400  0.130860  1.0  -0.1137
  C  C550  1  0.613110  0.858070  0.363400  1.0  0.666
  C  C551  1  0.581960  0.873720  0.381200  1.0  -0.1383
  C  C552  1  0.553650  0.876720  0.343220  1.0  -0.0591
  C  C553  1  0.525260  0.891180  0.359760  1.0  -0.1232
  C  C554  1  0.525130  0.904740  0.413300  1.0  0.0898
  C  C555  1  0.553960  0.902190  0.450050  1.0  -0.1475
  C  C556  1  0.582280  0.887210  0.433870  1.0  -0.0405
  C  C557  1  0.496350  0.922770  0.431140  1.0  0.0074
  C  C558  1  0.514440  0.960710  0.464190  1.0  -0.1135
  C  C559  1  0.279780  0.191400  0.696730  1.0  0.666
  C  C560  1  0.248630  0.207050  0.714530  1.0  -0.1383
  C  C561  1  0.220320  0.210050  0.676550  1.0  -0.0591
  C  C562  1  0.191930  0.224510  0.693090  1.0  -0.1232
  C  C563  1  0.191800  0.238070  0.746630  1.0  0.0898
  C  C564  1  0.220630  0.235520  0.783380  1.0  -0.1475
  C  C565  1  0.248950  0.220540  0.767200  1.0  -0.0405
  C  C566  1  0.163020  0.256100  0.764470  1.0  0.0074
  C  C567  1  0.181110  0.294040  0.797520  1.0  -0.1135
  C  C568  1  0.946440  0.524740  0.030070  1.0  0.6663
  C  C569  1  0.915290  0.540390  0.047870  1.0  -0.1383
  C  C570  1  0.886980  0.543390  0.009890  1.0  -0.0591
  C  C571  1  0.858590  0.557850  0.026430  1.0  -0.1232
  C  C572  1  0.858460  0.571410  0.079970  1.0  0.0898
  C  C573  1  0.887290  0.568860  0.116720  1.0  -0.1475
  C  C574  1  0.915610  0.553880  0.100540  1.0  -0.0405
  C  C575  1  0.829680  0.589440  0.097810  1.0  0.0074
  C  C576  1  0.847770  0.627380  0.130860  1.0  -0.1131
  C  C577  1  0.490090  0.509910  0.482330  1.0  -0.0662
  C  C578  1  0.452340  0.547660  0.414310  1.0  0.1921
  C  C579  1  0.413270  0.586730  0.407500  1.0  -0.0499
  C  C580  1  0.156760  0.843240  0.815660  1.0  -0.0662
  C  C581  1  0.119010  0.880990  0.747640  1.0  0.1921
  C  C582  1  0.079940  0.920060  0.740830  1.0  -0.0499
  C  C583  1  0.823420  0.176580  0.149000  1.0  -0.0662
  C  C584  1  0.785670  0.214330  0.080980  1.0  0.1921
  C  C585  1  0.746600  0.253400  0.074170  1.0  -0.0499
  C  C586  1  0.490090  0.980180  0.482330  1.0  -0.06
  C  C587  1  0.452340  0.904680  0.414310  1.0  0.1926
  C  C588  1  0.413270  0.826540  0.407500  1.0  -0.0456
  C  C589  1  0.156760  0.313510  0.815660  1.0  -0.06
  C  C590  1  0.119010  0.238010  0.747640  1.0  0.1926
  C  C591  1  0.079940  0.159870  0.740830  1.0  -0.0456
  C  C592  1  0.823420  0.646850  0.149000  1.0  -0.06
  C  C593  1  0.785670  0.571350  0.080980  1.0  0.1926
  C  C594  1  0.746600  0.493210  0.074170  1.0  -0.0456
  C  C595  1  0.019820  0.509910  0.482330  1.0  -0.063
  C  C596  1  0.095320  0.547660  0.414310  1.0  0.1922
  C  C597  1  0.173460  0.586730  0.407500  1.0  -0.0488
  C  C598  1  0.686490  0.843240  0.815660  1.0  -0.063
  C  C599  1  0.761990  0.880990  0.747640  1.0  0.1922
  C  C600  1  0.840130  0.920060  0.740830  1.0  -0.0488
  C  C601  1  0.353150  0.176580  0.149000  1.0  -0.063
  C  C602  1  0.428650  0.214330  0.080980  1.0  0.1922
  C  C603  1  0.506790  0.253400  0.074170  1.0  -0.0488
  C  C604  1  0.509910  0.490090  0.517670  1.0  -0.0653
  C  C605  1  0.547660  0.452340  0.585690  1.0  0.1914
  C  C606  1  0.586730  0.413270  0.592500  1.0  -0.0479
  C  C607  1  0.176580  0.823420  0.851000  1.0  -0.0653
  C  C608  1  0.214330  0.785670  0.919020  1.0  0.1914
  C  C609  1  0.253400  0.746600  0.925830  1.0  -0.0479
  C  C610  1  0.843240  0.156760  0.184340  1.0  -0.0653
  C  C611  1  0.880990  0.119010  0.252360  1.0  0.1914
  C  C612  1  0.920060  0.079940  0.259170  1.0  -0.0479
  C  C613  1  0.980180  0.490090  0.517670  1.0  -0.0625
  C  C614  1  0.904680  0.452340  0.585690  1.0  0.1914
  C  C615  1  0.826540  0.413270  0.592500  1.0  -0.0496
  C  C616  1  0.646850  0.823420  0.851000  1.0  -0.0625
  C  C617  1  0.571350  0.785670  0.919020  1.0  0.1914
  C  C618  1  0.493210  0.746600  0.925830  1.0  -0.0496
  C  C619  1  0.313510  0.156760  0.184340  1.0  -0.0625
  C  C620  1  0.238010  0.119010  0.252360  1.0  0.1914
  C  C621  1  0.159870  0.079940  0.259170  1.0  -0.0496
  C  C622  1  0.509910  0.019820  0.517670  1.0  -0.0606
  C  C623  1  0.547660  0.095320  0.585690  1.0  0.1917
  C  C624  1  0.586730  0.173460  0.592500  1.0  -0.0459
  C  C625  1  0.176580  0.353150  0.851000  1.0  -0.0606
  C  C626  1  0.214330  0.428650  0.919020  1.0  0.1917
  C  C627  1  0.253400  0.506790  0.925830  1.0  -0.0459
  C  C628  1  0.843240  0.686490  0.184340  1.0  -0.0606
  C  C629  1  0.880990  0.761990  0.252360  1.0  0.1917
  C  C630  1  0.920060  0.840130  0.259170  1.0  -0.0459
  O  O631  1  0.640270  0.780580  0.398960  1.0  -0.5794
  O  O632  1  0.610090  0.765290  0.314270  1.0  -0.5847
  O  O633  1  0.306940  0.113910  0.732290  1.0  -0.5799
  O  O634  1  0.276760  0.098620  0.647600  1.0  -0.5824
  O  O635  1  0.973600  0.447250  0.065630  1.0  -0.5794
  O  O636  1  0.943420  0.431960  0.980940  1.0  -0.5847
  O  O637  1  0.219420  0.859690  0.398960  1.0  -0.5803
  O  O638  1  0.234710  0.844800  0.314270  1.0  -0.5825
  O  O639  1  0.886090  0.193020  0.732290  1.0  -0.5804
  O  O640  1  0.901380  0.178130  0.647600  1.0  -0.5824
  O  O641  1  0.552750  0.526360  0.065630  1.0  -0.5803
  O  O642  1  0.568040  0.511470  0.980940  1.0  -0.5825
  O  O643  1  0.140310  0.359730  0.398960  1.0  -0.5807
  O  O644  1  0.155200  0.389910  0.314270  1.0  -0.5823
  O  O645  1  0.806980  0.693060  0.732290  1.0  -0.5804
  O  O646  1  0.821870  0.723240  0.647600  1.0  -0.5851
  O  O647  1  0.473640  0.026400  0.065630  1.0  -0.5808
  O  O648  1  0.488530  0.056580  0.980940  1.0  -0.5823
  O  O649  1  0.780580  0.640270  0.601040  1.0  -0.582
  O  O650  1  0.765290  0.610090  0.685730  1.0  -0.5847
  O  O651  1  0.447250  0.973600  0.934370  1.0  -0.582
  O  O652  1  0.431960  0.943420  0.019060  1.0  -0.5847
  O  O653  1  0.113910  0.306940  0.267710  1.0  -0.5823
  O  O654  1  0.098620  0.276760  0.352400  1.0  -0.5828
  O  O655  1  0.859690  0.219420  0.601040  1.0  -0.5823
  O  O656  1  0.844800  0.234710  0.685730  1.0  -0.5827
  O  O657  1  0.526360  0.552750  0.934370  1.0  -0.5823
  O  O658  1  0.511470  0.568040  0.019060  1.0  -0.5827
  O  O659  1  0.193020  0.886090  0.267710  1.0  -0.5824
  O  O660  1  0.178130  0.901380  0.352400  1.0  -0.5825
  O  O661  1  0.359730  0.140310  0.601040  1.0  -0.5821
  O  O662  1  0.389910  0.155200  0.685730  1.0  -0.5822
  O  O663  1  0.026400  0.473640  0.934370  1.0  -0.5821
  O  O664  1  0.056580  0.488530  0.019060  1.0  -0.5822
  O  O665  1  0.693060  0.806980  0.267710  1.0  -0.5817
  O  O666  1  0.723240  0.821870  0.352400  1.0  -0.5833
  O  O667  1  0.359730  0.219420  0.601040  1.0  -0.5825
  O  O668  1  0.389910  0.234710  0.685730  1.0  -0.5835
  O  O669  1  0.026400  0.552750  0.934370  1.0  -0.5825
  O  O670  1  0.056580  0.568040  0.019060  1.0  -0.5835
  O  O671  1  0.693060  0.886090  0.267710  1.0  -0.5829
  O  O672  1  0.723240  0.901380  0.352400  1.0  -0.5818
  O  O673  1  0.780580  0.140310  0.601040  1.0  -0.582
  O  O674  1  0.765290  0.155200  0.685730  1.0  -0.5834
  O  O675  1  0.447250  0.473640  0.934370  1.0  -0.582
  O  O676  1  0.431960  0.488530  0.019060  1.0  -0.5834
  O  O677  1  0.113910  0.806980  0.267710  1.0  -0.582
  O  O678  1  0.098620  0.821870  0.352400  1.0  -0.5833
  O  O679  1  0.859690  0.640270  0.601040  1.0  -0.5825
  O  O680  1  0.844800  0.610090  0.685730  1.0  -0.5828
  O  O681  1  0.526360  0.973600  0.934370  1.0  -0.5825
  O  O682  1  0.511470  0.943420  0.019060  1.0  -0.5828
  O  O683  1  0.193020  0.306940  0.267710  1.0  -0.582
  O  O684  1  0.178130  0.276760  0.352400  1.0  -0.5844
  O  O685  1  0.219420  0.359730  0.398960  1.0  -0.5806
  O  O686  1  0.234710  0.389910  0.314270  1.0  -0.5857
  O  O687  1  0.886090  0.693060  0.732290  1.0  -0.5809
  O  O688  1  0.901380  0.723240  0.647600  1.0  -0.5827
  O  O689  1  0.552750  0.026400  0.065630  1.0  -0.5806
  O  O690  1  0.568040  0.056580  0.980940  1.0  -0.5857
  O  O691  1  0.140310  0.780580  0.398960  1.0  -0.5813
  O  O692  1  0.155200  0.765290  0.314270  1.0  -0.5822
  O  O693  1  0.806980  0.113910  0.732290  1.0  -0.5814
  O  O694  1  0.821870  0.098620  0.647600  1.0  -0.5821
  O  O695  1  0.473640  0.447250  0.065630  1.0  -0.5813
  O  O696  1  0.488530  0.431960  0.980940  1.0  -0.5822
  O  O697  1  0.640270  0.859690  0.398960  1.0  -0.5802
  O  O698  1  0.610090  0.844800  0.314270  1.0  -0.5828
  O  O699  1  0.306940  0.193020  0.732290  1.0  -0.5796
  O  O700  1  0.276760  0.178130  0.647600  1.0  -0.5845
  O  O701  1  0.973600  0.526360  0.065630  1.0  -0.5803
  O  O702  1  0.943420  0.511470  0.980940  1.0  -0.5828
  O  O703  1  0.433290  0.566710  0.381310  1.0  -0.2543
  O  O704  1  0.099960  0.900040  0.714640  1.0  -0.2543
  O  O705  1  0.766620  0.233380  0.047980  1.0  -0.2543
  O  O706  1  0.433290  0.866580  0.381310  1.0  -0.2556
  O  O707  1  0.099960  0.199910  0.714640  1.0  -0.2556
  O  O708  1  0.766620  0.533250  0.047980  1.0  -0.2556
  O  O709  1  0.133420  0.566710  0.381310  1.0  -0.2541
  O  O710  1  0.800090  0.900040  0.714640  1.0  -0.2541
  O  O711  1  0.466750  0.233380  0.047980  1.0  -0.2541
  O  O712  1  0.566710  0.433290  0.618690  1.0  -0.2584
  O  O713  1  0.233380  0.766620  0.952020  1.0  -0.2584
  O  O714  1  0.900040  0.099960  0.285360  1.0  -0.2584
  O  O715  1  0.866580  0.433290  0.618690  1.0  -0.2577
  O  O716  1  0.533250  0.766620  0.952020  1.0  -0.2577
  O  O717  1  0.199910  0.099960  0.285360  1.0  -0.2577
  O  O718  1  0.566710  0.133420  0.618690  1.0  -0.2581
  O  O719  1  0.233380  0.466750  0.952020  1.0  -0.2581
  O  O720  1  0.900040  0.800090  0.285360  1.0  -0.2581
