# generated using pymatgen
data_CuH13C21O5
_symmetry_space_group_name_H-M   'P 1'
_cell_length_a   35.29380000
_cell_length_b   35.29380000
_cell_length_c   20.34100000
_cell_angle_alpha   90.00000000
_cell_angle_beta   90.00000000
_cell_angle_gamma   120.00000000
_symmetry_Int_Tables_number   1
_chemical_formula_structural   CuH13C21O5
_chemical_formula_sum   'Cu18 H234 C378 O90'
_cell_volume   21943.19043529
_cell_formula_units_Z   18
loop_
 _symmetry_equiv_pos_site_id
 _symmetry_equiv_pos_as_xyz
  1  'x, y, z'
loop_
 _atom_site_type_symbol
 _atom_site_label
 _atom_site_symmetry_multiplicity
 _atom_site_fract_x
 _atom_site_fract_y
 _atom_site_fract_z
 _atom_site_occupancy
 _atom_site_charge
  Cu  Cu1  1  0.174260  0.348530  0.272570  1.0  0.9104
  Cu  Cu2  1  0.840930  0.681860  0.605900  1.0  0.9104
  Cu  Cu3  1  0.507600  0.015200  0.939240  1.0  0.9138
  Cu  Cu4  1  0.651470  0.825740  0.272570  1.0  0.91
  Cu  Cu5  1  0.318140  0.159070  0.605900  1.0  0.91
  Cu  Cu6  1  0.984800  0.492400  0.939240  1.0  0.9138
  Cu  Cu7  1  0.174270  0.825740  0.272570  1.0  0.9113
  Cu  Cu8  1  0.840930  0.159070  0.605900  1.0  0.9114
  Cu  Cu9  1  0.507600  0.492400  0.939240  1.0  0.911
  Cu  Cu10  1  0.348530  0.174260  0.727430  1.0  0.9108
  Cu  Cu11  1  0.015200  0.507600  0.060760  1.0  0.9145
  Cu  Cu12  1  0.681860  0.840930  0.394100  1.0  0.9108
  Cu  Cu13  1  0.825740  0.651470  0.727430  1.0  0.9111
  Cu  Cu14  1  0.492400  0.984800  0.060760  1.0  0.9141
  Cu  Cu15  1  0.159070  0.318140  0.394100  1.0  0.9111
  Cu  Cu16  1  0.825740  0.174270  0.727430  1.0  0.9115
  Cu  Cu17  1  0.492400  0.507600  0.060760  1.0  0.9113
  Cu  Cu18  1  0.159070  0.840930  0.394100  1.0  0.9117
  H  H19  1  0.309600  0.447700  0.291200  1.0  0.1065
  H  H20  1  0.382000  0.497300  0.319500  1.0  0.1011
  H  H21  1  0.358000  0.451800  0.506600  1.0  0.1086
  H  H22  1  0.285800  0.401900  0.478100  1.0  0.1066
  H  H23  1  0.428200  0.457500  0.477900  1.0  0.1042
  H  H24  1  0.434000  0.611300  0.451600  1.0  0.112
  H  H25  1  0.976270  0.781030  0.624530  1.0  0.1072
  H  H26  1  0.048670  0.830630  0.652830  1.0  0.1011
  H  H27  1  0.024670  0.785130  0.839930  1.0  0.1086
  H  H28  1  0.952470  0.735230  0.811430  1.0  0.1072
  H  H29  1  0.094870  0.790830  0.811230  1.0  0.1042
  H  H30  1  0.100670  0.944630  0.784930  1.0  0.1118
  H  H31  1  0.642930  0.114370  0.957870  1.0  0.1064
  H  H32  1  0.715330  0.163970  0.986170  1.0  0.1011
  H  H33  1  0.691330  0.118470  0.173270  1.0  0.1086
  H  H34  1  0.619130  0.068570  0.144770  1.0  0.1066
  H  H35  1  0.761530  0.124170  0.144570  1.0  0.1042
  H  H36  1  0.767330  0.277970  0.118270  1.0  0.112
  H  H37  1  0.552300  0.861900  0.291200  1.0  0.1069
  H  H38  1  0.502700  0.884700  0.319500  1.0  0.1036
  H  H39  1  0.548200  0.906200  0.506600  1.0  0.1086
  H  H40  1  0.598100  0.883900  0.478100  1.0  0.1072
  H  H41  1  0.542500  0.970700  0.477900  1.0  0.1037
  H  H42  1  0.388700  0.822700  0.451600  1.0  0.1121
  H  H43  1  0.218970  0.195230  0.624530  1.0  0.106
  H  H44  1  0.169370  0.218030  0.652830  1.0  0.1014
  H  H45  1  0.214870  0.239530  0.839930  1.0  0.108
  H  H46  1  0.264770  0.217230  0.811430  1.0  0.1068
  H  H47  1  0.209170  0.304030  0.811230  1.0  0.1037
  H  H48  1  0.055370  0.156030  0.784930  1.0  0.1123
  H  H49  1  0.885630  0.528570  0.957870  1.0  0.1069
  H  H50  1  0.836030  0.551370  0.986170  1.0  0.1029
  H  H51  1  0.881530  0.572870  0.173270  1.0  0.1086
  H  H52  1  0.931430  0.550570  0.144770  1.0  0.1072
  H  H53  1  0.875830  0.637370  0.144570  1.0  0.1037
  H  H54  1  0.722030  0.489370  0.118270  1.0  0.1121
  H  H55  1  0.138100  0.690400  0.291200  1.0  0.1077
  H  H56  1  0.115300  0.618000  0.319500  1.0  0.1023
  H  H57  1  0.093800  0.642000  0.506600  1.0  0.1082
  H  H58  1  0.116100  0.714200  0.478100  1.0  0.1069
  H  H59  1  0.029300  0.571800  0.477900  1.0  0.103
  H  H60  1  0.177300  0.566000  0.451600  1.0  0.1138
  H  H61  1  0.804770  0.023730  0.624530  1.0  0.1077
  H  H62  1  0.781970  0.951330  0.652830  1.0  0.1021
  H  H63  1  0.760470  0.975330  0.839930  1.0  0.1089
  H  H64  1  0.782770  0.047530  0.811430  1.0  0.1069
  H  H65  1  0.695970  0.905130  0.811230  1.0  0.103
  H  H66  1  0.843970  0.899330  0.784930  1.0  0.1144
  H  H67  1  0.471430  0.357070  0.957870  1.0  0.1077
  H  H68  1  0.448630  0.284670  0.986170  1.0  0.1008
  H  H69  1  0.427130  0.308670  0.173270  1.0  0.1082
  H  H70  1  0.449430  0.380870  0.144770  1.0  0.1069
  H  H71  1  0.362630  0.238470  0.144570  1.0  0.103
  H  H72  1  0.510630  0.232670  0.118270  1.0  0.1138
  H  H73  1  0.447700  0.309600  0.708800  1.0  0.1065
  H  H74  1  0.497300  0.382000  0.680500  1.0  0.1012
  H  H75  1  0.451800  0.358000  0.493400  1.0  0.1085
  H  H76  1  0.401900  0.285800  0.521900  1.0  0.1059
  H  H77  1  0.457500  0.428200  0.522100  1.0  0.1043
  H  H78  1  0.611300  0.434000  0.548400  1.0  0.1123
  H  H79  1  0.114370  0.642930  0.042130  1.0  0.1064
  H  H80  1  0.163970  0.715330  0.013830  1.0  0.1012
  H  H81  1  0.118470  0.691330  0.826730  1.0  0.1085
  H  H82  1  0.068570  0.619130  0.855230  1.0  0.1059
  H  H83  1  0.124170  0.761530  0.855430  1.0  0.1043
  H  H84  1  0.277970  0.767330  0.881730  1.0  0.1123
  H  H85  1  0.781030  0.976270  0.375470  1.0  0.1075
  H  H86  1  0.830630  0.048670  0.347170  1.0  0.1012
  H  H87  1  0.785130  0.024670  0.160070  1.0  0.1085
  H  H88  1  0.735230  0.952470  0.188570  1.0  0.1065
  H  H89  1  0.790830  0.094870  0.188770  1.0  0.1043
  H  H90  1  0.944630  0.100670  0.215070  1.0  0.1125
  H  H91  1  0.861900  0.552300  0.708800  1.0  0.1072
  H  H92  1  0.884700  0.502700  0.680500  1.0  0.1037
  H  H93  1  0.906200  0.548200  0.493400  1.0  0.109
  H  H94  1  0.883900  0.598100  0.521900  1.0  0.1068
  H  H95  1  0.970700  0.542500  0.522100  1.0  0.1059
  H  H96  1  0.822700  0.388700  0.548400  1.0  0.1114
  H  H97  1  0.528570  0.885630  0.042130  1.0  0.1072
  H  H98  1  0.551370  0.836030  0.013830  1.0  0.1026
  H  H99  1  0.572870  0.881530  0.826730  1.0  0.109
  H  H100  1  0.550570  0.931430  0.855230  1.0  0.1068
  H  H101  1  0.637370  0.875830  0.855430  1.0  0.1059
  H  H102  1  0.489370  0.722030  0.881730  1.0  0.1114
  H  H103  1  0.195230  0.218970  0.375470  1.0  0.1063
  H  H104  1  0.218030  0.169370  0.347170  1.0  0.1013
  H  H105  1  0.239530  0.214870  0.160070  1.0  0.1087
  H  H106  1  0.217230  0.264770  0.188570  1.0  0.1063
  H  H107  1  0.304030  0.209170  0.188770  1.0  0.1059
  H  H108  1  0.156030  0.055370  0.215070  1.0  0.1112
  H  H109  1  0.690400  0.138100  0.708800  1.0  0.1068
  H  H110  1  0.618000  0.115300  0.680500  1.0  0.1029
  H  H111  1  0.642000  0.093800  0.493400  1.0  0.1089
  H  H112  1  0.714200  0.116100  0.521900  1.0  0.1075
  H  H113  1  0.571800  0.029300  0.522100  1.0  0.1057
  H  H114  1  0.566000  0.177300  0.548400  1.0  0.1119
  H  H115  1  0.357070  0.471430  0.042130  1.0  0.1068
  H  H116  1  0.284670  0.448630  0.013830  1.0  0.1013
  H  H117  1  0.308670  0.427130  0.826730  1.0  0.1089
  H  H118  1  0.380870  0.449430  0.855230  1.0  0.1075
  H  H119  1  0.238470  0.362630  0.855430  1.0  0.1057
  H  H120  1  0.232670  0.510630  0.881730  1.0  0.1119
  H  H121  1  0.023730  0.804770  0.375470  1.0  0.1068
  H  H122  1  0.951330  0.781970  0.347170  1.0  0.1033
  H  H123  1  0.975330  0.760470  0.160070  1.0  0.1093
  H  H124  1  0.047530  0.782770  0.188570  1.0  0.1075
  H  H125  1  0.905130  0.695970  0.188770  1.0  0.1057
  H  H126  1  0.899330  0.843970  0.215070  1.0  0.1114
  H  H127  1  0.690400  0.552300  0.708800  1.0  0.1066
  H  H128  1  0.618000  0.502700  0.680500  1.0  0.1011
  H  H129  1  0.642000  0.548200  0.493400  1.0  0.1085
  H  H130  1  0.714200  0.598100  0.521900  1.0  0.1065
  H  H131  1  0.571800  0.542500  0.522100  1.0  0.1042
  H  H132  1  0.566000  0.388700  0.548400  1.0  0.1125
  H  H133  1  0.357070  0.885630  0.042130  1.0  0.1065
  H  H134  1  0.284670  0.836030  0.013830  1.0  0.1011
  H  H135  1  0.308670  0.881530  0.826730  1.0  0.1085
  H  H136  1  0.380870  0.931430  0.855230  1.0  0.1065
  H  H137  1  0.238470  0.875830  0.855430  1.0  0.1042
  H  H138  1  0.232670  0.722030  0.881730  1.0  0.1125
  H  H139  1  0.023730  0.218970  0.375470  1.0  0.1074
  H  H140  1  0.951330  0.169370  0.347170  1.0  0.1011
  H  H141  1  0.975330  0.214870  0.160070  1.0  0.1085
  H  H142  1  0.047530  0.264770  0.188570  1.0  0.1071
  H  H143  1  0.905130  0.209170  0.188770  1.0  0.1042
  H  H144  1  0.899330  0.055370  0.215070  1.0  0.1124
  H  H145  1  0.447700  0.138100  0.708800  1.0  0.1069
  H  H146  1  0.497300  0.115300  0.680500  1.0  0.1038
  H  H147  1  0.451800  0.093800  0.493400  1.0  0.1088
  H  H148  1  0.401900  0.116100  0.521900  1.0  0.1068
  H  H149  1  0.457500  0.029300  0.522100  1.0  0.1039
  H  H150  1  0.611300  0.177300  0.548400  1.0  0.1113
  H  H151  1  0.114370  0.471430  0.042130  1.0  0.1069
  H  H152  1  0.163970  0.448630  0.013830  1.0  0.1029
  H  H153  1  0.118470  0.427130  0.826730  1.0  0.1088
  H  H154  1  0.068570  0.449430  0.855230  1.0  0.1068
  H  H155  1  0.124170  0.362630  0.855430  1.0  0.1039
  H  H156  1  0.277970  0.510630  0.881730  1.0  0.1113
  H  H157  1  0.781030  0.804770  0.375470  1.0  0.1059
  H  H158  1  0.830630  0.781970  0.347170  1.0  0.1011
  H  H159  1  0.785130  0.760470  0.160070  1.0  0.1086
  H  H160  1  0.735230  0.782770  0.188570  1.0  0.1065
  H  H161  1  0.790830  0.695970  0.188770  1.0  0.1039
  H  H162  1  0.944630  0.843970  0.215070  1.0  0.1117
  H  H163  1  0.861900  0.309600  0.708800  1.0  0.1074
  H  H164  1  0.884700  0.382000  0.680500  1.0  0.1027
  H  H165  1  0.906200  0.358000  0.493400  1.0  0.1084
  H  H166  1  0.883900  0.285800  0.521900  1.0  0.1067
  H  H167  1  0.970700  0.428200  0.522100  1.0  0.1037
  H  H168  1  0.822700  0.434000  0.548400  1.0  0.1128
  H  H169  1  0.528570  0.642930  0.042130  1.0  0.1074
  H  H170  1  0.551370  0.715330  0.013830  1.0  0.1013
  H  H171  1  0.572870  0.691330  0.826730  1.0  0.1084
  H  H172  1  0.550570  0.619130  0.855230  1.0  0.1067
  H  H173  1  0.637370  0.761530  0.855430  1.0  0.1037
  H  H174  1  0.489370  0.767330  0.881730  1.0  0.1128
  H  H175  1  0.195230  0.976270  0.375470  1.0  0.1074
  H  H176  1  0.218030  0.048670  0.347170  1.0  0.1028
  H  H177  1  0.239530  0.024670  0.160070  1.0  0.109
  H  H178  1  0.217230  0.952470  0.188570  1.0  0.1067
  H  H179  1  0.304030  0.094870  0.188770  1.0  0.1037
  H  H180  1  0.156030  0.100670  0.215070  1.0  0.113
  H  H181  1  0.552300  0.690400  0.291200  1.0  0.1065
  H  H182  1  0.502700  0.618000  0.319500  1.0  0.1008
  H  H183  1  0.548200  0.642000  0.506600  1.0  0.1081
  H  H184  1  0.598100  0.714200  0.478100  1.0  0.1065
  H  H185  1  0.542500  0.571800  0.477900  1.0  0.1039
  H  H186  1  0.388700  0.566000  0.451600  1.0  0.1127
  H  H187  1  0.218970  0.023730  0.624530  1.0  0.1072
  H  H188  1  0.169370  0.951330  0.652830  1.0  0.1008
  H  H189  1  0.214870  0.975330  0.839930  1.0  0.1081
  H  H190  1  0.264770  0.047530  0.811430  1.0  0.107
  H  H191  1  0.209170  0.905130  0.811230  1.0  0.1039
  H  H192  1  0.055370  0.899330  0.784930  1.0  0.1125
  H  H193  1  0.885630  0.357070  0.957870  1.0  0.1064
  H  H194  1  0.836030  0.284670  0.986170  1.0  0.1008
  H  H195  1  0.881530  0.308670  0.173270  1.0  0.1081
  H  H196  1  0.931430  0.380870  0.144770  1.0  0.1065
  H  H197  1  0.875830  0.238470  0.144570  1.0  0.1039
  H  H198  1  0.722030  0.232670  0.118270  1.0  0.1127
  H  H199  1  0.138100  0.447700  0.291200  1.0  0.1073
  H  H200  1  0.115300  0.497300  0.319500  1.0  0.1032
  H  H201  1  0.093800  0.451800  0.506600  1.0  0.1088
  H  H202  1  0.116100  0.401900  0.478100  1.0  0.1074
  H  H203  1  0.029300  0.457500  0.477900  1.0  0.1045
  H  H204  1  0.177300  0.611300  0.451600  1.0  0.1126
  H  H205  1  0.804770  0.781030  0.624530  1.0  0.1064
  H  H206  1  0.781970  0.830630  0.652830  1.0  0.1013
  H  H207  1  0.760470  0.785130  0.839930  1.0  0.1081
  H  H208  1  0.782770  0.735230  0.811430  1.0  0.1069
  H  H209  1  0.695970  0.790830  0.811230  1.0  0.1045
  H  H210  1  0.843970  0.944630  0.784930  1.0  0.1125
  H  H211  1  0.471430  0.114370  0.957870  1.0  0.1073
  H  H212  1  0.448630  0.163970  0.986170  1.0  0.1024
  H  H213  1  0.427130  0.118470  0.173270  1.0  0.1088
  H  H214  1  0.449430  0.068570  0.144770  1.0  0.1074
  H  H215  1  0.362630  0.124170  0.144570  1.0  0.1045
  H  H216  1  0.510630  0.277970  0.118270  1.0  0.1126
  H  H217  1  0.309600  0.861900  0.291200  1.0  0.1071
  H  H218  1  0.382000  0.884700  0.319500  1.0  0.1026
  H  H219  1  0.358000  0.906200  0.506600  1.0  0.1085
  H  H220  1  0.285800  0.883900  0.478100  1.0  0.1071
  H  H221  1  0.428200  0.970700  0.477900  1.0  0.1041
  H  H222  1  0.434000  0.822700  0.451600  1.0  0.1121
  H  H223  1  0.976270  0.195230  0.624530  1.0  0.1071
  H  H224  1  0.048670  0.218030  0.652830  1.0  0.1026
  H  H225  1  0.024670  0.239530  0.839930  1.0  0.1091
  H  H226  1  0.952470  0.217230  0.811430  1.0  0.1071
  H  H227  1  0.094870  0.304030  0.811230  1.0  0.1041
  H  H228  1  0.100670  0.156030  0.784930  1.0  0.1131
  H  H229  1  0.642930  0.528570  0.957870  1.0  0.1071
  H  H230  1  0.715330  0.551370  0.986170  1.0  0.1009
  H  H231  1  0.691330  0.572870  0.173270  1.0  0.1085
  H  H232  1  0.619130  0.550570  0.144770  1.0  0.1071
  H  H233  1  0.761530  0.637370  0.144570  1.0  0.1041
  H  H234  1  0.767330  0.489370  0.118270  1.0  0.1121
  H  H235  1  0.397500  0.602500  0.397700  1.0  0.1392
  H  H236  1  0.064170  0.935830  0.731030  1.0  0.1374
  H  H237  1  0.730830  0.269170  0.064370  1.0  0.1392
  H  H238  1  0.397500  0.795000  0.397700  1.0  0.1362
  H  H239  1  0.064170  0.128330  0.731030  1.0  0.1362
  H  H240  1  0.730830  0.461670  0.064370  1.0  0.1362
  H  H241  1  0.205000  0.602500  0.397700  1.0  0.1367
  H  H242  1  0.871670  0.935830  0.731030  1.0  0.1367
  H  H243  1  0.538330  0.269170  0.064370  1.0  0.1367
  H  H244  1  0.602500  0.397500  0.602300  1.0  0.1397
  H  H245  1  0.269170  0.730830  0.935630  1.0  0.1397
  H  H246  1  0.935830  0.064170  0.268970  1.0  0.1382
  H  H247  1  0.795000  0.397500  0.602300  1.0  0.1364
  H  H248  1  0.461670  0.730830  0.935630  1.0  0.1364
  H  H249  1  0.128330  0.064170  0.268970  1.0  0.1364
  H  H250  1  0.602500  0.205000  0.602300  1.0  0.1358
  H  H251  1  0.269170  0.538330  0.935630  1.0  0.1358
  H  H252  1  0.935830  0.871670  0.268970  1.0  0.1358
  C  C253  1  0.244370  0.387800  0.364360  1.0  0.6645
  C  C254  1  0.290860  0.420140  0.382720  1.0  -0.1265
  C  C255  1  0.319540  0.448450  0.334830  1.0  -0.0585
  C  C256  1  0.362640  0.477690  0.351690  1.0  -0.1196
  C  C257  1  0.377850  0.478690  0.414780  1.0  0.0686
  C  C258  1  0.348390  0.450660  0.462600  1.0  -0.1568
  C  C259  1  0.305330  0.421290  0.445860  1.0  -0.038
  C  C260  1  0.424970  0.506050  0.431530  1.0  -0.0487
  C  C261  1  0.445100  0.487400  0.465720  1.0  -0.1484
  C  C262  1  0.911040  0.721130  0.697690  1.0  0.6645
  C  C263  1  0.957530  0.753470  0.716050  1.0  -0.1265
  C  C264  1  0.986210  0.781780  0.668160  1.0  -0.0585
  C  C265  1  0.029310  0.811020  0.685020  1.0  -0.1196
  C  C266  1  0.044520  0.812020  0.748110  1.0  0.0686
  C  C267  1  0.015060  0.783990  0.795930  1.0  -0.1568
  C  C268  1  0.972000  0.754620  0.779190  1.0  -0.038
  C  C269  1  0.091640  0.839380  0.764860  1.0  -0.0487
  C  C270  1  0.111770  0.820730  0.799050  1.0  -0.1484
  C  C271  1  0.577700  0.054470  0.031030  1.0  0.6644
  C  C272  1  0.624190  0.086810  0.049390  1.0  -0.1256
  C  C273  1  0.652870  0.115120  0.001500  1.0  -0.0585
  C  C274  1  0.695970  0.144360  0.018360  1.0  -0.1196
  C  C275  1  0.711180  0.145360  0.081450  1.0  0.0686
  C  C276  1  0.681720  0.117330  0.129270  1.0  -0.1568
  C  C277  1  0.638660  0.087960  0.112530  1.0  -0.038
  C  C278  1  0.758300  0.172720  0.098200  1.0  -0.0486
  C  C279  1  0.778430  0.154070  0.132390  1.0  -0.1484
  C  C280  1  0.612200  0.856570  0.364360  1.0  0.6642
  C  C281  1  0.579860  0.870720  0.382720  1.0  -0.1279
  C  C282  1  0.551550  0.871090  0.334830  1.0  -0.0583
  C  C283  1  0.522310  0.884950  0.351690  1.0  -0.1182
  C  C284  1  0.521310  0.899160  0.414780  1.0  0.0685
  C  C285  1  0.549340  0.897730  0.462600  1.0  -0.1559
  C  C286  1  0.578710  0.884040  0.445860  1.0  -0.0364
  C  C287  1  0.493950  0.918920  0.431530  1.0  -0.0462
  C  C288  1  0.512600  0.957700  0.465720  1.0  -0.1519
  C  C289  1  0.278870  0.189900  0.697690  1.0  0.6642
  C  C290  1  0.246530  0.204050  0.716050  1.0  -0.1279
  C  C291  1  0.218220  0.204420  0.668160  1.0  -0.0583
  C  C292  1  0.188980  0.218280  0.685020  1.0  -0.1182
  C  C293  1  0.187980  0.232490  0.748110  1.0  0.0685
  C  C294  1  0.216010  0.231060  0.795930  1.0  -0.1559
  C  C295  1  0.245380  0.217370  0.779190  1.0  -0.0364
  C  C296  1  0.160620  0.252250  0.764860  1.0  -0.0462
  C  C297  1  0.179270  0.291030  0.799050  1.0  -0.1519
  C  C298  1  0.945530  0.523240  0.031030  1.0  0.6642
  C  C299  1  0.913190  0.537390  0.049390  1.0  -0.127
  C  C300  1  0.884880  0.537760  0.001500  1.0  -0.0583
  C  C301  1  0.855640  0.551620  0.018360  1.0  -0.1182
  C  C302  1  0.854640  0.565830  0.081450  1.0  0.0685
  C  C303  1  0.882670  0.564400  0.129270  1.0  -0.1559
  C  C304  1  0.912040  0.550710  0.112530  1.0  -0.0364
  C  C305  1  0.827280  0.585590  0.098200  1.0  -0.0462
  C  C306  1  0.845930  0.624370  0.132390  1.0  -0.1519
  C  C307  1  0.143430  0.755630  0.364360  1.0  0.6651
  C  C308  1  0.129280  0.709140  0.382720  1.0  -0.1258
  C  C309  1  0.128910  0.680460  0.334830  1.0  -0.0591
  C  C310  1  0.115050  0.637360  0.351690  1.0  -0.1188
  C  C311  1  0.100840  0.622150  0.414780  1.0  0.0685
  C  C312  1  0.102270  0.651610  0.462600  1.0  -0.1569
  C  C313  1  0.115960  0.694670  0.445860  1.0  -0.0372
  C  C314  1  0.081080  0.575030  0.431530  1.0  -0.0472
  C  C315  1  0.042300  0.554900  0.465720  1.0  -0.151
  C  C316  1  0.810100  0.088960  0.697690  1.0  0.6651
  C  C317  1  0.795950  0.042470  0.716050  1.0  -0.1258
  C  C318  1  0.795580  0.013790  0.668160  1.0  -0.0591
  C  C319  1  0.781720  0.970690  0.685020  1.0  -0.1188
  C  C320  1  0.767510  0.955480  0.748110  1.0  0.0685
  C  C321  1  0.768940  0.984940  0.795930  1.0  -0.1569
  C  C322  1  0.782630  0.028000  0.779190  1.0  -0.0372
  C  C323  1  0.747750  0.908360  0.764860  1.0  -0.0472
  C  C324  1  0.708970  0.888230  0.799050  1.0  -0.151
  C  C325  1  0.476760  0.422300  0.031030  1.0  0.6649
  C  C326  1  0.462610  0.375810  0.049390  1.0  -0.1257
  C  C327  1  0.462240  0.347130  0.001500  1.0  -0.0592
  C  C328  1  0.448380  0.304030  0.018360  1.0  -0.1188
  C  C329  1  0.434170  0.288820  0.081450  1.0  0.0685
  C  C330  1  0.435600  0.318280  0.129270  1.0  -0.1569
  C  C331  1  0.449290  0.361340  0.112530  1.0  -0.0372
  C  C332  1  0.414410  0.241700  0.098200  1.0  -0.0472
  C  C333  1  0.375630  0.221570  0.132390  1.0  -0.151
  C  C334  1  0.387800  0.244370  0.635640  1.0  0.6648
  C  C335  1  0.420140  0.290860  0.617280  1.0  -0.1266
  C  C336  1  0.448450  0.319540  0.665170  1.0  -0.0599
  C  C337  1  0.477690  0.362640  0.648310  1.0  -0.1194
  C  C338  1  0.478690  0.377850  0.585220  1.0  0.0685
  C  C339  1  0.450660  0.348390  0.537400  1.0  -0.1553
  C  C340  1  0.421290  0.305330  0.554140  1.0  -0.0371
  C  C341  1  0.506050  0.424970  0.568470  1.0  -0.0475
  C  C342  1  0.487400  0.445100  0.534280  1.0  -0.1514
  C  C343  1  0.054470  0.577700  0.968970  1.0  0.6648
  C  C344  1  0.086810  0.624190  0.950610  1.0  -0.1257
  C  C345  1  0.115120  0.652870  0.998500  1.0  -0.0599
  C  C346  1  0.144360  0.695970  0.981640  1.0  -0.1194
  C  C347  1  0.145360  0.711180  0.918550  1.0  0.0685
  C  C348  1  0.117330  0.681720  0.870730  1.0  -0.1553
  C  C349  1  0.087960  0.638660  0.887470  1.0  -0.0371
  C  C350  1  0.172720  0.758300  0.901800  1.0  -0.0475
  C  C351  1  0.154070  0.778430  0.867610  1.0  -0.1514
  C  C352  1  0.721130  0.911040  0.302310  1.0  0.6648
  C  C353  1  0.753470  0.957530  0.283950  1.0  -0.1266
  C  C354  1  0.781780  0.986210  0.331840  1.0  -0.0599
  C  C355  1  0.811020  0.029310  0.314980  1.0  -0.1194
  C  C356  1  0.812020  0.044520  0.251890  1.0  0.0685
  C  C357  1  0.783990  0.015060  0.204070  1.0  -0.1553
  C  C358  1  0.754620  0.972000  0.220810  1.0  -0.0371
  C  C359  1  0.839380  0.091640  0.235140  1.0  -0.0475
  C  C360  1  0.820730  0.111770  0.200950  1.0  -0.1514
  C  C361  1  0.856570  0.612200  0.635640  1.0  0.6647
  C  C362  1  0.870720  0.579860  0.617280  1.0  -0.127
  C  C363  1  0.871090  0.551550  0.665170  1.0  -0.0605
  C  C364  1  0.884950  0.522310  0.648310  1.0  -0.1188
  C  C365  1  0.899160  0.521310  0.585220  1.0  0.0683
  C  C366  1  0.897730  0.549340  0.537400  1.0  -0.1552
  C  C367  1  0.884040  0.578710  0.554140  1.0  -0.0375
  C  C368  1  0.918920  0.493950  0.568470  1.0  -0.0482
  C  C369  1  0.957700  0.512600  0.534280  1.0  -0.1478
  C  C370  1  0.523240  0.945530  0.968970  1.0  0.6647
  C  C371  1  0.537390  0.913190  0.950610  1.0  -0.1261
  C  C372  1  0.537760  0.884880  0.998500  1.0  -0.0605
  C  C373  1  0.551620  0.855640  0.981640  1.0  -0.1188
  C  C374  1  0.565830  0.854640  0.918550  1.0  0.0683
  C  C375  1  0.564400  0.882670  0.870730  1.0  -0.1552
  C  C376  1  0.550710  0.912040  0.887470  1.0  -0.0375
  C  C377  1  0.585590  0.827280  0.901800  1.0  -0.0482
  C  C378  1  0.624370  0.845930  0.867610  1.0  -0.1478
  C  C379  1  0.189900  0.278870  0.302310  1.0  0.6647
  C  C380  1  0.204050  0.246530  0.283950  1.0  -0.127
  C  C381  1  0.204420  0.218220  0.331840  1.0  -0.0605
  C  C382  1  0.218280  0.188980  0.314980  1.0  -0.1188
  C  C383  1  0.232490  0.187980  0.251890  1.0  0.0683
  C  C384  1  0.231060  0.216010  0.204070  1.0  -0.1552
  C  C385  1  0.217370  0.245380  0.220810  1.0  -0.0375
  C  C386  1  0.252250  0.160620  0.235140  1.0  -0.0482
  C  C387  1  0.291030  0.179270  0.200950  1.0  -0.1478
  C  C388  1  0.755630  0.143430  0.635640  1.0  0.6645
  C  C389  1  0.709140  0.129280  0.617280  1.0  -0.128
  C  C390  1  0.680460  0.128910  0.665170  1.0  -0.0599
  C  C391  1  0.637360  0.115050  0.648310  1.0  -0.1189
  C  C392  1  0.622150  0.100840  0.585220  1.0  0.0683
  C  C393  1  0.651610  0.102270  0.537400  1.0  -0.1535
  C  C394  1  0.694670  0.115960  0.554140  1.0  -0.0369
  C  C395  1  0.575030  0.081080  0.568470  1.0  -0.0459
  C  C396  1  0.554900  0.042300  0.534280  1.0  -0.1519
  C  C397  1  0.422300  0.476760  0.968970  1.0  0.6644
  C  C398  1  0.375810  0.462610  0.950610  1.0  -0.1278
  C  C399  1  0.347130  0.462240  0.998500  1.0  -0.0599
  C  C400  1  0.304030  0.448380  0.981640  1.0  -0.1189
  C  C401  1  0.288820  0.434170  0.918550  1.0  0.0683
  C  C402  1  0.318280  0.435600  0.870730  1.0  -0.1535
  C  C403  1  0.361340  0.449290  0.887470  1.0  -0.0369
  C  C404  1  0.241700  0.414410  0.901800  1.0  -0.0459
  C  C405  1  0.221570  0.375630  0.867610  1.0  -0.1519
  C  C406  1  0.088960  0.810100  0.302310  1.0  0.6645
  C  C407  1  0.042470  0.795950  0.283950  1.0  -0.128
  C  C408  1  0.013790  0.795580  0.331840  1.0  -0.0599
  C  C409  1  0.970690  0.781720  0.314980  1.0  -0.1189
  C  C410  1  0.955480  0.767510  0.251890  1.0  0.0683
  C  C411  1  0.984940  0.768940  0.204070  1.0  -0.1535
  C  C412  1  0.028000  0.782630  0.220810  1.0  -0.0369
  C  C413  1  0.908360  0.747750  0.235140  1.0  -0.0459
  C  C414  1  0.888230  0.708970  0.200950  1.0  -0.1519
  C  C415  1  0.755630  0.612200  0.635640  1.0  0.6644
  C  C416  1  0.709140  0.579860  0.617280  1.0  -0.127
  C  C417  1  0.680460  0.551550  0.665170  1.0  -0.0602
  C  C418  1  0.637360  0.522310  0.648310  1.0  -0.1201
  C  C419  1  0.622150  0.521310  0.585220  1.0  0.0686
  C  C420  1  0.651610  0.549340  0.537400  1.0  -0.1557
  C  C421  1  0.694670  0.578710  0.554140  1.0  -0.0378
  C  C422  1  0.575030  0.493950  0.568470  1.0  -0.0478
  C  C423  1  0.554900  0.512600  0.534280  1.0  -0.1483
  C  C424  1  0.422300  0.945530  0.968970  1.0  0.6643
  C  C425  1  0.375810  0.913190  0.950610  1.0  -0.1261
  C  C426  1  0.347130  0.884880  0.998500  1.0  -0.0602
  C  C427  1  0.304030  0.855640  0.981640  1.0  -0.1201
  C  C428  1  0.288820  0.854640  0.918550  1.0  0.0686
  C  C429  1  0.318280  0.882670  0.870730  1.0  -0.1557
  C  C430  1  0.361340  0.912040  0.887470  1.0  -0.0378
  C  C431  1  0.241700  0.827280  0.901800  1.0  -0.0478
  C  C432  1  0.221570  0.845930  0.867610  1.0  -0.1483
  C  C433  1  0.088960  0.278870  0.302310  1.0  0.6644
  C  C434  1  0.042470  0.246530  0.283950  1.0  -0.127
  C  C435  1  0.013790  0.218220  0.331840  1.0  -0.0602
  C  C436  1  0.970690  0.188980  0.314980  1.0  -0.1201
  C  C437  1  0.955480  0.187980  0.251890  1.0  0.0686
  C  C438  1  0.984940  0.216010  0.204070  1.0  -0.1557
  C  C439  1  0.028000  0.245380  0.220810  1.0  -0.0378
  C  C440  1  0.908360  0.160620  0.235140  1.0  -0.0478
  C  C441  1  0.888230  0.179270  0.200950  1.0  -0.1483
  C  C442  1  0.387800  0.143430  0.635640  1.0  0.6647
  C  C443  1  0.420140  0.129280  0.617280  1.0  -0.1282
  C  C444  1  0.448450  0.128910  0.665170  1.0  -0.0606
  C  C445  1  0.477690  0.115050  0.648310  1.0  -0.1183
  C  C446  1  0.478690  0.100840  0.585220  1.0  0.0681
  C  C447  1  0.450660  0.102270  0.537400  1.0  -0.1534
  C  C448  1  0.421290  0.115960  0.554140  1.0  -0.0363
  C  C449  1  0.506050  0.081080  0.568470  1.0  -0.047
  C  C450  1  0.487400  0.042300  0.534280  1.0  -0.1516
  C  C451  1  0.054470  0.476760  0.968970  1.0  0.6648
  C  C452  1  0.086810  0.462610  0.950610  1.0  -0.1273
  C  C453  1  0.115120  0.462240  0.998500  1.0  -0.0606
  C  C454  1  0.144360  0.448380  0.981640  1.0  -0.1183
  C  C455  1  0.145360  0.434170  0.918550  1.0  0.0681
  C  C456  1  0.117330  0.435600  0.870730  1.0  -0.1534
  C  C457  1  0.087960  0.449290  0.887470  1.0  -0.0363
  C  C458  1  0.172720  0.414410  0.901800  1.0  -0.047
  C  C459  1  0.154070  0.375630  0.867610  1.0  -0.1516
  C  C460  1  0.721130  0.810100  0.302310  1.0  0.6647
  C  C461  1  0.753470  0.795950  0.283950  1.0  -0.1282
  C  C462  1  0.781780  0.795580  0.331840  1.0  -0.0606
  C  C463  1  0.811020  0.781720  0.314980  1.0  -0.1183
  C  C464  1  0.812020  0.767510  0.251890  1.0  0.0681
  C  C465  1  0.783990  0.768940  0.204070  1.0  -0.1534
  C  C466  1  0.754620  0.782630  0.220810  1.0  -0.0363
  C  C467  1  0.839380  0.747750  0.235140  1.0  -0.047
  C  C468  1  0.820730  0.708970  0.200950  1.0  -0.1516
  C  C469  1  0.856570  0.244370  0.635640  1.0  0.6643
  C  C470  1  0.870720  0.290860  0.617280  1.0  -0.1266
  C  C471  1  0.871090  0.319540  0.665170  1.0  -0.0603
  C  C472  1  0.884950  0.362640  0.648310  1.0  -0.1197
  C  C473  1  0.899160  0.377850  0.585220  1.0  0.0685
  C  C474  1  0.897730  0.348390  0.537400  1.0  -0.1554
  C  C475  1  0.884040  0.305330  0.554140  1.0  -0.0378
  C  C476  1  0.918920  0.424970  0.568470  1.0  -0.0464
  C  C477  1  0.957700  0.445100  0.534280  1.0  -0.1525
  C  C478  1  0.523240  0.577700  0.968970  1.0  0.6642
  C  C479  1  0.537390  0.624190  0.950610  1.0  -0.1264
  C  C480  1  0.537760  0.652870  0.998500  1.0  -0.0603
  C  C481  1  0.551620  0.695970  0.981640  1.0  -0.1197
  C  C482  1  0.565830  0.711180  0.918550  1.0  0.0685
  C  C483  1  0.564400  0.681720  0.870730  1.0  -0.1554
  C  C484  1  0.550710  0.638660  0.887470  1.0  -0.0378
  C  C485  1  0.585590  0.758300  0.901800  1.0  -0.0464
  C  C486  1  0.624370  0.778430  0.867610  1.0  -0.1525
  C  C487  1  0.189900  0.911040  0.302310  1.0  0.6643
  C  C488  1  0.204050  0.957530  0.283950  1.0  -0.1265
  C  C489  1  0.204420  0.986210  0.331840  1.0  -0.0603
  C  C490  1  0.218280  0.029310  0.314980  1.0  -0.1197
  C  C491  1  0.232490  0.044520  0.251890  1.0  0.0685
  C  C492  1  0.231060  0.015060  0.204070  1.0  -0.1554
  C  C493  1  0.217370  0.972000  0.220810  1.0  -0.0378
  C  C494  1  0.252250  0.091640  0.235140  1.0  -0.0464
  C  C495  1  0.291030  0.111770  0.200950  1.0  -0.1525
  C  C496  1  0.612200  0.755630  0.364360  1.0  0.6644
  C  C497  1  0.579860  0.709140  0.382720  1.0  -0.1255
  C  C498  1  0.551550  0.680460  0.334830  1.0  -0.0588
  C  C499  1  0.522310  0.637360  0.351690  1.0  -0.1182
  C  C500  1  0.521310  0.622150  0.414780  1.0  0.0687
  C  C501  1  0.549340  0.651610  0.462600  1.0  -0.1565
  C  C502  1  0.578710  0.694670  0.445860  1.0  -0.0365
  C  C503  1  0.493950  0.575030  0.431530  1.0  -0.046
  C  C504  1  0.512600  0.554900  0.465720  1.0  -0.1519
  C  C505  1  0.278870  0.088960  0.697690  1.0  0.6644
  C  C506  1  0.246530  0.042470  0.716050  1.0  -0.1255
  C  C507  1  0.218220  0.013790  0.668160  1.0  -0.0588
  C  C508  1  0.188980  0.970690  0.685020  1.0  -0.1182
  C  C509  1  0.187980  0.955480  0.748110  1.0  0.0687
  C  C510  1  0.216010  0.984940  0.795930  1.0  -0.1565
  C  C511  1  0.245380  0.028000  0.779190  1.0  -0.0365
  C  C512  1  0.160620  0.908360  0.764860  1.0  -0.046
  C  C513  1  0.179270  0.888230  0.799050  1.0  -0.1519
  C  C514  1  0.945530  0.422300  0.031030  1.0  0.6644
  C  C515  1  0.913190  0.375810  0.049390  1.0  -0.1246
  C  C516  1  0.884880  0.347130  0.001500  1.0  -0.0588
  C  C517  1  0.855640  0.304030  0.018360  1.0  -0.1182
  C  C518  1  0.854640  0.288820  0.081450  1.0  0.0687
  C  C519  1  0.882670  0.318280  0.129270  1.0  -0.1565
  C  C520  1  0.912040  0.361340  0.112530  1.0  -0.0365
  C  C521  1  0.827280  0.241700  0.098200  1.0  -0.046
  C  C522  1  0.845930  0.221570  0.132390  1.0  -0.1519
  C  C523  1  0.143430  0.387800  0.364360  1.0  0.664
  C  C524  1  0.129280  0.420140  0.382720  1.0  -0.127
  C  C525  1  0.128910  0.448450  0.334830  1.0  -0.0593
  C  C526  1  0.115050  0.477690  0.351690  1.0  -0.1192
  C  C527  1  0.100840  0.478690  0.414780  1.0  0.0689
  C  C528  1  0.102270  0.450660  0.462600  1.0  -0.1582
  C  C529  1  0.115960  0.421290  0.445860  1.0  -0.038
  C  C530  1  0.081080  0.506050  0.431530  1.0  -0.048
  C  C531  1  0.042300  0.487400  0.465720  1.0  -0.1492
  C  C532  1  0.810100  0.721130  0.697690  1.0  0.664
  C  C533  1  0.795950  0.753470  0.716050  1.0  -0.127
  C  C534  1  0.795580  0.781780  0.668160  1.0  -0.0593
  C  C535  1  0.781720  0.811020  0.685020  1.0  -0.1192
  C  C536  1  0.767510  0.812020  0.748110  1.0  0.0689
  C  C537  1  0.768940  0.783990  0.795930  1.0  -0.1582
  C  C538  1  0.782630  0.754620  0.779190  1.0  -0.038
  C  C539  1  0.747750  0.839380  0.764860  1.0  -0.048
  C  C540  1  0.708970  0.820730  0.799050  1.0  -0.1492
  C  C541  1  0.476760  0.054470  0.031030  1.0  0.664
  C  C542  1  0.462610  0.086810  0.049390  1.0  -0.126
  C  C543  1  0.462240  0.115120  0.001500  1.0  -0.0593
  C  C544  1  0.448380  0.144360  0.018360  1.0  -0.1192
  C  C545  1  0.434170  0.145360  0.081450  1.0  0.0689
  C  C546  1  0.435600  0.117330  0.129270  1.0  -0.1582
  C  C547  1  0.449290  0.087960  0.112530  1.0  -0.038
  C  C548  1  0.414410  0.172720  0.098200  1.0  -0.048
  C  C549  1  0.375630  0.154070  0.132390  1.0  -0.1492
  C  C550  1  0.244370  0.856570  0.364360  1.0  0.6646
  C  C551  1  0.290860  0.870720  0.382720  1.0  -0.1278
  C  C552  1  0.319540  0.871090  0.334830  1.0  -0.0584
  C  C553  1  0.362640  0.884950  0.351690  1.0  -0.1185
  C  C554  1  0.377850  0.899160  0.414780  1.0  0.0684
  C  C555  1  0.348390  0.897730  0.462600  1.0  -0.155
  C  C556  1  0.305330  0.884040  0.445860  1.0  -0.0365
  C  C557  1  0.424970  0.918920  0.431530  1.0  -0.0473
  C  C558  1  0.445100  0.957700  0.465720  1.0  -0.1517
  C  C559  1  0.911040  0.189900  0.697690  1.0  0.6646
  C  C560  1  0.957530  0.204050  0.716050  1.0  -0.1277
  C  C561  1  0.986210  0.204420  0.668160  1.0  -0.0584
  C  C562  1  0.029310  0.218280  0.685020  1.0  -0.1185
  C  C563  1  0.044520  0.232490  0.748110  1.0  0.0684
  C  C564  1  0.015060  0.231060  0.795930  1.0  -0.155
  C  C565  1  0.972000  0.217370  0.779190  1.0  -0.0365
  C  C566  1  0.091640  0.252250  0.764860  1.0  -0.0473
  C  C567  1  0.111770  0.291030  0.799050  1.0  -0.1517
  C  C568  1  0.577700  0.523240  0.031030  1.0  0.6645
  C  C569  1  0.624190  0.537390  0.049390  1.0  -0.1276
  C  C570  1  0.652870  0.537760  0.001500  1.0  -0.0584
  C  C571  1  0.695970  0.551620  0.018360  1.0  -0.1185
  C  C572  1  0.711180  0.565830  0.081450  1.0  0.0684
  C  C573  1  0.681720  0.564400  0.129270  1.0  -0.155
  C  C574  1  0.638660  0.550710  0.112530  1.0  -0.0365
  C  C575  1  0.758300  0.585590  0.098200  1.0  -0.0473
  C  C576  1  0.778430  0.624370  0.132390  1.0  -0.1517
  C  C577  1  0.489460  0.510540  0.483400  1.0  0.0261
  C  C578  1  0.449660  0.550340  0.413980  1.0  0.1813
  C  C579  1  0.410950  0.589050  0.423900  1.0  -0.0299
  C  C580  1  0.156130  0.843870  0.816730  1.0  0.0261
  C  C581  1  0.116330  0.883670  0.747310  1.0  0.1813
  C  C582  1  0.077620  0.922380  0.757230  1.0  -0.0299
  C  C583  1  0.822790  0.177210  0.150070  1.0  0.0261
  C  C584  1  0.782990  0.217010  0.080650  1.0  0.1813
  C  C585  1  0.744280  0.255720  0.090570  1.0  -0.0299
  C  C586  1  0.489460  0.978920  0.483400  1.0  0.0268
  C  C587  1  0.449660  0.899320  0.413980  1.0  0.1782
  C  C588  1  0.410950  0.821900  0.423900  1.0  -0.026
  C  C589  1  0.156130  0.312250  0.816730  1.0  0.0268
  C  C590  1  0.116330  0.232650  0.747310  1.0  0.1782
  C  C591  1  0.077620  0.155230  0.757230  1.0  -0.026
  C  C592  1  0.822790  0.645590  0.150070  1.0  0.0268
  C  C593  1  0.782990  0.565990  0.080650  1.0  0.1782
  C  C594  1  0.744280  0.488570  0.090570  1.0  -0.026
  C  C595  1  0.021080  0.510540  0.483400  1.0  0.0247
  C  C596  1  0.100680  0.550340  0.413980  1.0  0.1782
  C  C597  1  0.178100  0.589050  0.423900  1.0  -0.0297
  C  C598  1  0.687750  0.843870  0.816730  1.0  0.0247
  C  C599  1  0.767350  0.883670  0.747310  1.0  0.1782
  C  C600  1  0.844770  0.922380  0.757230  1.0  -0.0297
  C  C601  1  0.354410  0.177210  0.150070  1.0  0.0247
  C  C602  1  0.434010  0.217010  0.080650  1.0  0.1782
  C  C603  1  0.511430  0.255720  0.090570  1.0  -0.0297
  C  C604  1  0.510540  0.489460  0.516600  1.0  0.0269
  C  C605  1  0.550340  0.449660  0.586020  1.0  0.1804
  C  C606  1  0.589050  0.410950  0.576100  1.0  -0.0276
  C  C607  1  0.177210  0.822790  0.849930  1.0  0.0269
  C  C608  1  0.217010  0.782990  0.919350  1.0  0.1804
  C  C609  1  0.255720  0.744280  0.909430  1.0  -0.0276
  C  C610  1  0.843870  0.156130  0.183270  1.0  0.0269
  C  C611  1  0.883670  0.116330  0.252690  1.0  0.1804
  C  C612  1  0.922380  0.077620  0.242770  1.0  -0.0276
  C  C613  1  0.978920  0.489460  0.516600  1.0  0.0247
  C  C614  1  0.899320  0.449660  0.586020  1.0  0.1776
  C  C615  1  0.821900  0.410950  0.576100  1.0  -0.0294
  C  C616  1  0.645590  0.822790  0.849930  1.0  0.0247
  C  C617  1  0.565990  0.782990  0.919350  1.0  0.1776
  C  C618  1  0.488570  0.744280  0.909430  1.0  -0.0294
  C  C619  1  0.312250  0.156130  0.183270  1.0  0.0247
  C  C620  1  0.232650  0.116330  0.252690  1.0  0.1776
  C  C621  1  0.155230  0.077620  0.242770  1.0  -0.0294
  C  C622  1  0.510540  0.021080  0.516600  1.0  0.0267
  C  C623  1  0.550340  0.100680  0.586020  1.0  0.178
  C  C624  1  0.589050  0.178100  0.576100  1.0  -0.0262
  C  C625  1  0.177210  0.354410  0.849930  1.0  0.0267
  C  C626  1  0.217010  0.434010  0.919350  1.0  0.178
  C  C627  1  0.255720  0.511430  0.909430  1.0  -0.0262
  C  C628  1  0.843870  0.687750  0.183270  1.0  0.0267
  C  C629  1  0.883670  0.767350  0.252690  1.0  0.178
  C  C630  1  0.922380  0.844770  0.242770  1.0  -0.0262
  O  O631  1  0.220230  0.362560  0.409400  1.0  -0.5663
  O  O632  1  0.233240  0.388410  0.305300  1.0  -0.5668
  O  O633  1  0.886900  0.695890  0.742730  1.0  -0.5651
  O  O634  1  0.899910  0.721740  0.638630  1.0  -0.5648
  O  O635  1  0.553560  0.029230  0.076070  1.0  -0.5663
  O  O636  1  0.566570  0.055080  0.971970  1.0  -0.567
  O  O637  1  0.637440  0.857670  0.409400  1.0  -0.5638
  O  O638  1  0.611590  0.844830  0.305300  1.0  -0.565
  O  O639  1  0.304110  0.191000  0.742730  1.0  -0.5653
  O  O640  1  0.278260  0.178160  0.638630  1.0  -0.5672
  O  O641  1  0.970770  0.524340  0.076070  1.0  -0.5638
  O  O642  1  0.944920  0.511500  0.971970  1.0  -0.5651
  O  O643  1  0.142330  0.779770  0.409400  1.0  -0.5651
  O  O644  1  0.155170  0.766760  0.305300  1.0  -0.5644
  O  O645  1  0.809000  0.113100  0.742730  1.0  -0.5651
  O  O646  1  0.821840  0.100090  0.638630  1.0  -0.5644
  O  O647  1  0.475660  0.446440  0.076070  1.0  -0.5651
  O  O648  1  0.488500  0.433430  0.971970  1.0  -0.5645
  O  O649  1  0.362560  0.220230  0.590600  1.0  -0.5669
  O  O650  1  0.388410  0.233240  0.694700  1.0  -0.5652
  O  O651  1  0.029230  0.553560  0.923930  1.0  -0.5669
  O  O652  1  0.055080  0.566570  0.028030  1.0  -0.5653
  O  O653  1  0.695890  0.886900  0.257270  1.0  -0.5661
  O  O654  1  0.721740  0.899910  0.361370  1.0  -0.5635
  O  O655  1  0.857670  0.637440  0.590600  1.0  -0.5668
  O  O656  1  0.844830  0.611590  0.694700  1.0  -0.5643
  O  O657  1  0.524340  0.970770  0.923930  1.0  -0.5668
  O  O658  1  0.511500  0.944920  0.028030  1.0  -0.5644
  O  O659  1  0.191000  0.304110  0.257270  1.0  -0.568
  O  O660  1  0.178160  0.278260  0.361370  1.0  -0.5665
  O  O661  1  0.779770  0.142330  0.590600  1.0  -0.5659
  O  O662  1  0.766760  0.155170  0.694700  1.0  -0.5643
  O  O663  1  0.446440  0.475660  0.923930  1.0  -0.5659
  O  O664  1  0.433430  0.488500  0.028030  1.0  -0.5644
  O  O665  1  0.113100  0.809000  0.257270  1.0  -0.5659
  O  O666  1  0.100090  0.821840  0.361370  1.0  -0.5643
  O  O667  1  0.779770  0.637440  0.590600  1.0  -0.5668
  O  O668  1  0.766760  0.611590  0.694700  1.0  -0.566
  O  O669  1  0.446440  0.970770  0.923930  1.0  -0.5668
  O  O670  1  0.433430  0.944920  0.028030  1.0  -0.5661
  O  O671  1  0.113100  0.304110  0.257270  1.0  -0.566
  O  O672  1  0.100090  0.278260  0.361370  1.0  -0.5643
  O  O673  1  0.362560  0.142330  0.590600  1.0  -0.5652
  O  O674  1  0.388410  0.155170  0.694700  1.0  -0.5635
  O  O675  1  0.029230  0.475660  0.923930  1.0  -0.5652
  O  O676  1  0.055080  0.488500  0.028030  1.0  -0.5636
  O  O677  1  0.695890  0.809000  0.257270  1.0  -0.5665
  O  O678  1  0.721740  0.821840  0.361370  1.0  -0.5656
  O  O679  1  0.857670  0.220230  0.590600  1.0  -0.5658
  O  O680  1  0.844830  0.233240  0.694700  1.0  -0.5641
  O  O681  1  0.524340  0.553560  0.923930  1.0  -0.5658
  O  O682  1  0.511500  0.566570  0.028030  1.0  -0.5642
  O  O683  1  0.191000  0.886900  0.257270  1.0  -0.5658
  O  O684  1  0.178160  0.899910  0.361370  1.0  -0.5641
  O  O685  1  0.637440  0.779770  0.409400  1.0  -0.5647
  O  O686  1  0.611590  0.766760  0.305300  1.0  -0.5661
  O  O687  1  0.304110  0.113100  0.742730  1.0  -0.5636
  O  O688  1  0.278260  0.100090  0.638630  1.0  -0.5642
  O  O689  1  0.970770  0.446440  0.076070  1.0  -0.5648
  O  O690  1  0.944920  0.433430  0.971970  1.0  -0.5662
  O  O691  1  0.142330  0.362560  0.409400  1.0  -0.5644
  O  O692  1  0.155170  0.388410  0.305300  1.0  -0.5652
  O  O693  1  0.809000  0.695890  0.742730  1.0  -0.566
  O  O694  1  0.821840  0.721740  0.638630  1.0  -0.5674
  O  O695  1  0.475660  0.029230  0.076070  1.0  -0.5644
  O  O696  1  0.488500  0.055080  0.971970  1.0  -0.5653
  O  O697  1  0.220230  0.857670  0.409400  1.0  -0.5637
  O  O698  1  0.233240  0.844830  0.305300  1.0  -0.5654
  O  O699  1  0.886900  0.191000  0.742730  1.0  -0.5637
  O  O700  1  0.899910  0.178160  0.638630  1.0  -0.5654
  O  O701  1  0.553560  0.524340  0.076070  1.0  -0.5638
  O  O702  1  0.566570  0.511500  0.971970  1.0  -0.5655
  O  O703  1  0.429940  0.570060  0.379830  1.0  -0.3171
  O  O704  1  0.096610  0.903390  0.713160  1.0  -0.3171
  O  O705  1  0.763270  0.236730  0.046500  1.0  -0.3171
  O  O706  1  0.429940  0.859880  0.379830  1.0  -0.3209
  O  O707  1  0.096610  0.193210  0.713160  1.0  -0.3208
  O  O708  1  0.763270  0.526550  0.046500  1.0  -0.3209
  O  O709  1  0.140120  0.570060  0.379830  1.0  -0.3167
  O  O710  1  0.806790  0.903390  0.713160  1.0  -0.3167
  O  O711  1  0.473450  0.236730  0.046500  1.0  -0.3167
  O  O712  1  0.570060  0.429940  0.620170  1.0  -0.322
  O  O713  1  0.236730  0.763270  0.953500  1.0  -0.322
  O  O714  1  0.903390  0.096610  0.286840  1.0  -0.322
  O  O715  1  0.859880  0.429940  0.620170  1.0  -0.3218
  O  O716  1  0.526550  0.763270  0.953500  1.0  -0.3218
  O  O717  1  0.193210  0.096610  0.286840  1.0  -0.3218
  O  O718  1  0.570060  0.140120  0.620170  1.0  -0.3237
  O  O719  1  0.236730  0.473450  0.953500  1.0  -0.3237
  O  O720  1  0.903390  0.806790  0.286840  1.0  -0.3237
