# generated using pymatgen
data_CuH13C21O5
_symmetry_space_group_name_H-M   'P 1'
_cell_length_a   35.23880000
_cell_length_b   35.23880000
_cell_length_c   21.15030000
_cell_angle_alpha   90.00000000
_cell_angle_beta   90.00000000
_cell_angle_gamma   120.00000000
_symmetry_Int_Tables_number   1
_chemical_formula_structural   CuH13C21O5
_chemical_formula_sum   'Cu18 H234 C378 O90'
_cell_volume   22745.18037103
_cell_formula_units_Z   18
loop_
 _symmetry_equiv_pos_site_id
 _symmetry_equiv_pos_as_xyz
  1  'x, y, z'
loop_
 _atom_site_type_symbol
 _atom_site_label
 _atom_site_symmetry_multiplicity
 _atom_site_fract_x
 _atom_site_fract_y
 _atom_site_fract_z
 _atom_site_occupancy
 _atom_site_charge
  Cu  Cu1  1  0.318040  0.159020  0.108350  1.0  0.9006
  Cu  Cu2  1  0.984710  0.492350  0.441680  1.0  0.9009
  Cu  Cu3  1  0.651370  0.825690  0.775020  1.0  0.9006
  Cu  Cu4  1  0.840980  0.159020  0.108350  1.0  0.9
  Cu  Cu5  1  0.507650  0.492350  0.441680  1.0  0.9006
  Cu  Cu6  1  0.174310  0.825690  0.775020  1.0  0.9
  Cu  Cu7  1  0.840980  0.681960  0.108350  1.0  0.9016
  Cu  Cu8  1  0.507650  0.015290  0.441680  1.0  0.9019
  Cu  Cu9  1  0.174310  0.348630  0.775020  1.0  0.9016
  Cu  Cu10  1  0.159020  0.318040  0.891650  1.0  0.9016
  Cu  Cu11  1  0.825690  0.651370  0.224980  1.0  0.9016
  Cu  Cu12  1  0.492350  0.984710  0.558320  1.0  0.902
  Cu  Cu13  1  0.159020  0.840980  0.891650  1.0  0.8996
  Cu  Cu14  1  0.825690  0.174310  0.224980  1.0  0.8996
  Cu  Cu15  1  0.492350  0.507650  0.558320  1.0  0.9002
  Cu  Cu16  1  0.681960  0.840980  0.891650  1.0  0.9008
  Cu  Cu17  1  0.348630  0.174310  0.224980  1.0  0.9008
  Cu  Cu18  1  0.015290  0.507650  0.558320  1.0  0.9012
  H  H19  1  0.219600  0.197200  0.126000  1.0  0.112
  H  H20  1  0.170900  0.221600  0.153900  1.0  0.1042
  H  H21  1  0.215800  0.240100  0.334300  1.0  0.1192
  H  H22  1  0.264500  0.216300  0.305400  1.0  0.1063
  H  H23  1  0.209600  0.304900  0.308800  1.0  0.1121
  H  H24  1  0.055900  0.157200  0.276200  1.0  0.1023
  H  H25  1  0.886270  0.530530  0.459330  1.0  0.112
  H  H26  1  0.837570  0.554930  0.487230  1.0  0.1042
  H  H27  1  0.882470  0.573430  0.667630  1.0  0.1192
  H  H28  1  0.931170  0.549630  0.638730  1.0  0.1062
  H  H29  1  0.876270  0.638230  0.642130  1.0  0.1119
  H  H30  1  0.722570  0.490530  0.609530  1.0  0.1023
  H  H31  1  0.552930  0.863870  0.792670  1.0  0.112
  H  H32  1  0.504230  0.888270  0.820570  1.0  0.1047
  H  H33  1  0.549130  0.906770  0.000970  1.0  0.1192
  H  H34  1  0.597830  0.882970  0.972070  1.0  0.1063
  H  H35  1  0.542930  0.971570  0.975470  1.0  0.1121
  H  H36  1  0.389230  0.823870  0.942870  1.0  0.1023
  H  H37  1  0.802800  0.022400  0.126000  1.0  0.113
  H  H38  1  0.778400  0.949300  0.153900  1.0  0.1041
  H  H39  1  0.759900  0.975700  0.334300  1.0  0.1199
  H  H40  1  0.783700  0.048200  0.305400  1.0  0.106
  H  H41  1  0.695100  0.904700  0.308800  1.0  0.1119
  H  H42  1  0.842800  0.898700  0.276200  1.0  0.1037
  H  H43  1  0.469470  0.355730  0.459330  1.0  0.113
  H  H44  1  0.445070  0.282630  0.487230  1.0  0.1041
  H  H45  1  0.426570  0.309030  0.667630  1.0  0.1198
  H  H46  1  0.450370  0.381530  0.638730  1.0  0.106
  H  H47  1  0.361770  0.238030  0.642130  1.0  0.1119
  H  H48  1  0.509470  0.232030  0.609530  1.0  0.1037
  H  H49  1  0.136130  0.689070  0.792670  1.0  0.113
  H  H50  1  0.111730  0.615970  0.820570  1.0  0.1036
  H  H51  1  0.093230  0.642370  0.000970  1.0  0.1199
  H  H52  1  0.117030  0.714870  0.972070  1.0  0.106
  H  H53  1  0.028430  0.571370  0.975470  1.0  0.1119
  H  H54  1  0.176130  0.565370  0.942870  1.0  0.1037
  H  H55  1  0.977600  0.780400  0.126000  1.0  0.1125
  H  H56  1  0.050700  0.829100  0.153900  1.0  0.1038
  H  H57  1  0.024300  0.784200  0.334300  1.0  0.1198
  H  H58  1  0.951800  0.735500  0.305400  1.0  0.1062
  H  H59  1  0.095300  0.790400  0.308800  1.0  0.1132
  H  H60  1  0.101300  0.944100  0.276200  1.0  0.1027
  H  H61  1  0.644270  0.113730  0.459330  1.0  0.1125
  H  H62  1  0.717370  0.162430  0.487230  1.0  0.1038
  H  H63  1  0.690970  0.117530  0.667630  1.0  0.1198
  H  H64  1  0.618470  0.068830  0.638730  1.0  0.1063
  H  H65  1  0.761970  0.123730  0.642130  1.0  0.1132
  H  H66  1  0.767970  0.277430  0.609530  1.0  0.1027
  H  H67  1  0.310930  0.447070  0.792670  1.0  0.1125
  H  H68  1  0.384030  0.495770  0.820570  1.0  0.1038
  H  H69  1  0.357630  0.450870  0.000970  1.0  0.1198
  H  H70  1  0.285130  0.402170  0.972070  1.0  0.1062
  H  H71  1  0.428630  0.457070  0.975470  1.0  0.1131
  H  H72  1  0.434630  0.610770  0.942870  1.0  0.1027
  H  H73  1  0.197200  0.219600  0.874000  1.0  0.1125
  H  H74  1  0.221600  0.170900  0.846100  1.0  0.1029
  H  H75  1  0.240100  0.215800  0.665700  1.0  0.1194
  H  H76  1  0.216300  0.264500  0.694600  1.0  0.1064
  H  H77  1  0.304900  0.209600  0.691200  1.0  0.1136
  H  H78  1  0.157200  0.055900  0.723800  1.0  0.1025
  H  H79  1  0.863870  0.552930  0.207330  1.0  0.1125
  H  H80  1  0.888270  0.504230  0.179430  1.0  0.1041
  H  H81  1  0.906770  0.549130  0.999030  1.0  0.1194
  H  H82  1  0.882970  0.597830  0.027930  1.0  0.1064
  H  H83  1  0.971570  0.542930  0.024530  1.0  0.1136
  H  H84  1  0.823870  0.389230  0.057130  1.0  0.1025
  H  H85  1  0.530530  0.886270  0.540670  1.0  0.1125
  H  H86  1  0.554930  0.837570  0.512770  1.0  0.1029
  H  H87  1  0.573430  0.882470  0.332370  1.0  0.1194
  H  H88  1  0.549630  0.931170  0.361270  1.0  0.1055
  H  H89  1  0.638230  0.876270  0.357870  1.0  0.1135
  H  H90  1  0.490530  0.722570  0.390470  1.0  0.1025
  H  H91  1  0.022400  0.802800  0.874000  1.0  0.1121
  H  H92  1  0.949300  0.778400  0.846100  1.0  0.1045
  H  H93  1  0.975700  0.759900  0.665700  1.0  0.1201
  H  H94  1  0.048200  0.783700  0.694600  1.0  0.107
  H  H95  1  0.904700  0.695100  0.691200  1.0  0.113
  H  H96  1  0.898700  0.842800  0.723800  1.0  0.1012
  H  H97  1  0.689070  0.136130  0.207330  1.0  0.1121
  H  H98  1  0.615970  0.111730  0.179430  1.0  0.1032
  H  H99  1  0.642370  0.093230  0.999030  1.0  0.1201
  H  H100  1  0.714870  0.117030  0.027930  1.0  0.107
  H  H101  1  0.571370  0.028430  0.024530  1.0  0.113
  H  H102  1  0.565370  0.176130  0.057130  1.0  0.1012
  H  H103  1  0.355730  0.469470  0.540670  1.0  0.1121
  H  H104  1  0.282630  0.445070  0.512770  1.0  0.1045
  H  H105  1  0.309030  0.426570  0.332370  1.0  0.1201
  H  H106  1  0.381530  0.450370  0.361270  1.0  0.107
  H  H107  1  0.238030  0.361770  0.357870  1.0  0.113
  H  H108  1  0.232030  0.509470  0.390470  1.0  0.1012
  H  H109  1  0.780400  0.977600  0.874000  1.0  0.1126
  H  H110  1  0.829100  0.050700  0.846100  1.0  0.103
  H  H111  1  0.784200  0.024300  0.665700  1.0  0.1199
  H  H112  1  0.735500  0.951800  0.694600  1.0  0.1058
  H  H113  1  0.790400  0.095300  0.691200  1.0  0.1125
  H  H114  1  0.944100  0.101300  0.723800  1.0  0.1036
  H  H115  1  0.447070  0.310930  0.207330  1.0  0.1126
  H  H116  1  0.495770  0.384030  0.179430  1.0  0.103
  H  H117  1  0.450870  0.357630  0.999030  1.0  0.1199
  H  H118  1  0.402170  0.285130  0.027930  1.0  0.1058
  H  H119  1  0.457070  0.428630  0.024530  1.0  0.1125
  H  H120  1  0.610770  0.434630  0.057130  1.0  0.1036
  H  H121  1  0.113730  0.644270  0.540670  1.0  0.1126
  H  H122  1  0.162430  0.717370  0.512770  1.0  0.1031
  H  H123  1  0.117530  0.690970  0.332370  1.0  0.1199
  H  H124  1  0.068830  0.618470  0.361270  1.0  0.1064
  H  H125  1  0.123730  0.761970  0.357870  1.0  0.1125
  H  H126  1  0.277430  0.767970  0.390470  1.0  0.1036
  H  H127  1  0.780400  0.802800  0.874000  1.0  0.1124
  H  H128  1  0.829100  0.778400  0.846100  1.0  0.103
  H  H129  1  0.784200  0.759900  0.665700  1.0  0.1196
  H  H130  1  0.735500  0.783700  0.694600  1.0  0.1067
  H  H131  1  0.790400  0.695100  0.691200  1.0  0.1117
  H  H132  1  0.944100  0.842800  0.723800  1.0  0.1022
  H  H133  1  0.447070  0.136130  0.207330  1.0  0.1124
  H  H134  1  0.495770  0.111730  0.179430  1.0  0.1042
  H  H135  1  0.450870  0.093230  0.999030  1.0  0.1196
  H  H136  1  0.402170  0.117030  0.027930  1.0  0.1067
  H  H137  1  0.457070  0.028430  0.024530  1.0  0.1117
  H  H138  1  0.610770  0.176130  0.057130  1.0  0.1022
  H  H139  1  0.113730  0.469470  0.540670  1.0  0.1124
  H  H140  1  0.162430  0.445070  0.512770  1.0  0.103
  H  H141  1  0.117530  0.426570  0.332370  1.0  0.1196
  H  H142  1  0.068830  0.450370  0.361270  1.0  0.1059
  H  H143  1  0.123730  0.361770  0.357870  1.0  0.1115
  H  H144  1  0.277430  0.509470  0.390470  1.0  0.1022
  H  H145  1  0.197200  0.977600  0.874000  1.0  0.1125
  H  H146  1  0.221600  0.050700  0.846100  1.0  0.1038
  H  H147  1  0.240100  0.024300  0.665700  1.0  0.1193
  H  H148  1  0.216300  0.951800  0.694600  1.0  0.1066
  H  H149  1  0.304900  0.095300  0.691200  1.0  0.1117
  H  H150  1  0.157200  0.101300  0.723800  1.0  0.1032
  H  H151  1  0.863870  0.310930  0.207330  1.0  0.1125
  H  H152  1  0.888270  0.384030  0.179430  1.0  0.1029
  H  H153  1  0.906770  0.357630  0.999030  1.0  0.1193
  H  H154  1  0.882970  0.285130  0.027930  1.0  0.1066
  H  H155  1  0.971570  0.428630  0.024530  1.0  0.1117
  H  H156  1  0.823870  0.434630  0.057130  1.0  0.1032
  H  H157  1  0.530530  0.644270  0.540670  1.0  0.1125
  H  H158  1  0.554930  0.717370  0.512770  1.0  0.1038
  H  H159  1  0.573430  0.690970  0.332370  1.0  0.1193
  H  H160  1  0.549630  0.618470  0.361270  1.0  0.1066
  H  H161  1  0.638230  0.761970  0.357870  1.0  0.1117
  H  H162  1  0.490530  0.767970  0.390470  1.0  0.1032
  H  H163  1  0.022400  0.219600  0.874000  1.0  0.1125
  H  H164  1  0.949300  0.170900  0.846100  1.0  0.1029
  H  H165  1  0.975700  0.215800  0.665700  1.0  0.1195
  H  H166  1  0.048200  0.264500  0.694600  1.0  0.106
  H  H167  1  0.904700  0.209600  0.691200  1.0  0.1128
  H  H168  1  0.898700  0.055900  0.723800  1.0  0.1034
  H  H169  1  0.689070  0.552930  0.207330  1.0  0.1125
  H  H170  1  0.615970  0.504230  0.179430  1.0  0.1029
  H  H171  1  0.642370  0.549130  0.999030  1.0  0.1195
  H  H172  1  0.714870  0.597830  0.027930  1.0  0.106
  H  H173  1  0.571370  0.542930  0.024530  1.0  0.1128
  H  H174  1  0.565370  0.389230  0.057130  1.0  0.1034
  H  H175  1  0.355730  0.886270  0.540670  1.0  0.1125
  H  H176  1  0.282630  0.837570  0.512770  1.0  0.103
  H  H177  1  0.309030  0.882470  0.332370  1.0  0.1195
  H  H178  1  0.381530  0.931170  0.361270  1.0  0.1066
  H  H179  1  0.238030  0.876270  0.357870  1.0  0.1128
  H  H180  1  0.232030  0.722570  0.390470  1.0  0.1034
  H  H181  1  0.802800  0.780400  0.126000  1.0  0.1126
  H  H182  1  0.778400  0.829100  0.153900  1.0  0.1039
  H  H183  1  0.759900  0.784200  0.334300  1.0  0.1195
  H  H184  1  0.783700  0.735500  0.305400  1.0  0.1064
  H  H185  1  0.695100  0.790400  0.308800  1.0  0.1134
  H  H186  1  0.842800  0.944100  0.276200  1.0  0.1031
  H  H187  1  0.469470  0.113730  0.459330  1.0  0.1126
  H  H188  1  0.445070  0.162430  0.487230  1.0  0.1039
  H  H189  1  0.426570  0.117530  0.667630  1.0  0.1195
  H  H190  1  0.450370  0.068830  0.638730  1.0  0.106
  H  H191  1  0.361770  0.123730  0.642130  1.0  0.1133
  H  H192  1  0.509470  0.277430  0.609530  1.0  0.1031
  H  H193  1  0.136130  0.447070  0.792670  1.0  0.1126
  H  H194  1  0.111730  0.495770  0.820570  1.0  0.1043
  H  H195  1  0.093230  0.450870  0.000970  1.0  0.1195
  H  H196  1  0.117030  0.402170  0.972070  1.0  0.1064
  H  H197  1  0.028430  0.457070  0.975470  1.0  0.1134
  H  H198  1  0.176130  0.610770  0.942870  1.0  0.1031
  H  H199  1  0.977600  0.197200  0.126000  1.0  0.1123
  H  H200  1  0.050700  0.221600  0.153900  1.0  0.1045
  H  H201  1  0.024300  0.240100  0.334300  1.0  0.1195
  H  H202  1  0.951800  0.216300  0.305400  1.0  0.1065
  H  H203  1  0.095300  0.304900  0.308800  1.0  0.1118
  H  H204  1  0.101300  0.157200  0.276200  1.0  0.1026
  H  H205  1  0.644270  0.530530  0.459330  1.0  0.1123
  H  H206  1  0.717370  0.554930  0.487230  1.0  0.1045
  H  H207  1  0.690970  0.573430  0.667630  1.0  0.1195
  H  H208  1  0.618470  0.549630  0.638730  1.0  0.1065
  H  H209  1  0.761970  0.638230  0.642130  1.0  0.1118
  H  H210  1  0.767970  0.490530  0.609530  1.0  0.1026
  H  H211  1  0.310930  0.863870  0.792670  1.0  0.1123
  H  H212  1  0.384030  0.888270  0.820570  1.0  0.1038
  H  H213  1  0.357630  0.906770  0.000970  1.0  0.1195
  H  H214  1  0.285130  0.882970  0.972070  1.0  0.1065
  H  H215  1  0.428630  0.971570  0.975470  1.0  0.1118
  H  H216  1  0.434630  0.823870  0.942870  1.0  0.1026
  H  H217  1  0.219600  0.022400  0.126000  1.0  0.1128
  H  H218  1  0.170900  0.949300  0.153900  1.0  0.1036
  H  H219  1  0.215800  0.975700  0.334300  1.0  0.1196
  H  H220  1  0.264500  0.048200  0.305400  1.0  0.1059
  H  H221  1  0.209600  0.904700  0.308800  1.0  0.112
  H  H222  1  0.055900  0.898700  0.276200  1.0  0.1029
  H  H223  1  0.886270  0.355730  0.459330  1.0  0.1128
  H  H224  1  0.837570  0.282630  0.487230  1.0  0.1036
  H  H225  1  0.882470  0.309030  0.667630  1.0  0.1195
  H  H226  1  0.931170  0.381530  0.638730  1.0  0.106
  H  H227  1  0.876270  0.238030  0.642130  1.0  0.112
  H  H228  1  0.722570  0.232030  0.609530  1.0  0.1029
  H  H229  1  0.552930  0.689070  0.792670  1.0  0.1128
  H  H230  1  0.504230  0.615970  0.820570  1.0  0.1036
  H  H231  1  0.549130  0.642370  0.000970  1.0  0.1195
  H  H232  1  0.597830  0.714870  0.972070  1.0  0.1059
  H  H233  1  0.542930  0.571370  0.975470  1.0  0.112
  H  H234  1  0.389230  0.565370  0.942870  1.0  0.1029
  H  H235  1  0.065550  0.131100  0.222500  1.0  0.1244
  H  H236  1  0.732220  0.464430  0.555830  1.0  0.1244
  H  H237  1  0.398880  0.797770  0.889170  1.0  0.1244
  H  H238  1  0.868900  0.934450  0.222500  1.0  0.1245
  H  H239  1  0.535570  0.267780  0.555830  1.0  0.1245
  H  H240  1  0.202230  0.601120  0.889170  1.0  0.1245
  H  H241  1  0.065550  0.934450  0.222500  1.0  0.1234
  H  H242  1  0.732220  0.267780  0.555830  1.0  0.1234
  H  H243  1  0.398880  0.601120  0.889170  1.0  0.1234
  H  H244  1  0.131100  0.065550  0.777500  1.0  0.1239
  H  H245  1  0.797770  0.398880  0.110830  1.0  0.1239
  H  H246  1  0.464430  0.732220  0.444170  1.0  0.1239
  H  H247  1  0.934450  0.868900  0.777500  1.0  0.1229
  H  H248  1  0.601120  0.202230  0.110830  1.0  0.1229
  H  H249  1  0.267780  0.535570  0.444170  1.0  0.1229
  H  H250  1  0.934450  0.065550  0.777500  1.0  0.1244
  H  H251  1  0.601120  0.398880  0.110830  1.0  0.1244
  H  H252  1  0.267780  0.732220  0.444170  1.0  0.1244
  C  C253  1  0.278910  0.189840  0.195590  1.0  0.6718
  C  C254  1  0.247120  0.205100  0.214480  1.0  -0.1507
  C  C255  1  0.218930  0.206210  0.168100  1.0  -0.0621
  C  C256  1  0.189980  0.220830  0.185000  1.0  -0.0974
  C  C257  1  0.188710  0.234070  0.245500  1.0  0.0456
  C  C258  1  0.216690  0.231870  0.291800  1.0  -0.1772
  C  C259  1  0.245570  0.217480  0.274480  1.0  -0.0301
  C  C260  1  0.161080  0.253650  0.263000  1.0  -0.0467
  C  C261  1  0.179620  0.291930  0.297300  1.0  -0.1528
  C  C262  1  0.945580  0.523170  0.528920  1.0  0.6719
  C  C263  1  0.913790  0.538430  0.547810  1.0  -0.1506
  C  C264  1  0.885600  0.539540  0.501430  1.0  -0.0621
  C  C265  1  0.856650  0.554160  0.518330  1.0  -0.0974
  C  C266  1  0.855380  0.567400  0.578830  1.0  0.0456
  C  C267  1  0.883360  0.565200  0.625130  1.0  -0.1772
  C  C268  1  0.912240  0.550810  0.607810  1.0  -0.0301
  C  C269  1  0.827750  0.586980  0.596330  1.0  -0.0468
  C  C270  1  0.846290  0.625260  0.630630  1.0  -0.1529
  C  C271  1  0.612240  0.856510  0.862260  1.0  0.6718
  C  C272  1  0.580450  0.871770  0.881150  1.0  -0.1507
  C  C273  1  0.552260  0.872880  0.834770  1.0  -0.062
  C  C274  1  0.523310  0.887500  0.851670  1.0  -0.0974
  C  C275  1  0.522040  0.900740  0.912170  1.0  0.0456
  C  C276  1  0.550020  0.898540  0.958470  1.0  -0.1772
  C  C277  1  0.578900  0.884150  0.941150  1.0  -0.0301
  C  C278  1  0.494410  0.920320  0.929670  1.0  -0.0467
  C  C279  1  0.512950  0.958600  0.963970  1.0  -0.1462
  C  C280  1  0.810160  0.089070  0.195590  1.0  0.673
  C  C281  1  0.794900  0.042020  0.214480  1.0  -0.1497
  C  C282  1  0.793790  0.012720  0.168100  1.0  -0.0631
  C  C283  1  0.779170  0.969150  0.185000  1.0  -0.098
  C  C284  1  0.765930  0.954640  0.245500  1.0  0.0454
  C  C285  1  0.768130  0.984820  0.291800  1.0  -0.1792
  C  C286  1  0.782520  0.028090  0.274480  1.0  -0.0323
  C  C287  1  0.746350  0.907430  0.263000  1.0  -0.0476
  C  C288  1  0.708070  0.887690  0.297300  1.0  -0.1453
  C  C289  1  0.476830  0.422400  0.528920  1.0  0.6728
  C  C290  1  0.461570  0.375350  0.547810  1.0  -0.1497
  C  C291  1  0.460460  0.346050  0.501430  1.0  -0.0631
  C  C292  1  0.445840  0.302480  0.518330  1.0  -0.098
  C  C293  1  0.432600  0.287970  0.578830  1.0  0.0454
  C  C294  1  0.434800  0.318150  0.625130  1.0  -0.1792
  C  C295  1  0.449190  0.361420  0.607810  1.0  -0.0323
  C  C296  1  0.413020  0.240760  0.596330  1.0  -0.0475
  C  C297  1  0.374740  0.221020  0.630630  1.0  -0.1453
  C  C298  1  0.143490  0.755740  0.862260  1.0  0.673
  C  C299  1  0.128230  0.708690  0.881150  1.0  -0.1497
  C  C300  1  0.127120  0.679390  0.834770  1.0  -0.0631
  C  C301  1  0.112500  0.635820  0.851670  1.0  -0.098
  C  C302  1  0.099260  0.621310  0.912170  1.0  0.0454
  C  C303  1  0.101460  0.651490  0.958470  1.0  -0.1792
  C  C304  1  0.115850  0.694760  0.941150  1.0  -0.0323
  C  C305  1  0.079680  0.574100  0.929670  1.0  -0.0476
  C  C306  1  0.041400  0.554360  0.963970  1.0  -0.1524
  C  C307  1  0.910930  0.721090  0.195590  1.0  0.6722
  C  C308  1  0.957980  0.752880  0.214480  1.0  -0.1498
  C  C309  1  0.987280  0.781070  0.168100  1.0  -0.062
  C  C310  1  0.030850  0.810020  0.185000  1.0  -0.0979
  C  C311  1  0.045360  0.811290  0.245500  1.0  0.0467
  C  C312  1  0.015180  0.783310  0.291800  1.0  -0.1789
  C  C313  1  0.971910  0.754430  0.274480  1.0  -0.0331
  C  C314  1  0.092570  0.838920  0.263000  1.0  -0.0504
  C  C315  1  0.112310  0.820380  0.297300  1.0  -0.1501
  C  C316  1  0.577600  0.054420  0.528920  1.0  0.6723
  C  C317  1  0.624650  0.086210  0.547810  1.0  -0.15
  C  C318  1  0.653950  0.114400  0.501430  1.0  -0.062
  C  C319  1  0.697520  0.143350  0.518330  1.0  -0.0978
  C  C320  1  0.712030  0.144620  0.578830  1.0  0.0467
  C  C321  1  0.681850  0.116640  0.625130  1.0  -0.1789
  C  C322  1  0.638580  0.087760  0.607810  1.0  -0.0331
  C  C323  1  0.759240  0.172250  0.596330  1.0  -0.0504
  C  C324  1  0.778980  0.153710  0.630630  1.0  -0.15
  C  C325  1  0.244260  0.387760  0.862260  1.0  0.6722
  C  C326  1  0.291310  0.419550  0.881150  1.0  -0.1498
  C  C327  1  0.320610  0.447740  0.834770  1.0  -0.062
  C  C328  1  0.364180  0.476690  0.851670  1.0  -0.0979
  C  C329  1  0.378690  0.477960  0.912170  1.0  0.0467
  C  C330  1  0.348510  0.449980  0.958470  1.0  -0.1788
  C  C331  1  0.305240  0.421100  0.941150  1.0  -0.0331
  C  C332  1  0.425900  0.505590  0.929670  1.0  -0.0504
  C  C333  1  0.445640  0.487050  0.963970  1.0  -0.1501
  C  C334  1  0.189840  0.278910  0.804410  1.0  0.6727
  C  C335  1  0.205100  0.247120  0.785520  1.0  -0.1501
  C  C336  1  0.206210  0.218930  0.831900  1.0  -0.0633
  C  C337  1  0.220830  0.189980  0.815000  1.0  -0.0963
  C  C338  1  0.234070  0.188710  0.754500  1.0  0.0467
  C  C339  1  0.231870  0.216690  0.708200  1.0  -0.1764
  C  C340  1  0.217480  0.245570  0.725520  1.0  -0.0317
  C  C341  1  0.253650  0.161080  0.737000  1.0  -0.0501
  C  C342  1  0.291930  0.179620  0.702700  1.0  -0.1506
  C  C343  1  0.856510  0.612240  0.137740  1.0  0.6727
  C  C344  1  0.871770  0.580450  0.118850  1.0  -0.1501
  C  C345  1  0.872880  0.552260  0.165230  1.0  -0.0633
  C  C346  1  0.887500  0.523310  0.148330  1.0  -0.0963
  C  C347  1  0.900740  0.522040  0.087830  1.0  0.0467
  C  C348  1  0.898540  0.550020  0.041530  1.0  -0.1764
  C  C349  1  0.884150  0.578900  0.058850  1.0  -0.0317
  C  C350  1  0.920320  0.494410  0.070330  1.0  -0.0501
  C  C351  1  0.958600  0.512950  0.036030  1.0  -0.1424
  C  C352  1  0.523170  0.945580  0.471080  1.0  0.6728
  C  C353  1  0.538430  0.913790  0.452190  1.0  -0.15
  C  C354  1  0.539540  0.885600  0.498570  1.0  -0.0633
  C  C355  1  0.554160  0.856650  0.481670  1.0  -0.0963
  C  C356  1  0.567400  0.855380  0.421170  1.0  0.0467
  C  C357  1  0.565200  0.883360  0.374870  1.0  -0.1764
  C  C358  1  0.550810  0.912240  0.392190  1.0  -0.0317
  C  C359  1  0.586980  0.827750  0.403670  1.0  -0.0502
  C  C360  1  0.625260  0.846290  0.369370  1.0  -0.1506
  C  C361  1  0.089070  0.810160  0.804410  1.0  0.6724
  C  C362  1  0.042020  0.794900  0.785520  1.0  -0.1512
  C  C363  1  0.012720  0.793790  0.831900  1.0  -0.0629
  C  C364  1  0.969150  0.779170  0.815000  1.0  -0.0974
  C  C365  1  0.954640  0.765930  0.754500  1.0  0.0451
  C  C366  1  0.984820  0.768130  0.708200  1.0  -0.1735
  C  C367  1  0.028090  0.782520  0.725520  1.0  -0.0298
  C  C368  1  0.907430  0.746350  0.737000  1.0  -0.047
  C  C369  1  0.887690  0.708070  0.702700  1.0  -0.1472
  C  C370  1  0.755740  0.143490  0.137740  1.0  0.6724
  C  C371  1  0.708690  0.128230  0.118850  1.0  -0.1512
  C  C372  1  0.679390  0.127120  0.165230  1.0  -0.0629
  C  C373  1  0.635820  0.112500  0.148330  1.0  -0.0974
  C  C374  1  0.621310  0.099260  0.087830  1.0  0.0451
  C  C375  1  0.651490  0.101460  0.041530  1.0  -0.1735
  C  C376  1  0.694760  0.115850  0.058850  1.0  -0.0298
  C  C377  1  0.574100  0.079680  0.070330  1.0  -0.047
  C  C378  1  0.554360  0.041400  0.036030  1.0  -0.1539
  C  C379  1  0.422400  0.476830  0.471080  1.0  0.6722
  C  C380  1  0.375350  0.461570  0.452190  1.0  -0.1512
  C  C381  1  0.346050  0.460460  0.498570  1.0  -0.0629
  C  C382  1  0.302480  0.445840  0.481670  1.0  -0.0974
  C  C383  1  0.287970  0.432600  0.421170  1.0  0.0451
  C  C384  1  0.318150  0.434800  0.374870  1.0  -0.1735
  C  C385  1  0.361420  0.449190  0.392190  1.0  -0.0298
  C  C386  1  0.240760  0.413020  0.403670  1.0  -0.0469
  C  C387  1  0.221020  0.374740  0.369370  1.0  -0.1471
  C  C388  1  0.721090  0.910930  0.804410  1.0  0.6725
  C  C389  1  0.752880  0.957980  0.785520  1.0  -0.1502
  C  C390  1  0.781070  0.987280  0.831900  1.0  -0.0631
  C  C391  1  0.810020  0.030850  0.815000  1.0  -0.0979
  C  C392  1  0.811290  0.045360  0.754500  1.0  0.0449
  C  C393  1  0.783310  0.015180  0.708200  1.0  -0.1757
  C  C394  1  0.754430  0.971910  0.725520  1.0  -0.0316
  C  C395  1  0.838920  0.092570  0.737000  1.0  -0.0489
  C  C396  1  0.820380  0.112310  0.702700  1.0  -0.1539
  C  C397  1  0.387760  0.244260  0.137740  1.0  0.6725
  C  C398  1  0.419550  0.291310  0.118850  1.0  -0.1502
  C  C399  1  0.447740  0.320610  0.165230  1.0  -0.0631
  C  C400  1  0.476690  0.364180  0.148330  1.0  -0.0979
  C  C401  1  0.477960  0.378690  0.087830  1.0  0.0449
  C  C402  1  0.449980  0.348510  0.041530  1.0  -0.1757
  C  C403  1  0.421100  0.305240  0.058850  1.0  -0.0316
  C  C404  1  0.505590  0.425900  0.070330  1.0  -0.0489
  C  C405  1  0.487050  0.445640  0.036030  1.0  -0.1539
  C  C406  1  0.054420  0.577600  0.471080  1.0  0.6725
  C  C407  1  0.086210  0.624650  0.452190  1.0  -0.1504
  C  C408  1  0.114400  0.653950  0.498570  1.0  -0.0631
  C  C409  1  0.143350  0.697520  0.481670  1.0  -0.0978
  C  C410  1  0.144620  0.712030  0.421170  1.0  0.0449
  C  C411  1  0.116640  0.681850  0.374870  1.0  -0.1757
  C  C412  1  0.087760  0.638580  0.392190  1.0  -0.0316
  C  C413  1  0.172250  0.759240  0.403670  1.0  -0.0489
  C  C414  1  0.153710  0.778980  0.369370  1.0  -0.1537
  C  C415  1  0.721090  0.810160  0.804410  1.0  0.6723
  C  C416  1  0.752880  0.794900  0.785520  1.0  -0.1504
  C  C417  1  0.781070  0.793790  0.831900  1.0  -0.0635
  C  C418  1  0.810020  0.779170  0.815000  1.0  -0.0963
  C  C419  1  0.811290  0.765930  0.754500  1.0  0.0438
  C  C420  1  0.783310  0.768130  0.708200  1.0  -0.1747
  C  C421  1  0.754430  0.782520  0.725520  1.0  -0.0299
  C  C422  1  0.838920  0.746350  0.737000  1.0  -0.0479
  C  C423  1  0.820380  0.708070  0.702700  1.0  -0.1539
  C  C424  1  0.387760  0.143490  0.137740  1.0  0.6723
  C  C425  1  0.419550  0.128230  0.118850  1.0  -0.1504
  C  C426  1  0.447740  0.127120  0.165230  1.0  -0.0635
  C  C427  1  0.476690  0.112500  0.148330  1.0  -0.0963
  C  C428  1  0.477960  0.099260  0.087830  1.0  0.0438
  C  C429  1  0.449980  0.101460  0.041530  1.0  -0.1747
  C  C430  1  0.421100  0.115850  0.058850  1.0  -0.0299
  C  C431  1  0.505590  0.079680  0.070330  1.0  -0.0479
  C  C432  1  0.487050  0.041400  0.036030  1.0  -0.146
  C  C433  1  0.054420  0.476830  0.471080  1.0  0.6725
  C  C434  1  0.086210  0.461570  0.452190  1.0  -0.1503
  C  C435  1  0.114400  0.460460  0.498570  1.0  -0.0635
  C  C436  1  0.143350  0.445840  0.481670  1.0  -0.0963
  C  C437  1  0.144620  0.432600  0.421170  1.0  0.0438
  C  C438  1  0.116640  0.434800  0.374870  1.0  -0.1747
  C  C439  1  0.087760  0.449190  0.392190  1.0  -0.0299
  C  C440  1  0.172250  0.413020  0.403670  1.0  -0.048
  C  C441  1  0.153710  0.374740  0.369370  1.0  -0.154
  C  C442  1  0.189840  0.910930  0.804410  1.0  0.6726
  C  C443  1  0.205100  0.957980  0.785520  1.0  -0.1501
  C  C444  1  0.206210  0.987280  0.831900  1.0  -0.0631
  C  C445  1  0.220830  0.030850  0.815000  1.0  -0.0988
  C  C446  1  0.234070  0.045360  0.754500  1.0  0.045
  C  C447  1  0.231870  0.015180  0.708200  1.0  -0.1759
  C  C448  1  0.217480  0.971910  0.725520  1.0  -0.0318
  C  C449  1  0.253650  0.092570  0.737000  1.0  -0.0482
  C  C450  1  0.291930  0.112310  0.702700  1.0  -0.1468
  C  C451  1  0.856510  0.244260  0.137740  1.0  0.6726
  C  C452  1  0.871770  0.291310  0.118850  1.0  -0.1501
  C  C453  1  0.872880  0.320610  0.165230  1.0  -0.0631
  C  C454  1  0.887500  0.364180  0.148330  1.0  -0.0988
  C  C455  1  0.900740  0.378690  0.087830  1.0  0.045
  C  C456  1  0.898540  0.348510  0.041530  1.0  -0.1759
  C  C457  1  0.884150  0.305240  0.058850  1.0  -0.0318
  C  C458  1  0.920320  0.425900  0.070330  1.0  -0.0482
  C  C459  1  0.958600  0.445640  0.036030  1.0  -0.1542
  C  C460  1  0.523170  0.577600  0.471080  1.0  0.6724
  C  C461  1  0.538430  0.624650  0.452190  1.0  -0.1501
  C  C462  1  0.539540  0.653950  0.498570  1.0  -0.0631
  C  C463  1  0.554160  0.697520  0.481670  1.0  -0.0988
  C  C464  1  0.567400  0.712030  0.421170  1.0  0.045
  C  C465  1  0.565200  0.681850  0.374870  1.0  -0.1759
  C  C466  1  0.550810  0.638580  0.392190  1.0  -0.0318
  C  C467  1  0.586980  0.759240  0.403670  1.0  -0.0481
  C  C468  1  0.625260  0.778980  0.369370  1.0  -0.1468
  C  C469  1  0.089070  0.278910  0.804410  1.0  0.6723
  C  C470  1  0.042020  0.247120  0.785520  1.0  -0.1511
  C  C471  1  0.012720  0.218930  0.831900  1.0  -0.0636
  C  C472  1  0.969150  0.189980  0.815000  1.0  -0.0975
  C  C473  1  0.954640  0.188710  0.754500  1.0  0.0472
  C  C474  1  0.984820  0.216690  0.708200  1.0  -0.1765
  C  C475  1  0.028090  0.245570  0.725520  1.0  -0.0319
  C  C476  1  0.907430  0.161080  0.737000  1.0  -0.0502
  C  C477  1  0.887690  0.179620  0.702700  1.0  -0.1508
  C  C478  1  0.755740  0.612240  0.137740  1.0  0.6723
  C  C479  1  0.708690  0.580450  0.118850  1.0  -0.1511
  C  C480  1  0.679390  0.552260  0.165230  1.0  -0.0636
  C  C481  1  0.635820  0.523310  0.148330  1.0  -0.0975
  C  C482  1  0.621310  0.522040  0.087830  1.0  0.0472
  C  C483  1  0.651490  0.550020  0.041530  1.0  -0.1765
  C  C484  1  0.694760  0.578900  0.058850  1.0  -0.0319
  C  C485  1  0.574100  0.494410  0.070330  1.0  -0.0502
  C  C486  1  0.554360  0.512950  0.036030  1.0  -0.1509
  C  C487  1  0.422400  0.945580  0.471080  1.0  0.6724
  C  C488  1  0.375350  0.913790  0.452190  1.0  -0.1511
  C  C489  1  0.346050  0.885600  0.498570  1.0  -0.0636
  C  C490  1  0.302480  0.856650  0.481670  1.0  -0.0973
  C  C491  1  0.287970  0.855380  0.421170  1.0  0.0472
  C  C492  1  0.318150  0.883360  0.374870  1.0  -0.1765
  C  C493  1  0.361420  0.912240  0.392190  1.0  -0.0319
  C  C494  1  0.240760  0.827750  0.403670  1.0  -0.0502
  C  C495  1  0.221020  0.846290  0.369370  1.0  -0.1507
  C  C496  1  0.810160  0.721090  0.195590  1.0  0.6717
  C  C497  1  0.794900  0.752880  0.214480  1.0  -0.1502
  C  C498  1  0.793790  0.781070  0.168100  1.0  -0.0631
  C  C499  1  0.779170  0.810020  0.185000  1.0  -0.0975
  C  C500  1  0.765930  0.811290  0.245500  1.0  0.0472
  C  C501  1  0.768130  0.783310  0.291800  1.0  -0.1798
  C  C502  1  0.782520  0.754430  0.274480  1.0  -0.0327
  C  C503  1  0.746350  0.838920  0.263000  1.0  -0.05
  C  C504  1  0.708070  0.820380  0.297300  1.0  -0.1521
  C  C505  1  0.476830  0.054420  0.528920  1.0  0.6719
  C  C506  1  0.461570  0.086210  0.547810  1.0  -0.15
  C  C507  1  0.460460  0.114400  0.501430  1.0  -0.0631
  C  C508  1  0.445840  0.143350  0.518330  1.0  -0.0975
  C  C509  1  0.432600  0.144620  0.578830  1.0  0.0472
  C  C510  1  0.434800  0.116640  0.625130  1.0  -0.1798
  C  C511  1  0.449190  0.087760  0.607810  1.0  -0.0327
  C  C512  1  0.413020  0.172250  0.596330  1.0  -0.0501
  C  C513  1  0.374740  0.153710  0.630630  1.0  -0.1521
  C  C514  1  0.143490  0.387760  0.862260  1.0  0.6717
  C  C515  1  0.128230  0.419550  0.881150  1.0  -0.1502
  C  C516  1  0.127120  0.447740  0.834770  1.0  -0.0631
  C  C517  1  0.112500  0.476690  0.851670  1.0  -0.0975
  C  C518  1  0.099260  0.477960  0.912170  1.0  0.0472
  C  C519  1  0.101460  0.449980  0.958470  1.0  -0.1798
  C  C520  1  0.115850  0.421100  0.941150  1.0  -0.0327
  C  C521  1  0.079680  0.505590  0.929670  1.0  -0.05
  C  C522  1  0.041400  0.487050  0.963970  1.0  -0.1441
  C  C523  1  0.910930  0.189840  0.195590  1.0  0.6721
  C  C524  1  0.957980  0.205100  0.214480  1.0  -0.1501
  C  C525  1  0.987280  0.206210  0.168100  1.0  -0.0621
  C  C526  1  0.030850  0.220830  0.185000  1.0  -0.0972
  C  C527  1  0.045360  0.234070  0.245500  1.0  0.0446
  C  C528  1  0.015180  0.231870  0.291800  1.0  -0.1774
  C  C529  1  0.971910  0.217480  0.274480  1.0  -0.0309
  C  C530  1  0.092570  0.253650  0.263000  1.0  -0.0477
  C  C531  1  0.112310  0.291930  0.297300  1.0  -0.1466
  C  C532  1  0.577600  0.523170  0.528920  1.0  0.672
  C  C533  1  0.624650  0.538430  0.547810  1.0  -0.1501
  C  C534  1  0.653950  0.539540  0.501430  1.0  -0.0621
  C  C535  1  0.697520  0.554160  0.518330  1.0  -0.0972
  C  C536  1  0.712030  0.567400  0.578830  1.0  0.0446
  C  C537  1  0.681850  0.565200  0.625130  1.0  -0.1774
  C  C538  1  0.638580  0.550810  0.607810  1.0  -0.0309
  C  C539  1  0.759240  0.586980  0.596330  1.0  -0.0476
  C  C540  1  0.778980  0.625260  0.630630  1.0  -0.1466
  C  C541  1  0.244260  0.856510  0.862260  1.0  0.6721
  C  C542  1  0.291310  0.871770  0.881150  1.0  -0.1501
  C  C543  1  0.320610  0.872880  0.834770  1.0  -0.0621
  C  C544  1  0.364180  0.887500  0.851670  1.0  -0.0972
  C  C545  1  0.378690  0.900740  0.912170  1.0  0.0446
  C  C546  1  0.348510  0.898540  0.958470  1.0  -0.1774
  C  C547  1  0.305240  0.884150  0.941150  1.0  -0.0309
  C  C548  1  0.425900  0.920320  0.929670  1.0  -0.0477
  C  C549  1  0.445640  0.958600  0.963970  1.0  -0.1541
  C  C550  1  0.278910  0.089070  0.195590  1.0  0.6727
  C  C551  1  0.247120  0.042020  0.214480  1.0  -0.1494
  C  C552  1  0.218930  0.012720  0.168100  1.0  -0.0627
  C  C553  1  0.189980  0.969150  0.185000  1.0  -0.0984
  C  C554  1  0.188710  0.954640  0.245500  1.0  0.0456
  C  C555  1  0.216690  0.984820  0.291800  1.0  -0.179
  C  C556  1  0.245570  0.028090  0.274480  1.0  -0.0308
  C  C557  1  0.161080  0.907430  0.263000  1.0  -0.0468
  C  C558  1  0.179620  0.887690  0.297300  1.0  -0.1541
  C  C559  1  0.945580  0.422400  0.528920  1.0  0.6728
  C  C560  1  0.913790  0.375350  0.547810  1.0  -0.1497
  C  C561  1  0.885600  0.346050  0.501430  1.0  -0.0627
  C  C562  1  0.856650  0.302480  0.518330  1.0  -0.0983
  C  C563  1  0.855380  0.287970  0.578830  1.0  0.0456
  C  C564  1  0.883360  0.318150  0.625130  1.0  -0.179
  C  C565  1  0.912240  0.361420  0.607810  1.0  -0.0308
  C  C566  1  0.827750  0.240760  0.596330  1.0  -0.0468
  C  C567  1  0.846290  0.221020  0.630630  1.0  -0.154
  C  C568  1  0.612240  0.755740  0.862260  1.0  0.6727
  C  C569  1  0.580450  0.708690  0.881150  1.0  -0.1494
  C  C570  1  0.552260  0.679390  0.834770  1.0  -0.0627
  C  C571  1  0.523310  0.635820  0.851670  1.0  -0.0984
  C  C572  1  0.522040  0.621310  0.912170  1.0  0.0456
  C  C573  1  0.550020  0.651490  0.958470  1.0  -0.179
  C  C574  1  0.578900  0.694760  0.941150  1.0  -0.0308
  C  C575  1  0.494410  0.574100  0.929670  1.0  -0.0468
  C  C576  1  0.512950  0.554360  0.963970  1.0  -0.1542
  C  C577  1  0.156340  0.312670  0.316200  1.0  0.03
  C  C578  1  0.117160  0.234320  0.245500  1.0  0.1756
  C  C579  1  0.078650  0.157300  0.249500  1.0  -0.0154
  C  C580  1  0.823000  0.646000  0.649530  1.0  0.03
  C  C581  1  0.783830  0.567650  0.578830  1.0  0.1756
  C  C582  1  0.745320  0.490630  0.582830  1.0  -0.0154
  C  C583  1  0.489670  0.979340  0.982870  1.0  0.0303
  C  C584  1  0.450490  0.900990  0.912170  1.0  0.1756
  C  C585  1  0.411980  0.823970  0.916170  1.0  -0.0154
  C  C586  1  0.687330  0.843660  0.316200  1.0  0.0294
  C  C587  1  0.765680  0.882840  0.245500  1.0  0.1753
  C  C588  1  0.842700  0.921350  0.249500  1.0  -0.0189
  C  C589  1  0.354000  0.177000  0.649530  1.0  0.0294
  C  C590  1  0.432350  0.216170  0.578830  1.0  0.1753
  C  C591  1  0.509370  0.254680  0.582830  1.0  -0.0189
  C  C592  1  0.020660  0.510330  0.982870  1.0  0.0297
  C  C593  1  0.099010  0.549510  0.912170  1.0  0.1753
  C  C594  1  0.176030  0.588020  0.916170  1.0  -0.0189
  C  C595  1  0.156340  0.843660  0.316200  1.0  0.0291
  C  C596  1  0.117160  0.882840  0.245500  1.0  0.1758
  C  C597  1  0.078650  0.921350  0.249500  1.0  -0.0187
  C  C598  1  0.823000  0.177000  0.649530  1.0  0.0287
  C  C599  1  0.783830  0.216170  0.578830  1.0  0.1756
  C  C600  1  0.745320  0.254680  0.582830  1.0  -0.0187
  C  C601  1  0.489670  0.510330  0.982870  1.0  0.0289
  C  C602  1  0.450490  0.549510  0.912170  1.0  0.1758
  C  C603  1  0.411980  0.588020  0.916170  1.0  -0.0187
  C  C604  1  0.312670  0.156340  0.683800  1.0  0.0287
  C  C605  1  0.234320  0.117160  0.754500  1.0  0.1753
  C  C606  1  0.157300  0.078650  0.750500  1.0  -0.0182
  C  C607  1  0.979340  0.489670  0.017130  1.0  0.029
  C  C608  1  0.900990  0.450490  0.087830  1.0  0.1753
  C  C609  1  0.823970  0.411980  0.083830  1.0  -0.0182
  C  C610  1  0.646000  0.823000  0.350470  1.0  0.0287
  C  C611  1  0.567650  0.783830  0.421170  1.0  0.1753
  C  C612  1  0.490630  0.745320  0.417170  1.0  -0.0182
  C  C613  1  0.843660  0.687330  0.683800  1.0  0.0298
  C  C614  1  0.882840  0.765680  0.754500  1.0  0.1754
  C  C615  1  0.921350  0.842700  0.750500  1.0  -0.0157
  C  C616  1  0.510330  0.020660  0.017130  1.0  0.0301
  C  C617  1  0.549510  0.099010  0.087830  1.0  0.1754
  C  C618  1  0.588020  0.176030  0.083830  1.0  -0.0157
  C  C619  1  0.177000  0.354000  0.350470  1.0  0.0298
  C  C620  1  0.216170  0.432350  0.421170  1.0  0.1754
  C  C621  1  0.254680  0.509370  0.417170  1.0  -0.0158
  C  C622  1  0.843660  0.156340  0.683800  1.0  0.0306
  C  C623  1  0.882840  0.117160  0.754500  1.0  0.1749
  C  C624  1  0.921350  0.078650  0.750500  1.0  -0.0174
  C  C625  1  0.510330  0.489670  0.017130  1.0  0.0304
  C  C626  1  0.549510  0.450490  0.087830  1.0  0.1749
  C  C627  1  0.588020  0.411980  0.083830  1.0  -0.0174
  C  C628  1  0.177000  0.823000  0.350470  1.0  0.0302
  C  C629  1  0.216170  0.783830  0.421170  1.0  0.1748
  C  C630  1  0.254680  0.745320  0.417170  1.0  -0.0174
  O  O631  1  0.304030  0.190890  0.239820  1.0  -0.5693
  O  O632  1  0.278080  0.178360  0.139370  1.0  -0.5607
  O  O633  1  0.970700  0.524220  0.573150  1.0  -0.5694
  O  O634  1  0.944750  0.511690  0.472700  1.0  -0.5609
  O  O635  1  0.637360  0.857560  0.906490  1.0  -0.5693
  O  O636  1  0.611410  0.845030  0.806040  1.0  -0.5607
  O  O637  1  0.809110  0.113140  0.239820  1.0  -0.5699
  O  O638  1  0.821640  0.099720  0.139370  1.0  -0.5593
  O  O639  1  0.475780  0.446470  0.573150  1.0  -0.57
  O  O640  1  0.488310  0.433050  0.472700  1.0  -0.5589
  O  O641  1  0.142440  0.779810  0.906490  1.0  -0.5699
  O  O642  1  0.154970  0.766390  0.806040  1.0  -0.5593
  O  O643  1  0.886860  0.695970  0.239820  1.0  -0.5709
  O  O644  1  0.900280  0.721920  0.139370  1.0  -0.5597
  O  O645  1  0.553530  0.029300  0.573150  1.0  -0.5702
  O  O646  1  0.566950  0.055250  0.472700  1.0  -0.5593
  O  O647  1  0.220190  0.362640  0.906490  1.0  -0.5709
  O  O648  1  0.233610  0.388590  0.806040  1.0  -0.5597
  O  O649  1  0.190890  0.304030  0.760180  1.0  -0.5718
  O  O650  1  0.178360  0.278080  0.860630  1.0  -0.559
  O  O651  1  0.857560  0.637360  0.093510  1.0  -0.5718
  O  O652  1  0.845030  0.611410  0.193960  1.0  -0.559
  O  O653  1  0.524220  0.970700  0.426850  1.0  -0.5717
  O  O654  1  0.511690  0.944750  0.527300  1.0  -0.5593
  O  O655  1  0.113140  0.809110  0.760180  1.0  -0.5711
  O  O656  1  0.099720  0.821640  0.860630  1.0  -0.5601
  O  O657  1  0.779810  0.142440  0.093510  1.0  -0.5711
  O  O658  1  0.766390  0.154970  0.193960  1.0  -0.5601
  O  O659  1  0.446470  0.475780  0.426850  1.0  -0.5712
  O  O660  1  0.433050  0.488310  0.527300  1.0  -0.5596
  O  O661  1  0.695970  0.886860  0.760180  1.0  -0.571
  O  O662  1  0.721920  0.900280  0.860630  1.0  -0.5585
  O  O663  1  0.362640  0.220190  0.093510  1.0  -0.571
  O  O664  1  0.388590  0.233610  0.193960  1.0  -0.5585
  O  O665  1  0.029300  0.553530  0.426850  1.0  -0.5705
  O  O666  1  0.055250  0.566950  0.527300  1.0  -0.558
  O  O667  1  0.695970  0.809110  0.760180  1.0  -0.5706
  O  O668  1  0.721920  0.821640  0.860630  1.0  -0.5582
  O  O669  1  0.362640  0.142440  0.093510  1.0  -0.5706
  O  O670  1  0.388590  0.154970  0.193960  1.0  -0.5582
  O  O671  1  0.029300  0.475780  0.426850  1.0  -0.5711
  O  O672  1  0.055250  0.488310  0.527300  1.0  -0.5584
  O  O673  1  0.190890  0.886860  0.760180  1.0  -0.5708
  O  O674  1  0.178360  0.900280  0.860630  1.0  -0.5598
  O  O675  1  0.857560  0.220190  0.093510  1.0  -0.5708
  O  O676  1  0.845030  0.233610  0.193960  1.0  -0.5598
  O  O677  1  0.524220  0.553530  0.426850  1.0  -0.571
  O  O678  1  0.511690  0.566950  0.527300  1.0  -0.5592
  O  O679  1  0.113140  0.304030  0.760180  1.0  -0.5716
  O  O680  1  0.099720  0.278080  0.860630  1.0  -0.5588
  O  O681  1  0.779810  0.637360  0.093510  1.0  -0.5716
  O  O682  1  0.766390  0.611410  0.193960  1.0  -0.5588
  O  O683  1  0.446470  0.970700  0.426850  1.0  -0.5718
  O  O684  1  0.433050  0.944750  0.527300  1.0  -0.5583
  O  O685  1  0.809110  0.695970  0.239820  1.0  -0.5703
  O  O686  1  0.821640  0.721920  0.139370  1.0  -0.5596
  O  O687  1  0.475780  0.029300  0.573150  1.0  -0.5709
  O  O688  1  0.488310  0.055250  0.472700  1.0  -0.5597
  O  O689  1  0.142440  0.362640  0.906490  1.0  -0.5703
  O  O690  1  0.154970  0.388590  0.806040  1.0  -0.5596
  O  O691  1  0.886860  0.190890  0.239820  1.0  -0.5696
  O  O692  1  0.900280  0.178360  0.139370  1.0  -0.5602
  O  O693  1  0.553530  0.524220  0.573150  1.0  -0.5696
  O  O694  1  0.566950  0.511690  0.472700  1.0  -0.5598
  O  O695  1  0.220190  0.857560  0.906490  1.0  -0.5696
  O  O696  1  0.233610  0.845030  0.806040  1.0  -0.5602
  O  O697  1  0.304030  0.113140  0.239820  1.0  -0.5693
  O  O698  1  0.278080  0.099720  0.139370  1.0  -0.5598
  O  O699  1  0.970700  0.446470  0.573150  1.0  -0.5687
  O  O700  1  0.944750  0.433050  0.472700  1.0  -0.5594
  O  O701  1  0.637360  0.779810  0.906490  1.0  -0.5693
  O  O702  1  0.611410  0.766390  0.806040  1.0  -0.5598
  O  O703  1  0.097840  0.195670  0.210700  1.0  -0.2675
  O  O704  1  0.764500  0.529000  0.544030  1.0  -0.2674
  O  O705  1  0.431170  0.862340  0.877370  1.0  -0.2675
  O  O706  1  0.804330  0.902160  0.210700  1.0  -0.2649
  O  O707  1  0.471000  0.235500  0.544030  1.0  -0.2649
  O  O708  1  0.137660  0.568830  0.877370  1.0  -0.2649
  O  O709  1  0.097840  0.902160  0.210700  1.0  -0.2645
  O  O710  1  0.764500  0.235500  0.544030  1.0  -0.2653
  O  O711  1  0.431170  0.568830  0.877370  1.0  -0.2645
  O  O712  1  0.195670  0.097840  0.789300  1.0  -0.2689
  O  O713  1  0.862340  0.431170  0.122630  1.0  -0.2689
  O  O714  1  0.529000  0.764500  0.455970  1.0  -0.2689
  O  O715  1  0.902160  0.804330  0.789300  1.0  -0.2697
  O  O716  1  0.568830  0.137660  0.122630  1.0  -0.2697
  O  O717  1  0.235500  0.471000  0.455970  1.0  -0.2697
  O  O718  1  0.902160  0.097840  0.789300  1.0  -0.2695
  O  O719  1  0.568830  0.431170  0.122630  1.0  -0.2695
  O  O720  1  0.235500  0.764500  0.455970  1.0  -0.2702
