# generated using pymatgen
data_CuH10(C5O)5
_symmetry_space_group_name_H-M   'P 1'
_cell_length_a   35.15950000
_cell_length_b   35.15950000
_cell_length_c   22.14320000
_cell_angle_alpha   90.00000000
_cell_angle_beta   90.00000000
_cell_angle_gamma   120.00000000
_symmetry_Int_Tables_number   1
_chemical_formula_structural   CuH10(C5O)5
_chemical_formula_sum   'Cu18 H180 C450 O90'
_cell_volume   23705.89711075
_cell_formula_units_Z   18
loop_
 _symmetry_equiv_pos_site_id
 _symmetry_equiv_pos_as_xyz
  1  'x, y, z'
loop_
 _atom_site_type_symbol
 _atom_site_label
 _atom_site_symmetry_multiplicity
 _atom_site_fract_x
 _atom_site_fract_y
 _atom_site_fract_z
 _atom_site_occupancy
 _atom_site_charge
  Cu  Cu1  1  0.317650  0.158820  0.611120  1.0  0.8865
  Cu  Cu2  1  0.984320  0.492160  0.944450  1.0  0.8894
  Cu  Cu3  1  0.650980  0.825490  0.277790  1.0  0.8866
  Cu  Cu4  1  0.841180  0.158820  0.611120  1.0  0.884
  Cu  Cu5  1  0.507840  0.492160  0.944450  1.0  0.8849
  Cu  Cu6  1  0.174510  0.825490  0.277790  1.0  0.884
  Cu  Cu7  1  0.841180  0.682350  0.611120  1.0  0.8874
  Cu  Cu8  1  0.507840  0.015680  0.944450  1.0  0.8896
  Cu  Cu9  1  0.174510  0.349020  0.277790  1.0  0.8874
  Cu  Cu10  1  0.158820  0.317650  0.388880  1.0  0.8872
  Cu  Cu11  1  0.825490  0.650980  0.722210  1.0  0.8872
  Cu  Cu12  1  0.492160  0.984320  0.055550  1.0  0.8893
  Cu  Cu13  1  0.158820  0.841180  0.388880  1.0  0.8843
  Cu  Cu14  1  0.825490  0.174510  0.722210  1.0  0.8843
  Cu  Cu15  1  0.492160  0.507840  0.055550  1.0  0.8853
  Cu  Cu16  1  0.682350  0.841180  0.388880  1.0  0.8871
  Cu  Cu17  1  0.349020  0.174510  0.722210  1.0  0.8871
  Cu  Cu18  1  0.015680  0.507840  0.055550  1.0  0.8899
  H  H19  1  0.446400  0.133900  0.704000  1.0  0.1015
  H  H20  1  0.493900  0.109000  0.677100  1.0  0.1064
  H  H21  1  0.448600  0.090400  0.506900  1.0  0.1062
  H  H22  1  0.401100  0.115400  0.534200  1.0  0.1036
  H  H23  1  0.456700  0.027300  0.525800  1.0  0.1069
  H  H24  1  0.113070  0.467230  0.037330  1.0  0.1015
  H  H25  1  0.160570  0.442330  0.010430  1.0  0.1069
  H  H26  1  0.115270  0.423730  0.840230  1.0  0.1062
  H  H27  1  0.067770  0.448730  0.867530  1.0  0.103
  H  H28  1  0.123370  0.360630  0.859130  1.0  0.1069
  H  H29  1  0.779730  0.800570  0.370670  1.0  0.1021
  H  H30  1  0.827230  0.775670  0.343770  1.0  0.1061
  H  H31  1  0.781930  0.757070  0.173570  1.0  0.1061
  H  H32  1  0.734430  0.782070  0.200870  1.0  0.1026
  H  H33  1  0.790030  0.693970  0.192470  1.0  0.1069
  H  H34  1  0.866100  0.312500  0.704000  1.0  0.1018
  H  H35  1  0.891000  0.384900  0.677100  1.0  0.1057
  H  H36  1  0.909600  0.358200  0.506900  1.0  0.1066
  H  H37  1  0.884600  0.285700  0.534200  1.0  0.1033
  H  H38  1  0.972700  0.429400  0.525800  1.0  0.1068
  H  H39  1  0.532770  0.645830  0.037330  1.0  0.1018
  H  H40  1  0.557670  0.718230  0.010430  1.0  0.1055
  H  H41  1  0.576270  0.691530  0.840230  1.0  0.1066
  H  H42  1  0.551270  0.619030  0.867530  1.0  0.103
  H  H43  1  0.639370  0.762730  0.859130  1.0  0.1068
  H  H44  1  0.199430  0.979170  0.370670  1.0  0.1018
  H  H45  1  0.224330  0.051570  0.343770  1.0  0.106
  H  H46  1  0.242930  0.024870  0.173570  1.0  0.1064
  H  H47  1  0.217930  0.952370  0.200870  1.0  0.1039
  H  H48  1  0.306030  0.096070  0.192470  1.0  0.1068
  H  H49  1  0.687500  0.553600  0.704000  1.0  0.1028
  H  H50  1  0.615100  0.506100  0.677100  1.0  0.1058
  H  H51  1  0.641800  0.551400  0.506900  1.0  0.1068
  H  H52  1  0.714300  0.598900  0.534200  1.0  0.1031
  H  H53  1  0.570600  0.543300  0.525800  1.0  0.1073
  H  H54  1  0.354170  0.886930  0.037330  1.0  0.1028
  H  H55  1  0.281770  0.839430  0.010430  1.0  0.1058
  H  H56  1  0.308470  0.884730  0.840230  1.0  0.1068
  H  H57  1  0.380970  0.932230  0.867530  1.0  0.1031
  H  H58  1  0.237270  0.876630  0.859130  1.0  0.1073
  H  H59  1  0.020830  0.220270  0.370670  1.0  0.102
  H  H60  1  0.948430  0.172770  0.343770  1.0  0.1058
  H  H61  1  0.975130  0.218070  0.173570  1.0  0.1069
  H  H62  1  0.047630  0.265570  0.200870  1.0  0.1037
  H  H63  1  0.903930  0.209970  0.192470  1.0  0.1073
  H  H64  1  0.133900  0.446400  0.296000  1.0  0.1017
  H  H65  1  0.109000  0.493900  0.322900  1.0  0.1066
  H  H66  1  0.090400  0.448600  0.493100  1.0  0.1062
  H  H67  1  0.115400  0.401100  0.465800  1.0  0.104
  H  H68  1  0.027300  0.456700  0.474200  1.0  0.1069
  H  H69  1  0.800570  0.779730  0.629330  1.0  0.1026
  H  H70  1  0.775670  0.827230  0.656230  1.0  0.1065
  H  H71  1  0.757070  0.781930  0.826430  1.0  0.1062
  H  H72  1  0.782070  0.734430  0.799130  1.0  0.1032
  H  H73  1  0.693970  0.790030  0.807530  1.0  0.1069
  H  H74  1  0.467230  0.113070  0.962670  1.0  0.1017
  H  H75  1  0.442330  0.160570  0.989570  1.0  0.107
  H  H76  1  0.423730  0.115270  0.159770  1.0  0.1062
  H  H77  1  0.448730  0.067770  0.132470  1.0  0.1033
  H  H78  1  0.360630  0.123370  0.140870  1.0  0.1069
  H  H79  1  0.312500  0.866100  0.296000  1.0  0.1015
  H  H80  1  0.384900  0.891000  0.322900  1.0  0.1068
  H  H81  1  0.358200  0.909600  0.493100  1.0  0.1064
  H  H82  1  0.285700  0.884600  0.465800  1.0  0.1037
  H  H83  1  0.429400  0.972700  0.474200  1.0  0.1068
  H  H84  1  0.979170  0.199430  0.629330  1.0  0.1015
  H  H85  1  0.051570  0.224330  0.656230  1.0  0.1069
  H  H86  1  0.024870  0.242930  0.826430  1.0  0.1064
  H  H87  1  0.952370  0.217930  0.799130  1.0  0.1039
  H  H88  1  0.096070  0.306030  0.807530  1.0  0.1068
  H  H89  1  0.645830  0.532770  0.962670  1.0  0.1015
  H  H90  1  0.718230  0.557670  0.989570  1.0  0.1067
  H  H91  1  0.691530  0.576270  0.159770  1.0  0.1064
  H  H92  1  0.619030  0.551270  0.132470  1.0  0.1033
  H  H93  1  0.762730  0.639370  0.140870  1.0  0.1068
  H  H94  1  0.553600  0.687500  0.296000  1.0  0.1025
  H  H95  1  0.506100  0.615100  0.322900  1.0  0.106
  H  H96  1  0.551400  0.641800  0.493100  1.0  0.1063
  H  H97  1  0.598900  0.714300  0.465800  1.0  0.1031
  H  H98  1  0.543300  0.570600  0.474200  1.0  0.1065
  H  H99  1  0.220270  0.020830  0.629330  1.0  0.1017
  H  H100  1  0.172770  0.948430  0.656230  1.0  0.106
  H  H101  1  0.218070  0.975130  0.826430  1.0  0.1063
  H  H102  1  0.265570  0.047630  0.799130  1.0  0.1035
  H  H103  1  0.209970  0.903930  0.807530  1.0  0.1065
  H  H104  1  0.886930  0.354170  0.962670  1.0  0.1025
  H  H105  1  0.839430  0.281770  0.989570  1.0  0.106
  H  H106  1  0.884730  0.308470  0.159770  1.0  0.1063
  H  H107  1  0.932230  0.380970  0.132470  1.0  0.1031
  H  H108  1  0.876630  0.237270  0.140870  1.0  0.1065
  H  H109  1  0.553600  0.866100  0.296000  1.0  0.1017
  H  H110  1  0.506100  0.891000  0.322900  1.0  0.1071
  H  H111  1  0.551400  0.909600  0.493100  1.0  0.1064
  H  H112  1  0.598900  0.884600  0.465800  1.0  0.1036
  H  H113  1  0.543300  0.972700  0.474200  1.0  0.107
  H  H114  1  0.220270  0.199430  0.629330  1.0  0.1022
  H  H115  1  0.172770  0.224330  0.656230  1.0  0.1069
  H  H116  1  0.218070  0.242930  0.826430  1.0  0.1064
  H  H117  1  0.265570  0.217930  0.799130  1.0  0.1028
  H  H118  1  0.209970  0.306030  0.807530  1.0  0.107
  H  H119  1  0.886930  0.532770  0.962670  1.0  0.1017
  H  H120  1  0.839430  0.557670  0.989570  1.0  0.1075
  H  H121  1  0.884730  0.576270  0.159770  1.0  0.1064
  H  H122  1  0.932230  0.551270  0.132470  1.0  0.1029
  H  H123  1  0.876630  0.639370  0.140870  1.0  0.107
  H  H124  1  0.133900  0.687500  0.296000  1.0  0.1023
  H  H125  1  0.109000  0.615100  0.322900  1.0  0.1061
  H  H126  1  0.090400  0.641800  0.493100  1.0  0.1064
  H  H127  1  0.115400  0.714300  0.465800  1.0  0.1034
  H  H128  1  0.027300  0.570600  0.474200  1.0  0.1063
  H  H129  1  0.800570  0.020830  0.629330  1.0  0.1023
  H  H130  1  0.775670  0.948430  0.656230  1.0  0.1065
  H  H131  1  0.757070  0.975130  0.826430  1.0  0.1063
  H  H132  1  0.782070  0.047630  0.799130  1.0  0.1038
  H  H133  1  0.693970  0.903930  0.807530  1.0  0.1063
  H  H134  1  0.467230  0.354170  0.962670  1.0  0.1023
  H  H135  1  0.442330  0.281770  0.989570  1.0  0.1062
  H  H136  1  0.423730  0.308470  0.159770  1.0  0.1064
  H  H137  1  0.448730  0.380970  0.132470  1.0  0.1031
  H  H138  1  0.360630  0.237270  0.140870  1.0  0.1063
  H  H139  1  0.312500  0.446400  0.296000  1.0  0.1028
  H  H140  1  0.384900  0.493900  0.322900  1.0  0.1066
  H  H141  1  0.358200  0.448600  0.493100  1.0  0.1067
  H  H142  1  0.285700  0.401100  0.465800  1.0  0.1033
  H  H143  1  0.429400  0.456700  0.474200  1.0  0.107
  H  H144  1  0.979170  0.779730  0.629330  1.0  0.1018
  H  H145  1  0.051570  0.827230  0.656230  1.0  0.1066
  H  H146  1  0.024870  0.781930  0.826430  1.0  0.1067
  H  H147  1  0.952370  0.734430  0.799130  1.0  0.104
  H  H148  1  0.096070  0.790030  0.807530  1.0  0.107
  H  H149  1  0.645830  0.113070  0.962670  1.0  0.1028
  H  H150  1  0.718230  0.160570  0.989570  1.0  0.1066
  H  H151  1  0.691530  0.115270  0.159770  1.0  0.1067
  H  H152  1  0.619030  0.067770  0.132470  1.0  0.1033
  H  H153  1  0.762730  0.123370  0.140870  1.0  0.107
  H  H154  1  0.866100  0.553600  0.704000  1.0  0.102
  H  H155  1  0.891000  0.506100  0.677100  1.0  0.1064
  H  H156  1  0.909600  0.551400  0.506900  1.0  0.1067
  H  H157  1  0.884600  0.598900  0.534200  1.0  0.1035
  H  H158  1  0.972700  0.543300  0.525800  1.0  0.1078
  H  H159  1  0.532770  0.886930  0.037330  1.0  0.102
  H  H160  1  0.557670  0.839430  0.010430  1.0  0.1068
  H  H161  1  0.576270  0.884730  0.840230  1.0  0.1067
  H  H162  1  0.551270  0.932230  0.867530  1.0  0.1028
  H  H163  1  0.639370  0.876630  0.859130  1.0  0.1078
  H  H164  1  0.199430  0.220270  0.370670  1.0  0.1026
  H  H165  1  0.224330  0.172770  0.343770  1.0  0.1059
  H  H166  1  0.242930  0.218070  0.173570  1.0  0.1066
  H  H167  1  0.217930  0.265570  0.200870  1.0  0.1024
  H  H168  1  0.306030  0.209970  0.192470  1.0  0.1078
  H  H169  1  0.687500  0.133900  0.704000  1.0  0.1017
  H  H170  1  0.615100  0.109000  0.677100  1.0  0.1063
  H  H171  1  0.641800  0.090400  0.506900  1.0  0.1071
  H  H172  1  0.714300  0.115400  0.534200  1.0  0.104
  H  H173  1  0.570600  0.027300  0.525800  1.0  0.1079
  H  H174  1  0.354170  0.467230  0.037330  1.0  0.1017
  H  H175  1  0.281770  0.442330  0.010430  1.0  0.1059
  H  H176  1  0.308470  0.423730  0.840230  1.0  0.1071
  H  H177  1  0.380970  0.448730  0.867530  1.0  0.1037
  H  H178  1  0.237270  0.360630  0.859130  1.0  0.1079
  H  H179  1  0.020830  0.800570  0.370670  1.0  0.1017
  H  H180  1  0.948430  0.775670  0.343770  1.0  0.1067
  H  H181  1  0.975130  0.757070  0.173570  1.0  0.1069
  H  H182  1  0.047630  0.782070  0.200870  1.0  0.1048
  H  H183  1  0.903930  0.693970  0.192470  1.0  0.1079
  H  H184  1  0.446400  0.312500  0.704000  1.0  0.1026
  H  H185  1  0.493900  0.384900  0.677100  1.0  0.1057
  H  H186  1  0.448600  0.358200  0.506900  1.0  0.1064
  H  H187  1  0.401100  0.285700  0.534200  1.0  0.1025
  H  H188  1  0.456700  0.429400  0.525800  1.0  0.1068
  H  H189  1  0.113070  0.645830  0.037330  1.0  0.1026
  H  H190  1  0.160570  0.718230  0.010430  1.0  0.1057
  H  H191  1  0.115270  0.691530  0.840230  1.0  0.1064
  H  H192  1  0.067770  0.619030  0.867530  1.0  0.1025
  H  H193  1  0.123370  0.762730  0.859130  1.0  0.1068
  H  H194  1  0.779730  0.979170  0.370670  1.0  0.102
  H  H195  1  0.827230  0.051570  0.343770  1.0  0.1057
  H  H196  1  0.781930  0.024870  0.173570  1.0  0.1065
  H  H197  1  0.734430  0.952370  0.200870  1.0  0.1031
  H  H198  1  0.790030  0.096070  0.192470  1.0  0.1068
  C  C199  1  0.387750  0.142740  0.638890  1.0  0.6778
  C  C200  1  0.419190  0.127460  0.621500  1.0  -0.1378
  C  C201  1  0.446860  0.125200  0.663990  1.0  -0.0592
  C  C202  1  0.475170  0.110230  0.647830  1.0  -0.1287
  C  C203  1  0.476320  0.097040  0.589490  1.0  0.0617
  C  C204  1  0.448350  0.099160  0.546940  1.0  -0.1737
  C  C205  1  0.419960  0.114240  0.563260  1.0  -0.052
  C  C206  1  0.504770  0.078630  0.571240  1.0  -0.0123
  C  C207  1  0.486460  0.040330  0.536870  1.0  -0.1143
  C  C208  1  0.588200  0.209930  0.639400  1.0  0.1069
  C  C209  1  0.615300  0.188000  0.543400  1.0  0.0007
  C  C210  1  0.054420  0.476070  0.972220  1.0  0.6779
  C  C211  1  0.085860  0.460790  0.954830  1.0  -0.1385
  C  C212  1  0.113530  0.458530  0.997320  1.0  -0.0592
  C  C213  1  0.141840  0.443560  0.981160  1.0  -0.1287
  C  C214  1  0.142990  0.430370  0.922820  1.0  0.0617
  C  C215  1  0.115020  0.432490  0.880270  1.0  -0.1737
  C  C216  1  0.086630  0.447570  0.896590  1.0  -0.052
  C  C217  1  0.171440  0.411960  0.904570  1.0  -0.0123
  C  C218  1  0.153130  0.373660  0.870200  1.0  -0.1095
  C  C219  1  0.254870  0.543260  0.972730  1.0  0.1069
  C  C220  1  0.281970  0.521330  0.876730  1.0  0.0007
  C  C221  1  0.721080  0.809410  0.305560  1.0  0.6778
  C  C222  1  0.752520  0.794130  0.288170  1.0  -0.1378
  C  C223  1  0.780190  0.791870  0.330660  1.0  -0.0592
  C  C224  1  0.808500  0.776900  0.314500  1.0  -0.1287
  C  C225  1  0.809650  0.763710  0.256160  1.0  0.0617
  C  C226  1  0.781680  0.765830  0.213610  1.0  -0.1737
  C  C227  1  0.753290  0.780910  0.229930  1.0  -0.052
  C  C228  1  0.838100  0.745300  0.237910  1.0  -0.0137
  C  C229  1  0.819790  0.707000  0.203540  1.0  -0.1143
  C  C230  1  0.921530  0.876600  0.306070  1.0  0.1033
  C  C231  1  0.948630  0.854670  0.210070  1.0  0.005
  C  C232  1  0.857260  0.245010  0.638890  1.0  0.6778
  C  C233  1  0.872540  0.291730  0.621500  1.0  -0.1359
  C  C234  1  0.874800  0.321660  0.663990  1.0  -0.0592
  C  C235  1  0.889770  0.364940  0.647830  1.0  -0.1308
  C  C236  1  0.902960  0.379280  0.589490  1.0  0.0633
  C  C237  1  0.900840  0.349190  0.546940  1.0  -0.1758
  C  C238  1  0.885760  0.305720  0.563260  1.0  -0.0537
  C  C239  1  0.921370  0.426140  0.571240  1.0  -0.013
  C  C240  1  0.959670  0.446130  0.536870  1.0  -0.1087
  C  C241  1  0.790070  0.378270  0.639400  1.0  0.0936
  C  C242  1  0.812000  0.427300  0.543400  1.0  0.0127
  C  C243  1  0.523930  0.578340  0.972220  1.0  0.6779
  C  C244  1  0.539210  0.625060  0.954830  1.0  -0.1359
  C  C245  1  0.541470  0.654990  0.997320  1.0  -0.0592
  C  C246  1  0.556440  0.698270  0.981160  1.0  -0.1308
  C  C247  1  0.569630  0.712610  0.922820  1.0  0.0633
  C  C248  1  0.567510  0.682520  0.880270  1.0  -0.1757
  C  C249  1  0.552430  0.639050  0.896590  1.0  -0.0537
  C  C250  1  0.588040  0.759470  0.904570  1.0  -0.0144
  C  C251  1  0.626340  0.779460  0.870200  1.0  -0.1129
  C  C252  1  0.456740  0.711600  0.972730  1.0  0.0936
  C  C253  1  0.478670  0.760630  0.876730  1.0  0.0127
  C  C254  1  0.190590  0.911680  0.305560  1.0  0.6778
  C  C255  1  0.205870  0.958400  0.288170  1.0  -0.1359
  C  C256  1  0.208130  0.988330  0.330660  1.0  -0.0592
  C  C257  1  0.223100  0.031610  0.314500  1.0  -0.1308
  C  C258  1  0.236290  0.045950  0.256160  1.0  0.0633
  C  C259  1  0.234170  0.015860  0.213610  1.0  -0.1758
  C  C260  1  0.219090  0.972390  0.229930  1.0  -0.0537
  C  C261  1  0.254700  0.092810  0.237910  1.0  -0.013
  C  C262  1  0.293000  0.112800  0.203540  1.0  -0.1087
  C  C263  1  0.123400  0.044940  0.306070  1.0  0.1019
  C  C264  1  0.145330  0.093970  0.210070  1.0  0.0095
  C  C265  1  0.754990  0.612250  0.638890  1.0  0.6777
  C  C266  1  0.708270  0.580810  0.621500  1.0  -0.1375
  C  C267  1  0.678340  0.553140  0.663990  1.0  -0.0592
  C  C268  1  0.635060  0.524830  0.647830  1.0  -0.1294
  C  C269  1  0.620720  0.523680  0.589490  1.0  0.0624
  C  C270  1  0.650810  0.551650  0.546940  1.0  -0.177
  C  C271  1  0.694280  0.580040  0.563260  1.0  -0.0535
  C  C272  1  0.573860  0.495230  0.571240  1.0  -0.0149
  C  C273  1  0.553870  0.513540  0.536870  1.0  -0.1097
  C  C274  1  0.621730  0.411800  0.639400  1.0  0.0992
  C  C275  1  0.572700  0.384700  0.543400  1.0  0.0073
  C  C276  1  0.421660  0.945580  0.972220  1.0  0.6777
  C  C277  1  0.374940  0.914140  0.954830  1.0  -0.1373
  C  C278  1  0.345010  0.886470  0.997320  1.0  -0.0592
  C  C279  1  0.301730  0.858160  0.981160  1.0  -0.1294
  C  C280  1  0.287390  0.857010  0.922820  1.0  0.0624
  C  C281  1  0.317480  0.884980  0.880270  1.0  -0.177
  C  C282  1  0.360950  0.913370  0.896590  1.0  -0.0535
  C  C283  1  0.240530  0.828560  0.904570  1.0  -0.0136
  C  C284  1  0.220540  0.846870  0.870200  1.0  -0.1097
  C  C285  1  0.288400  0.745130  0.972730  1.0  0.0992
  C  C286  1  0.239370  0.718030  0.876730  1.0  0.0073
  C  C287  1  0.088320  0.278920  0.305560  1.0  0.6777
  C  C288  1  0.041600  0.247480  0.288170  1.0  -0.1375
  C  C289  1  0.011670  0.219810  0.330660  1.0  -0.0592
  C  C290  1  0.968390  0.191500  0.314500  1.0  -0.1294
  C  C291  1  0.954050  0.190350  0.256160  1.0  0.0624
  C  C292  1  0.984140  0.218320  0.213610  1.0  -0.177
  C  C293  1  0.027610  0.246710  0.229930  1.0  -0.0535
  C  C294  1  0.907190  0.161900  0.237910  1.0  -0.0149
  C  C295  1  0.887200  0.180210  0.203540  1.0  -0.1097
  C  C296  1  0.955060  0.078470  0.306070  1.0  0.0947
  C  C297  1  0.906030  0.051370  0.210070  1.0  0.0062
  C  C298  1  0.142740  0.387750  0.361110  1.0  0.6773
  C  C299  1  0.127460  0.419190  0.378500  1.0  -0.1371
  C  C300  1  0.125200  0.446860  0.336010  1.0  -0.0581
  C  C301  1  0.110230  0.475170  0.352170  1.0  -0.1284
  C  C302  1  0.097040  0.476320  0.410510  1.0  0.0625
  C  C303  1  0.099160  0.448350  0.453060  1.0  -0.1783
  C  C304  1  0.114240  0.419960  0.436740  1.0  -0.0525
  C  C305  1  0.078630  0.504770  0.428760  1.0  -0.0136
  C  C306  1  0.040330  0.486460  0.463130  1.0  -0.1138
  C  C307  1  0.209930  0.588200  0.360600  1.0  0.1053
  C  C308  1  0.188000  0.615300  0.456600  1.0  0.0037
  C  C309  1  0.809410  0.721080  0.694440  1.0  0.6773
  C  C310  1  0.794130  0.752520  0.711830  1.0  -0.1371
  C  C311  1  0.791870  0.780190  0.669340  1.0  -0.0581
  C  C312  1  0.776900  0.808500  0.685500  1.0  -0.1284
  C  C313  1  0.763710  0.809650  0.743840  1.0  0.0625
  C  C314  1  0.765830  0.781680  0.786390  1.0  -0.1783
  C  C315  1  0.780910  0.753290  0.770070  1.0  -0.0525
  C  C316  1  0.745300  0.838100  0.762090  1.0  -0.015
  C  C317  1  0.707000  0.819790  0.796460  1.0  -0.1138
  C  C318  1  0.876600  0.921530  0.693930  1.0  0.1022
  C  C319  1  0.854670  0.948630  0.789930  1.0  0.0066
  C  C320  1  0.476070  0.054420  0.027780  1.0  0.6773
  C  C321  1  0.460790  0.085860  0.045170  1.0  -0.1378
  C  C322  1  0.458530  0.113530  0.002680  1.0  -0.0581
  C  C323  1  0.443560  0.141840  0.018840  1.0  -0.1284
  C  C324  1  0.430370  0.142990  0.077180  1.0  0.0625
  C  C325  1  0.432490  0.115020  0.119730  1.0  -0.1783
  C  C326  1  0.447570  0.086630  0.103410  1.0  -0.0524
  C  C327  1  0.411960  0.171440  0.095430  1.0  -0.0136
  C  C328  1  0.373660  0.153130  0.129800  1.0  -0.1079
  C  C329  1  0.543260  0.254870  0.027270  1.0  0.1053
  C  C330  1  0.521330  0.281970  0.123270  1.0  0.0037
  C  C331  1  0.245010  0.857260  0.361110  1.0  0.6775
  C  C332  1  0.291730  0.872540  0.378500  1.0  -0.1375
  C  C333  1  0.321660  0.874800  0.336010  1.0  -0.0571
  C  C334  1  0.364940  0.889770  0.352170  1.0  -0.1293
  C  C335  1  0.379280  0.902960  0.410510  1.0  0.0621
  C  C336  1  0.349190  0.900840  0.453060  1.0  -0.1738
  C  C337  1  0.305720  0.885760  0.436740  1.0  -0.052
  C  C338  1  0.426140  0.921370  0.428760  1.0  -0.0125
  C  C339  1  0.446130  0.959670  0.463130  1.0  -0.1111
  C  C340  1  0.378270  0.790070  0.360600  1.0  0.0972
  C  C341  1  0.427300  0.812000  0.456600  1.0  0.0067
  C  C342  1  0.911680  0.190590  0.694440  1.0  0.6775
  C  C343  1  0.958400  0.205870  0.711830  1.0  -0.1375
  C  C344  1  0.988330  0.208130  0.669340  1.0  -0.0571
  C  C345  1  0.031610  0.223100  0.685500  1.0  -0.1293
  C  C346  1  0.045950  0.236290  0.743840  1.0  0.0621
  C  C347  1  0.015860  0.234170  0.786390  1.0  -0.1738
  C  C348  1  0.972390  0.219090  0.770070  1.0  -0.052
  C  C349  1  0.092810  0.254700  0.762090  1.0  -0.0125
  C  C350  1  0.112800  0.293000  0.796460  1.0  -0.1111
  C  C351  1  0.044940  0.123400  0.693930  1.0  0.1019
  C  C352  1  0.093970  0.145330  0.789930  1.0  0.0024
  C  C353  1  0.578340  0.523930  0.027780  1.0  0.6775
  C  C354  1  0.625060  0.539210  0.045170  1.0  -0.1376
  C  C355  1  0.654990  0.541470  0.002680  1.0  -0.0571
  C  C356  1  0.698270  0.556440  0.018840  1.0  -0.1293
  C  C357  1  0.712610  0.569630  0.077180  1.0  0.0621
  C  C358  1  0.682520  0.567510  0.119730  1.0  -0.1738
  C  C359  1  0.639050  0.552430  0.103410  1.0  -0.052
  C  C360  1  0.759470  0.588040  0.095430  1.0  -0.0139
  C  C361  1  0.779460  0.626340  0.129800  1.0  -0.116
  C  C362  1  0.711600  0.456740  0.027270  1.0  0.0972
  C  C363  1  0.760630  0.478670  0.123270  1.0  0.0067
  C  C364  1  0.612250  0.754990  0.361110  1.0  0.678
  C  C365  1  0.580810  0.708270  0.378500  1.0  -0.1345
  C  C366  1  0.553140  0.678340  0.336010  1.0  -0.0585
  C  C367  1  0.524830  0.635060  0.352170  1.0  -0.1299
  C  C368  1  0.523680  0.620720  0.410510  1.0  0.0634
  C  C369  1  0.551650  0.650810  0.453060  1.0  -0.1762
  C  C370  1  0.580040  0.694280  0.436740  1.0  -0.052
  C  C371  1  0.495230  0.573860  0.428760  1.0  -0.0116
  C  C372  1  0.513540  0.553870  0.463130  1.0  -0.1141
  C  C373  1  0.411800  0.621730  0.360600  1.0  0.1002
  C  C374  1  0.384700  0.572700  0.456600  1.0  0.01
  C  C375  1  0.278920  0.088320  0.694440  1.0  0.678
  C  C376  1  0.247480  0.041600  0.711830  1.0  -0.1345
  C  C377  1  0.219810  0.011670  0.669340  1.0  -0.0585
  C  C378  1  0.191500  0.968390  0.685500  1.0  -0.1299
  C  C379  1  0.190350  0.954050  0.743840  1.0  0.0634
  C  C380  1  0.218320  0.984140  0.786390  1.0  -0.1762
  C  C381  1  0.246710  0.027610  0.770070  1.0  -0.052
  C  C382  1  0.161900  0.907190  0.762090  1.0  -0.0129
  C  C383  1  0.180210  0.887200  0.796460  1.0  -0.1141
  C  C384  1  0.078470  0.955060  0.693930  1.0  0.0972
  C  C385  1  0.051370  0.906030  0.789930  1.0  0.007
  C  C386  1  0.945580  0.421660  0.027780  1.0  0.678
  C  C387  1  0.914140  0.374940  0.045170  1.0  -0.1342
  C  C388  1  0.886470  0.345010  0.002680  1.0  -0.0585
  C  C389  1  0.858160  0.301730  0.018840  1.0  -0.1299
  C  C390  1  0.857010  0.287390  0.077180  1.0  0.0634
  C  C391  1  0.884980  0.317480  0.119730  1.0  -0.1762
  C  C392  1  0.913370  0.360950  0.103410  1.0  -0.052
  C  C393  1  0.828560  0.240530  0.095430  1.0  -0.0116
  C  C394  1  0.846870  0.220540  0.129800  1.0  -0.1141
  C  C395  1  0.745130  0.288400  0.027270  1.0  0.1002
  C  C396  1  0.718030  0.239370  0.123270  1.0  0.01
  C  C397  1  0.612250  0.857260  0.361110  1.0  0.6771
  C  C398  1  0.580810  0.872540  0.378500  1.0  -0.1382
  C  C399  1  0.553140  0.874800  0.336010  1.0  -0.0574
  C  C400  1  0.524830  0.889770  0.352170  1.0  -0.1278
  C  C401  1  0.523680  0.902960  0.410510  1.0  0.0629
  C  C402  1  0.551650  0.900840  0.453060  1.0  -0.1755
  C  C403  1  0.580040  0.885760  0.436740  1.0  -0.0521
  C  C404  1  0.495230  0.921370  0.428760  1.0  -0.0133
  C  C405  1  0.513540  0.959670  0.463130  1.0  -0.1142
  C  C406  1  0.411800  0.790070  0.360600  1.0  0.1051
  C  C407  1  0.384700  0.812000  0.456600  1.0  0.0007
  C  C408  1  0.278920  0.190590  0.694440  1.0  0.6771
  C  C409  1  0.247480  0.205870  0.711830  1.0  -0.1382
  C  C410  1  0.219810  0.208130  0.669340  1.0  -0.0574
  C  C411  1  0.191500  0.223100  0.685500  1.0  -0.1278
  C  C412  1  0.190350  0.236290  0.743840  1.0  0.0629
  C  C413  1  0.218320  0.234170  0.786390  1.0  -0.1755
  C  C414  1  0.246710  0.219090  0.770070  1.0  -0.0521
  C  C415  1  0.161900  0.254700  0.762090  1.0  -0.0129
  C  C416  1  0.180210  0.293000  0.796460  1.0  -0.1142
  C  C417  1  0.078470  0.123400  0.693930  1.0  0.1019
  C  C418  1  0.051370  0.145330  0.789930  1.0  0.0047
  C  C419  1  0.945580  0.523930  0.027780  1.0  0.6772
  C  C420  1  0.914140  0.539210  0.045170  1.0  -0.1388
  C  C421  1  0.886470  0.541470  0.002680  1.0  -0.0574
  C  C422  1  0.858160  0.556440  0.018840  1.0  -0.1278
  C  C423  1  0.857010  0.569630  0.077180  1.0  0.0629
  C  C424  1  0.884980  0.567510  0.119730  1.0  -0.1755
  C  C425  1  0.913370  0.552430  0.103410  1.0  -0.0521
  C  C426  1  0.828560  0.588040  0.095430  1.0  -0.0115
  C  C427  1  0.846870  0.626340  0.129800  1.0  -0.1103
  C  C428  1  0.745130  0.456740  0.027270  1.0  0.1051
  C  C429  1  0.718030  0.478670  0.123270  1.0  0.0007
  C  C430  1  0.142740  0.754990  0.361110  1.0  0.6781
  C  C431  1  0.127460  0.708270  0.378500  1.0  -0.1349
  C  C432  1  0.125200  0.678340  0.336010  1.0  -0.0584
  C  C433  1  0.110230  0.635060  0.352170  1.0  -0.1299
  C  C434  1  0.097040  0.620720  0.410510  1.0  0.0627
  C  C435  1  0.099160  0.650810  0.453060  1.0  -0.1758
  C  C436  1  0.114240  0.694280  0.436740  1.0  -0.0533
  C  C437  1  0.078630  0.573860  0.428760  1.0  -0.0141
  C  C438  1  0.040330  0.553870  0.463130  1.0  -0.111
  C  C439  1  0.209930  0.621730  0.360600  1.0  0.0984
  C  C440  1  0.188000  0.572700  0.456600  1.0  0.0099
  C  C441  1  0.809410  0.088320  0.694440  1.0  0.6781
  C  C442  1  0.794130  0.041600  0.711830  1.0  -0.1349
  C  C443  1  0.791870  0.011670  0.669340  1.0  -0.0584
  C  C444  1  0.776900  0.968390  0.685500  1.0  -0.1299
  C  C445  1  0.763710  0.954050  0.743840  1.0  0.0628
  C  C446  1  0.765830  0.984140  0.786390  1.0  -0.1758
  C  C447  1  0.780910  0.027610  0.770070  1.0  -0.0533
  C  C448  1  0.745300  0.907190  0.762090  1.0  -0.0127
  C  C449  1  0.707000  0.887200  0.796460  1.0  -0.111
  C  C450  1  0.876600  0.955060  0.693930  1.0  0.1023
  C  C451  1  0.854670  0.906030  0.789930  1.0  0.0063
  C  C452  1  0.476070  0.421660  0.027780  1.0  0.6782
  C  C453  1  0.460790  0.374940  0.045170  1.0  -0.1349
  C  C454  1  0.458530  0.345010  0.002680  1.0  -0.0584
  C  C455  1  0.443560  0.301730  0.018840  1.0  -0.1299
  C  C456  1  0.430370  0.287390  0.077180  1.0  0.0627
  C  C457  1  0.432490  0.317480  0.119730  1.0  -0.1758
  C  C458  1  0.447570  0.360950  0.103410  1.0  -0.0533
  C  C459  1  0.411960  0.240530  0.095430  1.0  -0.0141
  C  C460  1  0.373660  0.220540  0.129800  1.0  -0.1156
  C  C461  1  0.543260  0.288400  0.027270  1.0  0.0984
  C  C462  1  0.521330  0.239370  0.123270  1.0  0.0099
  C  C463  1  0.245010  0.387750  0.361110  1.0  0.6776
  C  C464  1  0.291730  0.419190  0.378500  1.0  -0.1372
  C  C465  1  0.321660  0.446860  0.336010  1.0  -0.0572
  C  C466  1  0.364940  0.475170  0.352170  1.0  -0.1289
  C  C467  1  0.379280  0.476320  0.410510  1.0  0.0629
  C  C468  1  0.349190  0.448350  0.453060  1.0  -0.1767
  C  C469  1  0.305720  0.419960  0.436740  1.0  -0.053
  C  C470  1  0.426140  0.504770  0.428760  1.0  -0.0134
  C  C471  1  0.446130  0.486460  0.463130  1.0  -0.1123
  C  C472  1  0.378270  0.588200  0.360600  1.0  0.1005
  C  C473  1  0.427300  0.615300  0.456600  1.0  0.0063
  C  C474  1  0.911680  0.721080  0.694440  1.0  0.6776
  C  C475  1  0.958400  0.752520  0.711830  1.0  -0.1372
  C  C476  1  0.988330  0.780190  0.669340  1.0  -0.0572
  C  C477  1  0.031610  0.808500  0.685500  1.0  -0.1289
  C  C478  1  0.045950  0.809650  0.743840  1.0  0.0629
  C  C479  1  0.015860  0.781680  0.786390  1.0  -0.1767
  C  C480  1  0.972390  0.753290  0.770070  1.0  -0.053
  C  C481  1  0.092810  0.838100  0.762090  1.0  -0.0148
  C  C482  1  0.112800  0.819790  0.796460  1.0  -0.1122
  C  C483  1  0.044940  0.921530  0.693930  1.0  0.0965
  C  C484  1  0.093970  0.948630  0.789930  1.0  0.0014
  C  C485  1  0.578340  0.054420  0.027780  1.0  0.6776
  C  C486  1  0.625060  0.085860  0.045170  1.0  -0.137
  C  C487  1  0.654990  0.113530  0.002680  1.0  -0.0572
  C  C488  1  0.698270  0.141840  0.018840  1.0  -0.1289
  C  C489  1  0.712610  0.142990  0.077180  1.0  0.0629
  C  C490  1  0.682520  0.115020  0.119730  1.0  -0.1767
  C  C491  1  0.639050  0.086630  0.103410  1.0  -0.053
  C  C492  1  0.759470  0.171440  0.095430  1.0  -0.0134
  C  C493  1  0.779460  0.153130  0.129800  1.0  -0.1123
  C  C494  1  0.711600  0.254870  0.027270  1.0  0.1005
  C  C495  1  0.760630  0.281970  0.123270  1.0  0.0063
  C  C496  1  0.857260  0.612250  0.638890  1.0  0.678
  C  C497  1  0.872540  0.580810  0.621500  1.0  -0.1375
  C  C498  1  0.874800  0.553140  0.663990  1.0  -0.0594
  C  C499  1  0.889770  0.524830  0.647830  1.0  -0.1286
  C  C500  1  0.902960  0.523680  0.589490  1.0  0.0628
  C  C501  1  0.900840  0.551650  0.546940  1.0  -0.1761
  C  C502  1  0.885760  0.580040  0.563260  1.0  -0.0526
  C  C503  1  0.921370  0.495230  0.571240  1.0  -0.0148
  C  C504  1  0.959670  0.513540  0.536870  1.0  -0.1094
  C  C505  1  0.790070  0.411800  0.639400  1.0  0.1042
  C  C506  1  0.812000  0.384700  0.543400  1.0  0.0051
  C  C507  1  0.523930  0.945580  0.972220  1.0  0.6781
  C  C508  1  0.539210  0.914140  0.954830  1.0  -0.1382
  C  C509  1  0.541470  0.886470  0.997320  1.0  -0.0594
  C  C510  1  0.556440  0.858160  0.981160  1.0  -0.1286
  C  C511  1  0.569630  0.857010  0.922820  1.0  0.0629
  C  C512  1  0.567510  0.884980  0.880270  1.0  -0.1761
  C  C513  1  0.552430  0.913370  0.896590  1.0  -0.0526
  C  C514  1  0.588040  0.828560  0.904570  1.0  -0.0135
  C  C515  1  0.626340  0.846870  0.870200  1.0  -0.1047
  C  C516  1  0.456740  0.745130  0.972730  1.0  0.1042
  C  C517  1  0.478670  0.718030  0.876730  1.0  0.0051
  C  C518  1  0.190590  0.278920  0.305560  1.0  0.678
  C  C519  1  0.205870  0.247480  0.288170  1.0  -0.1375
  C  C520  1  0.208130  0.219810  0.330660  1.0  -0.0594
  C  C521  1  0.223100  0.191500  0.314500  1.0  -0.1286
  C  C522  1  0.236290  0.190350  0.256160  1.0  0.0628
  C  C523  1  0.234170  0.218320  0.213610  1.0  -0.1761
  C  C524  1  0.219090  0.246710  0.229930  1.0  -0.0526
  C  C525  1  0.254700  0.161900  0.237910  1.0  -0.0148
  C  C526  1  0.293000  0.180210  0.203540  1.0  -0.1094
  C  C527  1  0.123400  0.078470  0.306070  1.0  0.101
  C  C528  1  0.145330  0.051370  0.210070  1.0  0.0071
  C  C529  1  0.754990  0.142740  0.638890  1.0  0.6776
  C  C530  1  0.708270  0.127460  0.621500  1.0  -0.1388
  C  C531  1  0.678340  0.125200  0.663990  1.0  -0.0588
  C  C532  1  0.635060  0.110230  0.647830  1.0  -0.1286
  C  C533  1  0.620720  0.097040  0.589490  1.0  0.0627
  C  C534  1  0.650810  0.099160  0.546940  1.0  -0.1745
  C  C535  1  0.694280  0.114240  0.563260  1.0  -0.0524
  C  C536  1  0.573860  0.078630  0.571240  1.0  -0.0124
  C  C537  1  0.553870  0.040330  0.536870  1.0  -0.1092
  C  C538  1  0.621730  0.209930  0.639400  1.0  0.0962
  C  C539  1  0.572700  0.188000  0.543400  1.0  0.0088
  C  C540  1  0.421660  0.476070  0.972220  1.0  0.6777
  C  C541  1  0.374940  0.460790  0.954830  1.0  -0.1388
  C  C542  1  0.345010  0.458530  0.997320  1.0  -0.0589
  C  C543  1  0.301730  0.443560  0.981160  1.0  -0.1286
  C  C544  1  0.287390  0.430370  0.922820  1.0  0.0627
  C  C545  1  0.317480  0.432490  0.880270  1.0  -0.1745
  C  C546  1  0.360950  0.447570  0.896590  1.0  -0.0524
  C  C547  1  0.240530  0.411960  0.904570  1.0  -0.0124
  C  C548  1  0.220540  0.373660  0.870200  1.0  -0.113
  C  C549  1  0.288400  0.543260  0.972730  1.0  0.0962
  C  C550  1  0.239370  0.521330  0.876730  1.0  0.0088
  C  C551  1  0.088320  0.809410  0.305560  1.0  0.6776
  C  C552  1  0.041600  0.794130  0.288170  1.0  -0.1388
  C  C553  1  0.011670  0.791870  0.330660  1.0  -0.0588
  C  C554  1  0.968390  0.776900  0.314500  1.0  -0.1286
  C  C555  1  0.954050  0.763710  0.256160  1.0  0.0627
  C  C556  1  0.984140  0.765830  0.213610  1.0  -0.1745
  C  C557  1  0.027610  0.780910  0.229930  1.0  -0.0524
  C  C558  1  0.907190  0.745300  0.237910  1.0  -0.011
  C  C559  1  0.887200  0.707000  0.203540  1.0  -0.1092
  C  C560  1  0.955060  0.876600  0.306070  1.0  0.1028
  C  C561  1  0.906030  0.854670  0.210070  1.0  0.004
  C  C562  1  0.387750  0.245010  0.638890  1.0  0.6779
  C  C563  1  0.419190  0.291730  0.621500  1.0  -0.1358
  C  C564  1  0.446860  0.321660  0.663990  1.0  -0.0588
  C  C565  1  0.475170  0.364940  0.647830  1.0  -0.1304
  C  C566  1  0.476320  0.379280  0.589490  1.0  0.0627
  C  C567  1  0.448350  0.349190  0.546940  1.0  -0.1752
  C  C568  1  0.419960  0.305720  0.563260  1.0  -0.0528
  C  C569  1  0.504770  0.426140  0.571240  1.0  -0.015
  C  C570  1  0.486460  0.446130  0.536870  1.0  -0.1147
  C  C571  1  0.588200  0.378270  0.639400  1.0  0.0995
  C  C572  1  0.615300  0.427300  0.543400  1.0  0.0105
  C  C573  1  0.054420  0.578340  0.972220  1.0  0.6779
  C  C574  1  0.085860  0.625060  0.954830  1.0  -0.1356
  C  C575  1  0.113530  0.654990  0.997320  1.0  -0.0588
  C  C576  1  0.141840  0.698270  0.981160  1.0  -0.1304
  C  C577  1  0.142990  0.712610  0.922820  1.0  0.0627
  C  C578  1  0.115020  0.682520  0.880270  1.0  -0.1752
  C  C579  1  0.086630  0.639050  0.896590  1.0  -0.0528
  C  C580  1  0.171440  0.759470  0.904570  1.0  -0.0138
  C  C581  1  0.153130  0.779460  0.870200  1.0  -0.1147
  C  C582  1  0.254870  0.711600  0.972730  1.0  0.0995
  C  C583  1  0.281970  0.760630  0.876730  1.0  0.0105
  C  C584  1  0.721080  0.911680  0.305560  1.0  0.6779
  C  C585  1  0.752520  0.958400  0.288170  1.0  -0.1358
  C  C586  1  0.780190  0.988330  0.330660  1.0  -0.0588
  C  C587  1  0.808500  0.031610  0.314500  1.0  -0.1304
  C  C588  1  0.809650  0.045950  0.256160  1.0  0.0627
  C  C589  1  0.781680  0.015860  0.213610  1.0  -0.1751
  C  C590  1  0.753290  0.972390  0.229930  1.0  -0.0528
  C  C591  1  0.838100  0.092810  0.237910  1.0  -0.015
  C  C592  1  0.819790  0.112800  0.203540  1.0  -0.1147
  C  C593  1  0.921530  0.044940  0.306070  1.0  0.0936
  C  C594  1  0.948630  0.093970  0.210070  1.0  0.0086
  C  C595  1  0.510170  0.020340  0.518130  1.0  -0.0468
  C  C596  1  0.548900  0.097810  0.588640  1.0  0.2044
  C  C597  1  0.588120  0.176240  0.591800  1.0  0.1239
  C  C598  1  0.176840  0.353670  0.851460  1.0  -0.0468
  C  C599  1  0.215570  0.431140  0.921970  1.0  0.2044
  C  C600  1  0.254790  0.509570  0.925130  1.0  0.1239
  C  C601  1  0.843500  0.687010  0.184800  1.0  -0.0468
  C  C602  1  0.882240  0.764480  0.255310  1.0  0.2044
  C  C603  1  0.921450  0.842910  0.258470  1.0  0.1239
  C  C604  1  0.979660  0.489830  0.518130  1.0  -0.0493
  C  C605  1  0.902190  0.451090  0.588640  1.0  0.2045
  C  C606  1  0.823760  0.411880  0.591800  1.0  0.1225
  C  C607  1  0.646330  0.823160  0.851460  1.0  -0.0493
  C  C608  1  0.568860  0.784430  0.921970  1.0  0.2045
  C  C609  1  0.490430  0.745210  0.925130  1.0  0.1225
  C  C610  1  0.312990  0.156500  0.184800  1.0  -0.0493
  C  C611  1  0.235520  0.117760  0.255310  1.0  0.2045
  C  C612  1  0.157090  0.078550  0.258470  1.0  0.1225
  C  C613  1  0.510170  0.489830  0.518130  1.0  -0.0458
  C  C614  1  0.548910  0.451090  0.588640  1.0  0.2239
  C  C615  1  0.588120  0.411880  0.591800  1.0  0.1099
  C  C616  1  0.176840  0.823160  0.851460  1.0  -0.0458
  C  C617  1  0.215570  0.784430  0.921970  1.0  0.2024
  C  C618  1  0.254790  0.745210  0.925130  1.0  0.1099
  C  C619  1  0.843500  0.156500  0.184800  1.0  -0.0458
  C  C620  1  0.882240  0.117760  0.255310  1.0  0.2043
  C  C621  1  0.921450  0.078550  0.258470  1.0  0.1236
  C  C622  1  0.020340  0.510170  0.481870  1.0  -0.0491
  C  C623  1  0.097810  0.548900  0.411360  1.0  0.2052
  C  C624  1  0.176240  0.588120  0.408200  1.0  0.1237
  C  C625  1  0.687010  0.843500  0.815200  1.0  -0.0491
  C  C626  1  0.764480  0.882240  0.744690  1.0  0.2052
  C  C627  1  0.842910  0.921450  0.741530  1.0  0.1237
  C  C628  1  0.353670  0.176840  0.148540  1.0  -0.0491
  C  C629  1  0.431140  0.215570  0.078030  1.0  0.2052
  C  C630  1  0.509570  0.254790  0.074870  1.0  0.1237
  C  C631  1  0.489830  0.979660  0.481870  1.0  -0.0468
  C  C632  1  0.451090  0.902190  0.411360  1.0  0.2054
  C  C633  1  0.411880  0.823760  0.408200  1.0  0.1225
  C  C634  1  0.156500  0.312990  0.815200  1.0  -0.0468
  C  C635  1  0.117760  0.235520  0.744690  1.0  0.2053
  C  C636  1  0.078550  0.157090  0.741530  1.0  0.1225
  C  C637  1  0.823160  0.646330  0.148540  1.0  -0.0468
  C  C638  1  0.784430  0.568860  0.078030  1.0  0.2053
  C  C639  1  0.745210  0.490430  0.074870  1.0  0.1225
  C  C640  1  0.489830  0.510170  0.481870  1.0  -0.0468
  C  C641  1  0.451100  0.548900  0.411360  1.0  0.2036
  C  C642  1  0.411880  0.588120  0.408200  1.0  0.1093
  C  C643  1  0.156500  0.843500  0.815200  1.0  -0.0468
  C  C644  1  0.117760  0.882240  0.744690  1.0  0.2056
  C  C645  1  0.078550  0.921450  0.741530  1.0  0.1228
  C  C646  1  0.823160  0.176840  0.148540  1.0  -0.0468
  C  C647  1  0.784430  0.215570  0.078030  1.0  0.2036
  C  C648  1  0.745210  0.254790  0.074870  1.0  0.1093
  O  O649  1  0.362190  0.141850  0.598060  1.0  -0.5781
  O  O650  1  0.389240  0.155250  0.692250  1.0  -0.5652
  O  O651  1  0.028860  0.475180  0.931390  1.0  -0.578
  O  O652  1  0.055910  0.488580  0.025580  1.0  -0.5655
  O  O653  1  0.695520  0.808520  0.264730  1.0  -0.5801
  O  O654  1  0.722570  0.821920  0.358920  1.0  -0.5693
  O  O655  1  0.858150  0.220340  0.598060  1.0  -0.5786
  O  O656  1  0.844750  0.233990  0.692250  1.0  -0.5663
  O  O657  1  0.524820  0.553670  0.931390  1.0  -0.5786
  O  O658  1  0.511420  0.567320  0.025580  1.0  -0.5672
  O  O659  1  0.191480  0.887010  0.264730  1.0  -0.5786
  O  O660  1  0.178080  0.900660  0.358920  1.0  -0.5663
  O  O661  1  0.779660  0.637810  0.598060  1.0  -0.5798
  O  O662  1  0.766010  0.610760  0.692250  1.0  -0.5699
  O  O663  1  0.446330  0.971140  0.931390  1.0  -0.5798
  O  O664  1  0.432680  0.944090  0.025580  1.0  -0.5699
  O  O665  1  0.112990  0.304480  0.264730  1.0  -0.5785
  O  O666  1  0.099340  0.277430  0.358920  1.0  -0.5663
  O  O667  1  0.141850  0.362190  0.401940  1.0  -0.5771
  O  O668  1  0.155250  0.389240  0.307750  1.0  -0.5662
  O  O669  1  0.808520  0.695520  0.735270  1.0  -0.5791
  O  O670  1  0.821920  0.722570  0.641080  1.0  -0.5702
  O  O671  1  0.475180  0.028860  0.068610  1.0  -0.577
  O  O672  1  0.488580  0.055910  0.974420  1.0  -0.5665
  O  O673  1  0.220340  0.858150  0.401940  1.0  -0.5764
  O  O674  1  0.233990  0.844750  0.307750  1.0  -0.5662
  O  O675  1  0.887010  0.191480  0.735270  1.0  -0.5764
  O  O676  1  0.900660  0.178080  0.641080  1.0  -0.5662
  O  O677  1  0.553670  0.524820  0.068610  1.0  -0.5763
  O  O678  1  0.567320  0.511420  0.974420  1.0  -0.567
  O  O679  1  0.637810  0.779660  0.401940  1.0  -0.5779
  O  O680  1  0.610760  0.766010  0.307750  1.0  -0.57
  O  O681  1  0.304480  0.112990  0.735270  1.0  -0.5762
  O  O682  1  0.277430  0.099340  0.641080  1.0  -0.5663
  O  O683  1  0.971140  0.446330  0.068610  1.0  -0.578
  O  O684  1  0.944090  0.432680  0.974420  1.0  -0.57
  O  O685  1  0.637810  0.858150  0.401940  1.0  -0.5769
  O  O686  1  0.610760  0.844750  0.307750  1.0  -0.5664
  O  O687  1  0.304480  0.191480  0.735270  1.0  -0.5786
  O  O688  1  0.277430  0.178080  0.641080  1.0  -0.5704
  O  O689  1  0.971140  0.524820  0.068610  1.0  -0.5768
  O  O690  1  0.944090  0.511420  0.974420  1.0  -0.5667
  O  O691  1  0.141850  0.779660  0.401940  1.0  -0.5773
  O  O692  1  0.155250  0.766010  0.307750  1.0  -0.5656
  O  O693  1  0.808520  0.112990  0.735270  1.0  -0.5773
  O  O694  1  0.821920  0.099340  0.641080  1.0  -0.5656
  O  O695  1  0.475180  0.446330  0.068610  1.0  -0.5772
  O  O696  1  0.488580  0.432680  0.974420  1.0  -0.5664
  O  O697  1  0.220340  0.362190  0.401940  1.0  -0.5786
  O  O698  1  0.233990  0.389240  0.307750  1.0  -0.5706
  O  O699  1  0.887010  0.695520  0.735270  1.0  -0.5769
  O  O700  1  0.900660  0.722570  0.641080  1.0  -0.5664
  O  O701  1  0.553670  0.028860  0.068610  1.0  -0.5787
  O  O702  1  0.567320  0.055910  0.974420  1.0  -0.5706
  O  O703  1  0.858150  0.637810  0.598060  1.0  -0.5789
  O  O704  1  0.844750  0.610760  0.692250  1.0  -0.566
  O  O705  1  0.524820  0.971140  0.931390  1.0  -0.5788
  O  O706  1  0.511420  0.944090  0.025580  1.0  -0.5664
  O  O707  1  0.191480  0.304480  0.264730  1.0  -0.5805
  O  O708  1  0.178080  0.277430  0.358920  1.0  -0.5702
  O  O709  1  0.779660  0.141850  0.598060  1.0  -0.5782
  O  O710  1  0.766010  0.155250  0.692250  1.0  -0.5667
  O  O711  1  0.446330  0.475180  0.931390  1.0  -0.5781
  O  O712  1  0.432680  0.488580  0.025580  1.0  -0.5676
  O  O713  1  0.112990  0.808520  0.264730  1.0  -0.5782
  O  O714  1  0.099340  0.821920  0.358920  1.0  -0.5667
  O  O715  1  0.362190  0.220340  0.598060  1.0  -0.5799
  O  O716  1  0.389240  0.233990  0.692250  1.0  -0.5685
  O  O717  1  0.028860  0.553670  0.931390  1.0  -0.5799
  O  O718  1  0.055910  0.567320  0.025580  1.0  -0.5685
  O  O719  1  0.695520  0.887010  0.264730  1.0  -0.5786
  O  O720  1  0.722570  0.900660  0.358920  1.0  -0.5649
  O  O721  1  0.567720  0.135450  0.622560  1.0  -0.2625
  O  O722  1  0.234390  0.468780  0.955890  1.0  -0.2625
  O  O723  1  0.901060  0.802120  0.289230  1.0  -0.2625
  O  O724  1  0.864550  0.432270  0.622560  1.0  -0.2617
  O  O725  1  0.531220  0.765610  0.955890  1.0  -0.2617
  O  O726  1  0.197880  0.098940  0.289230  1.0  -0.2617
  O  O727  1  0.567720  0.432280  0.622560  1.0  -0.2611
  O  O728  1  0.234390  0.765610  0.955890  1.0  -0.2611
  O  O729  1  0.901060  0.098940  0.289230  1.0  -0.261
  O  O730  1  0.135450  0.567720  0.377440  1.0  -0.262
  O  O731  1  0.802120  0.901060  0.710770  1.0  -0.262
  O  O732  1  0.468780  0.234390  0.044110  1.0  -0.262
  O  O733  1  0.432280  0.864550  0.377440  1.0  -0.2632
  O  O734  1  0.098940  0.197880  0.710770  1.0  -0.2632
  O  O735  1  0.765610  0.531220  0.044110  1.0  -0.2632
  O  O736  1  0.432280  0.567720  0.377440  1.0  -0.2623
  O  O737  1  0.098940  0.901060  0.710770  1.0  -0.2622
  O  O738  1  0.765610  0.234390  0.044110  1.0  -0.2623
