# generated using pymatgen
data_CuH16C23O5
_symmetry_space_group_name_H-M   'P 1'
_cell_length_a   35.06300000
_cell_length_b   35.06300000
_cell_length_c   22.59300000
_cell_angle_alpha   90.00000000
_cell_angle_beta   90.00000000
_cell_angle_gamma   120.00000000
_symmetry_Int_Tables_number   1
_chemical_formula_structural   CuH16C23O5
_chemical_formula_sum   'Cu18 H288 C414 O90'
_cell_volume   24054.85134752
_cell_formula_units_Z   18
loop_
 _symmetry_equiv_pos_site_id
 _symmetry_equiv_pos_as_xyz
  1  'x, y, z'
loop_
 _atom_site_type_symbol
 _atom_site_label
 _atom_site_symmetry_multiplicity
 _atom_site_fract_x
 _atom_site_fract_y
 _atom_site_fract_z
 _atom_site_occupancy
 _atom_site_charge
  Cu  Cu1  1  0.508440  0.016890  0.947320  1.0  0.93
  Cu  Cu2  1  0.175110  0.350220  0.280650  1.0  0.93
  Cu  Cu3  1  0.841780  0.683560  0.613990  1.0  0.9301
  Cu  Cu4  1  0.983110  0.491560  0.947320  1.0  0.9295
  Cu  Cu5  1  0.649780  0.824890  0.280650  1.0  0.9295
  Cu  Cu6  1  0.316440  0.158220  0.613990  1.0  0.9295
  Cu  Cu7  1  0.508440  0.491560  0.947320  1.0  0.9271
  Cu  Cu8  1  0.175110  0.824890  0.280650  1.0  0.9271
  Cu  Cu9  1  0.841780  0.158220  0.613990  1.0  0.928
  Cu  Cu10  1  0.016890  0.508440  0.052680  1.0  0.9295
  Cu  Cu11  1  0.683560  0.841780  0.386010  1.0  0.9296
  Cu  Cu12  1  0.350220  0.175110  0.719350  1.0  0.9295
  Cu  Cu13  1  0.491560  0.983110  0.052680  1.0  0.9298
  Cu  Cu14  1  0.158220  0.316440  0.386010  1.0  0.9299
  Cu  Cu15  1  0.824890  0.649780  0.719350  1.0  0.9298
  Cu  Cu16  1  0.491560  0.508450  0.052680  1.0  0.9275
  Cu  Cu17  1  0.158220  0.841780  0.386010  1.0  0.9275
  Cu  Cu18  1  0.824890  0.175110  0.719350  1.0  0.9266
  H  H19  1  0.648000  0.112900  0.965700  1.0  0.1298
  H  H20  1  0.718300  0.162600  0.997700  1.0  0.0918
  H  H21  1  0.689200  0.114000  0.159500  1.0  0.1423
  H  H22  1  0.618200  0.065300  0.127000  1.0  0.1036
  H  H23  1  0.763100  0.123000  0.141700  1.0  0.1488
  H  H24  1  0.741700  0.303000  0.029100  1.0  0.132
  H  H25  1  0.709800  0.245500  0.128800  1.0  0.123
  H  H26  1  0.314670  0.446230  0.299030  1.0  0.1298
  H  H27  1  0.384970  0.495930  0.331030  1.0  0.0918
  H  H28  1  0.355870  0.447330  0.492830  1.0  0.1423
  H  H29  1  0.284870  0.398630  0.460330  1.0  0.104
  H  H30  1  0.429770  0.456330  0.475030  1.0  0.1487
  H  H31  1  0.408370  0.636330  0.362430  1.0  0.132
  H  H32  1  0.376470  0.578830  0.462130  1.0  0.123
  H  H33  1  0.981330  0.779570  0.632370  1.0  0.1298
  H  H34  1  0.051630  0.829270  0.664370  1.0  0.0918
  H  H35  1  0.022530  0.780670  0.826170  1.0  0.1423
  H  H36  1  0.951530  0.731970  0.793670  1.0  0.1036
  H  H37  1  0.096430  0.789670  0.808370  1.0  0.1488
  H  H38  1  0.075030  0.969670  0.695770  1.0  0.132
  H  H39  1  0.043130  0.912170  0.795470  1.0  0.1229
  H  H40  1  0.887100  0.535100  0.965700  1.0  0.1293
  H  H41  1  0.837400  0.555700  0.997700  1.0  0.0927
  H  H42  1  0.886000  0.575200  0.159500  1.0  0.1414
  H  H43  1  0.934700  0.552900  0.127000  1.0  0.1037
  H  H44  1  0.877000  0.640100  0.141700  1.0  0.1495
  H  H45  1  0.697000  0.438700  0.029100  1.0  0.1277
  H  H46  1  0.754500  0.464300  0.128800  1.0  0.1105
  H  H47  1  0.553770  0.868430  0.299030  1.0  0.1293
  H  H48  1  0.504070  0.889030  0.331030  1.0  0.0927
  H  H49  1  0.552670  0.908530  0.492830  1.0  0.1414
  H  H50  1  0.601370  0.886230  0.460330  1.0  0.1031
  H  H51  1  0.543670  0.973430  0.475030  1.0  0.1495
  H  H52  1  0.363670  0.772030  0.362430  1.0  0.1277
  H  H53  1  0.421170  0.797630  0.462130  1.0  0.1105
  H  H54  1  0.220430  0.201770  0.632370  1.0  0.1293
  H  H55  1  0.170730  0.222370  0.664370  1.0  0.0916
  H  H56  1  0.219330  0.241870  0.826170  1.0  0.1414
  H  H57  1  0.268030  0.219570  0.793670  1.0  0.1037
  H  H58  1  0.210330  0.306770  0.808370  1.0  0.1495
  H  H59  1  0.030330  0.105370  0.695770  1.0  0.1277
  H  H60  1  0.087830  0.130970  0.795470  1.0  0.1095
  H  H61  1  0.464900  0.352000  0.965700  1.0  0.1295
  H  H62  1  0.444300  0.281700  0.997700  1.0  0.091
  H  H63  1  0.424800  0.310800  0.159500  1.0  0.1422
  H  H64  1  0.447100  0.381800  0.127000  1.0  0.1035
  H  H65  1  0.359900  0.236900  0.141700  1.0  0.1489
  H  H66  1  0.561300  0.258300  0.029100  1.0  0.1324
  H  H67  1  0.535700  0.290200  0.128800  1.0  0.1231
  H  H68  1  0.131570  0.685330  0.299030  1.0  0.1295
  H  H69  1  0.110970  0.615030  0.331030  1.0  0.091
  H  H70  1  0.091470  0.644130  0.492830  1.0  0.1422
  H  H71  1  0.113770  0.715130  0.460330  1.0  0.1035
  H  H72  1  0.026570  0.570230  0.475030  1.0  0.1487
  H  H73  1  0.227970  0.591630  0.362430  1.0  0.1324
  H  H74  1  0.202370  0.623530  0.462130  1.0  0.1231
  H  H75  1  0.798230  0.018670  0.632370  1.0  0.1295
  H  H76  1  0.777630  0.948370  0.664370  1.0  0.0924
  H  H77  1  0.758130  0.977470  0.826170  1.0  0.1422
  H  H78  1  0.780430  0.048470  0.793670  1.0  0.1035
  H  H79  1  0.693230  0.903570  0.808370  1.0  0.1489
  H  H80  1  0.894630  0.924970  0.695770  1.0  0.1324
  H  H81  1  0.869030  0.956870  0.795470  1.0  0.1235
  H  H82  1  0.112900  0.648000  0.034300  1.0  0.1295
  H  H83  1  0.162600  0.718300  0.002300  1.0  0.0918
  H  H84  1  0.114000  0.689200  0.840500  1.0  0.1421
  H  H85  1  0.065300  0.618200  0.873000  1.0  0.1035
  H  H86  1  0.123000  0.763100  0.858300  1.0  0.1495
  H  H87  1  0.303000  0.741700  0.970900  1.0  0.1332
  H  H88  1  0.245500  0.709800  0.871200  1.0  0.1232
  H  H89  1  0.779570  0.981330  0.367630  1.0  0.1295
  H  H90  1  0.829270  0.051630  0.335630  1.0  0.0918
  H  H91  1  0.780670  0.022530  0.173830  1.0  0.1421
  H  H92  1  0.731970  0.951530  0.206330  1.0  0.1035
  H  H93  1  0.789670  0.096430  0.191630  1.0  0.1495
  H  H94  1  0.969670  0.075030  0.304230  1.0  0.1332
  H  H95  1  0.912170  0.043130  0.204530  1.0  0.1232
  H  H96  1  0.446230  0.314670  0.700970  1.0  0.1295
  H  H97  1  0.495930  0.384970  0.668970  1.0  0.0918
  H  H98  1  0.447330  0.355870  0.507170  1.0  0.1421
  H  H99  1  0.398630  0.284870  0.539670  1.0  0.1039
  H  H100  1  0.456330  0.429770  0.524970  1.0  0.1494
  H  H101  1  0.636330  0.408370  0.637570  1.0  0.1332
  H  H102  1  0.578830  0.376470  0.537870  1.0  0.1232
  H  H103  1  0.535100  0.887100  0.034300  1.0  0.1297
  H  H104  1  0.555700  0.837400  0.002300  1.0  0.0916
  H  H105  1  0.575200  0.886000  0.840500  1.0  0.1416
  H  H106  1  0.552900  0.934700  0.873000  1.0  0.1038
  H  H107  1  0.640100  0.877000  0.858300  1.0  0.1489
  H  H108  1  0.438700  0.697000  0.970900  1.0  0.1332
  H  H109  1  0.464300  0.754500  0.871200  1.0  0.1221
  H  H110  1  0.201770  0.220430  0.367630  1.0  0.1297
  H  H111  1  0.222370  0.170730  0.335630  1.0  0.0903
  H  H112  1  0.241870  0.219330  0.173830  1.0  0.1416
  H  H113  1  0.219570  0.268030  0.206330  1.0  0.1038
  H  H114  1  0.306770  0.210330  0.191630  1.0  0.1489
  H  H115  1  0.105370  0.030330  0.304230  1.0  0.1332
  H  H116  1  0.130970  0.087830  0.204530  1.0  0.1205
  H  H117  1  0.868430  0.553770  0.700970  1.0  0.1297
  H  H118  1  0.889030  0.504070  0.668970  1.0  0.0916
  H  H119  1  0.908530  0.552670  0.507170  1.0  0.1416
  H  H120  1  0.886230  0.601370  0.539670  1.0  0.1032
  H  H121  1  0.973430  0.543670  0.524970  1.0  0.1489
  H  H122  1  0.772030  0.363670  0.637570  1.0  0.1332
  H  H123  1  0.797630  0.421170  0.537870  1.0  0.1221
  H  H124  1  0.352000  0.464900  0.034300  1.0  0.1291
  H  H125  1  0.281700  0.444300  0.002300  1.0  0.0906
  H  H126  1  0.310800  0.424800  0.840500  1.0  0.1418
  H  H127  1  0.381800  0.447100  0.873000  1.0  0.1045
  H  H128  1  0.236900  0.359900  0.858300  1.0  0.1501
  H  H129  1  0.258300  0.561300  0.970900  1.0  0.1278
  H  H130  1  0.290200  0.535700  0.871200  1.0  0.1105
  H  H131  1  0.018670  0.798230  0.367630  1.0  0.1291
  H  H132  1  0.948370  0.777630  0.335630  1.0  0.0917
  H  H133  1  0.977470  0.758130  0.173830  1.0  0.1418
  H  H134  1  0.048470  0.780430  0.206330  1.0  0.1045
  H  H135  1  0.903570  0.693230  0.191630  1.0  0.1501
  H  H136  1  0.924970  0.894630  0.304230  1.0  0.1278
  H  H137  1  0.956870  0.869030  0.204530  1.0  0.1107
  H  H138  1  0.685330  0.131570  0.700970  1.0  0.1291
  H  H139  1  0.615030  0.110970  0.668970  1.0  0.0906
  H  H140  1  0.644130  0.091470  0.507170  1.0  0.1418
  H  H141  1  0.715130  0.113770  0.539670  1.0  0.1045
  H  H142  1  0.570230  0.026570  0.524970  1.0  0.15
  H  H143  1  0.591630  0.227970  0.637570  1.0  0.1278
  H  H144  1  0.623530  0.202370  0.537870  1.0  0.1105
  H  H145  1  0.352000  0.887100  0.034300  1.0  0.1297
  H  H146  1  0.281700  0.837400  0.002300  1.0  0.0916
  H  H147  1  0.310800  0.886000  0.840500  1.0  0.1422
  H  H148  1  0.381800  0.934700  0.873000  1.0  0.1036
  H  H149  1  0.236900  0.877000  0.858300  1.0  0.1488
  H  H150  1  0.258300  0.697000  0.970900  1.0  0.1344
  H  H151  1  0.290200  0.754500  0.871200  1.0  0.1235
  H  H152  1  0.018670  0.220430  0.367630  1.0  0.1297
  H  H153  1  0.948370  0.170730  0.335630  1.0  0.0916
  H  H154  1  0.977470  0.219330  0.173830  1.0  0.1422
  H  H155  1  0.048470  0.268030  0.206330  1.0  0.1036
  H  H156  1  0.903570  0.210330  0.191630  1.0  0.1488
  H  H157  1  0.924970  0.030330  0.304230  1.0  0.1344
  H  H158  1  0.956870  0.087830  0.204530  1.0  0.1233
  H  H159  1  0.685330  0.553770  0.700970  1.0  0.1297
  H  H160  1  0.615030  0.504070  0.668970  1.0  0.0916
  H  H161  1  0.644130  0.552670  0.507170  1.0  0.1422
  H  H162  1  0.715130  0.601370  0.539670  1.0  0.1042
  H  H163  1  0.570230  0.543670  0.524970  1.0  0.1488
  H  H164  1  0.591630  0.363670  0.637570  1.0  0.1344
  H  H165  1  0.623530  0.421170  0.537870  1.0  0.1235
  H  H166  1  0.112900  0.464900  0.034300  1.0  0.1291
  H  H167  1  0.162600  0.444300  0.002300  1.0  0.0924
  H  H168  1  0.114000  0.424800  0.840500  1.0  0.1413
  H  H169  1  0.065300  0.447100  0.873000  1.0  0.1042
  H  H170  1  0.123000  0.359900  0.858300  1.0  0.1497
  H  H171  1  0.303000  0.561300  0.970900  1.0  0.1244
  H  H172  1  0.245500  0.535700  0.871200  1.0  0.1204
  H  H173  1  0.779570  0.798230  0.367630  1.0  0.1291
  H  H174  1  0.829270  0.777630  0.335630  1.0  0.0915
  H  H175  1  0.780670  0.758130  0.173830  1.0  0.1413
  H  H176  1  0.731970  0.780430  0.206330  1.0  0.1042
  H  H177  1  0.789670  0.693230  0.191630  1.0  0.1497
  H  H178  1  0.969670  0.894630  0.304230  1.0  0.1244
  H  H179  1  0.912170  0.869030  0.204530  1.0  0.1193
  H  H180  1  0.446230  0.131570  0.700970  1.0  0.1291
  H  H181  1  0.495930  0.110970  0.668970  1.0  0.0924
  H  H182  1  0.447330  0.091470  0.507170  1.0  0.1413
  H  H183  1  0.398630  0.113770  0.539670  1.0  0.1036
  H  H184  1  0.456330  0.026570  0.524970  1.0  0.1498
  H  H185  1  0.636330  0.227970  0.637570  1.0  0.1244
  H  H186  1  0.578830  0.202370  0.537870  1.0  0.1204
  H  H187  1  0.535100  0.648000  0.034300  1.0  0.1295
  H  H188  1  0.555700  0.718300  0.002300  1.0  0.09
  H  H189  1  0.575200  0.689200  0.840500  1.0  0.1421
  H  H190  1  0.552900  0.618200  0.873000  1.0  0.1041
  H  H191  1  0.640100  0.763100  0.858300  1.0  0.1495
  H  H192  1  0.438700  0.741700  0.970900  1.0  0.1309
  H  H193  1  0.464300  0.709800  0.871200  1.0  0.1213
  H  H194  1  0.201770  0.981330  0.367630  1.0  0.1295
  H  H195  1  0.222370  0.051630  0.335630  1.0  0.0912
  H  H196  1  0.241870  0.022530  0.173830  1.0  0.1421
  H  H197  1  0.219570  0.951530  0.206330  1.0  0.1041
  H  H198  1  0.306770  0.096430  0.191630  1.0  0.1495
  H  H199  1  0.105370  0.075030  0.304230  1.0  0.1309
  H  H200  1  0.130970  0.043130  0.204530  1.0  0.1217
  H  H201  1  0.868430  0.314670  0.700970  1.0  0.1295
  H  H202  1  0.889030  0.384970  0.668970  1.0  0.09
  H  H203  1  0.908530  0.355870  0.507170  1.0  0.1421
  H  H204  1  0.886230  0.284870  0.539670  1.0  0.1041
  H  H205  1  0.973430  0.429770  0.524970  1.0  0.1493
  H  H206  1  0.772030  0.408370  0.637570  1.0  0.1309
  H  H207  1  0.797630  0.376470  0.537870  1.0  0.1213
  H  H208  1  0.887100  0.352000  0.965700  1.0  0.1297
  H  H209  1  0.837400  0.281700  0.997700  1.0  0.092
  H  H210  1  0.886000  0.310800  0.159500  1.0  0.1417
  H  H211  1  0.934700  0.381800  0.127000  1.0  0.1029
  H  H212  1  0.877000  0.236900  0.141700  1.0  0.1489
  H  H213  1  0.697000  0.258300  0.029100  1.0  0.1302
  H  H214  1  0.754500  0.290200  0.128800  1.0  0.1234
  H  H215  1  0.553770  0.685330  0.299030  1.0  0.1297
  H  H216  1  0.504070  0.615030  0.331030  1.0  0.092
  H  H217  1  0.552670  0.644130  0.492830  1.0  0.1417
  H  H218  1  0.601370  0.715130  0.460330  1.0  0.1033
  H  H219  1  0.543670  0.570230  0.475030  1.0  0.1488
  H  H220  1  0.363670  0.591630  0.362430  1.0  0.1302
  H  H221  1  0.421170  0.623530  0.462130  1.0  0.1234
  H  H222  1  0.220430  0.018670  0.632370  1.0  0.1297
  H  H223  1  0.170730  0.948370  0.664370  1.0  0.092
  H  H224  1  0.219330  0.977470  0.826170  1.0  0.1417
  H  H225  1  0.268030  0.048470  0.793670  1.0  0.1029
  H  H226  1  0.210330  0.903570  0.808370  1.0  0.1489
  H  H227  1  0.030330  0.924970  0.695770  1.0  0.1302
  H  H228  1  0.087830  0.956870  0.795470  1.0  0.1233
  H  H229  1  0.464900  0.112900  0.965700  1.0  0.1297
  H  H230  1  0.444300  0.162600  0.997700  1.0  0.0921
  H  H231  1  0.424800  0.114000  0.159500  1.0  0.1419
  H  H232  1  0.447100  0.065300  0.127000  1.0  0.104
  H  H233  1  0.359900  0.123000  0.141700  1.0  0.1485
  H  H234  1  0.561300  0.303000  0.029100  1.0  0.1327
  H  H235  1  0.535700  0.245500  0.128800  1.0  0.1224
  H  H236  1  0.131570  0.446230  0.299030  1.0  0.1297
  H  H237  1  0.110970  0.495930  0.331030  1.0  0.0921
  H  H238  1  0.091470  0.447330  0.492830  1.0  0.1419
  H  H239  1  0.113770  0.398630  0.460330  1.0  0.1035
  H  H240  1  0.026570  0.456330  0.475030  1.0  0.1486
  H  H241  1  0.227970  0.636330  0.362430  1.0  0.1327
  H  H242  1  0.202370  0.578830  0.462130  1.0  0.1224
  H  H243  1  0.798230  0.779570  0.632370  1.0  0.1297
  H  H244  1  0.777630  0.829270  0.664370  1.0  0.0908
  H  H245  1  0.758130  0.780670  0.826170  1.0  0.1419
  H  H246  1  0.780430  0.731970  0.793670  1.0  0.104
  H  H247  1  0.693230  0.789670  0.808370  1.0  0.1485
  H  H248  1  0.894630  0.969670  0.695770  1.0  0.1327
  H  H249  1  0.869030  0.912170  0.795470  1.0  0.1215
  H  H250  1  0.648000  0.535100  0.965700  1.0  0.1294
  H  H251  1  0.718300  0.555700  0.997700  1.0  0.0916
  H  H252  1  0.689200  0.575200  0.159500  1.0  0.1418
  H  H253  1  0.618200  0.552900  0.127000  1.0  0.1038
  H  H254  1  0.763100  0.640100  0.141700  1.0  0.1491
  H  H255  1  0.741700  0.438700  0.029100  1.0  0.1236
  H  H256  1  0.709800  0.464300  0.128800  1.0  0.1205
  H  H257  1  0.314670  0.868430  0.299030  1.0  0.1294
  H  H258  1  0.384970  0.889030  0.331030  1.0  0.0916
  H  H259  1  0.355870  0.908530  0.492830  1.0  0.1418
  H  H260  1  0.284870  0.886230  0.460330  1.0  0.1038
  H  H261  1  0.429770  0.973430  0.475030  1.0  0.1489
  H  H262  1  0.408370  0.772030  0.362430  1.0  0.1236
  H  H263  1  0.376470  0.797630  0.462130  1.0  0.1205
  H  H264  1  0.981330  0.201770  0.632370  1.0  0.1294
  H  H265  1  0.051630  0.222370  0.664370  1.0  0.0927
  H  H266  1  0.022530  0.241870  0.826170  1.0  0.1418
  H  H267  1  0.951530  0.219570  0.793670  1.0  0.1038
  H  H268  1  0.096430  0.306770  0.808370  1.0  0.1491
  H  H269  1  0.075030  0.105370  0.695770  1.0  0.1236
  H  H270  1  0.043130  0.130970  0.795470  1.0  0.1205
  H  H271  1  0.731600  0.268400  0.978800  1.0  0.1497
  H  H272  1  0.753200  0.246800  0.148700  1.0  0.1304
  H  H273  1  0.398270  0.601730  0.312130  1.0  0.1497
  H  H274  1  0.419870  0.580130  0.482030  1.0  0.1304
  H  H275  1  0.064930  0.935070  0.645470  1.0  0.1498
  H  H276  1  0.086530  0.913470  0.815370  1.0  0.1304
  H  H277  1  0.731600  0.463200  0.978800  1.0  0.1523
  H  H278  1  0.753200  0.506400  0.148700  1.0  0.1332
  H  H279  1  0.398270  0.796530  0.312130  1.0  0.1523
  H  H280  1  0.419870  0.839730  0.482030  1.0  0.1332
  H  H281  1  0.064930  0.129870  0.645470  1.0  0.1523
  H  H282  1  0.086530  0.173070  0.815370  1.0  0.1332
  H  H283  1  0.536800  0.268400  0.978800  1.0  0.1525
  H  H284  1  0.493600  0.246800  0.148700  1.0  0.1332
  H  H285  1  0.203470  0.601730  0.312130  1.0  0.1525
  H  H286  1  0.160270  0.580130  0.482030  1.0  0.1332
  H  H287  1  0.870130  0.935070  0.645470  1.0  0.1525
  H  H288  1  0.826930  0.913470  0.815370  1.0  0.1332
  H  H289  1  0.268400  0.731600  0.021200  1.0  0.1503
  H  H290  1  0.246800  0.753200  0.851300  1.0  0.1309
  H  H291  1  0.935070  0.064930  0.354530  1.0  0.1503
  H  H292  1  0.913470  0.086530  0.184630  1.0  0.1309
  H  H293  1  0.601730  0.398270  0.687870  1.0  0.1503
  H  H294  1  0.580130  0.419870  0.517970  1.0  0.1309
  H  H295  1  0.463200  0.731600  0.021200  1.0  0.1519
  H  H296  1  0.506400  0.753200  0.851300  1.0  0.1318
  H  H297  1  0.129870  0.064930  0.354530  1.0  0.1519
  H  H298  1  0.173070  0.086530  0.184630  1.0  0.1318
  H  H299  1  0.796530  0.398270  0.687870  1.0  0.1519
  H  H300  1  0.839730  0.419870  0.517970  1.0  0.1318
  H  H301  1  0.268400  0.536800  0.021200  1.0  0.1517
  H  H302  1  0.246800  0.493600  0.851300  1.0  0.1338
  H  H303  1  0.935070  0.870130  0.354530  1.0  0.1517
  H  H304  1  0.913470  0.826930  0.184630  1.0  0.1338
  H  H305  1  0.601730  0.203470  0.687870  1.0  0.1517
  H  H306  1  0.580130  0.160270  0.517970  1.0  0.1338
  C  C307  1  0.578270  0.053700  0.028100  1.0  0.7291
  C  C308  1  0.625000  0.084640  0.045700  1.0  -0.1226
  C  C309  1  0.655710  0.113090  0.005100  1.0  -0.0995
  C  C310  1  0.698620  0.142110  0.024600  1.0  -0.1043
  C  C311  1  0.712830  0.142270  0.077900  1.0  0.1209
  C  C312  1  0.681530  0.113780  0.120000  1.0  -0.1917
  C  C313  1  0.638430  0.085150  0.100000  1.0  -0.0434
  C  C314  1  0.759720  0.170550  0.096300  1.0  0.0114
  C  C315  1  0.779470  0.152510  0.131000  1.0  -0.1157
  C  C316  1  0.244940  0.387030  0.361430  1.0  0.7291
  C  C317  1  0.291670  0.417970  0.379030  1.0  -0.1226
  C  C318  1  0.322380  0.446420  0.338430  1.0  -0.0995
  C  C319  1  0.365290  0.475440  0.357930  1.0  -0.1043
  C  C320  1  0.379500  0.475600  0.411230  1.0  0.1209
  C  C321  1  0.348200  0.447110  0.453330  1.0  -0.1917
  C  C322  1  0.305100  0.418480  0.433330  1.0  -0.0434
  C  C323  1  0.426390  0.503880  0.429630  1.0  0.0114
  C  C324  1  0.446140  0.485840  0.464330  1.0  -0.116
  C  C325  1  0.911600  0.720370  0.694770  1.0  0.7291
  C  C326  1  0.958330  0.751310  0.712370  1.0  -0.1226
  C  C327  1  0.989040  0.779760  0.671770  1.0  -0.0995
  C  C328  1  0.031950  0.808780  0.691270  1.0  -0.1043
  C  C329  1  0.046160  0.808940  0.744570  1.0  0.1209
  C  C330  1  0.014860  0.780450  0.786670  1.0  -0.1917
  C  C331  1  0.971760  0.751820  0.766670  1.0  -0.0434
  C  C332  1  0.093050  0.837220  0.762970  1.0  0.0115
  C  C333  1  0.112800  0.819180  0.797670  1.0  -0.1157
  C  C334  1  0.946300  0.524570  0.028100  1.0  0.7281
  C  C335  1  0.915360  0.540360  0.045700  1.0  -0.1216
  C  C336  1  0.886910  0.542620  0.005100  1.0  -0.1005
  C  C337  1  0.857890  0.556510  0.024600  1.0  -0.1052
  C  C338  1  0.857730  0.570560  0.077900  1.0  0.1212
  C  C339  1  0.886220  0.567750  0.120000  1.0  -0.1885
  C  C340  1  0.914850  0.553280  0.100000  1.0  -0.0393
  C  C341  1  0.829450  0.589170  0.096300  1.0  0.0125
  C  C342  1  0.847490  0.626960  0.131000  1.0  -0.1204
  C  C343  1  0.612970  0.857900  0.361430  1.0  0.7281
  C  C344  1  0.582030  0.873690  0.379030  1.0  -0.1217
  C  C345  1  0.553580  0.875950  0.338430  1.0  -0.1005
  C  C346  1  0.524560  0.889840  0.357930  1.0  -0.1052
  C  C347  1  0.524400  0.903890  0.411230  1.0  0.1212
  C  C348  1  0.552890  0.901080  0.453330  1.0  -0.1885
  C  C349  1  0.581520  0.886610  0.433330  1.0  -0.0393
  C  C350  1  0.496120  0.922500  0.429630  1.0  0.0125
  C  C351  1  0.514160  0.960290  0.464330  1.0  -0.1204
  C  C352  1  0.279630  0.191240  0.694770  1.0  0.7281
  C  C353  1  0.248690  0.207030  0.712370  1.0  -0.1216
  C  C354  1  0.220240  0.209290  0.671770  1.0  -0.1005
  C  C355  1  0.191220  0.223180  0.691270  1.0  -0.1052
  C  C356  1  0.191060  0.237230  0.744570  1.0  0.1212
  C  C357  1  0.219550  0.234420  0.786670  1.0  -0.1883
  C  C358  1  0.248180  0.219950  0.766670  1.0  -0.0393
  C  C359  1  0.162780  0.255840  0.762970  1.0  0.014
  C  C360  1  0.180820  0.293630  0.797670  1.0  -0.1167
  C  C361  1  0.475430  0.421730  0.028100  1.0  0.7316
  C  C362  1  0.459640  0.375000  0.045700  1.0  -0.1201
  C  C363  1  0.457380  0.344290  0.005100  1.0  -0.1009
  C  C364  1  0.443490  0.301380  0.024600  1.0  -0.1062
  C  C365  1  0.429440  0.287170  0.077900  1.0  0.1205
  C  C366  1  0.432250  0.318470  0.120000  1.0  -0.1906
  C  C367  1  0.446720  0.361570  0.100000  1.0  -0.0438
  C  C368  1  0.410830  0.240280  0.096300  1.0  0.011
  C  C369  1  0.373040  0.220530  0.131000  1.0  -0.1175
  C  C370  1  0.142100  0.755060  0.361430  1.0  0.7316
  C  C371  1  0.126310  0.708330  0.379030  1.0  -0.1202
  C  C372  1  0.124050  0.677620  0.338430  1.0  -0.1009
  C  C373  1  0.110160  0.634710  0.357930  1.0  -0.1062
  C  C374  1  0.096110  0.620500  0.411230  1.0  0.1205
  C  C375  1  0.098920  0.651800  0.453330  1.0  -0.1906
  C  C376  1  0.113390  0.694900  0.433330  1.0  -0.0438
  C  C377  1  0.077500  0.573610  0.429630  1.0  0.011
  C  C378  1  0.039710  0.553860  0.464330  1.0  -0.1175
  C  C379  1  0.808760  0.088400  0.694770  1.0  0.7316
  C  C380  1  0.792970  0.041670  0.712370  1.0  -0.1201
  C  C381  1  0.790710  0.010960  0.671770  1.0  -0.1009
  C  C382  1  0.776820  0.968050  0.691270  1.0  -0.1062
  C  C383  1  0.762770  0.953840  0.744570  1.0  0.1205
  C  C384  1  0.765580  0.985140  0.786670  1.0  -0.1906
  C  C385  1  0.780050  0.028240  0.766670  1.0  -0.0438
  C  C386  1  0.744160  0.906950  0.762970  1.0  0.0107
  C  C387  1  0.706370  0.887200  0.797670  1.0  -0.1209
  C  C388  1  0.053700  0.578270  0.971900  1.0  0.7316
  C  C389  1  0.084640  0.625000  0.954300  1.0  -0.1205
  C  C390  1  0.113090  0.655710  0.994900  1.0  -0.0997
  C  C391  1  0.142110  0.698620  0.975400  1.0  -0.1051
  C  C392  1  0.142270  0.712830  0.922100  1.0  0.1199
  C  C393  1  0.113780  0.681530  0.880000  1.0  -0.1858
  C  C394  1  0.085150  0.638430  0.900000  1.0  -0.0423
  C  C395  1  0.170550  0.759720  0.903700  1.0  0.0103
  C  C396  1  0.152510  0.779470  0.869000  1.0  -0.1204
  C  C397  1  0.720370  0.911600  0.305230  1.0  0.7316
  C  C398  1  0.751310  0.958330  0.287630  1.0  -0.1205
  C  C399  1  0.779760  0.989040  0.328230  1.0  -0.0997
  C  C400  1  0.808780  0.031950  0.308730  1.0  -0.1051
  C  C401  1  0.808940  0.046160  0.255430  1.0  0.1199
  C  C402  1  0.780450  0.014860  0.213330  1.0  -0.1858
  C  C403  1  0.751820  0.971760  0.233330  1.0  -0.0423
  C  C404  1  0.837220  0.093050  0.237030  1.0  0.0103
  C  C405  1  0.819180  0.112800  0.202330  1.0  -0.1204
  C  C406  1  0.387030  0.244940  0.638570  1.0  0.7316
  C  C407  1  0.417970  0.291670  0.620970  1.0  -0.1205
  C  C408  1  0.446420  0.322380  0.661570  1.0  -0.0997
  C  C409  1  0.475440  0.365290  0.642070  1.0  -0.1051
  C  C410  1  0.475600  0.379500  0.588770  1.0  0.1199
  C  C411  1  0.447110  0.348200  0.546670  1.0  -0.1858
  C  C412  1  0.418480  0.305100  0.566670  1.0  -0.0423
  C  C413  1  0.503880  0.426390  0.570370  1.0  0.0103
  C  C414  1  0.485840  0.446140  0.535670  1.0  -0.1208
  C  C415  1  0.524570  0.946300  0.971900  1.0  0.7292
  C  C416  1  0.540360  0.915360  0.954300  1.0  -0.1216
  C  C417  1  0.542620  0.886910  0.994900  1.0  -0.1001
  C  C418  1  0.556510  0.857890  0.975400  1.0  -0.1034
  C  C419  1  0.570560  0.857730  0.922100  1.0  0.1198
  C  C420  1  0.567750  0.886220  0.880000  1.0  -0.1875
  C  C421  1  0.553280  0.914850  0.900000  1.0  -0.0434
  C  C422  1  0.589170  0.829450  0.903700  1.0  0.0122
  C  C423  1  0.626960  0.847490  0.869000  1.0  -0.1162
  C  C424  1  0.191240  0.279630  0.305230  1.0  0.7292
  C  C425  1  0.207030  0.248690  0.287630  1.0  -0.1216
  C  C426  1  0.209290  0.220240  0.328230  1.0  -0.1001
  C  C427  1  0.223180  0.191220  0.308730  1.0  -0.1034
  C  C428  1  0.237230  0.191060  0.255430  1.0  0.1198
  C  C429  1  0.234420  0.219550  0.213330  1.0  -0.1875
  C  C430  1  0.219950  0.248180  0.233330  1.0  -0.0434
  C  C431  1  0.255840  0.162780  0.237030  1.0  0.0138
  C  C432  1  0.293630  0.180820  0.202330  1.0  -0.1124
  C  C433  1  0.857900  0.612970  0.638570  1.0  0.7292
  C  C434  1  0.873690  0.582030  0.620970  1.0  -0.1216
  C  C435  1  0.875950  0.553580  0.661570  1.0  -0.1001
  C  C436  1  0.889840  0.524560  0.642070  1.0  -0.1034
  C  C437  1  0.903890  0.524400  0.588770  1.0  0.1198
  C  C438  1  0.901080  0.552890  0.546670  1.0  -0.1875
  C  C439  1  0.886610  0.581520  0.566670  1.0  -0.0434
  C  C440  1  0.922500  0.496120  0.570370  1.0  0.0122
  C  C441  1  0.960290  0.514160  0.535670  1.0  -0.1162
  C  C442  1  0.421730  0.475430  0.971900  1.0  0.7285
  C  C443  1  0.375000  0.459640  0.954300  1.0  -0.1221
  C  C444  1  0.344290  0.457380  0.994900  1.0  -0.0995
  C  C445  1  0.301380  0.443490  0.975400  1.0  -0.1048
  C  C446  1  0.287170  0.429440  0.922100  1.0  0.1203
  C  C447  1  0.318470  0.432250  0.880000  1.0  -0.1834
  C  C448  1  0.361570  0.446720  0.900000  1.0  -0.0393
  C  C449  1  0.240280  0.410830  0.903700  1.0  0.0137
  C  C450  1  0.220530  0.373040  0.869000  1.0  -0.1175
  C  C451  1  0.088400  0.808760  0.305230  1.0  0.7285
  C  C452  1  0.041670  0.792970  0.287630  1.0  -0.1221
  C  C453  1  0.010960  0.790710  0.328230  1.0  -0.0995
  C  C454  1  0.968050  0.776820  0.308730  1.0  -0.1048
  C  C455  1  0.953840  0.762770  0.255430  1.0  0.1203
  C  C456  1  0.985140  0.765580  0.213330  1.0  -0.1834
  C  C457  1  0.028240  0.780050  0.233330  1.0  -0.0393
  C  C458  1  0.906950  0.744160  0.237030  1.0  0.0122
  C  C459  1  0.887200  0.706370  0.202330  1.0  -0.1209
  C  C460  1  0.755060  0.142100  0.638570  1.0  0.7285
  C  C461  1  0.708330  0.126310  0.620970  1.0  -0.1222
  C  C462  1  0.677620  0.124050  0.661570  1.0  -0.0995
  C  C463  1  0.634710  0.110160  0.642070  1.0  -0.1048
  C  C464  1  0.620500  0.096110  0.588770  1.0  0.1203
  C  C465  1  0.651800  0.098920  0.546670  1.0  -0.1834
  C  C466  1  0.694900  0.113390  0.566670  1.0  -0.0393
  C  C467  1  0.573610  0.077500  0.570370  1.0  0.0137
  C  C468  1  0.553860  0.039710  0.535670  1.0  -0.1175
  C  C469  1  0.421730  0.946300  0.971900  1.0  0.7296
  C  C470  1  0.375000  0.915360  0.954300  1.0  -0.1222
  C  C471  1  0.344290  0.886910  0.994900  1.0  -0.0993
  C  C472  1  0.301380  0.857890  0.975400  1.0  -0.1051
  C  C473  1  0.287170  0.857730  0.922100  1.0  0.1205
  C  C474  1  0.318470  0.886220  0.880000  1.0  -0.1881
  C  C475  1  0.361570  0.914850  0.900000  1.0  -0.0437
  C  C476  1  0.240280  0.829450  0.903700  1.0  0.0111
  C  C477  1  0.220530  0.847490  0.869000  1.0  -0.1155
  C  C478  1  0.088400  0.279630  0.305230  1.0  0.7296
  C  C479  1  0.041670  0.248690  0.287630  1.0  -0.1222
  C  C480  1  0.010960  0.220240  0.328230  1.0  -0.0993
  C  C481  1  0.968050  0.191220  0.308730  1.0  -0.1051
  C  C482  1  0.953840  0.191060  0.255430  1.0  0.1205
  C  C483  1  0.985140  0.219550  0.213330  1.0  -0.1881
  C  C484  1  0.028240  0.248180  0.233330  1.0  -0.0437
  C  C485  1  0.906950  0.162780  0.237030  1.0  0.0111
  C  C486  1  0.887200  0.180820  0.202330  1.0  -0.1155
  C  C487  1  0.755060  0.612970  0.638570  1.0  0.7296
  C  C488  1  0.708330  0.582030  0.620970  1.0  -0.1222
  C  C489  1  0.677620  0.553580  0.661570  1.0  -0.0993
  C  C490  1  0.634710  0.524560  0.642070  1.0  -0.1051
  C  C491  1  0.620500  0.524400  0.588770  1.0  0.1205
  C  C492  1  0.651800  0.552890  0.546670  1.0  -0.1881
  C  C493  1  0.694900  0.581520  0.566670  1.0  -0.0437
  C  C494  1  0.573610  0.496120  0.570370  1.0  0.0111
  C  C495  1  0.553860  0.514160  0.535670  1.0  -0.1159
  C  C496  1  0.053700  0.475430  0.971900  1.0  0.7293
  C  C497  1  0.084640  0.459640  0.954300  1.0  -0.1226
  C  C498  1  0.113090  0.457380  0.994900  1.0  -0.1004
  C  C499  1  0.142110  0.443490  0.975400  1.0  -0.1047
  C  C500  1  0.142270  0.429440  0.922100  1.0  0.1198
  C  C501  1  0.113780  0.432250  0.880000  1.0  -0.1845
  C  C502  1  0.085150  0.446720  0.900000  1.0  -0.0409
  C  C503  1  0.170550  0.410830  0.903700  1.0  0.0108
  C  C504  1  0.152510  0.373040  0.869000  1.0  -0.1222
  C  C505  1  0.720370  0.808760  0.305230  1.0  0.7293
  C  C506  1  0.751310  0.792970  0.287630  1.0  -0.1226
  C  C507  1  0.779760  0.790710  0.328230  1.0  -0.1004
  C  C508  1  0.808780  0.776820  0.308730  1.0  -0.1047
  C  C509  1  0.808940  0.762770  0.255430  1.0  0.1198
  C  C510  1  0.780450  0.765580  0.213330  1.0  -0.1845
  C  C511  1  0.751820  0.780050  0.233330  1.0  -0.0409
  C  C512  1  0.837220  0.744160  0.237030  1.0  0.0124
  C  C513  1  0.819180  0.706370  0.202330  1.0  -0.1192
  C  C514  1  0.387030  0.142100  0.638570  1.0  0.7293
  C  C515  1  0.417970  0.126310  0.620970  1.0  -0.1226
  C  C516  1  0.446420  0.124050  0.661570  1.0  -0.1004
  C  C517  1  0.475440  0.110160  0.642070  1.0  -0.1047
  C  C518  1  0.475600  0.096110  0.588770  1.0  0.1198
  C  C519  1  0.447110  0.098920  0.546670  1.0  -0.1845
  C  C520  1  0.418480  0.113390  0.566670  1.0  -0.0409
  C  C521  1  0.503880  0.077500  0.570370  1.0  0.0108
  C  C522  1  0.485840  0.039710  0.535670  1.0  -0.1221
  C  C523  1  0.524570  0.578270  0.971900  1.0  0.7313
  C  C524  1  0.540360  0.625000  0.954300  1.0  -0.1209
  C  C525  1  0.542620  0.655710  0.994900  1.0  -0.1004
  C  C526  1  0.556510  0.698620  0.975400  1.0  -0.106
  C  C527  1  0.570560  0.712830  0.922100  1.0  0.12
  C  C528  1  0.567750  0.681530  0.880000  1.0  -0.1859
  C  C529  1  0.553280  0.638430  0.900000  1.0  -0.0422
  C  C530  1  0.589170  0.759720  0.903700  1.0  0.0139
  C  C531  1  0.626960  0.779470  0.869000  1.0  -0.1166
  C  C532  1  0.191240  0.911600  0.305230  1.0  0.7313
  C  C533  1  0.207030  0.958330  0.287630  1.0  -0.121
  C  C534  1  0.209290  0.989040  0.328230  1.0  -0.1004
  C  C535  1  0.223180  0.031950  0.308730  1.0  -0.106
  C  C536  1  0.237230  0.046160  0.255430  1.0  0.12
  C  C537  1  0.234420  0.014860  0.213330  1.0  -0.1859
  C  C538  1  0.219950  0.971760  0.233330  1.0  -0.0422
  C  C539  1  0.255840  0.093050  0.237030  1.0  0.0124
  C  C540  1  0.293630  0.112800  0.202330  1.0  -0.1197
  C  C541  1  0.857900  0.244940  0.638570  1.0  0.7313
  C  C542  1  0.873690  0.291670  0.620970  1.0  -0.121
  C  C543  1  0.875950  0.322380  0.661570  1.0  -0.1004
  C  C544  1  0.889840  0.365290  0.642070  1.0  -0.106
  C  C545  1  0.903890  0.379500  0.588770  1.0  0.12
  C  C546  1  0.901080  0.348200  0.546670  1.0  -0.1859
  C  C547  1  0.886610  0.305100  0.566670  1.0  -0.0422
  C  C548  1  0.922500  0.426390  0.570370  1.0  0.0139
  C  C549  1  0.960290  0.446140  0.535670  1.0  -0.1166
  C  C550  1  0.946300  0.421730  0.028100  1.0  0.7313
  C  C551  1  0.915360  0.375000  0.045700  1.0  -0.1205
  C  C552  1  0.886910  0.344290  0.005100  1.0  -0.1002
  C  C553  1  0.857890  0.301380  0.024600  1.0  -0.1065
  C  C554  1  0.857730  0.287170  0.077900  1.0  0.1204
  C  C555  1  0.886220  0.318470  0.120000  1.0  -0.1894
  C  C556  1  0.914850  0.361570  0.100000  1.0  -0.0418
  C  C557  1  0.829450  0.240280  0.096300  1.0  0.0129
  C  C558  1  0.847490  0.220530  0.131000  1.0  -0.119
  C  C559  1  0.612970  0.755060  0.361430  1.0  0.7313
  C  C560  1  0.582030  0.708330  0.379030  1.0  -0.1205
  C  C561  1  0.553580  0.677620  0.338430  1.0  -0.1002
  C  C562  1  0.524560  0.634710  0.357930  1.0  -0.1065
  C  C563  1  0.524400  0.620500  0.411230  1.0  0.1204
  C  C564  1  0.552890  0.651800  0.453330  1.0  -0.1894
  C  C565  1  0.581520  0.694900  0.433330  1.0  -0.0418
  C  C566  1  0.496120  0.573610  0.429630  1.0  0.0129
  C  C567  1  0.514160  0.553860  0.464330  1.0  -0.1193
  C  C568  1  0.279630  0.088400  0.694770  1.0  0.7313
  C  C569  1  0.248690  0.041670  0.712370  1.0  -0.1205
  C  C570  1  0.220240  0.010960  0.671770  1.0  -0.1002
  C  C571  1  0.191220  0.968050  0.691270  1.0  -0.1065
  C  C572  1  0.191060  0.953840  0.744570  1.0  0.1204
  C  C573  1  0.219550  0.985140  0.786670  1.0  -0.1894
  C  C574  1  0.248180  0.028240  0.766670  1.0  -0.0418
  C  C575  1  0.162780  0.906950  0.762970  1.0  0.013
  C  C576  1  0.180820  0.887200  0.797670  1.0  -0.119
  C  C577  1  0.475430  0.053700  0.028100  1.0  0.7292
  C  C578  1  0.459640  0.084640  0.045700  1.0  -0.1221
  C  C579  1  0.457380  0.113090  0.005100  1.0  -0.1002
  C  C580  1  0.443490  0.142110  0.024600  1.0  -0.1048
  C  C581  1  0.429440  0.142270  0.077900  1.0  0.1213
  C  C582  1  0.432250  0.113780  0.120000  1.0  -0.1927
  C  C583  1  0.446720  0.085150  0.100000  1.0  -0.0427
  C  C584  1  0.410830  0.170550  0.096300  1.0  0.0107
  C  C585  1  0.373040  0.152510  0.131000  1.0  -0.1163
  C  C586  1  0.142100  0.387030  0.361430  1.0  0.7292
  C  C587  1  0.126310  0.417970  0.379030  1.0  -0.1221
  C  C588  1  0.124050  0.446420  0.338430  1.0  -0.1002
  C  C589  1  0.110160  0.475440  0.357930  1.0  -0.1048
  C  C590  1  0.096110  0.475600  0.411230  1.0  0.1213
  C  C591  1  0.098920  0.447110  0.453330  1.0  -0.1927
  C  C592  1  0.113390  0.418480  0.433330  1.0  -0.0427
  C  C593  1  0.077500  0.503880  0.429630  1.0  0.0107
  C  C594  1  0.039710  0.485840  0.464330  1.0  -0.1163
  C  C595  1  0.808760  0.720370  0.694770  1.0  0.7292
  C  C596  1  0.792970  0.751310  0.712370  1.0  -0.1221
  C  C597  1  0.790710  0.779760  0.671770  1.0  -0.1002
  C  C598  1  0.776820  0.808780  0.691270  1.0  -0.1048
  C  C599  1  0.762770  0.808940  0.744570  1.0  0.1213
  C  C600  1  0.765580  0.780450  0.786670  1.0  -0.1927
  C  C601  1  0.780050  0.751820  0.766670  1.0  -0.0427
  C  C602  1  0.744160  0.837220  0.762970  1.0  0.0118
  C  C603  1  0.706370  0.819180  0.797670  1.0  -0.113
  C  C604  1  0.578270  0.524570  0.028100  1.0  0.7289
  C  C605  1  0.625000  0.540360  0.045700  1.0  -0.1227
  C  C606  1  0.655710  0.542620  0.005100  1.0  -0.0993
  C  C607  1  0.698620  0.556510  0.024600  1.0  -0.1058
  C  C608  1  0.712830  0.570560  0.077900  1.0  0.1213
  C  C609  1  0.681530  0.567750  0.120000  1.0  -0.1884
  C  C610  1  0.638430  0.553280  0.100000  1.0  -0.0411
  C  C611  1  0.759720  0.589170  0.096300  1.0  0.0126
  C  C612  1  0.779470  0.626960  0.131000  1.0  -0.1183
  C  C613  1  0.244940  0.857900  0.361430  1.0  0.7289
  C  C614  1  0.291670  0.873690  0.379030  1.0  -0.1228
  C  C615  1  0.322380  0.875950  0.338430  1.0  -0.0993
  C  C616  1  0.365290  0.889840  0.357930  1.0  -0.1058
  C  C617  1  0.379500  0.903890  0.411230  1.0  0.1213
  C  C618  1  0.348200  0.901080  0.453330  1.0  -0.1884
  C  C619  1  0.305100  0.886610  0.433330  1.0  -0.0411
  C  C620  1  0.426390  0.922500  0.429630  1.0  0.0126
  C  C621  1  0.446140  0.960290  0.464330  1.0  -0.1184
  C  C622  1  0.911600  0.191240  0.694770  1.0  0.7289
  C  C623  1  0.958330  0.207030  0.712370  1.0  -0.1227
  C  C624  1  0.989040  0.209290  0.671770  1.0  -0.0993
  C  C625  1  0.031950  0.223180  0.691270  1.0  -0.1058
  C  C626  1  0.046160  0.237230  0.744570  1.0  0.1213
  C  C627  1  0.014860  0.234420  0.786670  1.0  -0.1884
  C  C628  1  0.971760  0.219950  0.766670  1.0  -0.0411
  C  C629  1  0.093050  0.255840  0.762970  1.0  0.0112
  C  C630  1  0.112800  0.293630  0.797670  1.0  -0.1225
  C  C631  1  0.822850  0.177150  0.150400  1.0  -0.0331
  C  C632  1  0.785150  0.214850  0.080200  1.0  0.2053
  C  C633  1  0.727800  0.272200  0.020100  1.0  -0.3856
  C  C634  1  0.740900  0.259100  0.122100  1.0  -0.3911
  C  C635  1  0.749300  0.250700  0.057700  1.0  0.045
  C  C636  1  0.489520  0.510480  0.483730  1.0  -0.0307
  C  C637  1  0.451820  0.548180  0.413530  1.0  0.2053
  C  C638  1  0.394470  0.605530  0.353430  1.0  -0.3856
  C  C639  1  0.407570  0.592430  0.455430  1.0  -0.3911
  C  C640  1  0.415970  0.584030  0.391030  1.0  0.045
  C  C641  1  0.156180  0.843820  0.817070  1.0  -0.0331
  C  C642  1  0.118480  0.881520  0.746870  1.0  0.2053
  C  C643  1  0.061130  0.938870  0.686770  1.0  -0.3856
  C  C644  1  0.074230  0.925770  0.788770  1.0  -0.3911
  C  C645  1  0.082630  0.917370  0.724370  1.0  0.045
  C  C646  1  0.822850  0.645700  0.150400  1.0  -0.0308
  C  C647  1  0.785150  0.570300  0.080200  1.0  0.2055
  C  C648  1  0.727800  0.455600  0.020100  1.0  -0.3854
  C  C649  1  0.740900  0.481800  0.122100  1.0  -0.3938
  C  C650  1  0.749300  0.498600  0.057700  1.0  0.0438
  C  C651  1  0.489520  0.979030  0.483730  1.0  -0.0311
  C  C652  1  0.451820  0.903630  0.413530  1.0  0.2054
  C  C653  1  0.394470  0.788930  0.353430  1.0  -0.3854
  C  C654  1  0.407570  0.815130  0.455430  1.0  -0.3938
  C  C655  1  0.415970  0.831930  0.391030  1.0  0.0438
  C  C656  1  0.156180  0.312370  0.817070  1.0  -0.0308
  C  C657  1  0.118480  0.236970  0.746870  1.0  0.2055
  C  C658  1  0.061130  0.122270  0.686770  1.0  -0.3854
  C  C659  1  0.074230  0.148470  0.788770  1.0  -0.3938
  C  C660  1  0.082630  0.165270  0.724370  1.0  0.0438
  C  C661  1  0.354300  0.177150  0.150400  1.0  -0.0353
  C  C662  1  0.429700  0.214850  0.080200  1.0  0.2038
  C  C663  1  0.544400  0.272200  0.020100  1.0  -0.3856
  C  C664  1  0.518200  0.259100  0.122100  1.0  -0.393
  C  C665  1  0.501400  0.250700  0.057700  1.0  0.048
  C  C666  1  0.020970  0.510480  0.483730  1.0  -0.0355
  C  C667  1  0.096370  0.548180  0.413530  1.0  0.2038
  C  C668  1  0.211070  0.605530  0.353430  1.0  -0.3856
  C  C669  1  0.184870  0.592430  0.455430  1.0  -0.393
  C  C670  1  0.168070  0.584030  0.391030  1.0  0.048
  C  C671  1  0.687630  0.843820  0.817070  1.0  -0.0353
  C  C672  1  0.763030  0.881520  0.746870  1.0  0.2038
  C  C673  1  0.877730  0.938870  0.686770  1.0  -0.3856
  C  C674  1  0.851530  0.925770  0.788770  1.0  -0.393
  C  C675  1  0.834730  0.917370  0.724370  1.0  0.048
  C  C676  1  0.177150  0.822850  0.849600  1.0  -0.0335
  C  C677  1  0.214850  0.785150  0.919800  1.0  0.2027
  C  C678  1  0.272200  0.727800  0.979900  1.0  -0.3854
  C  C679  1  0.259100  0.740900  0.877900  1.0  -0.3928
  C  C680  1  0.250700  0.749300  0.942300  1.0  0.0456
  C  C681  1  0.843820  0.156180  0.182930  1.0  -0.0335
  C  C682  1  0.881520  0.118480  0.253130  1.0  0.2027
  C  C683  1  0.938870  0.061130  0.313230  1.0  -0.3854
  C  C684  1  0.925770  0.074230  0.211230  1.0  -0.3928
  C  C685  1  0.917370  0.082630  0.275630  1.0  0.0456
  C  C686  1  0.510480  0.489520  0.516270  1.0  -0.0312
  C  C687  1  0.548180  0.451820  0.586470  1.0  0.2027
  C  C688  1  0.605530  0.394470  0.646570  1.0  -0.3854
  C  C689  1  0.592430  0.407570  0.544570  1.0  -0.3928
  C  C690  1  0.584030  0.415970  0.608970  1.0  0.0456
  C  C691  1  0.645700  0.822850  0.849600  1.0  -0.0339
  C  C692  1  0.570300  0.785150  0.919800  1.0  0.2039
  C  C693  1  0.455600  0.727800  0.979900  1.0  -0.3852
  C  C694  1  0.481800  0.740900  0.877900  1.0  -0.3893
  C  C695  1  0.498600  0.749300  0.942300  1.0  0.044
  C  C696  1  0.312370  0.156180  0.182930  1.0  -0.0339
  C  C697  1  0.236970  0.118480  0.253130  1.0  0.2039
  C  C698  1  0.122270  0.061130  0.313230  1.0  -0.3852
  C  C699  1  0.148470  0.074230  0.211230  1.0  -0.3893
  C  C700  1  0.165270  0.082630  0.275630  1.0  0.044
  C  C701  1  0.979030  0.489520  0.516270  1.0  -0.0341
  C  C702  1  0.903630  0.451820  0.586470  1.0  0.2039
  C  C703  1  0.788930  0.394470  0.646570  1.0  -0.3852
  C  C704  1  0.815130  0.407570  0.544570  1.0  -0.3893
  C  C705  1  0.831930  0.415970  0.608970  1.0  0.044
  C  C706  1  0.177150  0.354300  0.849600  1.0  -0.0311
  C  C707  1  0.214850  0.429700  0.919800  1.0  0.2051
  C  C708  1  0.272200  0.544400  0.979900  1.0  -0.3874
  C  C709  1  0.259100  0.518200  0.877900  1.0  -0.3925
  C  C710  1  0.250700  0.501400  0.942300  1.0  0.0444
  C  C711  1  0.843820  0.687630  0.182930  1.0  -0.0311
  C  C712  1  0.881520  0.763030  0.253130  1.0  0.2051
  C  C713  1  0.938870  0.877730  0.313230  1.0  -0.3874
  C  C714  1  0.925770  0.851530  0.211230  1.0  -0.3925
  C  C715  1  0.917370  0.834730  0.275630  1.0  0.0444
  C  C716  1  0.510480  0.020970  0.516270  1.0  -0.0313
  C  C717  1  0.548180  0.096370  0.586470  1.0  0.2051
  C  C718  1  0.605530  0.211070  0.646570  1.0  -0.3874
  C  C719  1  0.592430  0.184870  0.544570  1.0  -0.3925
  C  C720  1  0.584030  0.168070  0.608970  1.0  0.0444
  O  O721  1  0.553360  0.027880  0.067200  1.0  -0.573
  O  O722  1  0.567340  0.056380  0.977300  1.0  -0.5605
  O  O723  1  0.220030  0.361210  0.400530  1.0  -0.5728
  O  O724  1  0.234010  0.389710  0.310630  1.0  -0.5605
  O  O725  1  0.886690  0.694550  0.733870  1.0  -0.573
  O  O726  1  0.900670  0.723050  0.643970  1.0  -0.5603
  O  O727  1  0.972120  0.525480  0.067200  1.0  -0.5721
  O  O728  1  0.943620  0.510960  0.977300  1.0  -0.557
  O  O729  1  0.638790  0.858810  0.400530  1.0  -0.5722
  O  O730  1  0.610290  0.844290  0.310630  1.0  -0.557
  O  O731  1  0.305450  0.192150  0.733870  1.0  -0.5721
  O  O732  1  0.276950  0.177630  0.643970  1.0  -0.5572
  O  O733  1  0.474520  0.446640  0.067200  1.0  -0.5728
  O  O734  1  0.489040  0.432660  0.977300  1.0  -0.5576
  O  O735  1  0.141190  0.779970  0.400530  1.0  -0.5728
  O  O736  1  0.155710  0.765990  0.310630  1.0  -0.5576
  O  O737  1  0.807850  0.113310  0.733870  1.0  -0.5728
  O  O738  1  0.822370  0.099330  0.643970  1.0  -0.5576
  O  O739  1  0.027880  0.553360  0.932800  1.0  -0.5747
  O  O740  1  0.056380  0.567340  0.022700  1.0  -0.5577
  O  O741  1  0.694550  0.886690  0.266130  1.0  -0.5747
  O  O742  1  0.723050  0.900670  0.356030  1.0  -0.5575
  O  O743  1  0.361210  0.220030  0.599470  1.0  -0.5742
  O  O744  1  0.389710  0.234010  0.689370  1.0  -0.5577
  O  O745  1  0.525480  0.972120  0.932800  1.0  -0.5736
  O  O746  1  0.510960  0.943620  0.022700  1.0  -0.5595
  O  O747  1  0.192150  0.305450  0.266130  1.0  -0.5736
  O  O748  1  0.177630  0.276950  0.356030  1.0  -0.5596
  O  O749  1  0.858810  0.638790  0.599470  1.0  -0.5744
  O  O750  1  0.844290  0.610290  0.689370  1.0  -0.5595
  O  O751  1  0.446640  0.474520  0.932800  1.0  -0.5736
  O  O752  1  0.432660  0.489040  0.022700  1.0  -0.5585
  O  O753  1  0.113310  0.807850  0.266130  1.0  -0.5736
  O  O754  1  0.099330  0.822370  0.356030  1.0  -0.5583
  O  O755  1  0.779970  0.141190  0.599470  1.0  -0.5736
  O  O756  1  0.765990  0.155710  0.689370  1.0  -0.5583
  O  O757  1  0.446640  0.972120  0.932800  1.0  -0.5741
  O  O758  1  0.432660  0.943620  0.022700  1.0  -0.5588
  O  O759  1  0.113310  0.305450  0.266130  1.0  -0.5741
  O  O760  1  0.099330  0.276950  0.356030  1.0  -0.5587
  O  O761  1  0.779970  0.638790  0.599470  1.0  -0.5733
  O  O762  1  0.765990  0.610290  0.689370  1.0  -0.5588
  O  O763  1  0.027880  0.474520  0.932800  1.0  -0.5733
  O  O764  1  0.056380  0.489040  0.022700  1.0  -0.5579
  O  O765  1  0.694550  0.807850  0.266130  1.0  -0.5733
  O  O766  1  0.723050  0.822370  0.356030  1.0  -0.558
  O  O767  1  0.361210  0.141190  0.599470  1.0  -0.5741
  O  O768  1  0.389710  0.155710  0.689370  1.0  -0.5579
  O  O769  1  0.525480  0.553360  0.932800  1.0  -0.5737
  O  O770  1  0.510960  0.567340  0.022700  1.0  -0.558
  O  O771  1  0.192150  0.886690  0.266130  1.0  -0.5737
  O  O772  1  0.177630  0.900670  0.356030  1.0  -0.558
  O  O773  1  0.858810  0.220030  0.599470  1.0  -0.5737
  O  O774  1  0.844290  0.234010  0.689370  1.0  -0.558
  O  O775  1  0.972120  0.446640  0.067200  1.0  -0.5722
  O  O776  1  0.943620  0.432660  0.977300  1.0  -0.5574
  O  O777  1  0.638790  0.779970  0.400530  1.0  -0.5721
  O  O778  1  0.610290  0.765990  0.310630  1.0  -0.5574
  O  O779  1  0.305450  0.113310  0.733870  1.0  -0.5722
  O  O780  1  0.276950  0.099330  0.643970  1.0  -0.5572
  O  O781  1  0.474520  0.027880  0.067200  1.0  -0.5729
  O  O782  1  0.489040  0.056380  0.977300  1.0  -0.5596
  O  O783  1  0.141190  0.361210  0.400530  1.0  -0.5732
  O  O784  1  0.155710  0.389710  0.310630  1.0  -0.5596
  O  O785  1  0.807850  0.694550  0.733870  1.0  -0.5729
  O  O786  1  0.822370  0.723050  0.643970  1.0  -0.5597
  O  O787  1  0.553360  0.525480  0.067200  1.0  -0.5717
  O  O788  1  0.567340  0.510960  0.977300  1.0  -0.5573
  O  O789  1  0.220030  0.858810  0.400530  1.0  -0.5717
  O  O790  1  0.234010  0.844290  0.310630  1.0  -0.5573
  O  O791  1  0.886690  0.192150  0.733870  1.0  -0.5717
  O  O792  1  0.900670  0.177630  0.643970  1.0  -0.5573
  O  O793  1  0.766720  0.233280  0.043200  1.0  -0.497
  O  O794  1  0.433390  0.566610  0.376530  1.0  -0.497
  O  O795  1  0.100050  0.899950  0.709870  1.0  -0.497
  O  O796  1  0.766720  0.533440  0.043200  1.0  -0.4966
  O  O797  1  0.433390  0.866770  0.376530  1.0  -0.4966
  O  O798  1  0.100050  0.200110  0.709870  1.0  -0.4966
  O  O799  1  0.466560  0.233280  0.043200  1.0  -0.4975
  O  O800  1  0.133230  0.566610  0.376530  1.0  -0.4975
  O  O801  1  0.799890  0.899950  0.709870  1.0  -0.4975
  O  O802  1  0.233280  0.766720  0.956800  1.0  -0.4949
  O  O803  1  0.899950  0.100050  0.290130  1.0  -0.4949
  O  O804  1  0.566610  0.433390  0.623470  1.0  -0.4949
  O  O805  1  0.533440  0.766720  0.956800  1.0  -0.4945
  O  O806  1  0.200110  0.100050  0.290130  1.0  -0.4945
  O  O807  1  0.866770  0.433390  0.623470  1.0  -0.4945
  O  O808  1  0.233280  0.466560  0.956800  1.0  -0.4948
  O  O809  1  0.899950  0.799890  0.290130  1.0  -0.4948
  O  O810  1  0.566610  0.133230  0.623470  1.0  -0.4948
