# generated using pymatgen
data_CuH10(C5O)5
_symmetry_space_group_name_H-M   'P 1'
_cell_length_a   35.29060000
_cell_length_b   35.29060000
_cell_length_c   20.56120000
_cell_angle_alpha   90.00000000
_cell_angle_beta   90.00000000
_cell_angle_gamma   120.00000000
_symmetry_Int_Tables_number   1
_chemical_formula_structural   CuH10(C5O)5
_chemical_formula_sum   'Cu18 H180 C450 O90'
_cell_volume   22176.71286961
_cell_formula_units_Z   18
loop_
 _symmetry_equiv_pos_site_id
 _symmetry_equiv_pos_as_xyz
  1  'x, y, z'
loop_
 _atom_site_type_symbol
 _atom_site_label
 _atom_site_symmetry_multiplicity
 _atom_site_fract_x
 _atom_site_fract_y
 _atom_site_fract_z
 _atom_site_occupancy
 _atom_site_charge
  Cu  Cu1  1  0.492640  0.507360  0.560180  1.0  0.9172
  Cu  Cu2  1  0.159310  0.840690  0.893510  1.0  0.9172
  Cu  Cu3  1  0.825970  0.174030  0.226850  1.0  0.9172
  Cu  Cu4  1  0.492640  0.985280  0.560180  1.0  0.9174
  Cu  Cu5  1  0.159310  0.318610  0.893510  1.0  0.9174
  Cu  Cu6  1  0.825970  0.651950  0.226850  1.0  0.9174
  Cu  Cu7  1  0.014720  0.507360  0.560180  1.0  0.9176
  Cu  Cu8  1  0.681390  0.840690  0.893510  1.0  0.9176
  Cu  Cu9  1  0.348050  0.174030  0.226850  1.0  0.9176
  Cu  Cu10  1  0.507360  0.492640  0.439820  1.0  0.9173
  Cu  Cu11  1  0.174030  0.825970  0.773150  1.0  0.9173
  Cu  Cu12  1  0.840690  0.159310  0.106490  1.0  0.9173
  Cu  Cu13  1  0.985280  0.492640  0.439820  1.0  0.917
  Cu  Cu14  1  0.651950  0.825970  0.773150  1.0  0.917
  Cu  Cu15  1  0.318610  0.159310  0.106490  1.0  0.917
  Cu  Cu16  1  0.507360  0.014720  0.439820  1.0  0.9169
  Cu  Cu17  1  0.174030  0.348050  0.773150  1.0  0.9169
  Cu  Cu18  1  0.840690  0.681390  0.106490  1.0  0.9169
  H  H19  1  0.643500  0.529100  0.456400  1.0  0.1027
  H  H20  1  0.716700  0.554600  0.482900  1.0  0.1098
  H  H21  1  0.692500  0.574900  0.667500  1.0  0.1067
  H  H22  1  0.619500  0.550200  0.640500  1.0  0.1062
  H  H23  1  0.761600  0.637300  0.644200  1.0  0.1035
  H  H24  1  0.310170  0.862430  0.789730  1.0  0.1027
  H  H25  1  0.383370  0.887930  0.816230  1.0  0.1098
  H  H26  1  0.359170  0.908230  0.000830  1.0  0.1067
  H  H27  1  0.286170  0.883530  0.973830  1.0  0.1062
  H  H28  1  0.428270  0.970630  0.977530  1.0  0.1034
  H  H29  1  0.976830  0.195770  0.123070  1.0  0.1027
  H  H30  1  0.050030  0.221270  0.149570  1.0  0.1081
  H  H31  1  0.025830  0.241570  0.334170  1.0  0.1067
  H  H32  1  0.952830  0.216870  0.307170  1.0  0.1062
  H  H33  1  0.094930  0.303970  0.310870  1.0  0.1035
  H  H34  1  0.470900  0.114400  0.456400  1.0  0.1043
  H  H35  1  0.445400  0.162100  0.482900  1.0  0.1084
  H  H36  1  0.425100  0.117600  0.667500  1.0  0.1061
  H  H37  1  0.449800  0.069300  0.640500  1.0  0.1056
  H  H38  1  0.362700  0.124300  0.644200  1.0  0.1035
  H  H39  1  0.137570  0.447730  0.789730  1.0  0.1043
  H  H40  1  0.112070  0.495430  0.816230  1.0  0.1084
  H  H41  1  0.091770  0.450930  0.000830  1.0  0.1061
  H  H42  1  0.116470  0.402630  0.973830  1.0  0.1056
  H  H43  1  0.029370  0.457630  0.977530  1.0  0.1032
  H  H44  1  0.804230  0.781070  0.123070  1.0  0.1034
  H  H45  1  0.778730  0.828770  0.149570  1.0  0.11
  H  H46  1  0.758430  0.784270  0.334170  1.0  0.1061
  H  H47  1  0.783130  0.735970  0.307170  1.0  0.1062
  H  H48  1  0.696030  0.790970  0.310870  1.0  0.1035
  H  H49  1  0.885600  0.356500  0.456400  1.0  0.1031
  H  H50  1  0.837900  0.283300  0.482900  1.0  0.1084
  H  H51  1  0.882400  0.307500  0.667500  1.0  0.1064
  H  H52  1  0.930700  0.380500  0.640500  1.0  0.1061
  H  H53  1  0.875700  0.238400  0.644200  1.0  0.1031
  H  H54  1  0.552270  0.689830  0.789730  1.0  0.1031
  H  H55  1  0.504570  0.616630  0.816230  1.0  0.1084
  H  H56  1  0.549070  0.640830  0.000830  1.0  0.1064
  H  H57  1  0.597370  0.713830  0.973830  1.0  0.1061
  H  H58  1  0.542370  0.571730  0.977530  1.0  0.103
  H  H59  1  0.218930  0.023170  0.123070  1.0  0.1042
  H  H60  1  0.171230  0.949970  0.149570  1.0  0.1084
  H  H61  1  0.215730  0.974170  0.334170  1.0  0.1064
  H  H62  1  0.264030  0.047170  0.307170  1.0  0.1055
  H  H63  1  0.209030  0.905070  0.310870  1.0  0.1031
  H  H64  1  0.529100  0.643500  0.543600  1.0  0.1028
  H  H65  1  0.554600  0.716700  0.517100  1.0  0.1099
  H  H66  1  0.574900  0.692500  0.332500  1.0  0.1074
  H  H67  1  0.550200  0.619500  0.359500  1.0  0.1059
  H  H68  1  0.637300  0.761600  0.355800  1.0  0.1035
  H  H69  1  0.195770  0.976830  0.876930  1.0  0.1028
  H  H70  1  0.221270  0.050030  0.850430  1.0  0.108
  H  H71  1  0.241570  0.025830  0.665830  1.0  0.1074
  H  H72  1  0.216870  0.952830  0.692830  1.0  0.1059
  H  H73  1  0.303970  0.094930  0.689130  1.0  0.1035
  H  H74  1  0.862430  0.310170  0.210270  1.0  0.1028
  H  H75  1  0.887930  0.383370  0.183770  1.0  0.1099
  H  H76  1  0.908230  0.359170  0.999170  1.0  0.1074
  H  H77  1  0.883530  0.286170  0.026170  1.0  0.1059
  H  H78  1  0.970630  0.428270  0.022470  1.0  0.1034
  H  H79  1  0.114400  0.470900  0.543600  1.0  0.1037
  H  H80  1  0.162100  0.445400  0.517100  1.0  0.1082
  H  H81  1  0.117600  0.425100  0.332500  1.0  0.107
  H  H82  1  0.069300  0.449800  0.359500  1.0  0.1052
  H  H83  1  0.124300  0.362700  0.355800  1.0  0.1038
  H  H84  1  0.781070  0.804230  0.876930  1.0  0.1023
  H  H85  1  0.828770  0.778730  0.850430  1.0  0.1105
  H  H86  1  0.784270  0.758430  0.665830  1.0  0.107
  H  H87  1  0.735970  0.783130  0.692830  1.0  0.1061
  H  H88  1  0.790970  0.696030  0.689130  1.0  0.1038
  H  H89  1  0.447730  0.137570  0.210270  1.0  0.1037
  H  H90  1  0.495430  0.112070  0.183770  1.0  0.1082
  H  H91  1  0.450930  0.091770  0.999170  1.0  0.107
  H  H92  1  0.402630  0.116470  0.026170  1.0  0.1052
  H  H93  1  0.457630  0.029370  0.022470  1.0  0.1037
  H  H94  1  0.356500  0.885600  0.543600  1.0  0.1031
  H  H95  1  0.283300  0.837900  0.517100  1.0  0.1079
  H  H96  1  0.307500  0.882400  0.332500  1.0  0.1075
  H  H97  1  0.380500  0.930700  0.359500  1.0  0.1062
  H  H98  1  0.238400  0.875700  0.355800  1.0  0.1037
  H  H99  1  0.023170  0.218930  0.876930  1.0  0.1044
  H  H100  1  0.949970  0.171230  0.850430  1.0  0.1079
  H  H101  1  0.974170  0.215730  0.665830  1.0  0.1075
  H  H102  1  0.047170  0.264030  0.692830  1.0  0.1054
  H  H103  1  0.905070  0.209030  0.689130  1.0  0.1037
  H  H104  1  0.689830  0.552270  0.210270  1.0  0.1031
  H  H105  1  0.616630  0.504570  0.183770  1.0  0.1079
  H  H106  1  0.640830  0.549070  0.999170  1.0  0.1075
  H  H107  1  0.713830  0.597370  0.026170  1.0  0.1062
  H  H108  1  0.571730  0.542370  0.022470  1.0  0.1036
  H  H109  1  0.356500  0.470900  0.543600  1.0  0.1024
  H  H110  1  0.283300  0.445400  0.517100  1.0  0.1104
  H  H111  1  0.307500  0.425100  0.332500  1.0  0.1074
  H  H112  1  0.380500  0.449800  0.359500  1.0  0.1065
  H  H113  1  0.238400  0.362700  0.355800  1.0  0.1041
  H  H114  1  0.023170  0.804230  0.876930  1.0  0.1024
  H  H115  1  0.949970  0.778730  0.850430  1.0  0.1082
  H  H116  1  0.974170  0.758430  0.665830  1.0  0.1074
  H  H117  1  0.047170  0.783130  0.692830  1.0  0.1065
  H  H118  1  0.905070  0.696030  0.689130  1.0  0.1041
  H  H119  1  0.689830  0.137570  0.210270  1.0  0.1024
  H  H120  1  0.616630  0.112070  0.183770  1.0  0.1104
  H  H121  1  0.640830  0.091770  0.999170  1.0  0.1074
  H  H122  1  0.713830  0.116470  0.026170  1.0  0.1065
  H  H123  1  0.571730  0.029370  0.022470  1.0  0.104
  H  H124  1  0.529100  0.885600  0.543600  1.0  0.1041
  H  H125  1  0.554600  0.837900  0.517100  1.0  0.1079
  H  H126  1  0.574900  0.882400  0.332500  1.0  0.1074
  H  H127  1  0.550200  0.930700  0.359500  1.0  0.105
  H  H128  1  0.637300  0.875700  0.355800  1.0  0.104
  H  H129  1  0.195770  0.218930  0.876930  1.0  0.103
  H  H130  1  0.221270  0.171230  0.850430  1.0  0.1102
  H  H131  1  0.241570  0.215730  0.665830  1.0  0.1074
  H  H132  1  0.216870  0.264030  0.692830  1.0  0.106
  H  H133  1  0.303970  0.209030  0.689130  1.0  0.104
  H  H134  1  0.862430  0.552270  0.210270  1.0  0.1041
  H  H135  1  0.887930  0.504570  0.183770  1.0  0.1079
  H  H136  1  0.908230  0.549070  0.999170  1.0  0.1074
  H  H137  1  0.883530  0.597370  0.026170  1.0  0.105
  H  H138  1  0.970630  0.542370  0.022470  1.0  0.1038
  H  H139  1  0.114400  0.643500  0.543600  1.0  0.1029
  H  H140  1  0.162100  0.716700  0.517100  1.0  0.1082
  H  H141  1  0.117600  0.692500  0.332500  1.0  0.1073
  H  H142  1  0.069300  0.619500  0.359500  1.0  0.1058
  H  H143  1  0.124300  0.761600  0.355800  1.0  0.1033
  H  H144  1  0.781070  0.976830  0.876930  1.0  0.1042
  H  H145  1  0.828770  0.050030  0.850430  1.0  0.1082
  H  H146  1  0.784270  0.025830  0.665830  1.0  0.1073
  H  H147  1  0.735970  0.952830  0.692830  1.0  0.1051
  H  H148  1  0.790970  0.094930  0.689130  1.0  0.1033
  H  H149  1  0.447730  0.310170  0.210270  1.0  0.1029
  H  H150  1  0.495430  0.383370  0.183770  1.0  0.1082
  H  H151  1  0.450930  0.359170  0.999170  1.0  0.1073
  H  H152  1  0.402630  0.286170  0.026170  1.0  0.1058
  H  H153  1  0.457630  0.428270  0.022470  1.0  0.1032
  H  H154  1  0.470900  0.356500  0.456400  1.0  0.1033
  H  H155  1  0.445400  0.283300  0.482900  1.0  0.1097
  H  H156  1  0.425100  0.307500  0.667500  1.0  0.1063
  H  H157  1  0.449800  0.380500  0.640500  1.0  0.106
  H  H158  1  0.362700  0.238400  0.644200  1.0  0.1032
  H  H159  1  0.137570  0.689830  0.789730  1.0  0.1033
  H  H160  1  0.112070  0.616630  0.816230  1.0  0.1097
  H  H161  1  0.091770  0.640830  0.000830  1.0  0.1063
  H  H162  1  0.116470  0.713830  0.973830  1.0  0.106
  H  H163  1  0.029370  0.571730  0.977530  1.0  0.1031
  H  H164  1  0.804230  0.023170  0.123070  1.0  0.1033
  H  H165  1  0.778730  0.949970  0.149570  1.0  0.1082
  H  H166  1  0.758430  0.974170  0.334170  1.0  0.1063
  H  H167  1  0.783130  0.047170  0.307170  1.0  0.106
  H  H168  1  0.696030  0.905070  0.310870  1.0  0.1032
  H  H169  1  0.885600  0.529100  0.456400  1.0  0.1038
  H  H170  1  0.837900  0.554600  0.482900  1.0  0.1088
  H  H171  1  0.882400  0.574900  0.667500  1.0  0.1062
  H  H172  1  0.930700  0.550200  0.640500  1.0  0.1056
  H  H173  1  0.875700  0.637300  0.644200  1.0  0.1036
  H  H174  1  0.552270  0.862430  0.789730  1.0  0.1038
  H  H175  1  0.504570  0.887930  0.816230  1.0  0.1088
  H  H176  1  0.549070  0.908230  0.000830  1.0  0.1061
  H  H177  1  0.597370  0.883530  0.973830  1.0  0.1056
  H  H178  1  0.542370  0.970630  0.977530  1.0  0.1034
  H  H179  1  0.218930  0.195770  0.123070  1.0  0.1028
  H  H180  1  0.171230  0.221270  0.149570  1.0  0.1104
  H  H181  1  0.215730  0.241570  0.334170  1.0  0.1062
  H  H182  1  0.264030  0.216870  0.307170  1.0  0.1063
  H  H183  1  0.209030  0.303970  0.310870  1.0  0.1036
  H  H184  1  0.643500  0.114400  0.456400  1.0  0.1032
  H  H185  1  0.716700  0.162100  0.482900  1.0  0.1082
  H  H186  1  0.692500  0.117600  0.667500  1.0  0.107
  H  H187  1  0.619500  0.069300  0.640500  1.0  0.1061
  H  H188  1  0.761600  0.124300  0.644200  1.0  0.104
  H  H189  1  0.310170  0.447730  0.789730  1.0  0.1032
  H  H190  1  0.383370  0.495430  0.816230  1.0  0.1082
  H  H191  1  0.359170  0.450930  0.000830  1.0  0.107
  H  H192  1  0.286170  0.402630  0.973830  1.0  0.1061
  H  H193  1  0.428270  0.457630  0.977530  1.0  0.1039
  H  H194  1  0.976830  0.781070  0.123070  1.0  0.1041
  H  H195  1  0.050030  0.828770  0.149570  1.0  0.1082
  H  H196  1  0.025830  0.784270  0.334170  1.0  0.107
  H  H197  1  0.952830  0.735970  0.307170  1.0  0.1055
  H  H198  1  0.094930  0.790970  0.310870  1.0  0.104
  C  C199  1  0.578180  0.523240  0.528260  1.0  0.6731
  C  C200  1  0.624630  0.537820  0.545850  1.0  -0.1321
  C  C201  1  0.653500  0.538770  0.499410  1.0  -0.062
  C  C202  1  0.697010  0.553760  0.515240  1.0  -0.1491
  C  C203  1  0.711770  0.567400  0.577810  1.0  0.0636
  C  C204  1  0.682730  0.565840  0.624290  1.0  -0.1602
  C  C205  1  0.639180  0.551110  0.608250  1.0  -0.0483
  C  C206  1  0.759140  0.586800  0.595220  1.0  -0.0561
  C  C207  1  0.778720  0.624780  0.631100  1.0  -0.139
  C  C208  1  0.743400  0.455100  0.521900  1.0  0.106
  C  C209  1  0.757700  0.475100  0.630100  1.0  0.015
  C  C210  1  0.244850  0.856570  0.861590  1.0  0.6731
  C  C211  1  0.291300  0.871150  0.879180  1.0  -0.1321
  C  C212  1  0.320170  0.872100  0.832740  1.0  -0.062
  C  C213  1  0.363680  0.887090  0.848570  1.0  -0.125
  C  C214  1  0.378440  0.900730  0.911140  1.0  0.0636
  C  C215  1  0.349400  0.899170  0.957620  1.0  -0.1602
  C  C216  1  0.305850  0.884440  0.941580  1.0  -0.0483
  C  C217  1  0.425810  0.920130  0.928550  1.0  -0.0562
  C  C218  1  0.445390  0.958110  0.964430  1.0  -0.139
  C  C219  1  0.410070  0.788430  0.855230  1.0  0.106
  C  C220  1  0.424370  0.808430  0.963430  1.0  0.015
  C  C221  1  0.911510  0.189910  0.194930  1.0  0.6731
  C  C222  1  0.957960  0.204490  0.212520  1.0  -0.1321
  C  C223  1  0.986830  0.205440  0.166080  1.0  -0.062
  C  C224  1  0.030340  0.220430  0.181910  1.0  -0.149
  C  C225  1  0.045100  0.234070  0.244480  1.0  0.0636
  C  C226  1  0.016060  0.232510  0.290960  1.0  -0.1602
  C  C227  1  0.972510  0.217780  0.274920  1.0  -0.0483
  C  C228  1  0.092470  0.253470  0.261890  1.0  -0.0582
  C  C229  1  0.112050  0.291450  0.297770  1.0  -0.139
  C  C230  1  0.076730  0.121770  0.188570  1.0  0.1094
  C  C231  1  0.091030  0.141770  0.296770  1.0  0.0155
  C  C232  1  0.476760  0.054940  0.528260  1.0  0.6735
  C  C233  1  0.462180  0.086810  0.545850  1.0  -0.1321
  C  C234  1  0.461230  0.114730  0.499410  1.0  -0.0632
  C  C235  1  0.446240  0.143250  0.515240  1.0  -0.1475
  C  C236  1  0.432600  0.144370  0.577810  1.0  0.0643
  C  C237  1  0.434160  0.116890  0.624290  1.0  -0.1619
  C  C238  1  0.448890  0.088070  0.608250  1.0  -0.0484
  C  C239  1  0.413200  0.172340  0.595220  1.0  -0.057
  C  C240  1  0.375220  0.153940  0.631100  1.0  -0.1362
  C  C241  1  0.544900  0.288300  0.521900  1.0  0.1088
  C  C242  1  0.524900  0.282600  0.630100  1.0  0.0172
  C  C243  1  0.143430  0.388270  0.861590  1.0  0.6735
  C  C244  1  0.128850  0.420140  0.879180  1.0  -0.1321
  C  C245  1  0.127900  0.448060  0.832740  1.0  -0.0632
  C  C246  1  0.112910  0.476580  0.848570  1.0  -0.1235
  C  C247  1  0.099270  0.477700  0.911140  1.0  0.0643
  C  C248  1  0.100830  0.450220  0.957620  1.0  -0.1619
  C  C249  1  0.115560  0.421400  0.941580  1.0  -0.0484
  C  C250  1  0.079870  0.505670  0.928550  1.0  -0.057
  C  C251  1  0.041890  0.487270  0.964430  1.0  -0.1362
  C  C252  1  0.211570  0.621630  0.855230  1.0  0.1088
  C  C253  1  0.191570  0.615930  0.963430  1.0  0.0172
  C  C254  1  0.810090  0.721610  0.194930  1.0  0.6735
  C  C255  1  0.795510  0.753480  0.212520  1.0  -0.1321
  C  C256  1  0.794560  0.781400  0.166080  1.0  -0.0632
  C  C257  1  0.779570  0.809920  0.181910  1.0  -0.1476
  C  C258  1  0.765930  0.811040  0.244480  1.0  0.0643
  C  C259  1  0.767490  0.783560  0.290960  1.0  -0.1619
  C  C260  1  0.782220  0.754740  0.274920  1.0  -0.0484
  C  C261  1  0.746530  0.839010  0.261890  1.0  -0.057
  C  C262  1  0.708550  0.820610  0.297770  1.0  -0.1362
  C  C263  1  0.878230  0.954970  0.188570  1.0  0.1084
  C  C264  1  0.858230  0.949270  0.296770  1.0  0.0204
  C  C265  1  0.945060  0.421820  0.528260  1.0  0.6748
  C  C266  1  0.913190  0.375370  0.545850  1.0  -0.1311
  C  C267  1  0.885270  0.346500  0.499410  1.0  -0.0633
  C  C268  1  0.856750  0.302990  0.515240  1.0  -0.1247
  C  C269  1  0.855630  0.288230  0.577810  1.0  0.0647
  C  C270  1  0.883110  0.317270  0.624290  1.0  -0.1603
  C  C271  1  0.911930  0.360820  0.608250  1.0  -0.0475
  C  C272  1  0.827660  0.240860  0.595220  1.0  -0.056
  C  C273  1  0.846060  0.221280  0.631100  1.0  -0.1392
  C  C274  1  0.711700  0.256600  0.521900  1.0  0.1076
  C  C275  1  0.717400  0.242300  0.630100  1.0  0.0194
  C  C276  1  0.611730  0.755150  0.861590  1.0  0.6748
  C  C277  1  0.579860  0.708700  0.879180  1.0  -0.1311
  C  C278  1  0.551940  0.679830  0.832740  1.0  -0.0633
  C  C279  1  0.523420  0.636320  0.848570  1.0  -0.1486
  C  C280  1  0.522300  0.621560  0.911140  1.0  0.0647
  C  C281  1  0.549780  0.650600  0.957620  1.0  -0.1603
  C  C282  1  0.578600  0.694150  0.941580  1.0  -0.0475
  C  C283  1  0.494330  0.574190  0.928550  1.0  -0.056
  C  C284  1  0.512730  0.554610  0.964430  1.0  -0.1392
  C  C285  1  0.378370  0.589930  0.855230  1.0  0.1076
  C  C286  1  0.384070  0.575630  0.963430  1.0  0.0194
  C  C287  1  0.278390  0.088490  0.194930  1.0  0.6748
  C  C288  1  0.246520  0.042040  0.212520  1.0  -0.1311
  C  C289  1  0.218600  0.013170  0.166080  1.0  -0.0633
  C  C290  1  0.190080  0.969660  0.181910  1.0  -0.1247
  C  C291  1  0.188960  0.954900  0.244480  1.0  0.0647
  C  C292  1  0.216440  0.983940  0.290960  1.0  -0.1603
  C  C293  1  0.245260  0.027490  0.274920  1.0  -0.0475
  C  C294  1  0.160990  0.907530  0.261890  1.0  -0.0581
  C  C295  1  0.179390  0.887950  0.297770  1.0  -0.1392
  C  C296  1  0.045030  0.923270  0.188570  1.0  0.1095
  C  C297  1  0.050730  0.908970  0.296770  1.0  0.0196
  C  C298  1  0.523240  0.578180  0.471740  1.0  0.6748
  C  C299  1  0.537820  0.624630  0.454150  1.0  -0.1322
  C  C300  1  0.538770  0.653500  0.500590  1.0  -0.0629
  C  C301  1  0.553760  0.697010  0.484760  1.0  -0.1495
  C  C302  1  0.567400  0.711770  0.422190  1.0  0.0642
  C  C303  1  0.565840  0.682730  0.375710  1.0  -0.1594
  C  C304  1  0.551110  0.639180  0.391750  1.0  -0.0481
  C  C305  1  0.586800  0.759140  0.404780  1.0  -0.0566
  C  C306  1  0.624780  0.778720  0.368900  1.0  -0.1396
  C  C307  1  0.455100  0.743400  0.478100  1.0  0.1115
  C  C308  1  0.475100  0.757700  0.369900  1.0  0.0205
  C  C309  1  0.189910  0.911510  0.805070  1.0  0.6748
  C  C310  1  0.204490  0.957960  0.787480  1.0  -0.1322
  C  C311  1  0.205440  0.986830  0.833920  1.0  -0.0629
  C  C312  1  0.220430  0.030340  0.818090  1.0  -0.1494
  C  C313  1  0.234070  0.045100  0.755520  1.0  0.0642
  C  C314  1  0.232510  0.016060  0.709040  1.0  -0.1594
  C  C315  1  0.217780  0.972510  0.725080  1.0  -0.0481
  C  C316  1  0.253470  0.092470  0.738110  1.0  -0.0587
  C  C317  1  0.291450  0.112050  0.702230  1.0  -0.1396
  C  C318  1  0.121770  0.076730  0.811430  1.0  0.1127
  C  C319  1  0.141770  0.091030  0.703230  1.0  0.0209
  C  C320  1  0.856570  0.244850  0.138410  1.0  0.6748
  C  C321  1  0.871150  0.291300  0.120820  1.0  -0.1322
  C  C322  1  0.872100  0.320170  0.167260  1.0  -0.0629
  C  C323  1  0.887090  0.363680  0.151430  1.0  -0.1255
  C  C324  1  0.900730  0.378440  0.088860  1.0  0.0642
  C  C325  1  0.899170  0.349400  0.042380  1.0  -0.1594
  C  C326  1  0.884440  0.305850  0.058420  1.0  -0.0481
  C  C327  1  0.920130  0.425810  0.071450  1.0  -0.0566
  C  C328  1  0.958110  0.445390  0.035570  1.0  -0.1396
  C  C329  1  0.788430  0.410070  0.144770  1.0  0.1115
  C  C330  1  0.808430  0.424370  0.036570  1.0  0.0205
  C  C331  1  0.054940  0.476760  0.471740  1.0  0.6734
  C  C332  1  0.086810  0.462180  0.454150  1.0  -0.1325
  C  C333  1  0.114730  0.461230  0.500590  1.0  -0.0628
  C  C334  1  0.143250  0.446240  0.484760  1.0  -0.1487
  C  C335  1  0.144370  0.432600  0.422190  1.0  0.0631
  C  C336  1  0.116890  0.434160  0.375710  1.0  -0.1594
  C  C337  1  0.088070  0.448890  0.391750  1.0  -0.0468
  C  C338  1  0.172340  0.413200  0.404780  1.0  -0.0563
  C  C339  1  0.153940  0.375220  0.368900  1.0  -0.1394
  C  C340  1  0.288300  0.544900  0.478100  1.0  0.1077
  C  C341  1  0.282600  0.524900  0.369900  1.0  0.015
  C  C342  1  0.721610  0.810090  0.805070  1.0  0.6734
  C  C343  1  0.753480  0.795510  0.787480  1.0  -0.1325
  C  C344  1  0.781400  0.794560  0.833920  1.0  -0.0628
  C  C345  1  0.809920  0.779570  0.818090  1.0  -0.1489
  C  C346  1  0.811040  0.765930  0.755520  1.0  0.0631
  C  C347  1  0.783560  0.767490  0.709040  1.0  -0.1594
  C  C348  1  0.754740  0.782220  0.725080  1.0  -0.0468
  C  C349  1  0.839010  0.746530  0.738110  1.0  -0.0563
  C  C350  1  0.820610  0.708550  0.702230  1.0  -0.1394
  C  C351  1  0.954970  0.878230  0.811430  1.0  0.106
  C  C352  1  0.949270  0.858230  0.703230  1.0  0.0141
  C  C353  1  0.388270  0.143430  0.138410  1.0  0.6734
  C  C354  1  0.420140  0.128850  0.120820  1.0  -0.1325
  C  C355  1  0.448060  0.127900  0.167260  1.0  -0.0628
  C  C356  1  0.476580  0.112910  0.151430  1.0  -0.1247
  C  C357  1  0.477700  0.099270  0.088860  1.0  0.0631
  C  C358  1  0.450220  0.100830  0.042380  1.0  -0.1594
  C  C359  1  0.421400  0.115560  0.058420  1.0  -0.0468
  C  C360  1  0.505670  0.079870  0.071450  1.0  -0.0563
  C  C361  1  0.487270  0.041890  0.035570  1.0  -0.1393
  C  C362  1  0.621630  0.211570  0.144770  1.0  0.1077
  C  C363  1  0.615930  0.191570  0.036570  1.0  0.015
  C  C364  1  0.421820  0.945060  0.471740  1.0  0.6736
  C  C365  1  0.375370  0.913190  0.454150  1.0  -0.1324
  C  C366  1  0.346500  0.885270  0.500590  1.0  -0.0626
  C  C367  1  0.302990  0.856750  0.484760  1.0  -0.1247
  C  C368  1  0.288230  0.855630  0.422190  1.0  0.0641
  C  C369  1  0.317270  0.883110  0.375710  1.0  -0.1597
  C  C370  1  0.360820  0.911930  0.391750  1.0  -0.048
  C  C371  1  0.240860  0.827660  0.404780  1.0  -0.0569
  C  C372  1  0.221280  0.846060  0.368900  1.0  -0.1352
  C  C373  1  0.256600  0.711700  0.478100  1.0  0.1061
  C  C374  1  0.242300  0.717400  0.369900  1.0  0.0194
  C  C375  1  0.088490  0.278390  0.805070  1.0  0.6736
  C  C376  1  0.042040  0.246520  0.787480  1.0  -0.1324
  C  C377  1  0.013170  0.218600  0.833920  1.0  -0.0626
  C  C378  1  0.969660  0.190080  0.818090  1.0  -0.1247
  C  C379  1  0.954900  0.188960  0.755520  1.0  0.0641
  C  C380  1  0.983940  0.216440  0.709040  1.0  -0.1597
  C  C381  1  0.027490  0.245260  0.725080  1.0  -0.048
  C  C382  1  0.907530  0.160990  0.738110  1.0  -0.0589
  C  C383  1  0.887950  0.179390  0.702230  1.0  -0.1351
  C  C384  1  0.923270  0.045030  0.811430  1.0  0.1088
  C  C385  1  0.908970  0.050730  0.703230  1.0  0.0208
  C  C386  1  0.755150  0.611730  0.138410  1.0  0.6736
  C  C387  1  0.708700  0.579860  0.120820  1.0  -0.1324
  C  C388  1  0.679830  0.551940  0.167260  1.0  -0.0626
  C  C389  1  0.636320  0.523420  0.151430  1.0  -0.1487
  C  C390  1  0.621560  0.522300  0.088860  1.0  0.0641
  C  C391  1  0.650600  0.549780  0.042380  1.0  -0.1597
  C  C392  1  0.694150  0.578600  0.058420  1.0  -0.048
  C  C393  1  0.574190  0.494330  0.071450  1.0  -0.0569
  C  C394  1  0.554610  0.512730  0.035570  1.0  -0.1351
  C  C395  1  0.589930  0.378370  0.144770  1.0  0.1061
  C  C396  1  0.575630  0.384070  0.036570  1.0  0.0194
  C  C397  1  0.421820  0.476760  0.471740  1.0  0.6734
  C  C398  1  0.375370  0.462180  0.454150  1.0  -0.133
  C  C399  1  0.346500  0.461230  0.500590  1.0  -0.0625
  C  C400  1  0.302990  0.446240  0.484760  1.0  -0.1483
  C  C401  1  0.288230  0.432600  0.422190  1.0  0.0634
  C  C402  1  0.317270  0.434160  0.375710  1.0  -0.1595
  C  C403  1  0.360820  0.448890  0.391750  1.0  -0.0469
  C  C404  1  0.240860  0.413200  0.404780  1.0  -0.0558
  C  C405  1  0.221280  0.375220  0.368900  1.0  -0.1387
  C  C406  1  0.256600  0.544900  0.478100  1.0  0.1132
  C  C407  1  0.242300  0.524900  0.369900  1.0  0.0166
  C  C408  1  0.088490  0.810090  0.805070  1.0  0.6734
  C  C409  1  0.042040  0.795510  0.787480  1.0  -0.133
  C  C410  1  0.013170  0.794560  0.833920  1.0  -0.0625
  C  C411  1  0.969660  0.779570  0.818090  1.0  -0.1481
  C  C412  1  0.954900  0.765930  0.755520  1.0  0.0634
  C  C413  1  0.983940  0.767490  0.709040  1.0  -0.1595
  C  C414  1  0.027490  0.782220  0.725080  1.0  -0.0469
  C  C415  1  0.907530  0.746530  0.738110  1.0  -0.058
  C  C416  1  0.887950  0.708550  0.702230  1.0  -0.1386
  C  C417  1  0.923270  0.878230  0.811430  1.0  0.114
  C  C418  1  0.908970  0.858230  0.703230  1.0  0.017
  C  C419  1  0.755150  0.143430  0.138410  1.0  0.6734
  C  C420  1  0.708700  0.128850  0.120820  1.0  -0.133
  C  C421  1  0.679830  0.127900  0.167260  1.0  -0.0625
  C  C422  1  0.636320  0.112910  0.151430  1.0  -0.1242
  C  C423  1  0.621560  0.099270  0.088860  1.0  0.0634
  C  C424  1  0.650600  0.100830  0.042380  1.0  -0.1595
  C  C425  1  0.694150  0.115560  0.058420  1.0  -0.0469
  C  C426  1  0.574190  0.079870  0.071450  1.0  -0.0558
  C  C427  1  0.554610  0.041890  0.035570  1.0  -0.1386
  C  C428  1  0.589930  0.211570  0.144770  1.0  0.1132
  C  C429  1  0.575630  0.191570  0.036570  1.0  0.0166
  C  C430  1  0.523240  0.945060  0.471740  1.0  0.6742
  C  C431  1  0.537820  0.913190  0.454150  1.0  -0.1325
  C  C432  1  0.538770  0.885270  0.500590  1.0  -0.0624
  C  C433  1  0.553760  0.856750  0.484760  1.0  -0.1476
  C  C434  1  0.567400  0.855630  0.422190  1.0  0.0639
  C  C435  1  0.565840  0.883110  0.375710  1.0  -0.16
  C  C436  1  0.551110  0.911930  0.391750  1.0  -0.0473
  C  C437  1  0.586800  0.827660  0.404780  1.0  -0.0566
  C  C438  1  0.624780  0.846060  0.368900  1.0  -0.1347
  C  C439  1  0.455100  0.711700  0.478100  1.0  0.1088
  C  C440  1  0.475100  0.717400  0.369900  1.0  0.0164
  C  C441  1  0.189910  0.278390  0.805070  1.0  0.6742
  C  C442  1  0.204490  0.246520  0.787480  1.0  -0.1325
  C  C443  1  0.205440  0.218600  0.833920  1.0  -0.0624
  C  C444  1  0.220430  0.190080  0.818090  1.0  -0.1477
  C  C445  1  0.234070  0.188960  0.755520  1.0  0.0639
  C  C446  1  0.232510  0.216440  0.709040  1.0  -0.16
  C  C447  1  0.217780  0.245260  0.725080  1.0  -0.0473
  C  C448  1  0.253470  0.160990  0.738110  1.0  -0.0565
  C  C449  1  0.291450  0.179390  0.702230  1.0  -0.1348
  C  C450  1  0.121770  0.045030  0.811430  1.0  0.1061
  C  C451  1  0.141770  0.050730  0.703230  1.0  0.0179
  C  C452  1  0.856570  0.611730  0.138410  1.0  0.6742
  C  C453  1  0.871150  0.579860  0.120820  1.0  -0.1325
  C  C454  1  0.872100  0.551940  0.167260  1.0  -0.0624
  C  C455  1  0.887090  0.523420  0.151430  1.0  -0.1235
  C  C456  1  0.900730  0.522300  0.088860  1.0  0.0639
  C  C457  1  0.899170  0.549780  0.042380  1.0  -0.16
  C  C458  1  0.884440  0.578600  0.058420  1.0  -0.0473
  C  C459  1  0.920130  0.494330  0.071450  1.0  -0.0565
  C  C460  1  0.958110  0.512730  0.035570  1.0  -0.1347
  C  C461  1  0.788430  0.378370  0.144770  1.0  0.1088
  C  C462  1  0.808430  0.384070  0.036570  1.0  0.0164
  C  C463  1  0.054940  0.578180  0.471740  1.0  0.6749
  C  C464  1  0.086810  0.624630  0.454150  1.0  -0.1324
  C  C465  1  0.114730  0.653500  0.500590  1.0  -0.0625
  C  C466  1  0.143250  0.697010  0.484760  1.0  -0.1247
  C  C467  1  0.144370  0.711770  0.422190  1.0  0.0643
  C  C468  1  0.116890  0.682730  0.375710  1.0  -0.1598
  C  C469  1  0.088070  0.639180  0.391750  1.0  -0.0473
  C  C470  1  0.172340  0.759140  0.404780  1.0  -0.0572
  C  C471  1  0.153940  0.778720  0.368900  1.0  -0.1394
  C  C472  1  0.288300  0.743400  0.478100  1.0  0.11
  C  C473  1  0.282600  0.757700  0.369900  1.0  0.0209
  C  C474  1  0.721610  0.911510  0.805070  1.0  0.6749
  C  C475  1  0.753480  0.957960  0.787480  1.0  -0.1324
  C  C476  1  0.781400  0.986830  0.833920  1.0  -0.0625
  C  C477  1  0.809920  0.030340  0.818090  1.0  -0.1247
  C  C478  1  0.811040  0.045100  0.755520  1.0  0.0643
  C  C479  1  0.783560  0.016060  0.709040  1.0  -0.1598
  C  C480  1  0.754740  0.972510  0.725080  1.0  -0.0473
  C  C481  1  0.839010  0.092470  0.738110  1.0  -0.0592
  C  C482  1  0.820610  0.112050  0.702230  1.0  -0.1394
  C  C483  1  0.954970  0.076730  0.811430  1.0  0.1114
  C  C484  1  0.949270  0.091030  0.703230  1.0  0.0221
  C  C485  1  0.388270  0.244850  0.138410  1.0  0.6749
  C  C486  1  0.420140  0.291300  0.120820  1.0  -0.1324
  C  C487  1  0.448060  0.320170  0.167260  1.0  -0.0625
  C  C488  1  0.476580  0.363680  0.151430  1.0  -0.1486
  C  C489  1  0.477700  0.378440  0.088860  1.0  0.0643
  C  C490  1  0.450220  0.349400  0.042380  1.0  -0.1598
  C  C491  1  0.421400  0.305850  0.058420  1.0  -0.0474
  C  C492  1  0.505670  0.425810  0.071450  1.0  -0.0572
  C  C493  1  0.487270  0.445390  0.035570  1.0  -0.1394
  C  C494  1  0.621630  0.410070  0.144770  1.0  0.11
  C  C495  1  0.615930  0.424370  0.036570  1.0  0.0209
  C  C496  1  0.476760  0.421820  0.528260  1.0  0.675
  C  C497  1  0.462180  0.375370  0.545850  1.0  -0.1313
  C  C498  1  0.461230  0.346500  0.499410  1.0  -0.0634
  C  C499  1  0.446240  0.302990  0.515240  1.0  -0.1489
  C  C500  1  0.432600  0.288230  0.577810  1.0  0.0646
  C  C501  1  0.434160  0.317270  0.624290  1.0  -0.1609
  C  C502  1  0.448890  0.360820  0.608250  1.0  -0.0484
  C  C503  1  0.413200  0.240860  0.595220  1.0  -0.0566
  C  C504  1  0.375220  0.221280  0.631100  1.0  -0.1394
  C  C505  1  0.544900  0.256600  0.521900  1.0  0.112
  C  C506  1  0.524900  0.242300  0.630100  1.0  0.0189
  C  C507  1  0.143430  0.755150  0.861590  1.0  0.675
  C  C508  1  0.128850  0.708700  0.879180  1.0  -0.1313
  C  C509  1  0.127900  0.679830  0.832740  1.0  -0.0634
  C  C510  1  0.112910  0.636320  0.848570  1.0  -0.1248
  C  C511  1  0.099270  0.621560  0.911140  1.0  0.0646
  C  C512  1  0.100830  0.650600  0.957620  1.0  -0.1609
  C  C513  1  0.115560  0.694150  0.941580  1.0  -0.0484
  C  C514  1  0.079870  0.574190  0.928550  1.0  -0.0566
  C  C515  1  0.041890  0.554610  0.964430  1.0  -0.1392
  C  C516  1  0.211570  0.589930  0.855230  1.0  0.112
  C  C517  1  0.191570  0.575630  0.963430  1.0  0.0189
  C  C518  1  0.810090  0.088490  0.194930  1.0  0.675
  C  C519  1  0.795510  0.042040  0.212520  1.0  -0.1313
  C  C520  1  0.794560  0.013170  0.166080  1.0  -0.0634
  C  C521  1  0.779570  0.969660  0.181910  1.0  -0.1487
  C  C522  1  0.765930  0.954900  0.244480  1.0  0.0646
  C  C523  1  0.767490  0.983940  0.290960  1.0  -0.1609
  C  C524  1  0.782220  0.027490  0.274920  1.0  -0.0484
  C  C525  1  0.746530  0.907530  0.261890  1.0  -0.0586
  C  C526  1  0.708550  0.887950  0.297770  1.0  -0.1393
  C  C527  1  0.878230  0.923270  0.188570  1.0  0.1134
  C  C528  1  0.858230  0.908970  0.296770  1.0  0.0192
  C  C529  1  0.945060  0.523240  0.528260  1.0  0.6731
  C  C530  1  0.913190  0.537820  0.545850  1.0  -0.1323
  C  C531  1  0.885270  0.538770  0.499410  1.0  -0.0625
  C  C532  1  0.856750  0.553760  0.515240  1.0  -0.1475
  C  C533  1  0.855630  0.567400  0.577810  1.0  0.0637
  C  C534  1  0.883110  0.565840  0.624290  1.0  -0.1611
  C  C535  1  0.911930  0.551110  0.608250  1.0  -0.0473
  C  C536  1  0.827660  0.586800  0.595220  1.0  -0.0561
  C  C537  1  0.846060  0.624780  0.631100  1.0  -0.1387
  C  C538  1  0.711700  0.455100  0.521900  1.0  0.1091
  C  C539  1  0.717400  0.475100  0.630100  1.0  0.0115
  C  C540  1  0.611730  0.856570  0.861590  1.0  0.6731
  C  C541  1  0.579860  0.871150  0.879180  1.0  -0.1323
  C  C542  1  0.551940  0.872100  0.832740  1.0  -0.0624
  C  C543  1  0.523420  0.887090  0.848570  1.0  -0.1237
  C  C544  1  0.522300  0.900730  0.911140  1.0  0.0637
  C  C545  1  0.549780  0.899170  0.957620  1.0  -0.1611
  C  C546  1  0.578600  0.884440  0.941580  1.0  -0.0473
  C  C547  1  0.494330  0.920130  0.928550  1.0  -0.0561
  C  C548  1  0.512730  0.958110  0.964430  1.0  -0.1386
  C  C549  1  0.378370  0.788430  0.855230  1.0  0.1091
  C  C550  1  0.384070  0.808430  0.963430  1.0  0.0115
  C  C551  1  0.278390  0.189910  0.194930  1.0  0.6731
  C  C552  1  0.246520  0.204490  0.212520  1.0  -0.1323
  C  C553  1  0.218600  0.205440  0.166080  1.0  -0.0625
  C  C554  1  0.190080  0.220430  0.181910  1.0  -0.1476
  C  C555  1  0.188960  0.234070  0.244480  1.0  0.0637
  C  C556  1  0.216440  0.232510  0.290960  1.0  -0.1611
  C  C557  1  0.245260  0.217780  0.274920  1.0  -0.0473
  C  C558  1  0.160990  0.253470  0.261890  1.0  -0.0561
  C  C559  1  0.179390  0.291450  0.297770  1.0  -0.1387
  C  C560  1  0.045030  0.121770  0.188570  1.0  0.1082
  C  C561  1  0.050730  0.141770  0.296770  1.0  0.0131
  C  C562  1  0.578180  0.054940  0.528260  1.0  0.6741
  C  C563  1  0.624630  0.086810  0.545850  1.0  -0.1326
  C  C564  1  0.653500  0.114730  0.499410  1.0  -0.0621
  C  C565  1  0.697010  0.143250  0.515240  1.0  -0.124
  C  C566  1  0.711770  0.144370  0.577810  1.0  0.0638
  C  C567  1  0.682730  0.116890  0.624290  1.0  -0.1613
  C  C568  1  0.639180  0.088070  0.608250  1.0  -0.0487
  C  C569  1  0.759140  0.172340  0.595220  1.0  -0.057
  C  C570  1  0.778720  0.153940  0.631100  1.0  -0.1354
  C  C571  1  0.743400  0.288300  0.521900  1.0  0.1062
  C  C572  1  0.757700  0.282600  0.630100  1.0  0.0181
  C  C573  1  0.244850  0.388270  0.861590  1.0  0.6741
  C  C574  1  0.291300  0.420140  0.879180  1.0  -0.1326
  C  C575  1  0.320170  0.448060  0.832740  1.0  -0.0621
  C  C576  1  0.363680  0.476580  0.848570  1.0  -0.1481
  C  C577  1  0.378440  0.477700  0.911140  1.0  0.0638
  C  C578  1  0.349400  0.450220  0.957620  1.0  -0.1613
  C  C579  1  0.305850  0.421400  0.941580  1.0  -0.0487
  C  C580  1  0.425810  0.505670  0.928550  1.0  -0.057
  C  C581  1  0.445390  0.487270  0.964430  1.0  -0.1354
  C  C582  1  0.410070  0.621630  0.855230  1.0  0.1062
  C  C583  1  0.424370  0.615930  0.963430  1.0  0.0181
  C  C584  1  0.911510  0.721610  0.194930  1.0  0.6741
  C  C585  1  0.957960  0.753480  0.212520  1.0  -0.1326
  C  C586  1  0.986830  0.781400  0.166080  1.0  -0.0621
  C  C587  1  0.030340  0.809920  0.181910  1.0  -0.124
  C  C588  1  0.045100  0.811040  0.244480  1.0  0.0638
  C  C589  1  0.016060  0.783560  0.290960  1.0  -0.1613
  C  C590  1  0.972510  0.754740  0.274920  1.0  -0.0487
  C  C591  1  0.092470  0.839010  0.261890  1.0  -0.0591
  C  C592  1  0.112050  0.820610  0.297770  1.0  -0.1354
  C  C593  1  0.076730  0.954970  0.188570  1.0  0.1068
  C  C594  1  0.091030  0.949270  0.296770  1.0  0.0185
  C  C595  1  0.822870  0.645740  0.649100  1.0  0.0205
  C  C596  1  0.783720  0.567450  0.576200  1.0  0.2197
  C  C597  1  0.744700  0.489400  0.572900  1.0  0.1091
  C  C598  1  0.489540  0.979070  0.982430  1.0  0.0204
  C  C599  1  0.450390  0.900780  0.909530  1.0  0.2197
  C  C600  1  0.411370  0.822730  0.906230  1.0  0.1091
  C  C601  1  0.156200  0.312410  0.315770  1.0  0.0205
  C  C602  1  0.117060  0.234120  0.242870  1.0  0.2197
  C  C603  1  0.078030  0.156070  0.239570  1.0  0.1091
  C  C604  1  0.354260  0.177130  0.649100  1.0  0.0181
  C  C605  1  0.432550  0.216280  0.576200  1.0  0.2199
  C  C606  1  0.510600  0.255300  0.572900  1.0  0.1097
  C  C607  1  0.020930  0.510460  0.982430  1.0  0.018
  C  C608  1  0.099220  0.549610  0.909530  1.0  0.2199
  C  C609  1  0.177270  0.588630  0.906230  1.0  0.1097
  C  C610  1  0.687590  0.843800  0.315770  1.0  0.0181
  C  C611  1  0.765880  0.882940  0.242870  1.0  0.2198
  C  C612  1  0.843930  0.921970  0.239570  1.0  0.1097
  C  C613  1  0.822870  0.177130  0.649100  1.0  0.0132
  C  C614  1  0.783720  0.216280  0.576200  1.0  0.2196
  C  C615  1  0.744700  0.255300  0.572900  1.0  0.1093
  C  C616  1  0.489540  0.510460  0.982430  1.0  0.013
  C  C617  1  0.450390  0.549610  0.909530  1.0  0.2196
  C  C618  1  0.411370  0.588630  0.906230  1.0  0.1093
  C  C619  1  0.156200  0.843800  0.315770  1.0  0.0132
  C  C620  1  0.117060  0.882940  0.242870  1.0  0.2189
  C  C621  1  0.078030  0.921970  0.239570  1.0  0.1094
  C  C622  1  0.645740  0.822870  0.350900  1.0  0.0187
  C  C623  1  0.567450  0.783720  0.423800  1.0  0.2184
  C  C624  1  0.489400  0.744700  0.427100  1.0  0.1092
  C  C625  1  0.312410  0.156200  0.684230  1.0  0.0187
  C  C626  1  0.234120  0.117060  0.757130  1.0  0.2185
  C  C627  1  0.156070  0.078030  0.760430  1.0  0.1092
  C  C628  1  0.979070  0.489540  0.017570  1.0  0.0187
  C  C629  1  0.900780  0.450390  0.090470  1.0  0.2184
  C  C630  1  0.822730  0.411370  0.093770  1.0  0.1092
  C  C631  1  0.177130  0.354260  0.350900  1.0  0.02
  C  C632  1  0.216280  0.432550  0.423800  1.0  0.2184
  C  C633  1  0.255300  0.510600  0.427100  1.0  0.1105
  C  C634  1  0.843800  0.687590  0.684230  1.0  0.02
  C  C635  1  0.882940  0.765880  0.757130  1.0  0.2184
  C  C636  1  0.921970  0.843930  0.760430  1.0  0.1105
  C  C637  1  0.510460  0.020930  0.017570  1.0  0.0198
  C  C638  1  0.549610  0.099220  0.090470  1.0  0.2184
  C  C639  1  0.588630  0.177270  0.093770  1.0  0.1105
  C  C640  1  0.177130  0.822870  0.350900  1.0  0.0127
  C  C641  1  0.216280  0.783720  0.423800  1.0  0.218
  C  C642  1  0.255300  0.744700  0.427100  1.0  0.109
  C  C643  1  0.843800  0.156200  0.684230  1.0  0.0127
  C  C644  1  0.882940  0.117060  0.757130  1.0  0.2173
  C  C645  1  0.921970  0.078030  0.760430  1.0  0.109
  C  C646  1  0.510460  0.489540  0.017570  1.0  0.0125
  C  C647  1  0.549610  0.450390  0.090470  1.0  0.218
  C  C648  1  0.588630  0.411370  0.093770  1.0  0.109
  O  O649  1  0.553890  0.523960  0.572990  1.0  -0.584
  O  O650  1  0.566560  0.511440  0.470230  1.0  -0.5699
  O  O651  1  0.220560  0.857290  0.906320  1.0  -0.584
  O  O652  1  0.233230  0.844770  0.803560  1.0  -0.5699
  O  O653  1  0.887220  0.190630  0.239660  1.0  -0.584
  O  O654  1  0.899890  0.178110  0.136900  1.0  -0.5699
  O  O655  1  0.476040  0.029930  0.572990  1.0  -0.5851
  O  O656  1  0.488560  0.055120  0.470230  1.0  -0.5719
  O  O657  1  0.142710  0.363260  0.906320  1.0  -0.5864
  O  O658  1  0.155230  0.388450  0.803560  1.0  -0.5719
  O  O659  1  0.809370  0.696600  0.239660  1.0  -0.5851
  O  O660  1  0.821890  0.721790  0.136900  1.0  -0.5697
  O  O661  1  0.970070  0.446110  0.572990  1.0  -0.5832
  O  O662  1  0.944880  0.433440  0.470230  1.0  -0.5691
  O  O663  1  0.636740  0.779440  0.906320  1.0  -0.5831
  O  O664  1  0.611550  0.766770  0.803560  1.0  -0.5691
  O  O665  1  0.303400  0.112780  0.239660  1.0  -0.5832
  O  O666  1  0.278210  0.100110  0.136900  1.0  -0.571
  O  O667  1  0.523960  0.553890  0.427010  1.0  -0.5848
  O  O668  1  0.511440  0.566560  0.529770  1.0  -0.5697
  O  O669  1  0.190630  0.887220  0.760340  1.0  -0.5848
  O  O670  1  0.178110  0.899890  0.863100  1.0  -0.5698
  O  O671  1  0.857290  0.220560  0.093680  1.0  -0.5848
  O  O672  1  0.844770  0.233230  0.196440  1.0  -0.5697
  O  O673  1  0.029930  0.476040  0.427010  1.0  -0.5847
  O  O674  1  0.055120  0.488560  0.529770  1.0  -0.5707
  O  O675  1  0.696600  0.809370  0.760340  1.0  -0.5847
  O  O676  1  0.721790  0.821890  0.863100  1.0  -0.569
  O  O677  1  0.363260  0.142710  0.093680  1.0  -0.5864
  O  O678  1  0.388450  0.155230  0.196440  1.0  -0.5707
  O  O679  1  0.446110  0.970070  0.427010  1.0  -0.5857
  O  O680  1  0.433440  0.944880  0.529770  1.0  -0.5696
  O  O681  1  0.112780  0.303400  0.760340  1.0  -0.5857
  O  O682  1  0.100110  0.278210  0.863100  1.0  -0.5716
  O  O683  1  0.779440  0.636740  0.093680  1.0  -0.5852
  O  O684  1  0.766770  0.611550  0.196440  1.0  -0.5696
  O  O685  1  0.446110  0.476040  0.427010  1.0  -0.5846
  O  O686  1  0.433440  0.488560  0.529770  1.0  -0.5699
  O  O687  1  0.112780  0.809370  0.760340  1.0  -0.5846
  O  O688  1  0.100110  0.821890  0.863100  1.0  -0.5699
  O  O689  1  0.779440  0.142710  0.093680  1.0  -0.5846
  O  O690  1  0.766770  0.155230  0.196440  1.0  -0.5699
  O  O691  1  0.523960  0.970070  0.427010  1.0  -0.5852
  O  O692  1  0.511440  0.944880  0.529770  1.0  -0.5713
  O  O693  1  0.190630  0.303400  0.760340  1.0  -0.5852
  O  O694  1  0.178110  0.278210  0.863100  1.0  -0.5696
  O  O695  1  0.857290  0.636740  0.093680  1.0  -0.587
  O  O696  1  0.844770  0.611550  0.196440  1.0  -0.5713
  O  O697  1  0.029930  0.553890  0.427010  1.0  -0.5853
  O  O698  1  0.055120  0.566560  0.529770  1.0  -0.5686
  O  O699  1  0.696600  0.887220  0.760340  1.0  -0.5853
  O  O700  1  0.721790  0.899890  0.863100  1.0  -0.5705
  O  O701  1  0.363260  0.220560  0.093680  1.0  -0.5845
  O  O702  1  0.388450  0.233230  0.196440  1.0  -0.5686
  O  O703  1  0.476040  0.446110  0.572990  1.0  -0.5852
  O  O704  1  0.488560  0.433440  0.470230  1.0  -0.5688
  O  O705  1  0.142710  0.779440  0.906320  1.0  -0.5852
  O  O706  1  0.155230  0.766770  0.803560  1.0  -0.5688
  O  O707  1  0.809370  0.112780  0.239660  1.0  -0.5852
  O  O708  1  0.821890  0.100110  0.136900  1.0  -0.5688
  O  O709  1  0.970070  0.523960  0.572990  1.0  -0.5838
  O  O710  1  0.944880  0.511440  0.470230  1.0  -0.5716
  O  O711  1  0.636740  0.857290  0.906320  1.0  -0.5849
  O  O712  1  0.611550  0.844770  0.803560  1.0  -0.5716
  O  O713  1  0.303400  0.190630  0.239660  1.0  -0.5838
  O  O714  1  0.278210  0.178110  0.136900  1.0  -0.5698
  O  O715  1  0.553890  0.029930  0.572990  1.0  -0.5854
  O  O716  1  0.566560  0.055120  0.470230  1.0  -0.5697
  O  O717  1  0.220560  0.363260  0.906320  1.0  -0.5855
  O  O718  1  0.233230  0.388450  0.803560  1.0  -0.5697
  O  O719  1  0.887220  0.696600  0.239660  1.0  -0.5854
  O  O720  1  0.899890  0.721790  0.136900  1.0  -0.5715
  O  O721  1  0.764390  0.528780  0.542150  1.0  -0.2695
  O  O722  1  0.431060  0.862110  0.875480  1.0  -0.2695
  O  O723  1  0.097720  0.195450  0.208820  1.0  -0.2695
  O  O724  1  0.471220  0.235610  0.542150  1.0  -0.2682
  O  O725  1  0.137890  0.568940  0.875480  1.0  -0.2682
  O  O726  1  0.804550  0.902280  0.208820  1.0  -0.2682
  O  O727  1  0.764390  0.235610  0.542150  1.0  -0.2677
  O  O728  1  0.431060  0.568940  0.875480  1.0  -0.2677
  O  O729  1  0.097720  0.902280  0.208820  1.0  -0.268
  O  O730  1  0.528780  0.764390  0.457850  1.0  -0.2683
  O  O731  1  0.195450  0.097720  0.791180  1.0  -0.2683
  O  O732  1  0.862110  0.431060  0.124520  1.0  -0.2683
  O  O733  1  0.235610  0.471220  0.457850  1.0  -0.2684
  O  O734  1  0.902280  0.804550  0.791180  1.0  -0.2684
  O  O735  1  0.568940  0.137890  0.124520  1.0  -0.2684
  O  O736  1  0.235610  0.764390  0.457850  1.0  -0.2673
  O  O737  1  0.902280  0.097720  0.791180  1.0  -0.2676
  O  O738  1  0.568940  0.431060  0.124520  1.0  -0.2673
