# generated using pymatgen
data_CuH10(C5O)5
_symmetry_space_group_name_H-M   'P 1'
_cell_length_a   35.85140000
_cell_length_b   35.85140000
_cell_length_c   15.62600000
_cell_angle_alpha   90.00000000
_cell_angle_beta   90.00000000
_cell_angle_gamma   120.00000000
_symmetry_Int_Tables_number   1
_chemical_formula_structural   CuH10(C5O)5
_chemical_formula_sum   'Cu18 H180 C450 O90'
_cell_volume   17393.64855731
_cell_formula_units_Z   18
loop_
 _symmetry_equiv_pos_site_id
 _symmetry_equiv_pos_as_xyz
  1  'x, y, z'
loop_
 _atom_site_type_symbol
 _atom_site_label
 _atom_site_symmetry_multiplicity
 _atom_site_fract_x
 _atom_site_fract_y
 _atom_site_fract_z
 _atom_site_occupancy
 _atom_site_charge
  Cu  Cu1  1  0.675420  0.837710  0.416350  1.0  0.8986
  Cu  Cu2  1  0.342090  0.171040  0.749680  1.0  0.8986
  Cu  Cu3  1  0.008750  0.504380  0.083020  1.0  0.8988
  Cu  Cu4  1  0.162290  0.837710  0.416350  1.0  0.902
  Cu  Cu5  1  0.828960  0.171040  0.749680  1.0  0.902
  Cu  Cu6  1  0.495620  0.504380  0.083020  1.0  0.9019
  Cu  Cu7  1  0.162290  0.324580  0.416350  1.0  0.8988
  Cu  Cu8  1  0.828960  0.657910  0.749680  1.0  0.8988
  Cu  Cu9  1  0.495620  0.991250  0.083020  1.0  0.8988
  Cu  Cu10  1  0.837710  0.675420  0.583650  1.0  0.901
  Cu  Cu11  1  0.504380  0.008750  0.916980  1.0  0.9011
  Cu  Cu12  1  0.171040  0.342090  0.250320  1.0  0.901
  Cu  Cu13  1  0.837710  0.162290  0.583650  1.0  0.9054
  Cu  Cu14  1  0.504380  0.495620  0.916980  1.0  0.9053
  Cu  Cu15  1  0.171040  0.828960  0.250320  1.0  0.9054
  Cu  Cu16  1  0.324580  0.162290  0.583650  1.0  0.9012
  Cu  Cu17  1  0.991250  0.495620  0.916980  1.0  0.9013
  Cu  Cu18  1  0.657910  0.828960  0.250320  1.0  0.9012
  H  H19  1  0.554600  0.693000  0.242500  1.0  0.121
  H  H20  1  0.507300  0.620400  0.270800  1.0  0.102
  H  H21  1  0.541400  0.638000  0.514300  1.0  0.1082
  H  H22  1  0.589500  0.710200  0.488300  1.0  0.1171
  H  H23  1  0.541000  0.570200  0.469600  1.0  0.1111
  H  H24  1  0.221270  0.026330  0.575830  1.0  0.1181
  H  H25  1  0.173970  0.953730  0.604130  1.0  0.102
  H  H26  1  0.208070  0.971330  0.847630  1.0  0.1082
  H  H27  1  0.256170  0.043530  0.821630  1.0  0.1166
  H  H28  1  0.207670  0.903530  0.802930  1.0  0.1111
  H  H29  1  0.887930  0.359670  0.909170  1.0  0.121
  H  H30  1  0.840630  0.287070  0.937470  1.0  0.1019
  H  H31  1  0.874730  0.304670  0.180970  1.0  0.1082
  H  H32  1  0.922830  0.376870  0.154970  1.0  0.1171
  H  H33  1  0.874330  0.236870  0.136270  1.0  0.1111
  H  H34  1  0.307000  0.861600  0.242500  1.0  0.1189
  H  H35  1  0.379600  0.886900  0.270800  1.0  0.1018
  H  H36  1  0.362000  0.903400  0.514300  1.0  0.1094
  H  H37  1  0.289800  0.879300  0.488300  1.0  0.116
  H  H38  1  0.429800  0.970800  0.469600  1.0  0.1115
  H  H39  1  0.973670  0.194930  0.575830  1.0  0.1189
  H  H40  1  0.046270  0.220230  0.604130  1.0  0.104
  H  H41  1  0.028670  0.236730  0.847630  1.0  0.1102
  H  H42  1  0.956470  0.212630  0.821630  1.0  0.1161
  H  H43  1  0.096470  0.304130  0.802930  1.0  0.1115
  H  H44  1  0.640330  0.528270  0.909170  1.0  0.1189
  H  H45  1  0.712930  0.553570  0.937470  1.0  0.1018
  H  H46  1  0.695330  0.570070  0.180970  1.0  0.1094
  H  H47  1  0.623130  0.545970  0.154970  1.0  0.116
  H  H48  1  0.763130  0.637470  0.136270  1.0  0.1115
  H  H49  1  0.138400  0.445400  0.242500  1.0  0.1186
  H  H50  1  0.113100  0.492700  0.270800  1.0  0.1043
  H  H51  1  0.096600  0.458600  0.514300  1.0  0.1097
  H  H52  1  0.120700  0.410500  0.488300  1.0  0.1165
  H  H53  1  0.029200  0.459000  0.469600  1.0  0.1127
  H  H54  1  0.805070  0.778730  0.575830  1.0  0.1215
  H  H55  1  0.779770  0.826030  0.604130  1.0  0.102
  H  H56  1  0.763270  0.791930  0.847630  1.0  0.1091
  H  H57  1  0.787370  0.743830  0.821630  1.0  0.117
  H  H58  1  0.695870  0.792330  0.802930  1.0  0.1127
  H  H59  1  0.471730  0.112070  0.909170  1.0  0.1186
  H  H60  1  0.446430  0.159370  0.937470  1.0  0.1043
  H  H61  1  0.429930  0.125270  0.180970  1.0  0.1097
  H  H62  1  0.454030  0.077170  0.154970  1.0  0.1165
  H  H63  1  0.362530  0.125670  0.136270  1.0  0.1127
  H  H64  1  0.693000  0.554600  0.757500  1.0  0.1216
  H  H65  1  0.620400  0.507300  0.729200  1.0  0.103
  H  H66  1  0.638000  0.541400  0.485700  1.0  0.1095
  H  H67  1  0.710200  0.589500  0.511700  1.0  0.1168
  H  H68  1  0.570200  0.541000  0.530400  1.0  0.1128
  H  H69  1  0.359670  0.887930  0.090830  1.0  0.1216
  H  H70  1  0.287070  0.840630  0.062530  1.0  0.1029
  H  H71  1  0.304670  0.874730  0.819030  1.0  0.1095
  H  H72  1  0.376870  0.922830  0.845030  1.0  0.1168
  H  H73  1  0.236870  0.874330  0.863730  1.0  0.1127
  H  H74  1  0.026330  0.221270  0.424170  1.0  0.1186
  H  H75  1  0.953730  0.173970  0.395870  1.0  0.103
  H  H76  1  0.971330  0.208070  0.152370  1.0  0.1095
  H  H77  1  0.043530  0.256170  0.178370  1.0  0.1163
  H  H78  1  0.903530  0.207670  0.197070  1.0  0.1128
  H  H79  1  0.861600  0.307000  0.757500  1.0  0.1189
  H  H80  1  0.886900  0.379600  0.729200  1.0  0.1029
  H  H81  1  0.903400  0.362000  0.485700  1.0  0.1091
  H  H82  1  0.879300  0.289800  0.511700  1.0  0.1164
  H  H83  1  0.970800  0.429800  0.530400  1.0  0.112
  H  H84  1  0.528270  0.640330  0.090830  1.0  0.1189
  H  H85  1  0.553570  0.712930  0.062530  1.0  0.1028
  H  H86  1  0.570070  0.695330  0.819030  1.0  0.1091
  H  H87  1  0.545970  0.623130  0.845030  1.0  0.1164
  H  H88  1  0.637470  0.763130  0.863730  1.0  0.112
  H  H89  1  0.194930  0.973670  0.424170  1.0  0.1189
  H  H90  1  0.220230  0.046270  0.395870  1.0  0.1049
  H  H91  1  0.236730  0.028670  0.152370  1.0  0.1098
  H  H92  1  0.212630  0.956470  0.178370  1.0  0.1164
  H  H93  1  0.304130  0.096470  0.197070  1.0  0.112
  H  H94  1  0.445400  0.138400  0.757500  1.0  0.1191
  H  H95  1  0.492700  0.113100  0.729200  1.0  0.1052
  H  H96  1  0.458600  0.096600  0.485700  1.0  0.1103
  H  H97  1  0.410500  0.120700  0.511700  1.0  0.1162
  H  H98  1  0.459000  0.029200  0.530400  1.0  0.1124
  H  H99  1  0.112070  0.471730  0.090830  1.0  0.1191
  H  H100  1  0.159370  0.446430  0.062530  1.0  0.1052
  H  H101  1  0.125270  0.429930  0.819030  1.0  0.1103
  H  H102  1  0.077170  0.454030  0.845030  1.0  0.1162
  H  H103  1  0.125670  0.362530  0.863730  1.0  0.1124
  H  H104  1  0.778730  0.805070  0.424170  1.0  0.1215
  H  H105  1  0.826030  0.779770  0.395870  1.0  0.1028
  H  H106  1  0.791930  0.763270  0.152370  1.0  0.1097
  H  H107  1  0.743830  0.787370  0.178370  1.0  0.1169
  H  H108  1  0.792330  0.695870  0.197070  1.0  0.1124
  H  H109  1  0.445400  0.307000  0.757500  1.0  0.1215
  H  H110  1  0.492700  0.379600  0.729200  1.0  0.1032
  H  H111  1  0.458600  0.362000  0.485700  1.0  0.1093
  H  H112  1  0.410500  0.289800  0.511700  1.0  0.1169
  H  H113  1  0.459000  0.429800  0.530400  1.0  0.1113
  H  H114  1  0.112070  0.640330  0.090830  1.0  0.1215
  H  H115  1  0.159370  0.712930  0.062530  1.0  0.1031
  H  H116  1  0.125270  0.695330  0.819030  1.0  0.1093
  H  H117  1  0.077170  0.623130  0.845030  1.0  0.1169
  H  H118  1  0.125670  0.763130  0.863730  1.0  0.1113
  H  H119  1  0.778730  0.973670  0.424170  1.0  0.1188
  H  H120  1  0.826030  0.046270  0.395870  1.0  0.1032
  H  H121  1  0.791930  0.028670  0.152370  1.0  0.1093
  H  H122  1  0.743830  0.956470  0.178370  1.0  0.1164
  H  H123  1  0.792330  0.096470  0.197070  1.0  0.1113
  H  H124  1  0.693000  0.138400  0.757500  1.0  0.1188
  H  H125  1  0.620400  0.113100  0.729200  1.0  0.1035
  H  H126  1  0.638000  0.096600  0.485700  1.0  0.1097
  H  H127  1  0.710200  0.120700  0.511700  1.0  0.1162
  H  H128  1  0.570200  0.029200  0.530400  1.0  0.1123
  H  H129  1  0.359670  0.471730  0.090830  1.0  0.1188
  H  H130  1  0.287070  0.446430  0.062530  1.0  0.1034
  H  H131  1  0.304670  0.429930  0.819030  1.0  0.1097
  H  H132  1  0.376870  0.454030  0.845030  1.0  0.1162
  H  H133  1  0.236870  0.362530  0.863730  1.0  0.1123
  H  H134  1  0.026330  0.805070  0.424170  1.0  0.1188
  H  H135  1  0.953730  0.779770  0.395870  1.0  0.1053
  H  H136  1  0.971330  0.763270  0.152370  1.0  0.1104
  H  H137  1  0.043530  0.787370  0.178370  1.0  0.1163
  H  H138  1  0.903530  0.695870  0.197070  1.0  0.1123
  H  H139  1  0.861600  0.554600  0.757500  1.0  0.119
  H  H140  1  0.886900  0.507300  0.729200  1.0  0.1052
  H  H141  1  0.903400  0.541400  0.485700  1.0  0.1105
  H  H142  1  0.879300  0.589500  0.511700  1.0  0.116
  H  H143  1  0.970800  0.541000  0.530400  1.0  0.1123
  H  H144  1  0.528270  0.887930  0.090830  1.0  0.119
  H  H145  1  0.553570  0.840630  0.062530  1.0  0.1052
  H  H146  1  0.570070  0.874730  0.819030  1.0  0.1105
  H  H147  1  0.545970  0.922830  0.845030  1.0  0.116
  H  H148  1  0.637470  0.874330  0.863730  1.0  0.1123
  H  H149  1  0.194930  0.221270  0.424170  1.0  0.1217
  H  H150  1  0.220230  0.173970  0.395870  1.0  0.1031
  H  H151  1  0.236730  0.208070  0.152370  1.0  0.1097
  H  H152  1  0.212630  0.256170  0.178370  1.0  0.1166
  H  H153  1  0.304130  0.207670  0.197070  1.0  0.1123
  H  H154  1  0.307000  0.445400  0.242500  1.0  0.1216
  H  H155  1  0.379600  0.492700  0.270800  1.0  0.1023
  H  H156  1  0.362000  0.458600  0.514300  1.0  0.1094
  H  H157  1  0.289800  0.410500  0.488300  1.0  0.1169
  H  H158  1  0.429800  0.459000  0.469600  1.0  0.1136
  H  H159  1  0.973670  0.778730  0.575830  1.0  0.1188
  H  H160  1  0.046270  0.826030  0.604130  1.0  0.1023
  H  H161  1  0.028670  0.791930  0.847630  1.0  0.1094
  H  H162  1  0.956470  0.743830  0.821630  1.0  0.1164
  H  H163  1  0.096470  0.792330  0.802930  1.0  0.1136
  H  H164  1  0.640330  0.112070  0.909170  1.0  0.1216
  H  H165  1  0.712930  0.159370  0.937470  1.0  0.1022
  H  H166  1  0.695330  0.125270  0.180970  1.0  0.1094
  H  H167  1  0.623130  0.077170  0.154970  1.0  0.1169
  H  H168  1  0.763130  0.125670  0.136270  1.0  0.1135
  H  H169  1  0.138400  0.693000  0.242500  1.0  0.1181
  H  H170  1  0.113100  0.620400  0.270800  1.0  0.1024
  H  H171  1  0.096600  0.638000  0.514300  1.0  0.1086
  H  H172  1  0.120700  0.710200  0.488300  1.0  0.1164
  H  H173  1  0.029200  0.570200  0.469600  1.0  0.1119
  H  H174  1  0.805070  0.026330  0.575830  1.0  0.1181
  H  H175  1  0.779770  0.953730  0.604130  1.0  0.1044
  H  H176  1  0.763270  0.971330  0.847630  1.0  0.1094
  H  H177  1  0.787370  0.043530  0.821630  1.0  0.1164
  H  H178  1  0.695870  0.903530  0.802930  1.0  0.1119
  H  H179  1  0.471730  0.359670  0.909170  1.0  0.1181
  H  H180  1  0.446430  0.287070  0.937470  1.0  0.1023
  H  H181  1  0.429930  0.304670  0.180970  1.0  0.1086
  H  H182  1  0.454030  0.376870  0.154970  1.0  0.1164
  H  H183  1  0.362530  0.236870  0.136270  1.0  0.112
  H  H184  1  0.554600  0.861600  0.242500  1.0  0.1185
  H  H185  1  0.507300  0.886900  0.270800  1.0  0.1044
  H  H186  1  0.541400  0.903400  0.514300  1.0  0.1097
  H  H187  1  0.589500  0.879300  0.488300  1.0  0.1165
  H  H188  1  0.541000  0.970800  0.469600  1.0  0.1124
  H  H189  1  0.221270  0.194930  0.575830  1.0  0.1214
  H  H190  1  0.173970  0.220230  0.604130  1.0  0.1024
  H  H191  1  0.208070  0.236730  0.847630  1.0  0.1091
  H  H192  1  0.256170  0.212630  0.821630  1.0  0.117
  H  H193  1  0.207670  0.304130  0.802930  1.0  0.1124
  H  H194  1  0.887930  0.528270  0.909170  1.0  0.1185
  H  H195  1  0.840630  0.553570  0.937470  1.0  0.1044
  H  H196  1  0.874730  0.570070  0.180970  1.0  0.1097
  H  H197  1  0.922830  0.545970  0.154970  1.0  0.1165
  H  H198  1  0.874330  0.637470  0.136270  1.0  0.1125
  C  C199  1  0.609870  0.755280  0.346500  1.0  0.6647
  C  C200  1  0.577460  0.708540  0.364400  1.0  -0.1424
  C  C201  1  0.552520  0.682040  0.297300  1.0  -0.0801
  C  C202  1  0.524220  0.638280  0.314900  1.0  -0.1224
  C  C203  1  0.520740  0.621230  0.394200  1.0  0.0792
  C  C204  1  0.544500  0.648660  0.458900  1.0  -0.1498
  C  C205  1  0.573260  0.692360  0.443500  1.0  -0.0586
  C  C206  1  0.493140  0.574250  0.412700  1.0  -0.0064
  C  C207  1  0.511990  0.554070  0.455100  1.0  -0.1442
  C  C208  1  0.426000  0.613100  0.471500  1.0  -0.006
  C  C209  1  0.375600  0.589200  0.335100  1.0  0.0448
  C  C210  1  0.276540  0.088610  0.679830  1.0  0.6647
  C  C211  1  0.244130  0.041870  0.697730  1.0  -0.1424
  C  C212  1  0.219190  0.015370  0.630630  1.0  -0.0801
  C  C213  1  0.190890  0.971610  0.648230  1.0  -0.1224
  C  C214  1  0.187410  0.954560  0.727530  1.0  0.0792
  C  C215  1  0.211170  0.981990  0.792230  1.0  -0.1498
  C  C216  1  0.239930  0.025690  0.776830  1.0  -0.0586
  C  C217  1  0.159810  0.907580  0.746030  1.0  -0.0064
  C  C218  1  0.178660  0.887400  0.788430  1.0  -0.1442
  C  C219  1  0.092670  0.946430  0.804830  1.0  -0.0047
  C  C220  1  0.042270  0.922530  0.668430  1.0  0.0359
  C  C221  1  0.943200  0.421950  0.013170  1.0  0.6647
  C  C222  1  0.910790  0.375210  0.031070  1.0  -0.1424
  C  C223  1  0.885850  0.348710  0.963970  1.0  -0.0801
  C  C224  1  0.857550  0.304950  0.981570  1.0  -0.1224
  C  C225  1  0.854070  0.287900  0.060870  1.0  0.0792
  C  C226  1  0.877830  0.315330  0.125570  1.0  -0.1498
  C  C227  1  0.906590  0.359030  0.110170  1.0  -0.0586
  C  C228  1  0.826470  0.240920  0.079370  1.0  -0.0064
  C  C229  1  0.845320  0.220740  0.121770  1.0  -0.1442
  C  C230  1  0.759330  0.279770  0.138170  1.0  -0.006
  C  C231  1  0.708930  0.255870  0.001770  1.0  0.0448
  C  C232  1  0.244720  0.854590  0.346500  1.0  0.6623
  C  C233  1  0.291460  0.868920  0.364400  1.0  -0.1439
  C  C234  1  0.317960  0.870480  0.297300  1.0  -0.0803
  C  C235  1  0.361720  0.885940  0.314900  1.0  -0.1215
  C  C236  1  0.378770  0.899510  0.394200  1.0  0.077
  C  C237  1  0.351340  0.895840  0.458900  1.0  -0.1511
  C  C238  1  0.307640  0.880900  0.443500  1.0  -0.0566
  C  C239  1  0.425750  0.918890  0.412700  1.0  -0.0072
  C  C240  1  0.445930  0.957920  0.455100  1.0  -0.1465
  C  C241  1  0.386900  0.812900  0.471500  1.0  -0.0074
  C  C242  1  0.410800  0.786400  0.335100  1.0  0.047
  C  C243  1  0.911390  0.187920  0.679830  1.0  0.6623
  C  C244  1  0.958130  0.202250  0.697730  1.0  -0.1439
  C  C245  1  0.984630  0.203810  0.630630  1.0  -0.0803
  C  C246  1  0.028390  0.219270  0.648230  1.0  -0.1215
  C  C247  1  0.045440  0.232840  0.727530  1.0  0.077
  C  C248  1  0.018010  0.229170  0.792230  1.0  -0.1511
  C  C249  1  0.974310  0.214230  0.776830  1.0  -0.0566
  C  C250  1  0.092420  0.252220  0.746030  1.0  -0.0072
  C  C251  1  0.112600  0.291250  0.788430  1.0  -0.1465
  C  C252  1  0.053570  0.146230  0.804830  1.0  -0.0044
  C  C253  1  0.077470  0.119730  0.668430  1.0  0.043
  C  C254  1  0.578050  0.521260  0.013170  1.0  0.6623
  C  C255  1  0.624790  0.535590  0.031070  1.0  -0.1439
  C  C256  1  0.651290  0.537150  0.963970  1.0  -0.0803
  C  C257  1  0.695050  0.552610  0.981570  1.0  -0.1215
  C  C258  1  0.712100  0.566180  0.060870  1.0  0.077
  C  C259  1  0.684670  0.562510  0.125570  1.0  -0.1511
  C  C260  1  0.640970  0.547570  0.110170  1.0  -0.0566
  C  C261  1  0.759080  0.585560  0.079370  1.0  -0.0072
  C  C262  1  0.779260  0.624590  0.121770  1.0  -0.1465
  C  C263  1  0.720230  0.479570  0.138170  1.0  -0.0074
  C  C264  1  0.744130  0.453070  0.001770  1.0  0.047
  C  C265  1  0.145410  0.390130  0.346500  1.0  0.663
  C  C266  1  0.131080  0.422540  0.364400  1.0  -0.1438
  C  C267  1  0.129520  0.447480  0.297300  1.0  -0.0809
  C  C268  1  0.114060  0.475780  0.314900  1.0  -0.122
  C  C269  1  0.100490  0.479260  0.394200  1.0  0.0787
  C  C270  1  0.104160  0.455500  0.458900  1.0  -0.1512
  C  C271  1  0.119100  0.426740  0.443500  1.0  -0.0584
  C  C272  1  0.081110  0.506860  0.412700  1.0  -0.0072
  C  C273  1  0.042080  0.488010  0.455100  1.0  -0.1413
  C  C274  1  0.187100  0.574000  0.471500  1.0  0.0009
  C  C275  1  0.213600  0.624400  0.335100  1.0  0.0349
  C  C276  1  0.812080  0.723460  0.679830  1.0  0.663
  C  C277  1  0.797750  0.755870  0.697730  1.0  -0.1438
  C  C278  1  0.796190  0.780810  0.630630  1.0  -0.0809
  C  C279  1  0.780730  0.809110  0.648230  1.0  -0.122
  C  C280  1  0.767160  0.812590  0.727530  1.0  0.0787
  C  C281  1  0.770830  0.788830  0.792230  1.0  -0.1512
  C  C282  1  0.785770  0.760070  0.776830  1.0  -0.0584
  C  C283  1  0.747780  0.840190  0.746030  1.0  -0.0072
  C  C284  1  0.708750  0.821340  0.788430  1.0  -0.1413
  C  C285  1  0.853770  0.907330  0.804830  1.0  0.0027
  C  C286  1  0.880270  0.957730  0.668430  1.0  0.0453
  C  C287  1  0.478740  0.056800  0.013170  1.0  0.663
  C  C288  1  0.464410  0.089210  0.031070  1.0  -0.1436
  C  C289  1  0.462850  0.114150  0.963970  1.0  -0.0809
  C  C290  1  0.447390  0.142450  0.981570  1.0  -0.122
  C  C291  1  0.433820  0.145930  0.060870  1.0  0.0787
  C  C292  1  0.437490  0.122170  0.125570  1.0  -0.1512
  C  C293  1  0.452430  0.093410  0.110170  1.0  -0.0584
  C  C294  1  0.414440  0.173530  0.079370  1.0  -0.0072
  C  C295  1  0.375410  0.154680  0.121770  1.0  -0.1413
  C  C296  1  0.520430  0.240670  0.138170  1.0  0.0009
  C  C297  1  0.546930  0.291070  0.001770  1.0  0.0349
  C  C298  1  0.755280  0.609870  0.653500  1.0  0.6634
  C  C299  1  0.708540  0.577460  0.635600  1.0  -0.1446
  C  C300  1  0.682040  0.552520  0.702700  1.0  -0.0772
  C  C301  1  0.638280  0.524220  0.685100  1.0  -0.1222
  C  C302  1  0.621230  0.520740  0.605800  1.0  0.0789
  C  C303  1  0.648660  0.544500  0.541100  1.0  -0.1478
  C  C304  1  0.692360  0.573260  0.556500  1.0  -0.0585
  C  C305  1  0.574250  0.493140  0.587300  1.0  -0.0071
  C  C306  1  0.554070  0.511990  0.544900  1.0  -0.1428
  C  C307  1  0.613100  0.426000  0.528500  1.0  0.0003
  C  C308  1  0.589200  0.375600  0.664900  1.0  0.0438
  C  C309  1  0.421950  0.943200  0.986830  1.0  0.6634
  C  C310  1  0.375210  0.910790  0.968930  1.0  -0.1447
  C  C311  1  0.348710  0.885850  0.036030  1.0  -0.0772
  C  C312  1  0.304950  0.857550  0.018430  1.0  -0.1222
  C  C313  1  0.287900  0.854070  0.939130  1.0  0.0789
  C  C314  1  0.315330  0.877830  0.874430  1.0  -0.1478
  C  C315  1  0.359030  0.906590  0.889830  1.0  -0.0585
  C  C316  1  0.240920  0.826470  0.920630  1.0  -0.0071
  C  C317  1  0.220740  0.845320  0.878230  1.0  -0.1428
  C  C318  1  0.279770  0.759330  0.861830  1.0  0.0003
  C  C319  1  0.255870  0.708930  0.998230  1.0  0.0438
  C  C320  1  0.088610  0.276540  0.320170  1.0  0.6634
  C  C321  1  0.041870  0.244130  0.302270  1.0  -0.1446
  C  C322  1  0.015370  0.219190  0.369370  1.0  -0.0772
  C  C323  1  0.971610  0.190890  0.351770  1.0  -0.1222
  C  C324  1  0.954560  0.187410  0.272470  1.0  0.0789
  C  C325  1  0.981990  0.211170  0.207770  1.0  -0.1478
  C  C326  1  0.025690  0.239930  0.223170  1.0  -0.0585
  C  C327  1  0.907580  0.159810  0.253970  1.0  -0.0071
  C  C328  1  0.887400  0.178660  0.211570  1.0  -0.1428
  C  C329  1  0.946430  0.092670  0.195170  1.0  0.0023
  C  C330  1  0.922530  0.042270  0.331570  1.0  0.0349
  C  C331  1  0.854590  0.244720  0.653500  1.0  0.6646
  C  C332  1  0.868920  0.291460  0.635600  1.0  -0.1439
  C  C333  1  0.870480  0.317960  0.702700  1.0  -0.0771
  C  C334  1  0.885940  0.361720  0.685100  1.0  -0.1221
  C  C335  1  0.899510  0.378770  0.605800  1.0  0.0794
  C  C336  1  0.895840  0.351340  0.541100  1.0  -0.1478
  C  C337  1  0.880900  0.307640  0.556500  1.0  -0.0584
  C  C338  1  0.918890  0.425750  0.587300  1.0  -0.0066
  C  C339  1  0.957920  0.445930  0.544900  1.0  -0.1441
  C  C340  1  0.812900  0.386900  0.528500  1.0  -0.0023
  C  C341  1  0.786400  0.410800  0.664900  1.0  0.0472
  C  C342  1  0.521260  0.578050  0.986830  1.0  0.6646
  C  C343  1  0.535590  0.624790  0.968930  1.0  -0.144
  C  C344  1  0.537150  0.651290  0.036030  1.0  -0.0771
  C  C345  1  0.552610  0.695050  0.018430  1.0  -0.1221
  C  C346  1  0.566180  0.712100  0.939130  1.0  0.0794
  C  C347  1  0.562510  0.684670  0.874430  1.0  -0.1478
  C  C348  1  0.547570  0.640970  0.889830  1.0  -0.0584
  C  C349  1  0.585560  0.759080  0.920630  1.0  -0.0066
  C  C350  1  0.624590  0.779260  0.878230  1.0  -0.1441
  C  C351  1  0.479570  0.720230  0.861830  1.0  -0.0023
  C  C352  1  0.453070  0.744130  0.998230  1.0  0.0472
  C  C353  1  0.187920  0.911390  0.320170  1.0  0.6646
  C  C354  1  0.202250  0.958130  0.302270  1.0  -0.1439
  C  C355  1  0.203810  0.984630  0.369370  1.0  -0.0771
  C  C356  1  0.219270  0.028390  0.351770  1.0  -0.1221
  C  C357  1  0.232840  0.045440  0.272470  1.0  0.0794
  C  C358  1  0.229170  0.018010  0.207770  1.0  -0.1478
  C  C359  1  0.214230  0.974310  0.223170  1.0  -0.0584
  C  C360  1  0.252220  0.092420  0.253970  1.0  -0.0066
  C  C361  1  0.291250  0.112600  0.211570  1.0  -0.1441
  C  C362  1  0.146230  0.053570  0.195170  1.0  -0.001
  C  C363  1  0.119730  0.077470  0.331570  1.0  0.0428
  C  C364  1  0.390130  0.145410  0.653500  1.0  0.6627
  C  C365  1  0.422540  0.131080  0.635600  1.0  -0.144
  C  C366  1  0.447480  0.129520  0.702700  1.0  -0.0789
  C  C367  1  0.475780  0.114060  0.685100  1.0  -0.1208
  C  C368  1  0.479260  0.100490  0.605800  1.0  0.0767
  C  C369  1  0.455500  0.104160  0.541100  1.0  -0.1478
  C  C370  1  0.426740  0.119100  0.556500  1.0  -0.0559
  C  C371  1  0.506860  0.081110  0.587300  1.0  -0.007
  C  C372  1  0.488010  0.042080  0.544900  1.0  -0.1455
  C  C373  1  0.574000  0.187100  0.528500  1.0  -0.0015
  C  C374  1  0.624400  0.213600  0.664900  1.0  0.0376
  C  C375  1  0.056800  0.478740  0.986830  1.0  0.6627
  C  C376  1  0.089210  0.464410  0.968930  1.0  -0.1438
  C  C377  1  0.114150  0.462850  0.036030  1.0  -0.0789
  C  C378  1  0.142450  0.447390  0.018430  1.0  -0.1208
  C  C379  1  0.145930  0.433820  0.939130  1.0  0.0767
  C  C380  1  0.122170  0.437490  0.874430  1.0  -0.1478
  C  C381  1  0.093410  0.452430  0.889830  1.0  -0.0559
  C  C382  1  0.173530  0.414440  0.920630  1.0  -0.007
  C  C383  1  0.154680  0.375410  0.878230  1.0  -0.1455
  C  C384  1  0.240670  0.520430  0.861830  1.0  -0.0015
  C  C385  1  0.291070  0.546930  0.998230  1.0  0.0376
  C  C386  1  0.723460  0.812080  0.320170  1.0  0.6627
  C  C387  1  0.755870  0.797750  0.302270  1.0  -0.144
  C  C388  1  0.780810  0.796190  0.369370  1.0  -0.0789
  C  C389  1  0.809110  0.780730  0.351770  1.0  -0.1208
  C  C390  1  0.812590  0.767160  0.272470  1.0  0.0767
  C  C391  1  0.788830  0.770830  0.207770  1.0  -0.1478
  C  C392  1  0.760070  0.785770  0.223170  1.0  -0.0559
  C  C393  1  0.840190  0.747780  0.253970  1.0  -0.007
  C  C394  1  0.821340  0.708750  0.211570  1.0  -0.1455
  C  C395  1  0.907330  0.853770  0.195170  1.0  1e-04
  C  C396  1  0.957730  0.880270  0.331570  1.0  0.0497
  C  C397  1  0.390130  0.244720  0.653500  1.0  0.6651
  C  C398  1  0.422540  0.291460  0.635600  1.0  -0.1437
  C  C399  1  0.447480  0.317960  0.702700  1.0  -0.0766
  C  C400  1  0.475780  0.361720  0.685100  1.0  -0.1213
  C  C401  1  0.479260  0.378770  0.605800  1.0  0.079
  C  C402  1  0.455500  0.351340  0.541100  1.0  -0.1481
  C  C403  1  0.426740  0.307640  0.556500  1.0  -0.0567
  C  C404  1  0.506860  0.425750  0.587300  1.0  -0.0077
  C  C405  1  0.488010  0.445930  0.544900  1.0  -0.1443
  C  C406  1  0.574000  0.386900  0.528500  1.0  -0.0026
  C  C407  1  0.624400  0.410800  0.664900  1.0  0.0454
  C  C408  1  0.056800  0.578050  0.986830  1.0  0.6651
  C  C409  1  0.089210  0.624790  0.968930  1.0  -0.1436
  C  C410  1  0.114150  0.651290  0.036030  1.0  -0.0766
  C  C411  1  0.142450  0.695050  0.018430  1.0  -0.1213
  C  C412  1  0.145930  0.712100  0.939130  1.0  0.079
  C  C413  1  0.122170  0.684670  0.874430  1.0  -0.1481
  C  C414  1  0.093410  0.640970  0.889830  1.0  -0.0567
  C  C415  1  0.173530  0.759080  0.920630  1.0  -0.0077
  C  C416  1  0.154680  0.779260  0.878230  1.0  -0.1443
  C  C417  1  0.240670  0.720230  0.861830  1.0  -0.0026
  C  C418  1  0.291070  0.744130  0.998230  1.0  0.0454
  C  C419  1  0.723460  0.911390  0.320170  1.0  0.6651
  C  C420  1  0.755870  0.958130  0.302270  1.0  -0.1437
  C  C421  1  0.780810  0.984630  0.369370  1.0  -0.0766
  C  C422  1  0.809110  0.028390  0.351770  1.0  -0.1213
  C  C423  1  0.812590  0.045440  0.272470  1.0  0.079
  C  C424  1  0.788830  0.018010  0.207770  1.0  -0.1481
  C  C425  1  0.760070  0.974310  0.223170  1.0  -0.0567
  C  C426  1  0.840190  0.092420  0.253970  1.0  -0.0077
  C  C427  1  0.821340  0.112600  0.211570  1.0  -0.1443
  C  C428  1  0.907330  0.053570  0.195170  1.0  -0.0004
  C  C429  1  0.957730  0.077470  0.331570  1.0  0.0357
  C  C430  1  0.755280  0.145410  0.653500  1.0  0.6633
  C  C431  1  0.708540  0.131080  0.635600  1.0  -0.1447
  C  C432  1  0.682040  0.129520  0.702700  1.0  -0.0781
  C  C433  1  0.638280  0.114060  0.685100  1.0  -0.1206
  C  C434  1  0.621230  0.100490  0.605800  1.0  0.0783
  C  C435  1  0.648660  0.104160  0.541100  1.0  -0.1477
  C  C436  1  0.692360  0.119100  0.556500  1.0  -0.0566
  C  C437  1  0.574250  0.081110  0.587300  1.0  -0.0055
  C  C438  1  0.554070  0.042080  0.544900  1.0  -0.1427
  C  C439  1  0.613100  0.187100  0.528500  1.0  -0.0033
  C  C440  1  0.589200  0.213600  0.664900  1.0  0.0471
  C  C441  1  0.421950  0.478740  0.986830  1.0  0.6633
  C  C442  1  0.375210  0.464410  0.968930  1.0  -0.1446
  C  C443  1  0.348710  0.462850  0.036030  1.0  -0.0781
  C  C444  1  0.304950  0.447390  0.018430  1.0  -0.1206
  C  C445  1  0.287900  0.433820  0.939130  1.0  0.0783
  C  C446  1  0.315330  0.437490  0.874430  1.0  -0.1477
  C  C447  1  0.359030  0.452430  0.889830  1.0  -0.0568
  C  C448  1  0.240920  0.414440  0.920630  1.0  -0.0055
  C  C449  1  0.220740  0.375410  0.878230  1.0  -0.1427
  C  C450  1  0.279770  0.520430  0.861830  1.0  -0.0033
  C  C451  1  0.255870  0.546930  0.998230  1.0  0.0471
  C  C452  1  0.088610  0.812080  0.320170  1.0  0.6633
  C  C453  1  0.041870  0.797750  0.302270  1.0  -0.1447
  C  C454  1  0.015370  0.796190  0.369370  1.0  -0.0781
  C  C455  1  0.971610  0.780730  0.351770  1.0  -0.1206
  C  C456  1  0.954560  0.767160  0.272470  1.0  0.0783
  C  C457  1  0.981990  0.770830  0.207770  1.0  -0.1477
  C  C458  1  0.025690  0.785770  0.223170  1.0  -0.0566
  C  C459  1  0.907580  0.747780  0.253970  1.0  -0.0055
  C  C460  1  0.887400  0.708750  0.211570  1.0  -0.1427
  C  C461  1  0.946430  0.853770  0.195170  1.0  -0.0005
  C  C462  1  0.922530  0.880270  0.331570  1.0  0.0411
  C  C463  1  0.854590  0.609870  0.653500  1.0  0.6641
  C  C464  1  0.868920  0.577460  0.635600  1.0  -0.1441
  C  C465  1  0.870480  0.552520  0.702700  1.0  -0.0776
  C  C466  1  0.885940  0.524220  0.685100  1.0  -0.1213
  C  C467  1  0.899510  0.520740  0.605800  1.0  0.0787
  C  C468  1  0.895840  0.544500  0.541100  1.0  -0.1483
  C  C469  1  0.880900  0.573260  0.556500  1.0  -0.0572
  C  C470  1  0.918890  0.493140  0.587300  1.0  -0.0069
  C  C471  1  0.957920  0.511990  0.544900  1.0  -0.1427
  C  C472  1  0.812900  0.426000  0.528500  1.0  0.0016
  C  C473  1  0.786400  0.375600  0.664900  1.0  0.0346
  C  C474  1  0.521260  0.943200  0.986830  1.0  0.6641
  C  C475  1  0.535590  0.910790  0.968930  1.0  -0.1439
  C  C476  1  0.537150  0.885850  0.036030  1.0  -0.0776
  C  C477  1  0.552610  0.857550  0.018430  1.0  -0.1213
  C  C478  1  0.566180  0.854070  0.939130  1.0  0.0787
  C  C479  1  0.562510  0.877830  0.874430  1.0  -0.1483
  C  C480  1  0.547570  0.906590  0.889830  1.0  -0.0572
  C  C481  1  0.585560  0.826470  0.920630  1.0  -0.0069
  C  C482  1  0.624590  0.845320  0.878230  1.0  -0.1427
  C  C483  1  0.479570  0.759330  0.861830  1.0  0.0016
  C  C484  1  0.453070  0.708930  0.998230  1.0  0.0346
  C  C485  1  0.187920  0.276540  0.320170  1.0  0.6641
  C  C486  1  0.202250  0.244130  0.302270  1.0  -0.1441
  C  C487  1  0.203810  0.219190  0.369370  1.0  -0.0776
  C  C488  1  0.219270  0.190890  0.351770  1.0  -0.1213
  C  C489  1  0.232840  0.187410  0.272470  1.0  0.0787
  C  C490  1  0.229170  0.211170  0.207770  1.0  -0.1483
  C  C491  1  0.214230  0.239930  0.223170  1.0  -0.0572
  C  C492  1  0.252220  0.159810  0.253970  1.0  -0.0069
  C  C493  1  0.291250  0.178660  0.211570  1.0  -0.1427
  C  C494  1  0.146230  0.092670  0.195170  1.0  0.0043
  C  C495  1  0.119730  0.042270  0.331570  1.0  0.0461
  C  C496  1  0.244720  0.390130  0.346500  1.0  0.6637
  C  C497  1  0.291460  0.422540  0.364400  1.0  -0.1438
  C  C498  1  0.317960  0.447480  0.297300  1.0  -0.0795
  C  C499  1  0.361720  0.475780  0.314900  1.0  -0.1219
  C  C500  1  0.378770  0.479260  0.394200  1.0  0.079
  C  C501  1  0.351340  0.455500  0.458900  1.0  -0.1508
  C  C502  1  0.307640  0.426740  0.443500  1.0  -0.0582
  C  C503  1  0.425750  0.506860  0.412700  1.0  -0.007
  C  C504  1  0.445930  0.488010  0.455100  1.0  -0.1414
  C  C505  1  0.386900  0.574000  0.471500  1.0  -0.0022
  C  C506  1  0.410800  0.624400  0.335100  1.0  0.0392
  C  C507  1  0.911390  0.723460  0.679830  1.0  0.6637
  C  C508  1  0.958130  0.755870  0.697730  1.0  -0.1438
  C  C509  1  0.984630  0.780810  0.630630  1.0  -0.0795
  C  C510  1  0.028390  0.809110  0.648230  1.0  -0.1219
  C  C511  1  0.045440  0.812590  0.727530  1.0  0.079
  C  C512  1  0.018010  0.788830  0.792230  1.0  -0.1508
  C  C513  1  0.974310  0.760070  0.776830  1.0  -0.0582
  C  C514  1  0.092420  0.840190  0.746030  1.0  -0.007
  C  C515  1  0.112600  0.821340  0.788430  1.0  -0.1414
  C  C516  1  0.053570  0.907330  0.804830  1.0  -0.0002
  C  C517  1  0.077470  0.957730  0.668430  1.0  0.0309
  C  C518  1  0.578050  0.056800  0.013170  1.0  0.6637
  C  C519  1  0.624790  0.089210  0.031070  1.0  -0.1438
  C  C520  1  0.651290  0.114150  0.963970  1.0  -0.0795
  C  C521  1  0.695050  0.142450  0.981570  1.0  -0.1218
  C  C522  1  0.712100  0.145930  0.060870  1.0  0.079
  C  C523  1  0.684670  0.122170  0.125570  1.0  -0.1508
  C  C524  1  0.640970  0.093410  0.110170  1.0  -0.0582
  C  C525  1  0.759080  0.173530  0.079370  1.0  -0.007
  C  C526  1  0.779260  0.154680  0.121770  1.0  -0.1414
  C  C527  1  0.720230  0.240670  0.138170  1.0  -0.0022
  C  C528  1  0.744130  0.291070  0.001770  1.0  0.0392
  C  C529  1  0.145410  0.755280  0.346500  1.0  0.6652
  C  C530  1  0.131080  0.708540  0.364400  1.0  -0.1424
  C  C531  1  0.129520  0.682040  0.297300  1.0  -0.0803
  C  C532  1  0.114060  0.638280  0.314900  1.0  -0.1218
  C  C533  1  0.100490  0.621230  0.394200  1.0  0.079
  C  C534  1  0.104160  0.648660  0.458900  1.0  -0.15
  C  C535  1  0.119100  0.692360  0.443500  1.0  -0.0594
  C  C536  1  0.081110  0.574250  0.412700  1.0  -0.0076
  C  C537  1  0.042080  0.554070  0.455100  1.0  -0.1453
  C  C538  1  0.187100  0.613100  0.471500  1.0  -0.0013
  C  C539  1  0.213600  0.589200  0.335100  1.0  0.0459
  C  C540  1  0.812080  0.088610  0.679830  1.0  0.6652
  C  C541  1  0.797750  0.041870  0.697730  1.0  -0.1424
  C  C542  1  0.796190  0.015370  0.630630  1.0  -0.0803
  C  C543  1  0.780730  0.971610  0.648230  1.0  -0.1218
  C  C544  1  0.767160  0.954560  0.727530  1.0  0.079
  C  C545  1  0.770830  0.981990  0.792230  1.0  -0.15
  C  C546  1  0.785770  0.025690  0.776830  1.0  -0.0594
  C  C547  1  0.747780  0.907580  0.746030  1.0  -0.0076
  C  C548  1  0.708750  0.887400  0.788430  1.0  -0.1453
  C  C549  1  0.853770  0.946430  0.804830  1.0  1e-04
  C  C550  1  0.880270  0.922530  0.668430  1.0  0.0429
  C  C551  1  0.478740  0.421950  0.013170  1.0  0.6652
  C  C552  1  0.464410  0.375210  0.031070  1.0  -0.1424
  C  C553  1  0.462850  0.348710  0.963970  1.0  -0.0803
  C  C554  1  0.447390  0.304950  0.981570  1.0  -0.1218
  C  C555  1  0.433820  0.287900  0.060870  1.0  0.079
  C  C556  1  0.437490  0.315330  0.125570  1.0  -0.15
  C  C557  1  0.452430  0.359030  0.110170  1.0  -0.0594
  C  C558  1  0.414440  0.240920  0.079370  1.0  -0.0076
  C  C559  1  0.375410  0.220740  0.121770  1.0  -0.1453
  C  C560  1  0.520430  0.279770  0.138170  1.0  -0.0013
  C  C561  1  0.546930  0.255870  0.001770  1.0  0.0459
  C  C562  1  0.609870  0.854590  0.346500  1.0  0.6629
  C  C563  1  0.577460  0.868920  0.364400  1.0  -0.1437
  C  C564  1  0.552520  0.870480  0.297300  1.0  -0.081
  C  C565  1  0.524220  0.885940  0.314900  1.0  -0.1208
  C  C566  1  0.520740  0.899510  0.394200  1.0  0.0783
  C  C567  1  0.544500  0.895840  0.458900  1.0  -0.151
  C  C568  1  0.573260  0.880900  0.443500  1.0  -0.0575
  C  C569  1  0.493140  0.918890  0.412700  1.0  -0.0059
  C  C570  1  0.511990  0.957920  0.455100  1.0  -0.1442
  C  C571  1  0.426000  0.812900  0.471500  1.0  0.0011
  C  C572  1  0.375600  0.786400  0.335100  1.0  0.0344
  C  C573  1  0.276540  0.187920  0.679830  1.0  0.6629
  C  C574  1  0.244130  0.202250  0.697730  1.0  -0.1437
  C  C575  1  0.219190  0.203810  0.630630  1.0  -0.081
  C  C576  1  0.190890  0.219270  0.648230  1.0  -0.1208
  C  C577  1  0.187410  0.232840  0.727530  1.0  0.0783
  C  C578  1  0.211170  0.229170  0.792230  1.0  -0.151
  C  C579  1  0.239930  0.214230  0.776830  1.0  -0.0575
  C  C580  1  0.159810  0.252220  0.746030  1.0  -0.0059
  C  C581  1  0.178660  0.291250  0.788430  1.0  -0.1442
  C  C582  1  0.092670  0.146230  0.804830  1.0  0.0021
  C  C583  1  0.042270  0.119730  0.668430  1.0  0.0459
  C  C584  1  0.943200  0.521260  0.013170  1.0  0.6629
  C  C585  1  0.910790  0.535590  0.031070  1.0  -0.1436
  C  C586  1  0.885850  0.537150  0.963970  1.0  -0.081
  C  C587  1  0.857550  0.552610  0.981570  1.0  -0.1208
  C  C588  1  0.854070  0.566180  0.060870  1.0  0.0783
  C  C589  1  0.877830  0.562510  0.125570  1.0  -0.151
  C  C590  1  0.906590  0.547570  0.110170  1.0  -0.0574
  C  C591  1  0.826470  0.585560  0.079370  1.0  -0.0059
  C  C592  1  0.845320  0.624590  0.121770  1.0  -0.1442
  C  C593  1  0.759330  0.479570  0.138170  1.0  0.0011
  C  C594  1  0.708930  0.453070  0.001770  1.0  0.0344
  C  C595  1  0.489470  0.510530  0.477300  1.0  -0.0024
  C  C596  1  0.449550  0.550450  0.391700  1.0  0.2107
  C  C597  1  0.411300  0.588700  0.389700  1.0  0.1522
  C  C598  1  0.156140  0.843860  0.810630  1.0  -0.0024
  C  C599  1  0.116220  0.883780  0.725030  1.0  0.2107
  C  C600  1  0.077970  0.922030  0.723030  1.0  0.1522
  C  C601  1  0.822800  0.177200  0.143970  1.0  -0.0024
  C  C602  1  0.782880  0.217120  0.058370  1.0  0.2107
  C  C603  1  0.744630  0.255370  0.056370  1.0  0.1522
  C  C604  1  0.489470  0.978940  0.477300  1.0  -0.0033
  C  C605  1  0.449550  0.899100  0.391700  1.0  0.2105
  C  C606  1  0.411300  0.822600  0.389700  1.0  0.1513
  C  C607  1  0.156140  0.312270  0.810630  1.0  -0.0033
  C  C608  1  0.116220  0.232430  0.725030  1.0  0.2105
  C  C609  1  0.077970  0.155930  0.723030  1.0  0.1513
  C  C610  1  0.822800  0.645610  0.143970  1.0  -0.0033
  C  C611  1  0.782880  0.565770  0.058370  1.0  0.2105
  C  C612  1  0.744630  0.489270  0.056370  1.0  0.1513
  C  C613  1  0.021060  0.510530  0.477300  1.0  -0.0058
  C  C614  1  0.100900  0.550450  0.391700  1.0  0.2105
  C  C615  1  0.177400  0.588700  0.389700  1.0  0.1515
  C  C616  1  0.687730  0.843860  0.810630  1.0  -0.0058
  C  C617  1  0.767570  0.883780  0.725030  1.0  0.2105
  C  C618  1  0.844070  0.922030  0.723030  1.0  0.1515
  C  C619  1  0.354390  0.177200  0.143970  1.0  -0.0058
  C  C620  1  0.434230  0.217120  0.058370  1.0  0.2105
  C  C621  1  0.510730  0.255370  0.056370  1.0  0.1515
  C  C622  1  0.510530  0.489470  0.522700  1.0  -0.0024
  C  C623  1  0.550450  0.449550  0.608300  1.0  0.2097
  C  C624  1  0.588700  0.411300  0.610300  1.0  0.1505
  C  C625  1  0.177200  0.822800  0.856030  1.0  -0.0024
  C  C626  1  0.217120  0.782880  0.941630  1.0  0.2097
  C  C627  1  0.255370  0.744630  0.943630  1.0  0.1505
  C  C628  1  0.843860  0.156140  0.189370  1.0  -0.0024
  C  C629  1  0.883780  0.116220  0.274970  1.0  0.2097
  C  C630  1  0.922030  0.077970  0.276970  1.0  0.1505
  C  C631  1  0.978940  0.489470  0.522700  1.0  -0.0051
  C  C632  1  0.899100  0.449550  0.608300  1.0  0.2097
  C  C633  1  0.822600  0.411300  0.610300  1.0  0.1516
  C  C634  1  0.645610  0.822800  0.856030  1.0  -0.0051
  C  C635  1  0.565770  0.782880  0.941630  1.0  0.2097
  C  C636  1  0.489270  0.744630  0.943630  1.0  0.1516
  C  C637  1  0.312270  0.156140  0.189370  1.0  -0.0051
  C  C638  1  0.232430  0.116220  0.274970  1.0  0.2097
  C  C639  1  0.155930  0.077970  0.276970  1.0  0.1516
  C  C640  1  0.510530  0.021060  0.522700  1.0  -0.0029
  C  C641  1  0.550450  0.100900  0.608300  1.0  0.2097
  C  C642  1  0.588700  0.177400  0.610300  1.0  0.1515
  C  C643  1  0.177200  0.354390  0.856030  1.0  -0.0029
  C  C644  1  0.217120  0.434230  0.941630  1.0  0.2097
  C  C645  1  0.255370  0.510730  0.943630  1.0  0.1515
  C  C646  1  0.843860  0.687730  0.189370  1.0  -0.0029
  C  C647  1  0.883780  0.767570  0.274970  1.0  0.2098
  C  C648  1  0.922030  0.844070  0.276970  1.0  0.1515
  O  O649  1  0.630170  0.776510  0.413400  1.0  -0.582
  O  O650  1  0.614780  0.769040  0.272700  1.0  -0.548
  O  O651  1  0.296840  0.109840  0.746730  1.0  -0.582
  O  O652  1  0.281450  0.102370  0.606030  1.0  -0.5492
  O  O653  1  0.963500  0.443180  0.080070  1.0  -0.582
  O  O654  1  0.948110  0.435710  0.939370  1.0  -0.548
  O  O655  1  0.223490  0.853660  0.413400  1.0  -0.5826
  O  O656  1  0.230960  0.845740  0.272700  1.0  -0.5513
  O  O657  1  0.890160  0.186990  0.746730  1.0  -0.5827
  O  O658  1  0.897630  0.179070  0.606030  1.0  -0.5513
  O  O659  1  0.556820  0.520330  0.080070  1.0  -0.5826
  O  O660  1  0.564290  0.512410  0.939370  1.0  -0.5513
  O  O661  1  0.146340  0.369830  0.413400  1.0  -0.5831
  O  O662  1  0.154260  0.385220  0.272700  1.0  -0.5506
  O  O663  1  0.813010  0.703160  0.746730  1.0  -0.583
  O  O664  1  0.820930  0.718550  0.606030  1.0  -0.5487
  O  O665  1  0.479670  0.036500  0.080070  1.0  -0.5832
  O  O666  1  0.487590  0.051890  0.939370  1.0  -0.5506
  O  O667  1  0.776510  0.630170  0.586600  1.0  -0.5825
  O  O668  1  0.769040  0.614780  0.727300  1.0  -0.55
  O  O669  1  0.443180  0.963500  0.919930  1.0  -0.5825
  O  O670  1  0.435710  0.948110  0.060630  1.0  -0.55
  O  O671  1  0.109840  0.296840  0.253270  1.0  -0.5825
  O  O672  1  0.102370  0.281450  0.393970  1.0  -0.552
  O  O673  1  0.853660  0.223490  0.586600  1.0  -0.5819
  O  O674  1  0.845740  0.230960  0.727300  1.0  -0.5513
  O  O675  1  0.520330  0.556820  0.919930  1.0  -0.5819
  O  O676  1  0.512410  0.564290  0.060630  1.0  -0.5513
  O  O677  1  0.186990  0.890160  0.253270  1.0  -0.582
  O  O678  1  0.179070  0.897630  0.393970  1.0  -0.5513
  O  O679  1  0.369830  0.146340  0.586600  1.0  -0.5827
  O  O680  1  0.385220  0.154260  0.727300  1.0  -0.5528
  O  O681  1  0.036500  0.479670  0.919930  1.0  -0.5828
  O  O682  1  0.051890  0.487590  0.060630  1.0  -0.5528
  O  O683  1  0.703160  0.813010  0.253270  1.0  -0.5825
  O  O684  1  0.718550  0.820930  0.393970  1.0  -0.5499
  O  O685  1  0.369830  0.223490  0.586600  1.0  -0.583
  O  O686  1  0.385220  0.230960  0.727300  1.0  -0.5495
  O  O687  1  0.036500  0.556820  0.919930  1.0  -0.583
  O  O688  1  0.051890  0.564290  0.060630  1.0  -0.5495
  O  O689  1  0.703160  0.890160  0.253270  1.0  -0.5829
  O  O690  1  0.718550  0.897630  0.393970  1.0  -0.5517
  O  O691  1  0.776510  0.146340  0.586600  1.0  -0.5828
  O  O692  1  0.769040  0.154260  0.727300  1.0  -0.5527
  O  O693  1  0.443180  0.479670  0.919930  1.0  -0.5828
  O  O694  1  0.435710  0.487590  0.060630  1.0  -0.5527
  O  O695  1  0.109840  0.813010  0.253270  1.0  -0.5829
  O  O696  1  0.102370  0.820930  0.393970  1.0  -0.5527
  O  O697  1  0.853660  0.630170  0.586600  1.0  -0.5839
  O  O698  1  0.845740  0.614780  0.727300  1.0  -0.5525
  O  O699  1  0.520330  0.963500  0.919930  1.0  -0.5839
  O  O700  1  0.512410  0.948110  0.060630  1.0  -0.5525
  O  O701  1  0.186990  0.296840  0.253270  1.0  -0.5837
  O  O702  1  0.179070  0.281450  0.393970  1.0  -0.55
  O  O703  1  0.223490  0.369830  0.413400  1.0  -0.5832
  O  O704  1  0.230960  0.385220  0.272700  1.0  -0.5493
  O  O705  1  0.890160  0.703160  0.746730  1.0  -0.5832
  O  O706  1  0.897630  0.718550  0.606030  1.0  -0.5507
  O  O707  1  0.556820  0.036500  0.080070  1.0  -0.5832
  O  O708  1  0.564290  0.051890  0.939370  1.0  -0.5493
  O  O709  1  0.146340  0.776510  0.413400  1.0  -0.5817
  O  O710  1  0.154260  0.769040  0.272700  1.0  -0.5498
  O  O711  1  0.813010  0.109840  0.746730  1.0  -0.5818
  O  O712  1  0.820930  0.102370  0.606030  1.0  -0.5498
  O  O713  1  0.479670  0.443180  0.080070  1.0  -0.5817
  O  O714  1  0.487590  0.435710  0.939370  1.0  -0.5498
  O  O715  1  0.630170  0.853660  0.413400  1.0  -0.5818
  O  O716  1  0.614780  0.845740  0.272700  1.0  -0.5512
  O  O717  1  0.296840  0.186990  0.746730  1.0  -0.5816
  O  O718  1  0.281450  0.179070  0.606030  1.0  -0.5494
  O  O719  1  0.963500  0.520330  0.080070  1.0  -0.5818
  O  O720  1  0.948110  0.512410  0.939370  1.0  -0.5512
  O  O721  1  0.430140  0.569860  0.349700  1.0  -0.2775
  O  O722  1  0.096810  0.903190  0.683030  1.0  -0.2781
  O  O723  1  0.763470  0.236530  0.016370  1.0  -0.2775
  O  O724  1  0.430140  0.860280  0.349700  1.0  -0.2759
  O  O725  1  0.096810  0.193610  0.683030  1.0  -0.2759
  O  O726  1  0.763470  0.526950  0.016370  1.0  -0.2759
  O  O727  1  0.139720  0.569860  0.349700  1.0  -0.2733
  O  O728  1  0.806390  0.903190  0.683030  1.0  -0.2733
  O  O729  1  0.473050  0.236530  0.016370  1.0  -0.2733
  O  O730  1  0.569860  0.430140  0.650300  1.0  -0.2804
  O  O731  1  0.236530  0.763470  0.983630  1.0  -0.2804
  O  O732  1  0.903190  0.096810  0.316970  1.0  -0.2809
  O  O733  1  0.860280  0.430140  0.650300  1.0  -0.2752
  O  O734  1  0.526950  0.763470  0.983630  1.0  -0.2752
  O  O735  1  0.193610  0.096810  0.316970  1.0  -0.2752
  O  O736  1  0.569860  0.139720  0.650300  1.0  -0.2763
  O  O737  1  0.236530  0.473050  0.983630  1.0  -0.2763
  O  O738  1  0.903190  0.806390  0.316970  1.0  -0.2763
