# generated using pymatgen
data_CuH10(C5O)5
_symmetry_space_group_name_H-M   'P 1'
_cell_length_a   35.36570000
_cell_length_b   35.36570000
_cell_length_c   20.22400000
_cell_angle_alpha   90.00000000
_cell_angle_beta   90.00000000
_cell_angle_gamma   120.00000000
_symmetry_Int_Tables_number   1
_chemical_formula_structural   CuH10(C5O)5
_chemical_formula_sum   'Cu18 H180 C450 O90'
_cell_volume   21905.95571929
_cell_formula_units_Z   18
loop_
 _symmetry_equiv_pos_site_id
 _symmetry_equiv_pos_as_xyz
  1  'x, y, z'
loop_
 _atom_site_type_symbol
 _atom_site_label
 _atom_site_symmetry_multiplicity
 _atom_site_fract_x
 _atom_site_fract_y
 _atom_site_fract_z
 _atom_site_occupancy
 _atom_site_charge
  Cu  Cu1  1  0.319160  0.159580  0.104960  1.0  0.9158
  Cu  Cu2  1  0.985830  0.492910  0.438290  1.0  0.9157
  Cu  Cu3  1  0.652490  0.826250  0.771630  1.0  0.9158
  Cu  Cu4  1  0.840420  0.159580  0.104960  1.0  0.9156
  Cu  Cu5  1  0.507090  0.492910  0.438290  1.0  0.916
  Cu  Cu6  1  0.173750  0.826250  0.771630  1.0  0.9156
  Cu  Cu7  1  0.840420  0.680840  0.104960  1.0  0.9145
  Cu  Cu8  1  0.507090  0.014170  0.438290  1.0  0.9145
  Cu  Cu9  1  0.173750  0.347510  0.771630  1.0  0.9145
  Cu  Cu10  1  0.159580  0.319160  0.895040  1.0  0.9153
  Cu  Cu11  1  0.826250  0.652490  0.228370  1.0  0.9153
  Cu  Cu12  1  0.492910  0.985830  0.561710  1.0  0.9153
  Cu  Cu13  1  0.159580  0.840420  0.895040  1.0  0.9151
  Cu  Cu14  1  0.826250  0.173750  0.228370  1.0  0.9151
  Cu  Cu15  1  0.492910  0.507090  0.561710  1.0  0.9155
  Cu  Cu16  1  0.680840  0.840420  0.895040  1.0  0.916
  Cu  Cu17  1  0.347510  0.173750  0.228370  1.0  0.916
  Cu  Cu18  1  0.014170  0.507090  0.561710  1.0  0.916
  H  H19  1  0.220200  0.022800  0.120100  1.0  0.1136
  H  H20  1  0.171400  0.950800  0.148100  1.0  0.1037
  H  H21  1  0.215200  0.973500  0.334200  1.0  0.1218
  H  H22  1  0.263700  0.046700  0.306200  1.0  0.1068
  H  H23  1  0.208200  0.904000  0.309400  1.0  0.1091
  H  H24  1  0.886870  0.356130  0.453430  1.0  0.1141
  H  H25  1  0.838070  0.284130  0.481430  1.0  0.1037
  H  H26  1  0.881870  0.306830  0.667530  1.0  0.1218
  H  H27  1  0.930370  0.380030  0.639530  1.0  0.1068
  H  H28  1  0.874870  0.237330  0.642730  1.0  0.1091
  H  H29  1  0.553530  0.689470  0.786770  1.0  0.1136
  H  H30  1  0.504730  0.617470  0.814770  1.0  0.1037
  H  H31  1  0.548530  0.640170  0.000870  1.0  0.1218
  H  H32  1  0.597030  0.713370  0.972870  1.0  0.1068
  H  H33  1  0.541530  0.570670  0.976070  1.0  0.1089
  H  H34  1  0.977200  0.197400  0.120100  1.0  0.1134
  H  H35  1  0.049200  0.220600  0.148100  1.0  0.1037
  H  H36  1  0.026500  0.241700  0.334200  1.0  0.1217
  H  H37  1  0.953300  0.217000  0.306200  1.0  0.1071
  H  H38  1  0.096000  0.304200  0.309400  1.0  0.1097
  H  H39  1  0.643870  0.530730  0.453430  1.0  0.1132
  H  H40  1  0.715870  0.553930  0.481430  1.0  0.1037
  H  H41  1  0.693170  0.575030  0.667530  1.0  0.1217
  H  H42  1  0.619970  0.550330  0.639530  1.0  0.1069
  H  H43  1  0.762670  0.637530  0.642730  1.0  0.1097
  H  H44  1  0.310530  0.864070  0.786770  1.0  0.1134
  H  H45  1  0.382530  0.887270  0.814770  1.0  0.1037
  H  H46  1  0.359830  0.908370  0.000870  1.0  0.1217
  H  H47  1  0.286630  0.883670  0.972870  1.0  0.1071
  H  H48  1  0.429330  0.970870  0.976070  1.0  0.1095
  H  H49  1  0.802600  0.779800  0.120100  1.0  0.1133
  H  H50  1  0.779400  0.828600  0.148100  1.0  0.1041
  H  H51  1  0.758300  0.784800  0.334200  1.0  0.1214
  H  H52  1  0.783000  0.736300  0.306200  1.0  0.107
  H  H53  1  0.695800  0.791800  0.309400  1.0  0.1105
  H  H54  1  0.469270  0.113130  0.453430  1.0  0.1135
  H  H55  1  0.446070  0.161930  0.481430  1.0  0.1041
  H  H56  1  0.424970  0.118130  0.667530  1.0  0.1214
  H  H57  1  0.449670  0.069630  0.639530  1.0  0.107
  H  H58  1  0.362470  0.125130  0.642730  1.0  0.1105
  H  H59  1  0.135930  0.446470  0.786770  1.0  0.1133
  H  H60  1  0.112730  0.495270  0.814770  1.0  0.1041
  H  H61  1  0.091630  0.451470  0.000870  1.0  0.1214
  H  H62  1  0.116330  0.402970  0.972870  1.0  0.107
  H  H63  1  0.029130  0.458470  0.976070  1.0  0.1103
  H  H64  1  0.022800  0.220200  0.879900  1.0  0.1137
  H  H65  1  0.950800  0.171400  0.851900  1.0  0.1045
  H  H66  1  0.973500  0.215200  0.665800  1.0  0.122
  H  H67  1  0.046700  0.263700  0.693800  1.0  0.1067
  H  H68  1  0.904000  0.208200  0.690600  1.0  0.1109
  H  H69  1  0.689470  0.553530  0.213230  1.0  0.1137
  H  H70  1  0.617470  0.504730  0.185230  1.0  0.1045
  H  H71  1  0.640170  0.548530  0.999130  1.0  0.122
  H  H72  1  0.713370  0.597030  0.027130  1.0  0.1067
  H  H73  1  0.570670  0.541530  0.023930  1.0  0.1107
  H  H74  1  0.356130  0.886870  0.546570  1.0  0.1142
  H  H75  1  0.284130  0.838070  0.518570  1.0  0.1045
  H  H76  1  0.306830  0.881870  0.332470  1.0  0.122
  H  H77  1  0.380030  0.930370  0.360470  1.0  0.1067
  H  H78  1  0.237330  0.874870  0.357270  1.0  0.1109
  H  H79  1  0.197400  0.977200  0.879900  1.0  0.114
  H  H80  1  0.220600  0.049200  0.851900  1.0  0.1041
  H  H81  1  0.241700  0.026500  0.665800  1.0  0.1219
  H  H82  1  0.217000  0.953300  0.693800  1.0  0.1066
  H  H83  1  0.304200  0.096000  0.690600  1.0  0.1096
  H  H84  1  0.864070  0.310530  0.213230  1.0  0.114
  H  H85  1  0.887270  0.382530  0.185230  1.0  0.1041
  H  H86  1  0.908370  0.359830  0.999130  1.0  0.1219
  H  H87  1  0.883670  0.286630  0.027130  1.0  0.1066
  H  H88  1  0.970870  0.429330  0.023930  1.0  0.1093
  H  H89  1  0.530730  0.643870  0.546570  1.0  0.1137
  H  H90  1  0.553930  0.715870  0.518570  1.0  0.1041
  H  H91  1  0.575030  0.693170  0.332470  1.0  0.1219
  H  H92  1  0.550330  0.619970  0.360470  1.0  0.1064
  H  H93  1  0.637530  0.762670  0.357270  1.0  0.1096
  H  H94  1  0.779800  0.802600  0.879900  1.0  0.113
  H  H95  1  0.828600  0.779400  0.851900  1.0  0.1041
  H  H96  1  0.784800  0.758300  0.665800  1.0  0.1214
  H  H97  1  0.736300  0.783000  0.693800  1.0  0.1068
  H  H98  1  0.791800  0.695800  0.690600  1.0  0.1103
  H  H99  1  0.446470  0.135930  0.213230  1.0  0.113
  H  H100  1  0.495270  0.112730  0.185230  1.0  0.1041
  H  H101  1  0.451470  0.091630  0.999130  1.0  0.1214
  H  H102  1  0.402970  0.116330  0.027130  1.0  0.1068
  H  H103  1  0.458470  0.029130  0.023930  1.0  0.1101
  H  H104  1  0.113130  0.469270  0.546570  1.0  0.1132
  H  H105  1  0.161930  0.446070  0.518570  1.0  0.1041
  H  H106  1  0.118130  0.424970  0.332470  1.0  0.1213
  H  H107  1  0.069630  0.449670  0.360470  1.0  0.1069
  H  H108  1  0.125130  0.362470  0.357270  1.0  0.1103
  H  H109  1  0.779800  0.977200  0.879900  1.0  0.1139
  H  H110  1  0.828600  0.049200  0.851900  1.0  0.1042
  H  H111  1  0.784800  0.026500  0.665800  1.0  0.1218
  H  H112  1  0.736300  0.953300  0.693800  1.0  0.1065
  H  H113  1  0.791800  0.096000  0.690600  1.0  0.1098
  H  H114  1  0.446470  0.310530  0.213230  1.0  0.1139
  H  H115  1  0.495270  0.382530  0.185230  1.0  0.1042
  H  H116  1  0.451470  0.359830  0.999130  1.0  0.1218
  H  H117  1  0.402970  0.286630  0.027130  1.0  0.1065
  H  H118  1  0.458470  0.429330  0.023930  1.0  0.1097
  H  H119  1  0.113130  0.643870  0.546570  1.0  0.1143
  H  H120  1  0.161930  0.715870  0.518570  1.0  0.1042
  H  H121  1  0.118130  0.693170  0.332470  1.0  0.1218
  H  H122  1  0.069630  0.619970  0.360470  1.0  0.1065
  H  H123  1  0.125130  0.762670  0.357270  1.0  0.1098
  H  H124  1  0.022800  0.802600  0.879900  1.0  0.1136
  H  H125  1  0.950800  0.779400  0.851900  1.0  0.1045
  H  H126  1  0.973500  0.758300  0.665800  1.0  0.1219
  H  H127  1  0.046700  0.783000  0.693800  1.0  0.1072
  H  H128  1  0.904000  0.695800  0.690600  1.0  0.1104
  H  H129  1  0.689470  0.135930  0.213230  1.0  0.1136
  H  H130  1  0.617470  0.112730  0.185230  1.0  0.1045
  H  H131  1  0.640170  0.091630  0.999130  1.0  0.1219
  H  H132  1  0.713370  0.116330  0.027130  1.0  0.1072
  H  H133  1  0.570670  0.029130  0.023930  1.0  0.1102
  H  H134  1  0.356130  0.469270  0.546570  1.0  0.1134
  H  H135  1  0.284130  0.446070  0.518570  1.0  0.1045
  H  H136  1  0.306830  0.424970  0.332470  1.0  0.1219
  H  H137  1  0.380030  0.449670  0.360470  1.0  0.107
  H  H138  1  0.237330  0.362470  0.357270  1.0  0.1104
  H  H139  1  0.197400  0.220200  0.879900  1.0  0.1135
  H  H140  1  0.220600  0.171400  0.851900  1.0  0.1041
  H  H141  1  0.241700  0.215200  0.665800  1.0  0.1222
  H  H142  1  0.217000  0.263700  0.693800  1.0  0.1066
  H  H143  1  0.304200  0.208200  0.690600  1.0  0.1107
  H  H144  1  0.864070  0.553530  0.213230  1.0  0.1135
  H  H145  1  0.887270  0.504730  0.185230  1.0  0.1041
  H  H146  1  0.908370  0.548530  0.999130  1.0  0.1222
  H  H147  1  0.883670  0.597030  0.027130  1.0  0.1066
  H  H148  1  0.970870  0.541530  0.023930  1.0  0.1105
  H  H149  1  0.530730  0.886870  0.546570  1.0  0.1137
  H  H150  1  0.553930  0.838070  0.518570  1.0  0.1041
  H  H151  1  0.575030  0.881870  0.332470  1.0  0.1221
  H  H152  1  0.550330  0.930370  0.360470  1.0  0.1066
  H  H153  1  0.637530  0.874870  0.357270  1.0  0.1107
  H  H154  1  0.977200  0.779800  0.120100  1.0  0.1133
  H  H155  1  0.049200  0.828600  0.148100  1.0  0.1038
  H  H156  1  0.026500  0.784800  0.334200  1.0  0.1221
  H  H157  1  0.953300  0.736300  0.306200  1.0  0.1071
  H  H158  1  0.096000  0.791800  0.309400  1.0  0.1108
  H  H159  1  0.643870  0.113130  0.453430  1.0  0.1138
  H  H160  1  0.715870  0.161930  0.481430  1.0  0.1038
  H  H161  1  0.693170  0.118130  0.667530  1.0  0.1221
  H  H162  1  0.619970  0.069630  0.639530  1.0  0.1071
  H  H163  1  0.762670  0.125130  0.642730  1.0  0.1108
  H  H164  1  0.310530  0.446470  0.786770  1.0  0.1133
  H  H165  1  0.382530  0.495270  0.814770  1.0  0.1038
  H  H166  1  0.359830  0.451470  0.000870  1.0  0.1221
  H  H167  1  0.286630  0.402970  0.972870  1.0  0.1071
  H  H168  1  0.429330  0.458470  0.976070  1.0  0.1107
  H  H169  1  0.802600  0.022800  0.120100  1.0  0.1138
  H  H170  1  0.779400  0.950800  0.148100  1.0  0.1038
  H  H171  1  0.758300  0.973500  0.334200  1.0  0.1217
  H  H172  1  0.783000  0.046700  0.306200  1.0  0.1068
  H  H173  1  0.695800  0.904000  0.309400  1.0  0.1092
  H  H174  1  0.469270  0.356130  0.453430  1.0  0.1136
  H  H175  1  0.446070  0.284130  0.481430  1.0  0.1038
  H  H176  1  0.424970  0.306830  0.667530  1.0  0.1217
  H  H177  1  0.449670  0.380030  0.639530  1.0  0.1067
  H  H178  1  0.362470  0.237330  0.642730  1.0  0.1092
  H  H179  1  0.135930  0.689470  0.786770  1.0  0.1138
  H  H180  1  0.112730  0.617470  0.814770  1.0  0.1038
  H  H181  1  0.091630  0.640170  0.000870  1.0  0.1217
  H  H182  1  0.116330  0.713370  0.972870  1.0  0.1068
  H  H183  1  0.029130  0.570670  0.976070  1.0  0.1089
  H  H184  1  0.220200  0.197400  0.120100  1.0  0.1131
  H  H185  1  0.171400  0.220600  0.148100  1.0  0.1046
  H  H186  1  0.215200  0.241700  0.334200  1.0  0.1217
  H  H187  1  0.263700  0.217000  0.306200  1.0  0.1072
  H  H188  1  0.208200  0.304200  0.309400  1.0  0.1097
  H  H189  1  0.886870  0.530730  0.453430  1.0  0.1133
  H  H190  1  0.838070  0.553930  0.481430  1.0  0.1046
  H  H191  1  0.881870  0.575030  0.667530  1.0  0.1216
  H  H192  1  0.930370  0.550330  0.639530  1.0  0.1072
  H  H193  1  0.874870  0.637530  0.642730  1.0  0.1097
  H  H194  1  0.553530  0.864070  0.786770  1.0  0.1131
  H  H195  1  0.504730  0.887270  0.814770  1.0  0.1046
  H  H196  1  0.548530  0.908370  0.000870  1.0  0.1217
  H  H197  1  0.597030  0.883670  0.972870  1.0  0.1072
  H  H198  1  0.541530  0.970870  0.976070  1.0  0.1096
  C  C199  1  0.278380  0.088820  0.194100  1.0  0.6822
  C  C200  1  0.246090  0.042290  0.212400  1.0  -0.1442
  C  C201  1  0.218950  0.013220  0.163300  1.0  -0.0497
  C  C202  1  0.190210  0.969850  0.180000  1.0  -0.1281
  C  C203  1  0.189200  0.954900  0.242200  1.0  0.0351
  C  C204  1  0.216180  0.983340  0.291200  1.0  -0.1919
  C  C205  1  0.245110  0.027580  0.274200  1.0  -0.033
  C  C206  1  0.160780  0.907910  0.261600  1.0  -0.0257
  C  C207  1  0.179080  0.887470  0.297000  1.0  -0.0994
  C  C208  1  0.038500  0.918700  0.200700  1.0  0.0212
  C  C209  1  0.093200  0.949500  0.298900  1.0  0.0259
  C  C210  1  0.945050  0.422150  0.527430  1.0  0.6822
  C  C211  1  0.912760  0.375620  0.545730  1.0  -0.1442
  C  C212  1  0.885620  0.346550  0.496630  1.0  -0.0495
  C  C213  1  0.856880  0.303180  0.513330  1.0  -0.1281
  C  C214  1  0.855870  0.288230  0.575530  1.0  0.0351
  C  C215  1  0.882850  0.316670  0.624530  1.0  -0.1919
  C  C216  1  0.911780  0.360910  0.607530  1.0  -0.033
  C  C217  1  0.827450  0.241240  0.594930  1.0  -0.0257
  C  C218  1  0.845750  0.220800  0.630330  1.0  -0.0994
  C  C219  1  0.705170  0.252030  0.534030  1.0  0.0212
  C  C220  1  0.759870  0.282830  0.632230  1.0  0.0259
  C  C221  1  0.611710  0.755490  0.860770  1.0  0.6822
  C  C222  1  0.579420  0.708960  0.879070  1.0  -0.1442
  C  C223  1  0.552280  0.679890  0.829970  1.0  -0.0497
  C  C224  1  0.523540  0.636520  0.846670  1.0  -0.1284
  C  C225  1  0.522530  0.621570  0.908870  1.0  0.0351
  C  C226  1  0.549510  0.650010  0.957870  1.0  -0.1919
  C  C227  1  0.578440  0.694250  0.940870  1.0  -0.0331
  C  C228  1  0.494110  0.574580  0.928270  1.0  -0.0257
  C  C229  1  0.512410  0.554140  0.963670  1.0  -0.0993
  C  C230  1  0.371830  0.585370  0.867370  1.0  0.0212
  C  C231  1  0.426530  0.616170  0.965570  1.0  0.0259
  C  C232  1  0.911180  0.189560  0.194100  1.0  0.6818
  C  C233  1  0.957710  0.203800  0.212400  1.0  -0.145
  C  C234  1  0.986780  0.205730  0.163300  1.0  -0.0498
  C  C235  1  0.030150  0.220360  0.180000  1.0  -0.1261
  C  C236  1  0.045100  0.234300  0.242200  1.0  0.035
  C  C237  1  0.016660  0.232840  0.291200  1.0  -0.1915
  C  C238  1  0.972420  0.217530  0.274200  1.0  -0.0326
  C  C239  1  0.092090  0.252870  0.261600  1.0  -0.0269
  C  C240  1  0.112530  0.291610  0.297000  1.0  -0.1014
  C  C241  1  0.081300  0.119800  0.200700  1.0  0.0214
  C  C242  1  0.050500  0.143700  0.298900  1.0  0.0259
  C  C243  1  0.577850  0.522890  0.527430  1.0  0.6818
  C  C244  1  0.624380  0.537130  0.545730  1.0  -0.1451
  C  C245  1  0.653450  0.539060  0.496630  1.0  -0.0497
  C  C246  1  0.696820  0.553690  0.513330  1.0  -0.1261
  C  C247  1  0.711770  0.567630  0.575530  1.0  0.035
  C  C248  1  0.683330  0.566170  0.624530  1.0  -0.1915
  C  C249  1  0.639090  0.550860  0.607530  1.0  -0.0326
  C  C250  1  0.758760  0.586200  0.594930  1.0  -0.0269
  C  C251  1  0.779200  0.624940  0.630330  1.0  -0.1014
  C  C252  1  0.747970  0.453130  0.534030  1.0  0.0214
  C  C253  1  0.717170  0.477030  0.632230  1.0  0.0259
  C  C254  1  0.244510  0.856230  0.860770  1.0  0.6818
  C  C255  1  0.291040  0.870470  0.879070  1.0  -0.145
  C  C256  1  0.320110  0.872400  0.829970  1.0  -0.0498
  C  C257  1  0.363480  0.887030  0.846670  1.0  -0.1257
  C  C258  1  0.378430  0.900970  0.908870  1.0  0.035
  C  C259  1  0.349990  0.899510  0.957870  1.0  -0.1915
  C  C260  1  0.305750  0.884200  0.940870  1.0  -0.0326
  C  C261  1  0.425420  0.919540  0.928270  1.0  -0.0269
  C  C262  1  0.445860  0.958280  0.963670  1.0  -0.1013
  C  C263  1  0.414630  0.786470  0.867370  1.0  0.0214
  C  C264  1  0.383830  0.810370  0.965570  1.0  0.0259
  C  C265  1  0.810440  0.721620  0.194100  1.0  0.6816
  C  C266  1  0.796200  0.753910  0.212400  1.0  -0.1449
  C  C267  1  0.794270  0.781050  0.163300  1.0  -0.0504
  C  C268  1  0.779640  0.809790  0.180000  1.0  -0.1269
  C  C269  1  0.765700  0.810800  0.242200  1.0  0.0351
  C  C270  1  0.767160  0.783820  0.291200  1.0  -0.1925
  C  C271  1  0.782470  0.754890  0.274200  1.0  -0.0334
  C  C272  1  0.747130  0.839220  0.261600  1.0  -0.027
  C  C273  1  0.708390  0.820920  0.297000  1.0  -0.0951
  C  C274  1  0.880200  0.961500  0.200700  1.0  0.0168
  C  C275  1  0.856300  0.906800  0.298900  1.0  0.0296
  C  C276  1  0.477110  0.054950  0.527430  1.0  0.6815
  C  C277  1  0.462870  0.087240  0.545730  1.0  -0.1449
  C  C278  1  0.460940  0.114380  0.496630  1.0  -0.0505
  C  C279  1  0.446310  0.143120  0.513330  1.0  -0.1269
  C  C280  1  0.432370  0.144130  0.575530  1.0  0.0351
  C  C281  1  0.433830  0.117150  0.624530  1.0  -0.1925
  C  C282  1  0.449140  0.088220  0.607530  1.0  -0.0334
  C  C283  1  0.413800  0.172550  0.594930  1.0  -0.027
  C  C284  1  0.375060  0.154250  0.630330  1.0  -0.0951
  C  C285  1  0.546870  0.294830  0.534030  1.0  0.0168
  C  C286  1  0.522970  0.240130  0.632230  1.0  0.0296
  C  C287  1  0.143770  0.388290  0.860770  1.0  0.6816
  C  C288  1  0.129530  0.420580  0.879070  1.0  -0.1449
  C  C289  1  0.127600  0.447720  0.829970  1.0  -0.0504
  C  C290  1  0.112970  0.476460  0.846670  1.0  -0.127
  C  C291  1  0.099030  0.477470  0.908870  1.0  0.0351
  C  C292  1  0.100490  0.450490  0.957870  1.0  -0.1925
  C  C293  1  0.115800  0.421560  0.940870  1.0  -0.0334
  C  C294  1  0.080460  0.505890  0.928270  1.0  -0.027
  C  C295  1  0.041720  0.487590  0.963670  1.0  -0.095
  C  C296  1  0.213530  0.628170  0.867370  1.0  0.0168
  C  C297  1  0.189630  0.573470  0.965570  1.0  0.0296
  C  C298  1  0.088820  0.278380  0.805900  1.0  0.6818
  C  C299  1  0.042290  0.246090  0.787600  1.0  -0.1454
  C  C300  1  0.013220  0.218950  0.836700  1.0  -0.0493
  C  C301  1  0.969850  0.190210  0.820000  1.0  -0.125
  C  C302  1  0.954900  0.189200  0.757800  1.0  0.0355
  C  C303  1  0.983340  0.216180  0.708800  1.0  -0.19
  C  C304  1  0.027580  0.245110  0.725800  1.0  -0.0333
  C  C305  1  0.907910  0.160780  0.738400  1.0  -0.0268
  C  C306  1  0.887470  0.179080  0.703000  1.0  -0.0947
  C  C307  1  0.918700  0.038500  0.799300  1.0  0.0116
  C  C308  1  0.949500  0.093200  0.701100  1.0  0.0295
  C  C309  1  0.755490  0.611710  0.139230  1.0  0.6818
  C  C310  1  0.708960  0.579420  0.120930  1.0  -0.1454
  C  C311  1  0.679890  0.552280  0.170030  1.0  -0.0493
  C  C312  1  0.636520  0.523540  0.153330  1.0  -0.1253
  C  C313  1  0.621570  0.522530  0.091130  1.0  0.0355
  C  C314  1  0.650010  0.549510  0.042130  1.0  -0.19
  C  C315  1  0.694250  0.578440  0.059130  1.0  -0.0333
  C  C316  1  0.574580  0.494110  0.071730  1.0  -0.0268
  C  C317  1  0.554140  0.512410  0.036330  1.0  -0.0945
  C  C318  1  0.585370  0.371830  0.132630  1.0  0.0116
  C  C319  1  0.616170  0.426530  0.034430  1.0  0.0295
  C  C320  1  0.422150  0.945050  0.472570  1.0  0.6818
  C  C321  1  0.375620  0.912760  0.454270  1.0  -0.1454
  C  C322  1  0.346550  0.885620  0.503370  1.0  -0.0491
  C  C323  1  0.303180  0.856880  0.486670  1.0  -0.125
  C  C324  1  0.288230  0.855870  0.424470  1.0  0.0355
  C  C325  1  0.316670  0.882850  0.375470  1.0  -0.19
  C  C326  1  0.360910  0.911780  0.392470  1.0  -0.0333
  C  C327  1  0.241240  0.827450  0.405070  1.0  -0.0268
  C  C328  1  0.220800  0.845750  0.369670  1.0  -0.0947
  C  C329  1  0.252030  0.705170  0.465970  1.0  0.0116
  C  C330  1  0.282830  0.759870  0.367770  1.0  0.0295
  C  C331  1  0.189560  0.911180  0.805900  1.0  0.6821
  C  C332  1  0.203800  0.957710  0.787600  1.0  -0.1451
  C  C333  1  0.205730  0.986780  0.836700  1.0  -0.049
  C  C334  1  0.220360  0.030150  0.820000  1.0  -0.1269
  C  C335  1  0.234300  0.045100  0.757800  1.0  0.0349
  C  C336  1  0.232840  0.016660  0.708800  1.0  -0.1893
  C  C337  1  0.217530  0.972420  0.725800  1.0  -0.033
  C  C338  1  0.252870  0.092090  0.738400  1.0  -0.0261
  C  C339  1  0.291610  0.112530  0.703000  1.0  -0.1
  C  C340  1  0.119800  0.081300  0.799300  1.0  0.0213
  C  C341  1  0.143700  0.050500  0.701100  1.0  0.0252
  C  C342  1  0.856230  0.244510  0.139230  1.0  0.6821
  C  C343  1  0.870470  0.291040  0.120930  1.0  -0.1451
  C  C344  1  0.872400  0.320110  0.170030  1.0  -0.049
  C  C345  1  0.887030  0.363480  0.153330  1.0  -0.1265
  C  C346  1  0.900970  0.378430  0.091130  1.0  0.0349
  C  C347  1  0.899510  0.349990  0.042130  1.0  -0.1893
  C  C348  1  0.884200  0.305750  0.059130  1.0  -0.033
  C  C349  1  0.919540  0.425420  0.071730  1.0  -0.0261
  C  C350  1  0.958280  0.445860  0.036330  1.0  -0.1
  C  C351  1  0.786470  0.414630  0.132630  1.0  0.0213
  C  C352  1  0.810370  0.383830  0.034430  1.0  0.0252
  C  C353  1  0.522890  0.577850  0.472570  1.0  0.6821
  C  C354  1  0.537130  0.624380  0.454270  1.0  -0.1452
  C  C355  1  0.539060  0.653450  0.503370  1.0  -0.0489
  C  C356  1  0.553690  0.696820  0.486670  1.0  -0.1269
  C  C357  1  0.567630  0.711770  0.424470  1.0  0.0349
  C  C358  1  0.566170  0.683330  0.375470  1.0  -0.1893
  C  C359  1  0.550860  0.639090  0.392470  1.0  -0.033
  C  C360  1  0.586200  0.758760  0.405070  1.0  -0.0261
  C  C361  1  0.624940  0.779200  0.369670  1.0  -0.1
  C  C362  1  0.453130  0.747970  0.465970  1.0  0.0213
  C  C363  1  0.477030  0.717170  0.367770  1.0  0.0252
  C  C364  1  0.721620  0.810440  0.805900  1.0  0.6819
  C  C365  1  0.753910  0.796200  0.787600  1.0  -0.1453
  C  C366  1  0.781050  0.794270  0.836700  1.0  -0.0504
  C  C367  1  0.809790  0.779640  0.820000  1.0  -0.1237
  C  C368  1  0.810800  0.765700  0.757800  1.0  0.0342
  C  C369  1  0.783820  0.767160  0.708800  1.0  -0.1885
  C  C370  1  0.754890  0.782470  0.725800  1.0  -0.0306
  C  C371  1  0.839220  0.747130  0.738400  1.0  -0.0268
  C  C372  1  0.820920  0.708390  0.703000  1.0  -0.1016
  C  C373  1  0.961500  0.880200  0.799300  1.0  0.0211
  C  C374  1  0.906800  0.856300  0.701100  1.0  0.0286
  C  C375  1  0.388290  0.143770  0.139230  1.0  0.6819
  C  C376  1  0.420580  0.129530  0.120930  1.0  -0.1453
  C  C377  1  0.447720  0.127600  0.170030  1.0  -0.0504
  C  C378  1  0.476460  0.112970  0.153330  1.0  -0.1238
  C  C379  1  0.477470  0.099030  0.091130  1.0  0.0342
  C  C380  1  0.450490  0.100490  0.042130  1.0  -0.1885
  C  C381  1  0.421560  0.115800  0.059130  1.0  -0.0306
  C  C382  1  0.505890  0.080460  0.071730  1.0  -0.0268
  C  C383  1  0.487590  0.041720  0.036330  1.0  -0.1015
  C  C384  1  0.628170  0.213530  0.132630  1.0  0.0211
  C  C385  1  0.573470  0.189630  0.034430  1.0  0.0286
  C  C386  1  0.054950  0.477110  0.472570  1.0  0.6819
  C  C387  1  0.087240  0.462870  0.454270  1.0  -0.1453
  C  C388  1  0.114380  0.460940  0.503370  1.0  -0.0504
  C  C389  1  0.143120  0.446310  0.486670  1.0  -0.1237
  C  C390  1  0.144130  0.432370  0.424470  1.0  0.0342
  C  C391  1  0.117150  0.433830  0.375470  1.0  -0.1885
  C  C392  1  0.088220  0.449140  0.392470  1.0  -0.0306
  C  C393  1  0.172550  0.413800  0.405070  1.0  -0.0268
  C  C394  1  0.154250  0.375060  0.369670  1.0  -0.1016
  C  C395  1  0.294830  0.546870  0.465970  1.0  0.0211
  C  C396  1  0.240130  0.522970  0.367770  1.0  0.0286
  C  C397  1  0.721620  0.911180  0.805900  1.0  0.6823
  C  C398  1  0.753910  0.957710  0.787600  1.0  -0.1451
  C  C399  1  0.781050  0.986780  0.836700  1.0  -0.0483
  C  C400  1  0.809790  0.030150  0.820000  1.0  -0.1251
  C  C401  1  0.810800  0.045100  0.757800  1.0  0.0352
  C  C402  1  0.783820  0.016660  0.708800  1.0  -0.189
  C  C403  1  0.754890  0.972420  0.725800  1.0  -0.0322
  C  C404  1  0.839220  0.092090  0.738400  1.0  -0.0276
  C  C405  1  0.820920  0.112530  0.703000  1.0  -0.1004
  C  C406  1  0.961500  0.081300  0.799300  1.0  0.02
  C  C407  1  0.906800  0.050500  0.701100  1.0  0.0282
  C  C408  1  0.388290  0.244510  0.139230  1.0  0.6823
  C  C409  1  0.420580  0.291040  0.120930  1.0  -0.1451
  C  C410  1  0.447720  0.320110  0.170030  1.0  -0.0483
  C  C411  1  0.476460  0.363480  0.153330  1.0  -0.1254
  C  C412  1  0.477470  0.378430  0.091130  1.0  0.0352
  C  C413  1  0.450490  0.349990  0.042130  1.0  -0.189
  C  C414  1  0.421560  0.305750  0.059130  1.0  -0.0322
  C  C415  1  0.505890  0.425420  0.071730  1.0  -0.0276
  C  C416  1  0.487590  0.445860  0.036330  1.0  -0.1002
  C  C417  1  0.628170  0.414630  0.132630  1.0  0.02
  C  C418  1  0.573470  0.383830  0.034430  1.0  0.0282
  C  C419  1  0.054950  0.577850  0.472570  1.0  0.6823
  C  C420  1  0.087240  0.624380  0.454270  1.0  -0.1451
  C  C421  1  0.114380  0.653450  0.503370  1.0  -0.0482
  C  C422  1  0.143120  0.696820  0.486670  1.0  -0.1251
  C  C423  1  0.144130  0.711770  0.424470  1.0  0.0352
  C  C424  1  0.117150  0.683330  0.375470  1.0  -0.189
  C  C425  1  0.088220  0.639090  0.392470  1.0  -0.0321
  C  C426  1  0.172550  0.758760  0.405070  1.0  -0.0276
  C  C427  1  0.154250  0.779200  0.369670  1.0  -0.1004
  C  C428  1  0.294830  0.747970  0.465970  1.0  0.02
  C  C429  1  0.240130  0.717170  0.367770  1.0  0.0282
  C  C430  1  0.088820  0.810440  0.805900  1.0  0.6817
  C  C431  1  0.042290  0.796200  0.787600  1.0  -0.1454
  C  C432  1  0.013220  0.794270  0.836700  1.0  -0.0494
  C  C433  1  0.969850  0.779640  0.820000  1.0  -0.125
  C  C434  1  0.954900  0.765700  0.757800  1.0  0.0356
  C  C435  1  0.983340  0.767160  0.708800  1.0  -0.1892
  C  C436  1  0.027580  0.782470  0.725800  1.0  -0.031
  C  C437  1  0.907910  0.747130  0.738400  1.0  -0.0254
  C  C438  1  0.887470  0.708390  0.703000  1.0  -0.1004
  C  C439  1  0.918700  0.880200  0.799300  1.0  0.0209
  C  C440  1  0.949500  0.856300  0.701100  1.0  0.0284
  C  C441  1  0.755490  0.143770  0.139230  1.0  0.6817
  C  C442  1  0.708960  0.129530  0.120930  1.0  -0.1454
  C  C443  1  0.679890  0.127600  0.170030  1.0  -0.0494
  C  C444  1  0.636520  0.112970  0.153330  1.0  -0.1246
  C  C445  1  0.621570  0.099030  0.091130  1.0  0.0356
  C  C446  1  0.650010  0.100490  0.042130  1.0  -0.1892
  C  C447  1  0.694250  0.115800  0.059130  1.0  -0.031
  C  C448  1  0.574580  0.080460  0.071730  1.0  -0.0254
  C  C449  1  0.554140  0.041720  0.036330  1.0  -0.1003
  C  C450  1  0.585370  0.213530  0.132630  1.0  0.0209
  C  C451  1  0.616170  0.189630  0.034430  1.0  0.0284
  C  C452  1  0.422150  0.477110  0.472570  1.0  0.6817
  C  C453  1  0.375620  0.462870  0.454270  1.0  -0.1455
  C  C454  1  0.346550  0.460940  0.503370  1.0  -0.0492
  C  C455  1  0.303180  0.446310  0.486670  1.0  -0.125
  C  C456  1  0.288230  0.432370  0.424470  1.0  0.0356
  C  C457  1  0.316670  0.433830  0.375470  1.0  -0.1892
  C  C458  1  0.360910  0.449140  0.392470  1.0  -0.031
  C  C459  1  0.241240  0.413800  0.405070  1.0  -0.0254
  C  C460  1  0.220800  0.375060  0.369670  1.0  -0.1004
  C  C461  1  0.252030  0.546870  0.465970  1.0  0.0209
  C  C462  1  0.282830  0.522970  0.367770  1.0  0.0284
  C  C463  1  0.189560  0.278380  0.805900  1.0  0.6822
  C  C464  1  0.203800  0.246090  0.787600  1.0  -0.145
  C  C465  1  0.205730  0.218950  0.836700  1.0  -0.05
  C  C466  1  0.220360  0.190210  0.820000  1.0  -0.1248
  C  C467  1  0.234300  0.189200  0.757800  1.0  0.0359
  C  C468  1  0.232840  0.216180  0.708800  1.0  -0.1897
  C  C469  1  0.217530  0.245110  0.725800  1.0  -0.033
  C  C470  1  0.252870  0.160780  0.738400  1.0  -0.0269
  C  C471  1  0.291610  0.179080  0.703000  1.0  -0.0946
  C  C472  1  0.119800  0.038500  0.799300  1.0  0.0114
  C  C473  1  0.143700  0.093200  0.701100  1.0  0.028
  C  C474  1  0.856230  0.611710  0.139230  1.0  0.6822
  C  C475  1  0.870470  0.579420  0.120930  1.0  -0.145
  C  C476  1  0.872400  0.552280  0.170030  1.0  -0.05
  C  C477  1  0.887030  0.523540  0.153330  1.0  -0.1249
  C  C478  1  0.900970  0.522530  0.091130  1.0  0.0359
  C  C479  1  0.899510  0.549510  0.042130  1.0  -0.1897
  C  C480  1  0.884200  0.578440  0.059130  1.0  -0.033
  C  C481  1  0.919540  0.494110  0.071730  1.0  -0.0269
  C  C482  1  0.958280  0.512410  0.036330  1.0  -0.0945
  C  C483  1  0.786470  0.371830  0.132630  1.0  0.0114
  C  C484  1  0.810370  0.426530  0.034430  1.0  0.028
  C  C485  1  0.522890  0.945050  0.472570  1.0  0.6821
  C  C486  1  0.537130  0.912760  0.454270  1.0  -0.1451
  C  C487  1  0.539060  0.885620  0.503370  1.0  -0.0501
  C  C488  1  0.553690  0.856880  0.486670  1.0  -0.1248
  C  C489  1  0.567630  0.855870  0.424470  1.0  0.0359
  C  C490  1  0.566170  0.882850  0.375470  1.0  -0.1897
  C  C491  1  0.550860  0.911780  0.392470  1.0  -0.033
  C  C492  1  0.586200  0.827450  0.405070  1.0  -0.0269
  C  C493  1  0.624940  0.845750  0.369670  1.0  -0.0946
  C  C494  1  0.453130  0.705170  0.465970  1.0  0.0114
  C  C495  1  0.477030  0.759870  0.367770  1.0  0.028
  C  C496  1  0.911180  0.721620  0.194100  1.0  0.682
  C  C497  1  0.957710  0.753910  0.212400  1.0  -0.1451
  C  C498  1  0.986780  0.781050  0.163300  1.0  -0.0496
  C  C499  1  0.030150  0.809790  0.180000  1.0  -0.1275
  C  C500  1  0.045100  0.810800  0.242200  1.0  0.0356
  C  C501  1  0.016660  0.783820  0.291200  1.0  -0.1924
  C  C502  1  0.972420  0.754890  0.274200  1.0  -0.0344
  C  C503  1  0.092090  0.839220  0.261600  1.0  -0.0274
  C  C504  1  0.112530  0.820920  0.297000  1.0  -0.0945
  C  C505  1  0.081300  0.961500  0.200700  1.0  0.014
  C  C506  1  0.050500  0.906800  0.298900  1.0  0.0271
  C  C507  1  0.577850  0.054950  0.527430  1.0  0.682
  C  C508  1  0.624380  0.087240  0.545730  1.0  -0.1451
  C  C509  1  0.653450  0.114380  0.496630  1.0  -0.0494
  C  C510  1  0.696820  0.143120  0.513330  1.0  -0.1275
  C  C511  1  0.711770  0.144130  0.575530  1.0  0.0356
  C  C512  1  0.683330  0.117150  0.624530  1.0  -0.1924
  C  C513  1  0.639090  0.088220  0.607530  1.0  -0.0343
  C  C514  1  0.758760  0.172550  0.594930  1.0  -0.0274
  C  C515  1  0.779200  0.154250  0.630330  1.0  -0.0945
  C  C516  1  0.747970  0.294830  0.534030  1.0  0.014
  C  C517  1  0.717170  0.240130  0.632230  1.0  0.0271
  C  C518  1  0.244510  0.388290  0.860770  1.0  0.682
  C  C519  1  0.291040  0.420580  0.879070  1.0  -0.1451
  C  C520  1  0.320110  0.447720  0.829970  1.0  -0.0496
  C  C521  1  0.363480  0.476460  0.846670  1.0  -0.1278
  C  C522  1  0.378430  0.477470  0.908870  1.0  0.0356
  C  C523  1  0.349990  0.450490  0.957870  1.0  -0.1924
  C  C524  1  0.305750  0.421560  0.940870  1.0  -0.0344
  C  C525  1  0.425420  0.505890  0.928270  1.0  -0.0274
  C  C526  1  0.445860  0.487590  0.963670  1.0  -0.0943
  C  C527  1  0.414630  0.628170  0.867370  1.0  0.014
  C  C528  1  0.383830  0.573470  0.965570  1.0  0.0271
  C  C529  1  0.810440  0.088820  0.194100  1.0  0.6825
  C  C530  1  0.796200  0.042290  0.212400  1.0  -0.1442
  C  C531  1  0.794270  0.013220  0.163300  1.0  -0.0502
  C  C532  1  0.779640  0.969850  0.180000  1.0  -0.1278
  C  C533  1  0.765700  0.954900  0.242200  1.0  0.0354
  C  C534  1  0.767160  0.983340  0.291200  1.0  -0.1919
  C  C535  1  0.782470  0.027580  0.274200  1.0  -0.0343
  C  C536  1  0.747130  0.907910  0.261600  1.0  -0.0271
  C  C537  1  0.708390  0.887470  0.297000  1.0  -0.1004
  C  C538  1  0.880200  0.918700  0.200700  1.0  0.0215
  C  C539  1  0.856300  0.949500  0.298900  1.0  0.0283
  C  C540  1  0.477110  0.422150  0.527430  1.0  0.6825
  C  C541  1  0.462870  0.375620  0.545730  1.0  -0.1443
  C  C542  1  0.460940  0.346550  0.496630  1.0  -0.05
  C  C543  1  0.446310  0.303180  0.513330  1.0  -0.1278
  C  C544  1  0.432370  0.288230  0.575530  1.0  0.0354
  C  C545  1  0.433830  0.316670  0.624530  1.0  -0.1919
  C  C546  1  0.449140  0.360910  0.607530  1.0  -0.0343
  C  C547  1  0.413800  0.241240  0.594930  1.0  -0.0271
  C  C548  1  0.375060  0.220800  0.630330  1.0  -0.1004
  C  C549  1  0.546870  0.252030  0.534030  1.0  0.0215
  C  C550  1  0.522970  0.282830  0.632230  1.0  0.0283
  C  C551  1  0.143770  0.755490  0.860770  1.0  0.6825
  C  C552  1  0.129530  0.708960  0.879070  1.0  -0.1442
  C  C553  1  0.127600  0.679890  0.829970  1.0  -0.0502
  C  C554  1  0.112970  0.636520  0.846670  1.0  -0.1273
  C  C555  1  0.099030  0.621570  0.908870  1.0  0.0354
  C  C556  1  0.100490  0.650010  0.957870  1.0  -0.1919
  C  C557  1  0.115800  0.694250  0.940870  1.0  -0.0343
  C  C558  1  0.080460  0.574580  0.928270  1.0  -0.0271
  C  C559  1  0.041720  0.554140  0.963670  1.0  -0.1003
  C  C560  1  0.213530  0.585370  0.867370  1.0  0.0215
  C  C561  1  0.189630  0.616170  0.965570  1.0  0.0283
  C  C562  1  0.278380  0.189560  0.194100  1.0  0.6814
  C  C563  1  0.246090  0.203800  0.212400  1.0  -0.1446
  C  C564  1  0.218950  0.205730  0.163300  1.0  -0.05
  C  C565  1  0.190210  0.220360  0.180000  1.0  -0.1263
  C  C566  1  0.189200  0.234300  0.242200  1.0  0.036
  C  C567  1  0.216180  0.232840  0.291200  1.0  -0.1923
  C  C568  1  0.245110  0.217530  0.274200  1.0  -0.0315
  C  C569  1  0.160780  0.252870  0.261600  1.0  -0.0257
  C  C570  1  0.179080  0.291610  0.297000  1.0  -0.0998
  C  C571  1  0.038500  0.119800  0.200700  1.0  0.0205
  C  C572  1  0.093200  0.143700  0.298900  1.0  0.0295
  C  C573  1  0.945050  0.522890  0.527430  1.0  0.6814
  C  C574  1  0.912760  0.537130  0.545730  1.0  -0.1446
  C  C575  1  0.885620  0.539060  0.496630  1.0  -0.05
  C  C576  1  0.856880  0.553690  0.513330  1.0  -0.1263
  C  C577  1  0.855870  0.567630  0.575530  1.0  0.036
  C  C578  1  0.882850  0.566170  0.624530  1.0  -0.1923
  C  C579  1  0.911780  0.550860  0.607530  1.0  -0.0315
  C  C580  1  0.827450  0.586200  0.594930  1.0  -0.0257
  C  C581  1  0.845750  0.624940  0.630330  1.0  -0.0998
  C  C582  1  0.705170  0.453130  0.534030  1.0  0.0205
  C  C583  1  0.759870  0.477030  0.632230  1.0  0.0295
  C  C584  1  0.611710  0.856230  0.860770  1.0  0.6814
  C  C585  1  0.579420  0.870470  0.879070  1.0  -0.1446
  C  C586  1  0.552280  0.872400  0.829970  1.0  -0.05
  C  C587  1  0.523540  0.887030  0.846670  1.0  -0.1264
  C  C588  1  0.522530  0.900970  0.908870  1.0  0.036
  C  C589  1  0.549510  0.899510  0.957870  1.0  -0.1923
  C  C590  1  0.578440  0.884200  0.940870  1.0  -0.0315
  C  C591  1  0.494110  0.919540  0.928270  1.0  -0.0257
  C  C592  1  0.512410  0.958280  0.963670  1.0  -0.0997
  C  C593  1  0.371830  0.786470  0.867370  1.0  0.0205
  C  C594  1  0.426530  0.810370  0.965570  1.0  0.0295
  C  C595  1  0.156340  0.843660  0.314800  1.0  -0.0424
  C  C596  1  0.116840  0.883160  0.243400  1.0  0.2099
  C  C597  1  0.077900  0.922100  0.238600  1.0  0.1309
  C  C598  1  0.823010  0.176990  0.648130  1.0  -0.0424
  C  C599  1  0.783510  0.216490  0.576730  1.0  0.2099
  C  C600  1  0.744570  0.255430  0.571930  1.0  0.1309
  C  C601  1  0.489670  0.510330  0.981470  1.0  -0.0451
  C  C602  1  0.450170  0.549830  0.910070  1.0  0.2099
  C  C603  1  0.411230  0.588770  0.905270  1.0  0.1309
  C  C604  1  0.156340  0.312680  0.314800  1.0  -0.0429
  C  C605  1  0.116840  0.233680  0.243400  1.0  0.2098
  C  C606  1  0.077900  0.155800  0.238600  1.0  0.1314
  C  C607  1  0.823010  0.646010  0.648130  1.0  -0.0429
  C  C608  1  0.783510  0.567010  0.576730  1.0  0.2098
  C  C609  1  0.744570  0.489130  0.571930  1.0  0.1314
  C  C610  1  0.489670  0.979350  0.981470  1.0  -0.0404
  C  C611  1  0.450170  0.900350  0.910070  1.0  0.2098
  C  C612  1  0.411230  0.822470  0.905270  1.0  0.1314
  C  C613  1  0.687320  0.843660  0.314800  1.0  -0.0444
  C  C614  1  0.766320  0.883160  0.243400  1.0  0.21
  C  C615  1  0.844200  0.922100  0.238600  1.0  0.1308
  C  C616  1  0.353990  0.176990  0.648130  1.0  -0.0444
  C  C617  1  0.432990  0.216490  0.576730  1.0  0.21
  C  C618  1  0.510870  0.255430  0.571930  1.0  0.1308
  C  C619  1  0.020650  0.510330  0.981470  1.0  -0.0418
  C  C620  1  0.099650  0.549830  0.910070  1.0  0.21
  C  C621  1  0.177530  0.588770  0.905270  1.0  0.1308
  C  C622  1  0.843660  0.156340  0.685200  1.0  -0.0423
  C  C623  1  0.883160  0.116840  0.756600  1.0  0.2082
  C  C624  1  0.922100  0.077900  0.761400  1.0  0.1298
  C  C625  1  0.510330  0.489670  0.018530  1.0  -0.0449
  C  C626  1  0.549830  0.450170  0.089930  1.0  0.2082
  C  C627  1  0.588770  0.411230  0.094730  1.0  0.1298
  C  C628  1  0.176990  0.823010  0.351870  1.0  -0.0423
  C  C629  1  0.216490  0.783510  0.423270  1.0  0.2082
  C  C630  1  0.255430  0.744570  0.428070  1.0  0.1298
  C  C631  1  0.312680  0.156340  0.685200  1.0  -0.0434
  C  C632  1  0.233680  0.116840  0.756600  1.0  0.208
  C  C633  1  0.155800  0.077900  0.761400  1.0  0.1299
  C  C634  1  0.979350  0.489670  0.018530  1.0  -0.0408
  C  C635  1  0.900350  0.450170  0.089930  1.0  0.208
  C  C636  1  0.822470  0.411230  0.094730  1.0  0.1299
  C  C637  1  0.646010  0.823010  0.351870  1.0  -0.0434
  C  C638  1  0.567010  0.783510  0.423270  1.0  0.208
  C  C639  1  0.489130  0.744570  0.428070  1.0  0.1299
  C  C640  1  0.843660  0.687320  0.685200  1.0  -0.0425
  C  C641  1  0.883160  0.766320  0.756600  1.0  0.2081
  C  C642  1  0.922100  0.844200  0.761400  1.0  0.133
  C  C643  1  0.510330  0.020650  0.018530  1.0  -0.04
  C  C644  1  0.549830  0.099650  0.089930  1.0  0.2081
  C  C645  1  0.588770  0.177530  0.094730  1.0  0.133
  C  C646  1  0.176990  0.353990  0.351870  1.0  -0.0425
  C  C647  1  0.216490  0.432990  0.423270  1.0  0.2081
  C  C648  1  0.255430  0.510870  0.428070  1.0  0.133
  O  O649  1  0.302850  0.112560  0.240980  1.0  -0.569
  O  O650  1  0.278310  0.100280  0.135780  1.0  -0.5521
  O  O651  1  0.969520  0.445890  0.574310  1.0  -0.5686
  O  O652  1  0.944980  0.433610  0.469110  1.0  -0.5522
  O  O653  1  0.636180  0.779230  0.907650  1.0  -0.569
  O  O654  1  0.611640  0.766950  0.802450  1.0  -0.5521
  O  O655  1  0.887440  0.190290  0.240980  1.0  -0.5684
  O  O656  1  0.899720  0.178030  0.135780  1.0  -0.5525
  O  O657  1  0.554110  0.523620  0.574310  1.0  -0.568
  O  O658  1  0.566390  0.511360  0.469110  1.0  -0.5526
  O  O659  1  0.220770  0.856960  0.907650  1.0  -0.5684
  O  O660  1  0.233050  0.844700  0.802450  1.0  -0.5525
  O  O661  1  0.809710  0.697150  0.240980  1.0  -0.5695
  O  O662  1  0.821970  0.721690  0.135780  1.0  -0.5525
  O  O663  1  0.476380  0.030480  0.574310  1.0  -0.5701
  O  O664  1  0.488640  0.055020  0.469110  1.0  -0.5528
  O  O665  1  0.143040  0.363820  0.907650  1.0  -0.5695
  O  O666  1  0.155300  0.388360  0.802450  1.0  -0.5525
  O  O667  1  0.112560  0.302850  0.759020  1.0  -0.5718
  O  O668  1  0.100280  0.278310  0.864220  1.0  -0.5527
  O  O669  1  0.779230  0.636180  0.092350  1.0  -0.5718
  O  O670  1  0.766950  0.611640  0.197550  1.0  -0.5527
  O  O671  1  0.445890  0.969520  0.425690  1.0  -0.5713
  O  O672  1  0.433610  0.944980  0.530890  1.0  -0.5528
  O  O673  1  0.190290  0.887440  0.759020  1.0  -0.5705
  O  O674  1  0.178030  0.899720  0.864220  1.0  -0.553
  O  O675  1  0.856960  0.220770  0.092350  1.0  -0.5705
  O  O676  1  0.844700  0.233050  0.197550  1.0  -0.553
  O  O677  1  0.523620  0.554110  0.425690  1.0  -0.57
  O  O678  1  0.511360  0.566390  0.530890  1.0  -0.553
  O  O679  1  0.697150  0.809710  0.759020  1.0  -0.5697
  O  O680  1  0.721690  0.821970  0.864220  1.0  -0.5518
  O  O681  1  0.363820  0.143040  0.092350  1.0  -0.5697
  O  O682  1  0.388360  0.155300  0.197550  1.0  -0.5518
  O  O683  1  0.030480  0.476380  0.425690  1.0  -0.5704
  O  O684  1  0.055020  0.488640  0.530890  1.0  -0.5521
  O  O685  1  0.697150  0.887440  0.759020  1.0  -0.5714
  O  O686  1  0.721690  0.899720  0.864220  1.0  -0.552
  O  O687  1  0.363820  0.220770  0.092350  1.0  -0.5714
  O  O688  1  0.388360  0.233050  0.197550  1.0  -0.552
  O  O689  1  0.030480  0.554110  0.425690  1.0  -0.5709
  O  O690  1  0.055020  0.566390  0.530890  1.0  -0.5521
  O  O691  1  0.112560  0.809710  0.759020  1.0  -0.5704
  O  O692  1  0.100280  0.821970  0.864220  1.0  -0.5525
  O  O693  1  0.779230  0.143040  0.092350  1.0  -0.5704
  O  O694  1  0.766950  0.155300  0.197550  1.0  -0.5525
  O  O695  1  0.445890  0.476380  0.425690  1.0  -0.5699
  O  O696  1  0.433610  0.488640  0.530890  1.0  -0.5525
  O  O697  1  0.190290  0.302850  0.759020  1.0  -0.5711
  O  O698  1  0.178030  0.278310  0.864220  1.0  -0.5526
  O  O699  1  0.856960  0.636180  0.092350  1.0  -0.5711
  O  O700  1  0.844700  0.611640  0.197550  1.0  -0.5526
  O  O701  1  0.523620  0.969520  0.425690  1.0  -0.5719
  O  O702  1  0.511360  0.944980  0.530890  1.0  -0.5528
  O  O703  1  0.887440  0.697150  0.240980  1.0  -0.5708
  O  O704  1  0.899720  0.721690  0.135780  1.0  -0.5525
  O  O705  1  0.554110  0.030480  0.574310  1.0  -0.5702
  O  O706  1  0.566390  0.055020  0.469110  1.0  -0.5526
  O  O707  1  0.220770  0.363820  0.907650  1.0  -0.5708
  O  O708  1  0.233050  0.388360  0.802450  1.0  -0.5525
  O  O709  1  0.809710  0.112560  0.240980  1.0  -0.5703
  O  O710  1  0.821970  0.100280  0.135780  1.0  -0.5515
  O  O711  1  0.476380  0.445890  0.574310  1.0  -0.5698
  O  O712  1  0.488640  0.433610  0.469110  1.0  -0.5515
  O  O713  1  0.143040  0.779230  0.907650  1.0  -0.5703
  O  O714  1  0.155300  0.766950  0.802450  1.0  -0.5515
  O  O715  1  0.302850  0.190290  0.240980  1.0  -0.5677
  O  O716  1  0.278310  0.178030  0.135780  1.0  -0.5523
  O  O717  1  0.969520  0.523620  0.574310  1.0  -0.5683
  O  O718  1  0.944980  0.511360  0.469110  1.0  -0.5526
  O  O719  1  0.636180  0.856960  0.907650  1.0  -0.5677
  O  O720  1  0.611640  0.844700  0.802450  1.0  -0.5523
  O  O721  1  0.097850  0.902150  0.205400  1.0  -0.2675
  O  O722  1  0.764520  0.235480  0.538730  1.0  -0.2675
  O  O723  1  0.431180  0.568820  0.872070  1.0  -0.2675
  O  O724  1  0.097850  0.195700  0.205400  1.0  -0.2692
  O  O725  1  0.764520  0.529030  0.538730  1.0  -0.2692
  O  O726  1  0.431180  0.862370  0.872070  1.0  -0.2692
  O  O727  1  0.804300  0.902150  0.205400  1.0  -0.2689
  O  O728  1  0.470970  0.235480  0.538730  1.0  -0.2689
  O  O729  1  0.137630  0.568820  0.872070  1.0  -0.2689
  O  O730  1  0.902150  0.097850  0.794600  1.0  -0.2702
  O  O731  1  0.568820  0.431180  0.127930  1.0  -0.2702
  O  O732  1  0.235480  0.764520  0.461270  1.0  -0.2702
  O  O733  1  0.195700  0.097850  0.794600  1.0  -0.2696
  O  O734  1  0.862370  0.431180  0.127930  1.0  -0.2696
  O  O735  1  0.529030  0.764520  0.461270  1.0  -0.2696
  O  O736  1  0.902150  0.804300  0.794600  1.0  -0.2704
  O  O737  1  0.568820  0.137630  0.127930  1.0  -0.2703
  O  O738  1  0.235480  0.470970  0.461270  1.0  -0.2704
