# generated using pymatgen
data_CuH10C23O5
_symmetry_space_group_name_H-M   'P 1'
_cell_length_a   35.85200000
_cell_length_b   35.85200000
_cell_length_c   15.30100000
_cell_angle_alpha   90.00000000
_cell_angle_beta   90.00000000
_cell_angle_gamma   120.00000000
_symmetry_Int_Tables_number   1
_chemical_formula_structural   CuH10C23O5
_chemical_formula_sum   'Cu18 H180 C414 O90'
_cell_volume   17032.45390767
_cell_formula_units_Z   18
loop_
 _symmetry_equiv_pos_site_id
 _symmetry_equiv_pos_as_xyz
  1  'x, y, z'
loop_
 _atom_site_type_symbol
 _atom_site_label
 _atom_site_symmetry_multiplicity
 _atom_site_fract_x
 _atom_site_fract_y
 _atom_site_fract_z
 _atom_site_occupancy
 _atom_site_charge
  Cu  Cu1  1  0.162370  0.324740  0.417750  1.0  0.9024
  Cu  Cu2  1  0.829040  0.658070  0.751080  1.0  0.9024
  Cu  Cu3  1  0.495700  0.991410  0.084420  1.0  0.9029
  Cu  Cu4  1  0.675260  0.837630  0.417750  1.0  0.9022
  Cu  Cu5  1  0.341930  0.170960  0.751080  1.0  0.9022
  Cu  Cu6  1  0.008590  0.504300  0.084420  1.0  0.9029
  Cu  Cu7  1  0.162370  0.837630  0.417750  1.0  0.9068
  Cu  Cu8  1  0.829040  0.170960  0.751080  1.0  0.9069
  Cu  Cu9  1  0.495700  0.504300  0.084420  1.0  0.91
  Cu  Cu10  1  0.324740  0.162370  0.582250  1.0  0.9058
  Cu  Cu11  1  0.991410  0.495700  0.915580  1.0  0.9063
  Cu  Cu12  1  0.658070  0.829040  0.248920  1.0  0.9058
  Cu  Cu13  1  0.837630  0.675260  0.582250  1.0  0.9053
  Cu  Cu14  1  0.504300  0.008590  0.915580  1.0  0.9058
  Cu  Cu15  1  0.170960  0.341930  0.248920  1.0  0.9053
  Cu  Cu16  1  0.837630  0.162370  0.582250  1.0  0.9103
  Cu  Cu17  1  0.504300  0.495700  0.915580  1.0  0.9135
  Cu  Cu18  1  0.170960  0.829040  0.248920  1.0  0.9104
  H  H19  1  0.307300  0.448200  0.240700  1.0  0.1127
  H  H20  1  0.379600  0.491900  0.266100  1.0  0.1189
  H  H21  1  0.362300  0.458100  0.515400  1.0  0.1162
  H  H22  1  0.291000  0.411300  0.491400  1.0  0.1179
  H  H23  1  0.430100  0.458800  0.465500  1.0  0.1206
  H  H24  1  0.973970  0.781530  0.574030  1.0  0.1123
  H  H25  1  0.046270  0.825230  0.599430  1.0  0.1189
  H  H26  1  0.028970  0.791430  0.848730  1.0  0.1162
  H  H27  1  0.957670  0.744630  0.824730  1.0  0.1179
  H  H28  1  0.096770  0.792130  0.798830  1.0  0.1206
  H  H29  1  0.640630  0.114870  0.907370  1.0  0.1127
  H  H30  1  0.712930  0.158570  0.932770  1.0  0.1189
  H  H31  1  0.695630  0.124770  0.182070  1.0  0.1162
  H  H32  1  0.624330  0.077970  0.158070  1.0  0.1179
  H  H33  1  0.763430  0.125470  0.132170  1.0  0.1206
  H  H34  1  0.551800  0.859100  0.240700  1.0  0.1124
  H  H35  1  0.508100  0.887700  0.266100  1.0  0.1206
  H  H36  1  0.541900  0.904200  0.515400  1.0  0.1154
  H  H37  1  0.588700  0.879700  0.491400  1.0  0.1179
  H  H38  1  0.541200  0.971300  0.465500  1.0  0.12
  H  H39  1  0.218470  0.192430  0.574030  1.0  0.1126
  H  H40  1  0.174770  0.221030  0.599430  1.0  0.1187
  H  H41  1  0.208570  0.237530  0.848730  1.0  0.1154
  H  H42  1  0.255370  0.213030  0.824730  1.0  0.1179
  H  H43  1  0.207870  0.304630  0.798830  1.0  0.12
  H  H44  1  0.885130  0.525770  0.907370  1.0  0.1124
  H  H45  1  0.841430  0.554370  0.932770  1.0  0.1206
  H  H46  1  0.875230  0.570870  0.182070  1.0  0.1154
  H  H47  1  0.922030  0.546370  0.158070  1.0  0.1179
  H  H48  1  0.874530  0.637970  0.132170  1.0  0.1201
  H  H49  1  0.140900  0.692700  0.240700  1.0  0.1121
  H  H50  1  0.112300  0.620400  0.266100  1.0  0.1191
  H  H51  1  0.095800  0.637700  0.515400  1.0  0.1151
  H  H52  1  0.120300  0.709000  0.491400  1.0  0.1176
  H  H53  1  0.028700  0.569900  0.465500  1.0  0.1188
  H  H54  1  0.807570  0.026030  0.574030  1.0  0.1122
  H  H55  1  0.778970  0.953730  0.599430  1.0  0.1207
  H  H56  1  0.762470  0.971030  0.848730  1.0  0.115
  H  H57  1  0.786970  0.042330  0.824730  1.0  0.1176
  H  H58  1  0.695370  0.903230  0.798830  1.0  0.1188
  H  H59  1  0.474230  0.359370  0.907370  1.0  0.1121
  H  H60  1  0.445630  0.287070  0.932770  1.0  0.1191
  H  H61  1  0.429130  0.304370  0.182070  1.0  0.1151
  H  H62  1  0.453630  0.375670  0.158070  1.0  0.1176
  H  H63  1  0.362030  0.236570  0.132170  1.0  0.1187
  H  H64  1  0.448200  0.307300  0.759300  1.0  0.113
  H  H65  1  0.491900  0.379600  0.733900  1.0  0.119
  H  H66  1  0.458100  0.362300  0.484600  1.0  0.1161
  H  H67  1  0.411300  0.291000  0.508600  1.0  0.1174
  H  H68  1  0.458800  0.430100  0.534500  1.0  0.1198
  H  H69  1  0.114870  0.640630  0.092630  1.0  0.113
  H  H70  1  0.158570  0.712930  0.067230  1.0  0.119
  H  H71  1  0.124770  0.695630  0.817930  1.0  0.1161
  H  H72  1  0.077970  0.624330  0.841930  1.0  0.1174
  H  H73  1  0.125470  0.763430  0.867830  1.0  0.1198
  H  H74  1  0.781530  0.973970  0.425970  1.0  0.1127
  H  H75  1  0.825230  0.046270  0.400570  1.0  0.119
  H  H76  1  0.791430  0.028970  0.151270  1.0  0.1161
  H  H77  1  0.744630  0.957670  0.175270  1.0  0.1174
  H  H78  1  0.792130  0.096770  0.201170  1.0  0.1198
  H  H79  1  0.859100  0.551800  0.759300  1.0  0.113
  H  H80  1  0.887700  0.508100  0.733900  1.0  0.1208
  H  H81  1  0.904200  0.541900  0.484600  1.0  0.1162
  H  H82  1  0.879700  0.588700  0.508600  1.0  0.1173
  H  H83  1  0.971300  0.541200  0.534500  1.0  0.1215
  H  H84  1  0.525770  0.885130  0.092630  1.0  0.113
  H  H85  1  0.554370  0.841430  0.067230  1.0  0.1208
  H  H86  1  0.570870  0.875230  0.817930  1.0  0.1162
  H  H87  1  0.546370  0.922030  0.841930  1.0  0.1173
  H  H88  1  0.637970  0.874530  0.867830  1.0  0.1215
  H  H89  1  0.192430  0.218470  0.425970  1.0  0.1131
  H  H90  1  0.221030  0.174770  0.400570  1.0  0.119
  H  H91  1  0.237530  0.208570  0.151270  1.0  0.1162
  H  H92  1  0.213030  0.255370  0.175270  1.0  0.1173
  H  H93  1  0.304630  0.207870  0.201170  1.0  0.1215
  H  H94  1  0.692700  0.140900  0.759300  1.0  0.113
  H  H95  1  0.620400  0.112300  0.733900  1.0  0.119
  H  H96  1  0.637700  0.095800  0.484600  1.0  0.1161
  H  H97  1  0.709000  0.120300  0.508600  1.0  0.1178
  H  H98  1  0.569900  0.028700  0.534500  1.0  0.121
  H  H99  1  0.359370  0.474230  0.092630  1.0  0.113
  H  H100  1  0.287070  0.445630  0.067230  1.0  0.119
  H  H101  1  0.304370  0.429130  0.817930  1.0  0.1161
  H  H102  1  0.375670  0.453630  0.841930  1.0  0.1178
  H  H103  1  0.236570  0.362030  0.867830  1.0  0.121
  H  H104  1  0.026030  0.807570  0.425970  1.0  0.113
  H  H105  1  0.953730  0.778970  0.400570  1.0  0.1202
  H  H106  1  0.971030  0.762470  0.151270  1.0  0.116
  H  H107  1  0.042330  0.786970  0.175270  1.0  0.1178
  H  H108  1  0.903230  0.695370  0.201170  1.0  0.121
  H  H109  1  0.692700  0.551800  0.759300  1.0  0.1129
  H  H110  1  0.620400  0.508100  0.733900  1.0  0.1191
  H  H111  1  0.637700  0.541900  0.484600  1.0  0.1158
  H  H112  1  0.709000  0.588700  0.508600  1.0  0.1174
  H  H113  1  0.569900  0.541200  0.534500  1.0  0.1216
  H  H114  1  0.359370  0.885130  0.092630  1.0  0.1129
  H  H115  1  0.287070  0.841430  0.067230  1.0  0.1191
  H  H116  1  0.304370  0.875230  0.817930  1.0  0.1158
  H  H117  1  0.375670  0.922030  0.841930  1.0  0.1174
  H  H118  1  0.236570  0.874530  0.867830  1.0  0.1216
  H  H119  1  0.026030  0.218470  0.425970  1.0  0.1125
  H  H120  1  0.953730  0.174770  0.400570  1.0  0.1191
  H  H121  1  0.971030  0.208570  0.151270  1.0  0.1159
  H  H122  1  0.042330  0.255370  0.175270  1.0  0.1174
  H  H123  1  0.903230  0.207870  0.201170  1.0  0.1216
  H  H124  1  0.448200  0.140900  0.759300  1.0  0.113
  H  H125  1  0.491900  0.112300  0.733900  1.0  0.1209
  H  H126  1  0.458100  0.095800  0.484600  1.0  0.1164
  H  H127  1  0.411300  0.120300  0.508600  1.0  0.1178
  H  H128  1  0.458800  0.028700  0.534500  1.0  0.1201
  H  H129  1  0.114870  0.474230  0.092630  1.0  0.113
  H  H130  1  0.158570  0.445630  0.067230  1.0  0.1209
  H  H131  1  0.124770  0.429130  0.817930  1.0  0.1164
  H  H132  1  0.077970  0.453630  0.841930  1.0  0.1178
  H  H133  1  0.125470  0.362030  0.867830  1.0  0.1201
  H  H134  1  0.781530  0.807570  0.425970  1.0  0.1131
  H  H135  1  0.825230  0.778970  0.400570  1.0  0.119
  H  H136  1  0.791430  0.762470  0.151270  1.0  0.1164
  H  H137  1  0.744630  0.786970  0.175270  1.0  0.1178
  H  H138  1  0.792130  0.695370  0.201170  1.0  0.1201
  H  H139  1  0.859100  0.307300  0.759300  1.0  0.1131
  H  H140  1  0.887700  0.379600  0.733900  1.0  0.119
  H  H141  1  0.904200  0.362300  0.484600  1.0  0.1162
  H  H142  1  0.879700  0.291000  0.508600  1.0  0.1174
  H  H143  1  0.971300  0.430100  0.534500  1.0  0.12
  H  H144  1  0.525770  0.640630  0.092630  1.0  0.1131
  H  H145  1  0.554370  0.712930  0.067230  1.0  0.119
  H  H146  1  0.570870  0.695630  0.817930  1.0  0.1162
  H  H147  1  0.546370  0.624330  0.841930  1.0  0.1174
  H  H148  1  0.637970  0.763430  0.867830  1.0  0.12
  H  H149  1  0.192430  0.973970  0.425970  1.0  0.1131
  H  H150  1  0.221030  0.046270  0.400570  1.0  0.1203
  H  H151  1  0.237530  0.028970  0.151270  1.0  0.1161
  H  H152  1  0.213030  0.957670  0.175270  1.0  0.1174
  H  H153  1  0.304630  0.096770  0.201170  1.0  0.12
  H  H154  1  0.551800  0.692700  0.240700  1.0  0.1125
  H  H155  1  0.508100  0.620400  0.266100  1.0  0.119
  H  H156  1  0.541900  0.637700  0.515400  1.0  0.1149
  H  H157  1  0.588700  0.709000  0.491400  1.0  0.1177
  H  H158  1  0.541200  0.569900  0.465500  1.0  0.1202
  H  H159  1  0.218470  0.026030  0.574030  1.0  0.1122
  H  H160  1  0.174770  0.953730  0.599430  1.0  0.119
  H  H161  1  0.208570  0.971030  0.848730  1.0  0.115
  H  H162  1  0.255370  0.042330  0.824730  1.0  0.1177
  H  H163  1  0.207870  0.903230  0.798830  1.0  0.1202
  H  H164  1  0.885130  0.359370  0.907370  1.0  0.1125
  H  H165  1  0.841430  0.287070  0.932770  1.0  0.119
  H  H166  1  0.875230  0.304370  0.182070  1.0  0.1149
  H  H167  1  0.922030  0.375670  0.158070  1.0  0.1177
  H  H168  1  0.874530  0.236570  0.132170  1.0  0.1202
  H  H169  1  0.140900  0.448200  0.240700  1.0  0.1122
  H  H170  1  0.112300  0.491900  0.266100  1.0  0.121
  H  H171  1  0.095800  0.458100  0.515400  1.0  0.1154
  H  H172  1  0.120300  0.411300  0.491400  1.0  0.1177
  H  H173  1  0.028700  0.458800  0.465500  1.0  0.1218
  H  H174  1  0.807570  0.781530  0.574030  1.0  0.1123
  H  H175  1  0.778970  0.825230  0.599430  1.0  0.1188
  H  H176  1  0.762470  0.791430  0.848730  1.0  0.1155
  H  H177  1  0.786970  0.744630  0.824730  1.0  0.1177
  H  H178  1  0.695370  0.792130  0.798830  1.0  0.1218
  H  H179  1  0.474230  0.114870  0.907370  1.0  0.1122
  H  H180  1  0.445630  0.158570  0.932770  1.0  0.121
  H  H181  1  0.429130  0.124770  0.182070  1.0  0.1154
  H  H182  1  0.453630  0.077970  0.158070  1.0  0.1177
  H  H183  1  0.362030  0.125470  0.132170  1.0  0.1218
  H  H184  1  0.307300  0.859100  0.240700  1.0  0.1126
  H  H185  1  0.379600  0.887700  0.266100  1.0  0.1189
  H  H186  1  0.362300  0.904200  0.515400  1.0  0.1161
  H  H187  1  0.291000  0.879700  0.491400  1.0  0.118
  H  H188  1  0.430100  0.971300  0.465500  1.0  0.1199
  H  H189  1  0.973970  0.192430  0.574030  1.0  0.1126
  H  H190  1  0.046270  0.221030  0.599430  1.0  0.1208
  H  H191  1  0.028970  0.237530  0.848730  1.0  0.116
  H  H192  1  0.957670  0.213030  0.824730  1.0  0.118
  H  H193  1  0.096770  0.304630  0.798830  1.0  0.1199
  H  H194  1  0.640630  0.525770  0.907370  1.0  0.1126
  H  H195  1  0.712930  0.554370  0.932770  1.0  0.1189
  H  H196  1  0.695630  0.570870  0.182070  1.0  0.1161
  H  H197  1  0.624330  0.546370  0.158070  1.0  0.118
  H  H198  1  0.763430  0.637970  0.132170  1.0  0.1199
  C  C199  1  0.245390  0.390930  0.347500  1.0  0.68
  C  C200  1  0.291430  0.421920  0.362700  1.0  -0.0899
  C  C201  1  0.318600  0.448800  0.295800  1.0  -0.0926
  C  C202  1  0.361500  0.475800  0.311700  1.0  -0.1342
  C  C203  1  0.378360  0.479390  0.393500  1.0  0.0576
  C  C204  1  0.351300  0.455300  0.459200  1.0  -0.1377
  C  C205  1  0.308600  0.427100  0.445000  1.0  -0.0695
  C  C206  1  0.425810  0.506750  0.412700  1.0  -0.0023
  C  C207  1  0.445800  0.488150  0.453400  1.0  -0.075
  C  C208  1  0.912060  0.724260  0.680830  1.0  0.68
  C  C209  1  0.958100  0.755250  0.696030  1.0  -0.0899
  C  C210  1  0.985270  0.782130  0.629130  1.0  -0.0926
  C  C211  1  0.028170  0.809130  0.645030  1.0  -0.1343
  C  C212  1  0.045030  0.812720  0.726830  1.0  0.0576
  C  C213  1  0.017970  0.788630  0.792530  1.0  -0.1377
  C  C214  1  0.975270  0.760430  0.778330  1.0  -0.0695
  C  C215  1  0.092480  0.840080  0.746030  1.0  -0.0023
  C  C216  1  0.112470  0.821480  0.786730  1.0  -0.075
  C  C217  1  0.578720  0.057600  0.014170  1.0  0.6803
  C  C218  1  0.624760  0.088590  0.029370  1.0  -0.0903
  C  C219  1  0.651930  0.115470  0.962470  1.0  -0.0926
  C  C220  1  0.694830  0.142470  0.978370  1.0  -0.1342
  C  C221  1  0.711690  0.146060  0.060170  1.0  0.0576
  C  C222  1  0.684630  0.121970  0.125870  1.0  -0.1377
  C  C223  1  0.641930  0.093770  0.111670  1.0  -0.0695
  C  C224  1  0.759140  0.173420  0.079370  1.0  -0.0024
  C  C225  1  0.779130  0.154820  0.120070  1.0  -0.075
  C  C226  1  0.609070  0.854460  0.347500  1.0  0.6778
  C  C227  1  0.578080  0.869510  0.362700  1.0  -0.0908
  C  C228  1  0.551200  0.869800  0.295800  1.0  -0.0932
  C  C229  1  0.524200  0.885700  0.311700  1.0  -0.1329
  C  C230  1  0.520610  0.898970  0.393500  1.0  0.0575
  C  C231  1  0.544700  0.896000  0.459200  1.0  -0.14
  C  C232  1  0.572900  0.881500  0.445000  1.0  -0.0695
  C  C233  1  0.493250  0.919060  0.412700  1.0  -0.002
  C  C234  1  0.511850  0.957650  0.453400  1.0  -0.0774
  C  C235  1  0.275740  0.187790  0.680830  1.0  0.6778
  C  C236  1  0.244750  0.202840  0.696030  1.0  -0.0908
  C  C237  1  0.217870  0.203130  0.629130  1.0  -0.0932
  C  C238  1  0.190870  0.219030  0.645030  1.0  -0.1329
  C  C239  1  0.187280  0.232300  0.726830  1.0  0.0575
  C  C240  1  0.211370  0.229330  0.792530  1.0  -0.14
  C  C241  1  0.239570  0.214830  0.778330  1.0  -0.0695
  C  C242  1  0.159920  0.252390  0.746030  1.0  -0.002
  C  C243  1  0.178520  0.290980  0.786730  1.0  -0.0775
  C  C244  1  0.942400  0.521130  0.014170  1.0  0.6781
  C  C245  1  0.911410  0.536180  0.029370  1.0  -0.0905
  C  C246  1  0.884530  0.536470  0.962470  1.0  -0.0932
  C  C247  1  0.857530  0.552370  0.978370  1.0  -0.1329
  C  C248  1  0.853940  0.565640  0.060170  1.0  0.0575
  C  C249  1  0.878030  0.562670  0.125870  1.0  -0.14
  C  C250  1  0.906230  0.548170  0.111670  1.0  -0.0695
  C  C251  1  0.826580  0.585730  0.079370  1.0  -0.002
  C  C252  1  0.845180  0.624320  0.120070  1.0  -0.0774
  C  C253  1  0.145540  0.754610  0.347500  1.0  0.6805
  C  C254  1  0.130490  0.708570  0.362700  1.0  -0.0879
  C  C255  1  0.130200  0.681400  0.295800  1.0  -0.0907
  C  C256  1  0.114300  0.638500  0.311700  1.0  -0.1329
  C  C257  1  0.101030  0.621640  0.393500  1.0  0.0574
  C  C258  1  0.104000  0.648700  0.459200  1.0  -0.1374
  C  C259  1  0.118500  0.691400  0.445000  1.0  -0.07
  C  C260  1  0.080940  0.574190  0.412700  1.0  -0.0022
  C  C261  1  0.042350  0.554200  0.453400  1.0  -0.0782
  C  C262  1  0.812210  0.087940  0.680830  1.0  0.6805
  C  C263  1  0.797160  0.041900  0.696030  1.0  -0.0879
  C  C264  1  0.796870  0.014730  0.629130  1.0  -0.0907
  C  C265  1  0.780970  0.971830  0.645030  1.0  -0.1328
  C  C266  1  0.767700  0.954970  0.726830  1.0  0.0574
  C  C267  1  0.770670  0.982030  0.792530  1.0  -0.1374
  C  C268  1  0.785170  0.024730  0.778330  1.0  -0.07
  C  C269  1  0.747610  0.907520  0.746030  1.0  -0.0022
  C  C270  1  0.709020  0.887530  0.786730  1.0  -0.0782
  C  C271  1  0.478870  0.421280  0.014170  1.0  0.6802
  C  C272  1  0.463820  0.375240  0.029370  1.0  -0.0877
  C  C273  1  0.463530  0.348070  0.962470  1.0  -0.0907
  C  C274  1  0.447630  0.305170  0.978370  1.0  -0.1329
  C  C275  1  0.434360  0.288310  0.060170  1.0  0.0574
  C  C276  1  0.437330  0.315370  0.125870  1.0  -0.1374
  C  C277  1  0.451830  0.358070  0.111670  1.0  -0.07
  C  C278  1  0.414270  0.240860  0.079370  1.0  -0.0022
  C  C279  1  0.375680  0.220870  0.120070  1.0  -0.0782
  C  C280  1  0.390930  0.245390  0.652500  1.0  0.6804
  C  C281  1  0.421920  0.291430  0.637300  1.0  -0.0888
  C  C282  1  0.448800  0.318600  0.704200  1.0  -0.0888
  C  C283  1  0.475800  0.361500  0.688300  1.0  -0.1312
  C  C284  1  0.479390  0.378360  0.606500  1.0  0.0572
  C  C285  1  0.455300  0.351300  0.540800  1.0  -0.1359
  C  C286  1  0.427100  0.308600  0.555000  1.0  -0.0689
  C  C287  1  0.506750  0.425810  0.587300  1.0  -0.0029
  C  C288  1  0.488150  0.445800  0.546600  1.0  -0.0772
  C  C289  1  0.057600  0.578720  0.985830  1.0  0.6806
  C  C290  1  0.088590  0.624760  0.970630  1.0  -0.0893
  C  C291  1  0.115470  0.651930  0.037530  1.0  -0.0889
  C  C292  1  0.142470  0.694830  0.021630  1.0  -0.1312
  C  C293  1  0.146060  0.711690  0.939830  1.0  0.0572
  C  C294  1  0.121970  0.684630  0.874130  1.0  -0.1359
  C  C295  1  0.093770  0.641930  0.888330  1.0  -0.0689
  C  C296  1  0.173420  0.759140  0.920630  1.0  -0.0029
  C  C297  1  0.154820  0.779130  0.879930  1.0  -0.0772
  C  C298  1  0.724260  0.912060  0.319170  1.0  0.6804
  C  C299  1  0.755250  0.958100  0.303970  1.0  -0.0888
  C  C300  1  0.782130  0.985270  0.370870  1.0  -0.0888
  C  C301  1  0.809130  0.028170  0.354970  1.0  -0.1313
  C  C302  1  0.812720  0.045030  0.273170  1.0  0.0572
  C  C303  1  0.788630  0.017970  0.207470  1.0  -0.1359
  C  C304  1  0.760430  0.975270  0.221670  1.0  -0.0689
  C  C305  1  0.840080  0.092480  0.253970  1.0  -0.0029
  C  C306  1  0.821480  0.112470  0.213270  1.0  -0.0772
  C  C307  1  0.854460  0.609070  0.652500  1.0  0.6798
  C  C308  1  0.869510  0.578080  0.637300  1.0  -0.0887
  C  C309  1  0.869800  0.551200  0.704200  1.0  -0.0915
  C  C310  1  0.885700  0.524200  0.688300  1.0  -0.1334
  C  C311  1  0.898970  0.520610  0.606500  1.0  0.0577
  C  C312  1  0.896000  0.544700  0.540800  1.0  -0.1376
  C  C313  1  0.881500  0.572900  0.555000  1.0  -0.0703
  C  C314  1  0.919060  0.493250  0.587300  1.0  -0.0023
  C  C315  1  0.957650  0.511850  0.546600  1.0  -0.0751
  C  C316  1  0.521130  0.942400  0.985830  1.0  0.6801
  C  C317  1  0.536180  0.911410  0.970630  1.0  -0.0884
  C  C318  1  0.536470  0.884530  0.037530  1.0  -0.0915
  C  C319  1  0.552370  0.857530  0.021630  1.0  -0.1334
  C  C320  1  0.565640  0.853940  0.939830  1.0  0.0577
  C  C321  1  0.562670  0.878030  0.874130  1.0  -0.1376
  C  C322  1  0.548170  0.906230  0.888330  1.0  -0.0704
  C  C323  1  0.585730  0.826580  0.920630  1.0  -0.0023
  C  C324  1  0.624320  0.845180  0.879930  1.0  -0.0751
  C  C325  1  0.187790  0.275740  0.319170  1.0  0.6798
  C  C326  1  0.202840  0.244750  0.303970  1.0  -0.0887
  C  C327  1  0.203130  0.217870  0.370870  1.0  -0.0915
  C  C328  1  0.219030  0.190870  0.354970  1.0  -0.1334
  C  C329  1  0.232300  0.187280  0.273170  1.0  0.0577
  C  C330  1  0.229330  0.211370  0.207470  1.0  -0.1376
  C  C331  1  0.214830  0.239570  0.221670  1.0  -0.0703
  C  C332  1  0.252390  0.159920  0.253970  1.0  -0.0023
  C  C333  1  0.290980  0.178520  0.213270  1.0  -0.0751
  C  C334  1  0.754610  0.145540  0.652500  1.0  0.6786
  C  C335  1  0.708570  0.130490  0.637300  1.0  -0.0912
  C  C336  1  0.681400  0.130200  0.704200  1.0  -0.0907
  C  C337  1  0.638500  0.114300  0.688300  1.0  -0.1326
  C  C338  1  0.621640  0.101030  0.606500  1.0  0.0573
  C  C339  1  0.648700  0.104000  0.540800  1.0  -0.1391
  C  C340  1  0.691400  0.118500  0.555000  1.0  -0.0707
  C  C341  1  0.574190  0.080940  0.587300  1.0  -0.0023
  C  C342  1  0.554200  0.042350  0.546600  1.0  -0.0766
  C  C343  1  0.421280  0.478870  0.985830  1.0  0.6782
  C  C344  1  0.375240  0.463820  0.970630  1.0  -0.091
  C  C345  1  0.348070  0.463530  0.037530  1.0  -0.0908
  C  C346  1  0.305170  0.447630  0.021630  1.0  -0.1326
  C  C347  1  0.288310  0.434360  0.939830  1.0  0.0573
  C  C348  1  0.315370  0.437330  0.874130  1.0  -0.1391
  C  C349  1  0.358070  0.451830  0.888330  1.0  -0.0706
  C  C350  1  0.240860  0.414270  0.920630  1.0  -0.0023
  C  C351  1  0.220870  0.375680  0.879930  1.0  -0.0766
  C  C352  1  0.087940  0.812210  0.319170  1.0  0.6786
  C  C353  1  0.041900  0.797160  0.303970  1.0  -0.0912
  C  C354  1  0.014730  0.796870  0.370870  1.0  -0.0907
  C  C355  1  0.971830  0.780970  0.354970  1.0  -0.1326
  C  C356  1  0.954970  0.767700  0.273170  1.0  0.0573
  C  C357  1  0.982030  0.770670  0.207470  1.0  -0.1391
  C  C358  1  0.024730  0.785170  0.221670  1.0  -0.0706
  C  C359  1  0.907520  0.747610  0.253970  1.0  -0.0023
  C  C360  1  0.887530  0.709020  0.213270  1.0  -0.0766
  C  C361  1  0.754610  0.609070  0.652500  1.0  0.6798
  C  C362  1  0.708570  0.578080  0.637300  1.0  -0.0891
  C  C363  1  0.681400  0.551200  0.704200  1.0  -0.091
  C  C364  1  0.638500  0.524200  0.688300  1.0  -0.1333
  C  C365  1  0.621640  0.520610  0.606500  1.0  0.0574
  C  C366  1  0.648700  0.544700  0.540800  1.0  -0.1382
  C  C367  1  0.691400  0.572900  0.555000  1.0  -0.0711
  C  C368  1  0.574190  0.493250  0.587300  1.0  -0.0015
  C  C369  1  0.554200  0.511850  0.546600  1.0  -0.0753
  C  C370  1  0.421280  0.942400  0.985830  1.0  0.68
  C  C371  1  0.375240  0.911410  0.970630  1.0  -0.0896
  C  C372  1  0.348070  0.884530  0.037530  1.0  -0.091
  C  C373  1  0.305170  0.857530  0.021630  1.0  -0.1333
  C  C374  1  0.288310  0.853940  0.939830  1.0  0.0574
  C  C375  1  0.315370  0.878030  0.874130  1.0  -0.1382
  C  C376  1  0.358070  0.906230  0.888330  1.0  -0.0711
  C  C377  1  0.240860  0.826580  0.920630  1.0  -0.0016
  C  C378  1  0.220870  0.845180  0.879930  1.0  -0.0753
  C  C379  1  0.087940  0.275740  0.319170  1.0  0.6798
  C  C380  1  0.041900  0.244750  0.303970  1.0  -0.0891
  C  C381  1  0.014730  0.217870  0.370870  1.0  -0.091
  C  C382  1  0.971830  0.190870  0.354970  1.0  -0.1334
  C  C383  1  0.954970  0.187280  0.273170  1.0  0.0574
  C  C384  1  0.982030  0.211370  0.207470  1.0  -0.1382
  C  C385  1  0.024730  0.239570  0.221670  1.0  -0.0711
  C  C386  1  0.907520  0.159920  0.253970  1.0  -0.0015
  C  C387  1  0.887530  0.178520  0.213270  1.0  -0.0753
  C  C388  1  0.390930  0.145540  0.652500  1.0  0.6785
  C  C389  1  0.421920  0.130490  0.637300  1.0  -0.0906
  C  C390  1  0.448800  0.130200  0.704200  1.0  -0.0915
  C  C391  1  0.475800  0.114300  0.688300  1.0  -0.1325
  C  C392  1  0.479390  0.101030  0.606500  1.0  0.0567
  C  C393  1  0.455300  0.104000  0.540800  1.0  -0.1383
  C  C394  1  0.427100  0.118500  0.555000  1.0  -0.0701
  C  C395  1  0.506750  0.080940  0.587300  1.0  -0.0009
  C  C396  1  0.488150  0.042350  0.546600  1.0  -0.0776
  C  C397  1  0.057600  0.478870  0.985830  1.0  0.6788
  C  C398  1  0.088590  0.463820  0.970630  1.0  -0.0904
  C  C399  1  0.115470  0.463530  0.037530  1.0  -0.0915
  C  C400  1  0.142470  0.447630  0.021630  1.0  -0.1325
  C  C401  1  0.146060  0.434360  0.939830  1.0  0.0567
  C  C402  1  0.121970  0.437330  0.874130  1.0  -0.1383
  C  C403  1  0.093770  0.451830  0.888330  1.0  -0.0703
  C  C404  1  0.173420  0.414270  0.920630  1.0  -0.0009
  C  C405  1  0.154820  0.375680  0.879930  1.0  -0.0776
  C  C406  1  0.724260  0.812210  0.319170  1.0  0.6785
  C  C407  1  0.755250  0.797160  0.303970  1.0  -0.0906
  C  C408  1  0.782130  0.796870  0.370870  1.0  -0.0915
  C  C409  1  0.809130  0.780970  0.354970  1.0  -0.1325
  C  C410  1  0.812720  0.767700  0.273170  1.0  0.0567
  C  C411  1  0.788630  0.770670  0.207470  1.0  -0.1383
  C  C412  1  0.760430  0.785170  0.221670  1.0  -0.0701
  C  C413  1  0.840080  0.747610  0.253970  1.0  -0.0009
  C  C414  1  0.821480  0.709020  0.213270  1.0  -0.0776
  C  C415  1  0.854460  0.245390  0.652500  1.0  0.6805
  C  C416  1  0.869510  0.291430  0.637300  1.0  -0.0889
  C  C417  1  0.869800  0.318600  0.704200  1.0  -0.0899
  C  C418  1  0.885700  0.361500  0.688300  1.0  -0.132
  C  C419  1  0.898970  0.378360  0.606500  1.0  0.0575
  C  C420  1  0.896000  0.351300  0.540800  1.0  -0.1368
  C  C421  1  0.881500  0.308600  0.555000  1.0  -0.0706
  C  C422  1  0.919060  0.425810  0.587300  1.0  -0.0008
  C  C423  1  0.957650  0.445800  0.546600  1.0  -0.0774
  C  C424  1  0.521130  0.578720  0.985830  1.0  0.6802
  C  C425  1  0.536180  0.624760  0.970630  1.0  -0.0887
  C  C426  1  0.536470  0.651930  0.037530  1.0  -0.0899
  C  C427  1  0.552370  0.694830  0.021630  1.0  -0.132
  C  C428  1  0.565640  0.711690  0.939830  1.0  0.0575
  C  C429  1  0.562670  0.684630  0.874130  1.0  -0.1368
  C  C430  1  0.548170  0.641930  0.888330  1.0  -0.0705
  C  C431  1  0.585730  0.759140  0.920630  1.0  -0.0008
  C  C432  1  0.624320  0.779130  0.879930  1.0  -0.0774
  C  C433  1  0.187790  0.912060  0.319170  1.0  0.6805
  C  C434  1  0.202840  0.958100  0.303970  1.0  -0.0889
  C  C435  1  0.203130  0.985270  0.370870  1.0  -0.0899
  C  C436  1  0.219030  0.028170  0.354970  1.0  -0.1319
  C  C437  1  0.232300  0.045030  0.273170  1.0  0.0575
  C  C438  1  0.229330  0.017970  0.207470  1.0  -0.1368
  C  C439  1  0.214830  0.975270  0.221670  1.0  -0.0705
  C  C440  1  0.252390  0.092480  0.253970  1.0  -0.0008
  C  C441  1  0.290980  0.112470  0.213270  1.0  -0.0774
  C  C442  1  0.609070  0.754610  0.347500  1.0  0.6803
  C  C443  1  0.578080  0.708570  0.362700  1.0  -0.0873
  C  C444  1  0.551200  0.681400  0.295800  1.0  -0.091
  C  C445  1  0.524200  0.638500  0.311700  1.0  -0.1324
  C  C446  1  0.520610  0.621640  0.393500  1.0  0.0575
  C  C447  1  0.544700  0.648700  0.459200  1.0  -0.1379
  C  C448  1  0.572900  0.691400  0.445000  1.0  -0.0695
  C  C449  1  0.493250  0.574190  0.412700  1.0  -0.0
  C  C450  1  0.511850  0.554200  0.453400  1.0  -0.0782
  C  C451  1  0.275740  0.087940  0.680830  1.0  0.6803
  C  C452  1  0.244750  0.041900  0.696030  1.0  -0.0873
  C  C453  1  0.217870  0.014730  0.629130  1.0  -0.091
  C  C454  1  0.190870  0.971830  0.645030  1.0  -0.1325
  C  C455  1  0.187280  0.954970  0.726830  1.0  0.0575
  C  C456  1  0.211370  0.982030  0.792530  1.0  -0.1379
  C  C457  1  0.239570  0.024730  0.778330  1.0  -0.0695
  C  C458  1  0.159920  0.907520  0.746030  1.0  -0.0
  C  C459  1  0.178520  0.887530  0.786730  1.0  -0.0782
  C  C460  1  0.942400  0.421280  0.014170  1.0  0.6806
  C  C461  1  0.911410  0.375240  0.029370  1.0  -0.0878
  C  C462  1  0.884530  0.348070  0.962470  1.0  -0.0911
  C  C463  1  0.857530  0.305170  0.978370  1.0  -0.1324
  C  C464  1  0.853940  0.288310  0.060170  1.0  0.0575
  C  C465  1  0.878030  0.315370  0.125870  1.0  -0.1379
  C  C466  1  0.906230  0.358070  0.111670  1.0  -0.0695
  C  C467  1  0.826580  0.240860  0.079370  1.0  -0.0
  C  C468  1  0.845180  0.220870  0.120070  1.0  -0.0782
  C  C469  1  0.145540  0.390930  0.347500  1.0  0.6798
  C  C470  1  0.130490  0.421920  0.362700  1.0  -0.0901
  C  C471  1  0.130200  0.448800  0.295800  1.0  -0.0936
  C  C472  1  0.114300  0.475800  0.311700  1.0  -0.1336
  C  C473  1  0.101030  0.479390  0.393500  1.0  0.0577
  C  C474  1  0.104000  0.455300  0.459200  1.0  -0.1385
  C  C475  1  0.118500  0.427100  0.445000  1.0  -0.0691
  C  C476  1  0.080940  0.506750  0.412700  1.0  -0.0013
  C  C477  1  0.042350  0.488150  0.453400  1.0  -0.0758
  C  C478  1  0.812210  0.724260  0.680830  1.0  0.6798
  C  C479  1  0.797160  0.755250  0.696030  1.0  -0.0901
  C  C480  1  0.796870  0.782130  0.629130  1.0  -0.0936
  C  C481  1  0.780970  0.809130  0.645030  1.0  -0.1336
  C  C482  1  0.767700  0.812720  0.726830  1.0  0.0577
  C  C483  1  0.770670  0.788630  0.792530  1.0  -0.1385
  C  C484  1  0.785170  0.760430  0.778330  1.0  -0.0691
  C  C485  1  0.747610  0.840080  0.746030  1.0  -0.0013
  C  C486  1  0.709020  0.821480  0.786730  1.0  -0.0758
  C  C487  1  0.478870  0.057600  0.014170  1.0  0.6801
  C  C488  1  0.463820  0.088590  0.029370  1.0  -0.0898
  C  C489  1  0.463530  0.115470  0.962470  1.0  -0.0936
  C  C490  1  0.447630  0.142470  0.978370  1.0  -0.1336
  C  C491  1  0.434360  0.146060  0.060170  1.0  0.0577
  C  C492  1  0.437330  0.121970  0.125870  1.0  -0.1385
  C  C493  1  0.451830  0.093770  0.111670  1.0  -0.0691
  C  C494  1  0.414270  0.173420  0.079370  1.0  -0.0013
  C  C495  1  0.375680  0.154820  0.120070  1.0  -0.0758
  C  C496  1  0.245390  0.854460  0.347500  1.0  0.6787
  C  C497  1  0.291430  0.869510  0.362700  1.0  -0.0908
  C  C498  1  0.318600  0.869800  0.295800  1.0  -0.092
  C  C499  1  0.361500  0.885700  0.311700  1.0  -0.1338
  C  C500  1  0.378360  0.898970  0.393500  1.0  0.0568
  C  C501  1  0.351300  0.896000  0.459200  1.0  -0.1387
  C  C502  1  0.308600  0.881500  0.445000  1.0  -0.0696
  C  C503  1  0.425810  0.919060  0.412700  1.0  -0.0006
  C  C504  1  0.445800  0.957650  0.453400  1.0  -0.0788
  C  C505  1  0.912060  0.187790  0.680830  1.0  0.6787
  C  C506  1  0.958100  0.202840  0.696030  1.0  -0.0908
  C  C507  1  0.985270  0.203130  0.629130  1.0  -0.092
  C  C508  1  0.028170  0.219030  0.645030  1.0  -0.1338
  C  C509  1  0.045030  0.232300  0.726830  1.0  0.0568
  C  C510  1  0.017970  0.229330  0.792530  1.0  -0.1387
  C  C511  1  0.975270  0.214830  0.778330  1.0  -0.0696
  C  C512  1  0.092480  0.252390  0.746030  1.0  -0.0006
  C  C513  1  0.112470  0.290980  0.786730  1.0  -0.0788
  C  C514  1  0.578720  0.521130  0.014170  1.0  0.6783
  C  C515  1  0.624760  0.536180  0.029370  1.0  -0.0906
  C  C516  1  0.651930  0.536470  0.962470  1.0  -0.092
  C  C517  1  0.694830  0.552370  0.978370  1.0  -0.1338
  C  C518  1  0.711690  0.565640  0.060170  1.0  0.0568
  C  C519  1  0.684630  0.562670  0.125870  1.0  -0.1387
  C  C520  1  0.641930  0.548170  0.111670  1.0  -0.0696
  C  C521  1  0.759140  0.585730  0.079370  1.0  -0.0006
  C  C522  1  0.779130  0.624320  0.120070  1.0  -0.0788
  C  C523  1  0.489000  0.511000  0.478000  1.0  0.0253
  C  C524  1  0.450160  0.549840  0.389000  1.0  0.1763
  C  C525  1  0.409400  0.590600  0.383900  1.0  0.225
  C  C526  1  0.390800  0.609200  0.322000  1.0  -0.0137
  C  C527  1  0.404800  0.595200  0.477400  1.0  0.0047
  C  C528  1  0.155670  0.844330  0.811330  1.0  0.0253
  C  C529  1  0.116830  0.883170  0.722330  1.0  0.1763
  C  C530  1  0.076070  0.923930  0.717230  1.0  0.225
  C  C531  1  0.057470  0.942530  0.655330  1.0  -0.0128
  C  C532  1  0.071470  0.928530  0.810730  1.0  0.005
  C  C533  1  0.822330  0.177670  0.144670  1.0  0.0253
  C  C534  1  0.783490  0.216510  0.055670  1.0  0.1763
  C  C535  1  0.742730  0.257270  0.050570  1.0  0.225
  C  C536  1  0.724130  0.275870  0.988670  1.0  -0.0137
  C  C537  1  0.738130  0.261870  0.144070  1.0  0.0047
  C  C538  1  0.489000  0.978000  0.478000  1.0  0.0278
  C  C539  1  0.450160  0.900320  0.389000  1.0  0.1772
  C  C540  1  0.409400  0.818800  0.383900  1.0  0.2265
  C  C541  1  0.390800  0.781600  0.322000  1.0  -0.0148
  C  C542  1  0.404800  0.809600  0.477400  1.0  0.0028
  C  C543  1  0.155670  0.311330  0.811330  1.0  0.0278
  C  C544  1  0.116830  0.233650  0.722330  1.0  0.1772
  C  C545  1  0.076070  0.152130  0.717230  1.0  0.2265
  C  C546  1  0.057470  0.114930  0.655330  1.0  -0.0148
  C  C547  1  0.071470  0.142930  0.810730  1.0  0.0028
  C  C548  1  0.822330  0.644670  0.144670  1.0  0.0278
  C  C549  1  0.783490  0.566990  0.055670  1.0  0.1772
  C  C550  1  0.742730  0.485470  0.050570  1.0  0.2265
  C  C551  1  0.724130  0.448270  0.988670  1.0  -0.0148
  C  C552  1  0.738130  0.476270  0.144070  1.0  0.0028
  C  C553  1  0.022000  0.511000  0.478000  1.0  0.0262
  C  C554  1  0.099680  0.549840  0.389000  1.0  0.1763
  C  C555  1  0.181200  0.590600  0.383900  1.0  0.2235
  C  C556  1  0.218400  0.609200  0.322000  1.0  -0.0092
  C  C557  1  0.190400  0.595200  0.477400  1.0  0.0061
  C  C558  1  0.688670  0.844330  0.811330  1.0  0.0262
  C  C559  1  0.766350  0.883170  0.722330  1.0  0.1763
  C  C560  1  0.847870  0.923930  0.717230  1.0  0.2235
  C  C561  1  0.885070  0.942530  0.655330  1.0  -0.0092
  C  C562  1  0.857070  0.928530  0.810730  1.0  0.0061
  C  C563  1  0.355330  0.177670  0.144670  1.0  0.0262
  C  C564  1  0.433010  0.216510  0.055670  1.0  0.1763
  C  C565  1  0.514530  0.257270  0.050570  1.0  0.2235
  C  C566  1  0.551730  0.275870  0.988670  1.0  -0.0092
  C  C567  1  0.523730  0.261870  0.144070  1.0  0.0061
  C  C568  1  0.511000  0.489000  0.522000  1.0  0.0265
  C  C569  1  0.549840  0.450160  0.611000  1.0  0.1752
  C  C570  1  0.590600  0.409400  0.616100  1.0  0.2253
  C  C571  1  0.609200  0.390800  0.678000  1.0  -0.0159
  C  C572  1  0.595200  0.404800  0.522600  1.0  0.0036
  C  C573  1  0.177670  0.822330  0.855330  1.0  0.0265
  C  C574  1  0.216510  0.783490  0.944330  1.0  0.1752
  C  C575  1  0.257270  0.742730  0.949430  1.0  0.2253
  C  C576  1  0.275870  0.724130  0.011330  1.0  -0.0159
  C  C577  1  0.261870  0.738130  0.855930  1.0  0.0036
  C  C578  1  0.844330  0.155670  0.188670  1.0  0.0265
  C  C579  1  0.883170  0.116830  0.277670  1.0  0.1752
  C  C580  1  0.923930  0.076070  0.282770  1.0  0.2253
  C  C581  1  0.942530  0.057470  0.344670  1.0  -0.0155
  C  C582  1  0.928530  0.071470  0.189270  1.0  0.0041
  C  C583  1  0.978000  0.489000  0.522000  1.0  0.026
  C  C584  1  0.900320  0.450160  0.611000  1.0  0.175
  C  C585  1  0.818800  0.409400  0.616100  1.0  0.2257
  C  C586  1  0.781600  0.390800  0.678000  1.0  -0.0124
  C  C587  1  0.809600  0.404800  0.522600  1.0  0.0051
  C  C588  1  0.644670  0.822330  0.855330  1.0  0.026
  C  C589  1  0.566990  0.783490  0.944330  1.0  0.175
  C  C590  1  0.485470  0.742730  0.949430  1.0  0.2257
  C  C591  1  0.448270  0.724130  0.011330  1.0  -0.0124
  C  C592  1  0.476270  0.738130  0.855930  1.0  0.0051
  C  C593  1  0.311330  0.155670  0.188670  1.0  0.026
  C  C594  1  0.233650  0.116830  0.277670  1.0  0.175
  C  C595  1  0.152130  0.076070  0.282770  1.0  0.2257
  C  C596  1  0.114930  0.057470  0.344670  1.0  -0.0124
  C  C597  1  0.142930  0.071470  0.189270  1.0  0.0051
  C  C598  1  0.511000  0.022000  0.522000  1.0  0.0268
  C  C599  1  0.549840  0.099680  0.611000  1.0  0.1759
  C  C600  1  0.590600  0.181200  0.616100  1.0  0.2265
  C  C601  1  0.609200  0.218400  0.678000  1.0  -0.0175
  C  C602  1  0.595200  0.190400  0.522600  1.0  0.0009
  C  C603  1  0.177670  0.355330  0.855330  1.0  0.0268
  C  C604  1  0.216510  0.433010  0.944330  1.0  0.1759
  C  C605  1  0.257270  0.514530  0.949430  1.0  0.2265
  C  C606  1  0.275870  0.551730  0.011330  1.0  -0.0175
  C  C607  1  0.261870  0.523730  0.855930  1.0  0.0009
  C  C608  1  0.844330  0.688670  0.188670  1.0  0.0268
  C  C609  1  0.883170  0.766350  0.277670  1.0  0.176
  C  C610  1  0.923930  0.847870  0.282770  1.0  0.2265
  C  C611  1  0.942530  0.885070  0.344670  1.0  -0.0175
  C  C612  1  0.928530  0.857070  0.189270  1.0  0.0009
  O  O613  1  0.223530  0.369330  0.414700  1.0  -0.5887
  O  O614  1  0.231190  0.384900  0.271200  1.0  -0.5635
  O  O615  1  0.890200  0.702660  0.748030  1.0  -0.5887
  O  O616  1  0.897860  0.718230  0.604530  1.0  -0.5632
  O  O617  1  0.556860  0.036000  0.081370  1.0  -0.5887
  O  O618  1  0.564520  0.051570  0.937870  1.0  -0.5633
  O  O619  1  0.630670  0.854200  0.414700  1.0  -0.5885
  O  O620  1  0.615100  0.846290  0.271200  1.0  -0.5633
  O  O621  1  0.297340  0.187530  0.748030  1.0  -0.5885
  O  O622  1  0.281770  0.179620  0.604530  1.0  -0.5632
  O  O623  1  0.964000  0.520870  0.081370  1.0  -0.5885
  O  O624  1  0.948430  0.512960  0.937870  1.0  -0.5635
  O  O625  1  0.145800  0.776470  0.414700  1.0  -0.5875
  O  O626  1  0.153710  0.768810  0.271200  1.0  -0.5629
  O  O627  1  0.812470  0.109800  0.748030  1.0  -0.5875
  O  O628  1  0.820380  0.102140  0.604530  1.0  -0.5629
  O  O629  1  0.479130  0.443140  0.081370  1.0  -0.5874
  O  O630  1  0.487040  0.435480  0.937870  1.0  -0.5628
  O  O631  1  0.369330  0.223530  0.585300  1.0  -0.5875
  O  O632  1  0.384900  0.231190  0.728800  1.0  -0.5637
  O  O633  1  0.036000  0.556860  0.918630  1.0  -0.5875
  O  O634  1  0.051570  0.564520  0.062130  1.0  -0.5635
  O  O635  1  0.702660  0.890200  0.251970  1.0  -0.5875
  O  O636  1  0.718230  0.897860  0.395470  1.0  -0.5637
  O  O637  1  0.854200  0.630670  0.585300  1.0  -0.5878
  O  O638  1  0.846290  0.615100  0.728800  1.0  -0.5646
  O  O639  1  0.520870  0.964000  0.918630  1.0  -0.5878
  O  O640  1  0.512960  0.948430  0.062130  1.0  -0.5647
  O  O641  1  0.187530  0.297340  0.251970  1.0  -0.5878
  O  O642  1  0.179620  0.281770  0.395470  1.0  -0.5647
  O  O643  1  0.776470  0.145800  0.585300  1.0  -0.588
  O  O644  1  0.768810  0.153710  0.728800  1.0  -0.5642
  O  O645  1  0.443140  0.479130  0.918630  1.0  -0.5881
  O  O646  1  0.435480  0.487040  0.062130  1.0  -0.5641
  O  O647  1  0.109800  0.812470  0.251970  1.0  -0.588
  O  O648  1  0.102140  0.820380  0.395470  1.0  -0.5642
  O  O649  1  0.776470  0.630670  0.585300  1.0  -0.5892
  O  O650  1  0.768810  0.615100  0.728800  1.0  -0.5648
  O  O651  1  0.443140  0.964000  0.918630  1.0  -0.5892
  O  O652  1  0.435480  0.948430  0.062130  1.0  -0.5646
  O  O653  1  0.109800  0.297340  0.251970  1.0  -0.5892
  O  O654  1  0.102140  0.281770  0.395470  1.0  -0.5645
  O  O655  1  0.369330  0.145800  0.585300  1.0  -0.5891
  O  O656  1  0.384900  0.153710  0.728800  1.0  -0.5644
  O  O657  1  0.036000  0.479130  0.918630  1.0  -0.5891
  O  O658  1  0.051570  0.487040  0.062130  1.0  -0.5646
  O  O659  1  0.702660  0.812470  0.251970  1.0  -0.5891
  O  O660  1  0.718230  0.820380  0.395470  1.0  -0.5643
  O  O661  1  0.854200  0.223530  0.585300  1.0  -0.5891
  O  O662  1  0.846290  0.231190  0.728800  1.0  -0.5637
  O  O663  1  0.520870  0.556860  0.918630  1.0  -0.5891
  O  O664  1  0.512960  0.564520  0.062130  1.0  -0.5636
  O  O665  1  0.187530  0.890200  0.251970  1.0  -0.5891
  O  O666  1  0.179620  0.897860  0.395470  1.0  -0.5637
  O  O667  1  0.630670  0.776470  0.414700  1.0  -0.5872
  O  O668  1  0.615100  0.768810  0.271200  1.0  -0.5628
  O  O669  1  0.297340  0.109800  0.748030  1.0  -0.5872
  O  O670  1  0.281770  0.102140  0.604530  1.0  -0.5628
  O  O671  1  0.964000  0.443140  0.081370  1.0  -0.5872
  O  O672  1  0.948430  0.435480  0.937870  1.0  -0.5626
  O  O673  1  0.145800  0.369330  0.414700  1.0  -0.5885
  O  O674  1  0.153710  0.384900  0.271200  1.0  -0.5629
  O  O675  1  0.812470  0.702660  0.748030  1.0  -0.5885
  O  O676  1  0.820380  0.718230  0.604530  1.0  -0.5629
  O  O677  1  0.479130  0.036000  0.081370  1.0  -0.5885
  O  O678  1  0.487040  0.051570  0.937870  1.0  -0.5631
  O  O679  1  0.223530  0.854200  0.414700  1.0  -0.5883
  O  O680  1  0.231190  0.846290  0.271200  1.0  -0.5638
  O  O681  1  0.890200  0.187530  0.748030  1.0  -0.5883
  O  O682  1  0.897860  0.179620  0.604530  1.0  -0.5638
  O  O683  1  0.556860  0.520870  0.081370  1.0  -0.5883
  O  O684  1  0.564520  0.512960  0.937870  1.0  -0.5637
  O  O685  1  0.430050  0.569950  0.347700  1.0  -0.4638
  O  O686  1  0.096720  0.903280  0.681030  1.0  -0.4638
  O  O687  1  0.763380  0.236620  0.014370  1.0  -0.4638
  O  O688  1  0.430050  0.860100  0.347700  1.0  -0.4665
  O  O689  1  0.096720  0.193430  0.681030  1.0  -0.4665
  O  O690  1  0.763380  0.526770  0.014370  1.0  -0.4665
  O  O691  1  0.139900  0.569950  0.347700  1.0  -0.4658
  O  O692  1  0.806570  0.903280  0.681030  1.0  -0.4658
  O  O693  1  0.473230  0.236620  0.014370  1.0  -0.4658
  O  O694  1  0.569950  0.430050  0.652300  1.0  -0.4637
  O  O695  1  0.236620  0.763380  0.985630  1.0  -0.4637
  O  O696  1  0.903280  0.096720  0.318970  1.0  -0.4637
  O  O697  1  0.860100  0.430050  0.652300  1.0  -0.4668
  O  O698  1  0.526770  0.763380  0.985630  1.0  -0.4668
  O  O699  1  0.193430  0.096720  0.318970  1.0  -0.4668
  O  O700  1  0.569950  0.139900  0.652300  1.0  -0.4674
  O  O701  1  0.236620  0.473230  0.985630  1.0  -0.4674
  O  O702  1  0.903280  0.806570  0.318970  1.0  -0.4674
