# generated using pymatgen
data_CuH16C23O5
_symmetry_space_group_name_H-M   'P 1'
_cell_length_a   35.12300000
_cell_length_b   35.12300000
_cell_length_c   22.39160000
_cell_angle_alpha   90.00000000
_cell_angle_beta   90.00000000
_cell_angle_gamma   120.00000000
_symmetry_Int_Tables_number   1
_chemical_formula_structural   CuH16C23O5
_chemical_formula_sum   'Cu18 H288 C414 O90'
_cell_volume   23922.08154444
_cell_formula_units_Z   18
loop_
 _symmetry_equiv_pos_site_id
 _symmetry_equiv_pos_as_xyz
  1  'x, y, z'
loop_
 _atom_site_type_symbol
 _atom_site_label
 _atom_site_symmetry_multiplicity
 _atom_site_fract_x
 _atom_site_fract_y
 _atom_site_fract_z
 _atom_site_occupancy
 _atom_site_charge
  Cu  Cu1  1  0.507940  0.015880  0.445110  1.0  0.9079
  Cu  Cu2  1  0.174610  0.349210  0.778440  1.0  0.9079
  Cu  Cu3  1  0.841270  0.682550  0.111780  1.0  0.9079
  Cu  Cu4  1  0.984120  0.492060  0.445110  1.0  0.9073
  Cu  Cu5  1  0.650790  0.825390  0.778440  1.0  0.9073
  Cu  Cu6  1  0.317450  0.158730  0.111780  1.0  0.9073
  Cu  Cu7  1  0.507940  0.492060  0.445110  1.0  0.9075
  Cu  Cu8  1  0.174610  0.825390  0.778440  1.0  0.9075
  Cu  Cu9  1  0.841270  0.158730  0.111780  1.0  0.9075
  Cu  Cu10  1  0.015880  0.507940  0.554890  1.0  0.9081
  Cu  Cu11  1  0.682550  0.841270  0.888220  1.0  0.9081
  Cu  Cu12  1  0.349210  0.174610  0.221560  1.0  0.9081
  Cu  Cu13  1  0.492060  0.984120  0.554890  1.0  0.9083
  Cu  Cu14  1  0.158730  0.317450  0.888220  1.0  0.9083
  Cu  Cu15  1  0.825390  0.650790  0.221560  1.0  0.9083
  Cu  Cu16  1  0.492060  0.507940  0.554890  1.0  0.9075
  Cu  Cu17  1  0.158730  0.841270  0.888220  1.0  0.9075
  Cu  Cu18  1  0.825390  0.174610  0.221560  1.0  0.9075
  H  H19  1  0.646900  0.113500  0.463700  1.0  0.1123
  H  H20  1  0.718300  0.160600  0.491400  1.0  0.1052
  H  H21  1  0.691400  0.115000  0.659200  1.0  0.123
  H  H22  1  0.619200  0.067500  0.630700  1.0  0.1036
  H  H23  1  0.763000  0.123700  0.640800  1.0  0.1082
  H  H24  1  0.707300  0.248000  0.635500  1.0  0.1082
  H  H25  1  0.740800  0.303800  0.531000  1.0  0.121
  H  H26  1  0.313570  0.446830  0.797030  1.0  0.1123
  H  H27  1  0.384970  0.493930  0.824730  1.0  0.1052
  H  H28  1  0.358070  0.448330  0.992530  1.0  0.123
  H  H29  1  0.285870  0.400830  0.964030  1.0  0.103
  H  H30  1  0.429670  0.457030  0.974130  1.0  0.1081
  H  H31  1  0.373970  0.581330  0.968830  1.0  0.1082
  H  H32  1  0.407470  0.637130  0.864330  1.0  0.121
  H  H33  1  0.980230  0.780170  0.130370  1.0  0.1123
  H  H34  1  0.051630  0.827270  0.158070  1.0  0.1052
  H  H35  1  0.024730  0.781670  0.325870  1.0  0.123
  H  H36  1  0.952530  0.734170  0.297370  1.0  0.1036
  H  H37  1  0.096330  0.790370  0.307470  1.0  0.1082
  H  H38  1  0.040630  0.914670  0.302170  1.0  0.1077
  H  H39  1  0.074130  0.970470  0.197670  1.0  0.121
  H  H40  1  0.886500  0.533400  0.463700  1.0  0.1118
  H  H41  1  0.839400  0.557700  0.491400  1.0  0.1054
  H  H42  1  0.885000  0.576400  0.659200  1.0  0.1219
  H  H43  1  0.932500  0.551700  0.630700  1.0  0.1027
  H  H44  1  0.876300  0.639300  0.640800  1.0  0.1071
  H  H45  1  0.752000  0.459300  0.635500  1.0  0.0986
  H  H46  1  0.696200  0.437000  0.531000  1.0  0.1165
  H  H47  1  0.553170  0.866730  0.797030  1.0  0.1118
  H  H48  1  0.506070  0.891030  0.824730  1.0  0.1054
  H  H49  1  0.551670  0.909730  0.992530  1.0  0.1219
  H  H50  1  0.599170  0.885030  0.964030  1.0  0.1038
  H  H51  1  0.542970  0.972630  0.974130  1.0  0.1072
  H  H52  1  0.418670  0.792630  0.968830  1.0  0.0986
  H  H53  1  0.362870  0.770330  0.864330  1.0  0.1165
  H  H54  1  0.219830  0.200070  0.130370  1.0  0.1118
  H  H55  1  0.172730  0.224370  0.158070  1.0  0.1045
  H  H56  1  0.218330  0.243070  0.325870  1.0  0.1219
  H  H57  1  0.265830  0.218370  0.297370  1.0  0.1027
  H  H58  1  0.209630  0.305970  0.307470  1.0  0.1071
  H  H59  1  0.085330  0.125970  0.302170  1.0  0.0987
  H  H60  1  0.029530  0.103670  0.197670  1.0  0.1165
  H  H61  1  0.466600  0.353100  0.463700  1.0  0.1119
  H  H62  1  0.442300  0.281700  0.491400  1.0  0.1038
  H  H63  1  0.423600  0.308600  0.659200  1.0  0.1224
  H  H64  1  0.448300  0.380800  0.630700  1.0  0.1025
  H  H65  1  0.360700  0.237000  0.640800  1.0  0.1069
  H  H66  1  0.540700  0.292700  0.635500  1.0  0.1093
  H  H67  1  0.563000  0.259200  0.531000  1.0  0.1197
  H  H68  1  0.133270  0.686430  0.797030  1.0  0.1119
  H  H69  1  0.108970  0.615030  0.824730  1.0  0.1038
  H  H70  1  0.090270  0.641930  0.992530  1.0  0.1224
  H  H71  1  0.114970  0.714130  0.964030  1.0  0.1025
  H  H72  1  0.027370  0.570330  0.974130  1.0  0.1068
  H  H73  1  0.207370  0.626030  0.968830  1.0  0.1093
  H  H74  1  0.229670  0.592530  0.864330  1.0  0.1197
  H  H75  1  0.799930  0.019770  0.130370  1.0  0.1119
  H  H76  1  0.775630  0.948370  0.158070  1.0  0.1048
  H  H77  1  0.756930  0.975270  0.325870  1.0  0.1224
  H  H78  1  0.781630  0.047470  0.297370  1.0  0.1025
  H  H79  1  0.694030  0.903670  0.307470  1.0  0.1069
  H  H80  1  0.874030  0.959370  0.302170  1.0  0.1093
  H  H81  1  0.896330  0.925870  0.197670  1.0  0.1197
  H  H82  1  0.113500  0.646900  0.536300  1.0  0.1115
  H  H83  1  0.160600  0.718300  0.508600  1.0  0.1046
  H  H84  1  0.115000  0.691400  0.340800  1.0  0.122
  H  H85  1  0.067500  0.619200  0.369300  1.0  0.1032
  H  H86  1  0.123700  0.763000  0.359200  1.0  0.1072
  H  H87  1  0.248000  0.707300  0.364500  1.0  0.1101
  H  H88  1  0.303800  0.740800  0.469000  1.0  0.1209
  H  H89  1  0.780170  0.980230  0.869630  1.0  0.1115
  H  H90  1  0.827270  0.051630  0.841930  1.0  0.1046
  H  H91  1  0.781670  0.024730  0.674130  1.0  0.122
  H  H92  1  0.734170  0.952530  0.702630  1.0  0.1032
  H  H93  1  0.790370  0.096330  0.692530  1.0  0.1072
  H  H94  1  0.914670  0.040630  0.697830  1.0  0.1104
  H  H95  1  0.970470  0.074130  0.802330  1.0  0.1209
  H  H96  1  0.446830  0.313570  0.202970  1.0  0.1115
  H  H97  1  0.493930  0.384970  0.175270  1.0  0.1046
  H  H98  1  0.448330  0.358070  0.007470  1.0  0.122
  H  H99  1  0.400830  0.285870  0.035970  1.0  0.1023
  H  H100  1  0.457030  0.429670  0.025870  1.0  0.1072
  H  H101  1  0.581330  0.373970  0.031170  1.0  0.1101
  H  H102  1  0.637130  0.407470  0.135670  1.0  0.1209
  H  H103  1  0.533400  0.886500  0.536300  1.0  0.112
  H  H104  1  0.557700  0.839400  0.508600  1.0  0.1048
  H  H105  1  0.576400  0.885000  0.340800  1.0  0.1222
  H  H106  1  0.551700  0.932500  0.369300  1.0  0.1025
  H  H107  1  0.639300  0.876300  0.359200  1.0  0.1078
  H  H108  1  0.459300  0.752000  0.364500  1.0  0.1076
  H  H109  1  0.437000  0.696200  0.469000  1.0  0.1205
  H  H110  1  0.200070  0.219830  0.869630  1.0  0.112
  H  H111  1  0.224370  0.172730  0.841930  1.0  0.1046
  H  H112  1  0.243070  0.218330  0.674130  1.0  0.1222
  H  H113  1  0.218370  0.265830  0.702630  1.0  0.1025
  H  H114  1  0.305970  0.209630  0.692530  1.0  0.1078
  H  H115  1  0.125970  0.085330  0.697830  1.0  0.1065
  H  H116  1  0.103670  0.029530  0.802330  1.0  0.1205
  H  H117  1  0.866730  0.553170  0.202970  1.0  0.112
  H  H118  1  0.891030  0.506070  0.175270  1.0  0.1048
  H  H119  1  0.909730  0.551670  0.007470  1.0  0.1221
  H  H120  1  0.885030  0.599170  0.035970  1.0  0.1034
  H  H121  1  0.972630  0.542970  0.025870  1.0  0.108
  H  H122  1  0.792630  0.418670  0.031170  1.0  0.1076
  H  H123  1  0.770330  0.362870  0.135670  1.0  0.1205
  H  H124  1  0.353100  0.466600  0.536300  1.0  0.1116
  H  H125  1  0.281700  0.442300  0.508600  1.0  0.1039
  H  H126  1  0.308600  0.423600  0.340800  1.0  0.1222
  H  H127  1  0.380800  0.448300  0.369300  1.0  0.1028
  H  H128  1  0.237000  0.360700  0.359200  1.0  0.1077
  H  H129  1  0.292700  0.540700  0.364500  1.0  0.0992
  H  H130  1  0.259200  0.563000  0.469000  1.0  0.1167
  H  H131  1  0.019770  0.799930  0.869630  1.0  0.1116
  H  H132  1  0.948370  0.775630  0.841930  1.0  0.1045
  H  H133  1  0.975270  0.756930  0.674130  1.0  0.1222
  H  H134  1  0.047470  0.781630  0.702630  1.0  0.1029
  H  H135  1  0.903670  0.694030  0.692530  1.0  0.1077
  H  H136  1  0.959370  0.874030  0.697830  1.0  0.0992
  H  H137  1  0.925870  0.896330  0.802330  1.0  0.1167
  H  H138  1  0.686430  0.133270  0.202970  1.0  0.1116
  H  H139  1  0.615030  0.108970  0.175270  1.0  0.1039
  H  H140  1  0.641930  0.090270  0.007470  1.0  0.1221
  H  H141  1  0.714130  0.114970  0.035970  1.0  0.1029
  H  H142  1  0.570330  0.027370  0.025870  1.0  0.1076
  H  H143  1  0.626030  0.207370  0.031170  1.0  0.0992
  H  H144  1  0.592530  0.229670  0.135670  1.0  0.1167
  H  H145  1  0.353100  0.886500  0.536300  1.0  0.112
  H  H146  1  0.281700  0.839400  0.508600  1.0  0.1047
  H  H147  1  0.308600  0.885000  0.340800  1.0  0.1224
  H  H148  1  0.380800  0.932500  0.369300  1.0  0.1037
  H  H149  1  0.237000  0.876300  0.359200  1.0  0.1079
  H  H150  1  0.292700  0.752000  0.364500  1.0  0.1091
  H  H151  1  0.259200  0.696200  0.469000  1.0  0.1213
  H  H152  1  0.019770  0.219830  0.869630  1.0  0.112
  H  H153  1  0.948370  0.172730  0.841930  1.0  0.1047
  H  H154  1  0.975270  0.218330  0.674130  1.0  0.1223
  H  H155  1  0.047470  0.265830  0.702630  1.0  0.1037
  H  H156  1  0.903670  0.209630  0.692530  1.0  0.1079
  H  H157  1  0.959370  0.085330  0.697830  1.0  0.1092
  H  H158  1  0.925870  0.029530  0.802330  1.0  0.1213
  H  H159  1  0.686430  0.553170  0.202970  1.0  0.112
  H  H160  1  0.615030  0.506070  0.175270  1.0  0.1047
  H  H161  1  0.641930  0.551670  0.007470  1.0  0.1224
  H  H162  1  0.714130  0.599170  0.035970  1.0  0.1027
  H  H163  1  0.570330  0.542970  0.025870  1.0  0.108
  H  H164  1  0.626030  0.418670  0.031170  1.0  0.1091
  H  H165  1  0.592530  0.362870  0.135670  1.0  0.1213
  H  H166  1  0.113500  0.466600  0.536300  1.0  0.1113
  H  H167  1  0.160600  0.442300  0.508600  1.0  0.1054
  H  H168  1  0.115000  0.423600  0.340800  1.0  0.1215
  H  H169  1  0.067500  0.448300  0.369300  1.0  0.1024
  H  H170  1  0.123700  0.360700  0.359200  1.0  0.1073
  H  H171  1  0.248000  0.540700  0.364500  1.0  0.1061
  H  H172  1  0.303800  0.563000  0.469000  1.0  0.113
  H  H173  1  0.780170  0.799930  0.869630  1.0  0.1113
  H  H174  1  0.827270  0.775630  0.841930  1.0  0.1049
  H  H175  1  0.781670  0.756930  0.674130  1.0  0.1215
  H  H176  1  0.734170  0.781630  0.702630  1.0  0.1024
  H  H177  1  0.790370  0.694030  0.692530  1.0  0.1073
  H  H178  1  0.914670  0.874030  0.697830  1.0  0.1056
  H  H179  1  0.970470  0.896330  0.802330  1.0  0.113
  H  H180  1  0.446830  0.133270  0.202970  1.0  0.1113
  H  H181  1  0.493930  0.108970  0.175270  1.0  0.1054
  H  H182  1  0.448330  0.090270  0.007470  1.0  0.1214
  H  H183  1  0.400830  0.114970  0.035970  1.0  0.1035
  H  H184  1  0.457030  0.027370  0.025870  1.0  0.1074
  H  H185  1  0.581330  0.207370  0.031170  1.0  0.1061
  H  H186  1  0.637130  0.229670  0.135670  1.0  0.113
  H  H187  1  0.533400  0.646900  0.536300  1.0  0.1116
  H  H188  1  0.557700  0.718300  0.508600  1.0  0.1038
  H  H189  1  0.576400  0.691400  0.340800  1.0  0.1224
  H  H190  1  0.551700  0.619200  0.369300  1.0  0.1024
  H  H191  1  0.639300  0.763000  0.359200  1.0  0.107
  H  H192  1  0.459300  0.707300  0.364500  1.0  0.107
  H  H193  1  0.437000  0.740800  0.469000  1.0  0.1191
  H  H194  1  0.200070  0.980230  0.869630  1.0  0.1116
  H  H195  1  0.224370  0.051630  0.841930  1.0  0.1044
  H  H196  1  0.243070  0.024730  0.674130  1.0  0.1224
  H  H197  1  0.218370  0.952530  0.702630  1.0  0.1024
  H  H198  1  0.305970  0.096330  0.692530  1.0  0.107
  H  H199  1  0.125970  0.040630  0.697830  1.0  0.1076
  H  H200  1  0.103670  0.074130  0.802330  1.0  0.1191
  H  H201  1  0.866730  0.313570  0.202970  1.0  0.1116
  H  H202  1  0.891030  0.384970  0.175270  1.0  0.1038
  H  H203  1  0.909730  0.358070  0.007470  1.0  0.1223
  H  H204  1  0.885030  0.285870  0.035970  1.0  0.1024
  H  H205  1  0.972630  0.429670  0.025870  1.0  0.107
  H  H206  1  0.792630  0.373970  0.031170  1.0  0.107
  H  H207  1  0.770330  0.407470  0.135670  1.0  0.1191
  H  H208  1  0.886500  0.353100  0.463700  1.0  0.112
  H  H209  1  0.839400  0.281700  0.491400  1.0  0.105
  H  H210  1  0.885000  0.308600  0.659200  1.0  0.1226
  H  H211  1  0.932500  0.380800  0.630700  1.0  0.1035
  H  H212  1  0.876300  0.237000  0.640800  1.0  0.1067
  H  H213  1  0.752000  0.292700  0.635500  1.0  0.1092
  H  H214  1  0.696200  0.259200  0.531000  1.0  0.1181
  H  H215  1  0.553170  0.686430  0.797030  1.0  0.112
  H  H216  1  0.506070  0.615030  0.824730  1.0  0.105
  H  H217  1  0.551670  0.641930  0.992530  1.0  0.1226
  H  H218  1  0.599170  0.714130  0.964030  1.0  0.1024
  H  H219  1  0.542970  0.570330  0.974130  1.0  0.1068
  H  H220  1  0.418670  0.626030  0.968830  1.0  0.1092
  H  H221  1  0.362870  0.592530  0.864330  1.0  0.1181
  H  H222  1  0.219830  0.019770  0.130370  1.0  0.112
  H  H223  1  0.172730  0.948370  0.158070  1.0  0.105
  H  H224  1  0.218330  0.975270  0.325870  1.0  0.1226
  H  H225  1  0.265830  0.047470  0.297370  1.0  0.1035
  H  H226  1  0.209630  0.903670  0.307470  1.0  0.1067
  H  H227  1  0.085330  0.959370  0.302170  1.0  0.1096
  H  H228  1  0.029530  0.925870  0.197670  1.0  0.1181
  H  H229  1  0.466600  0.113500  0.463700  1.0  0.112
  H  H230  1  0.442300  0.160600  0.491400  1.0  0.1049
  H  H231  1  0.423600  0.115000  0.659200  1.0  0.1224
  H  H232  1  0.448300  0.067500  0.630700  1.0  0.1028
  H  H233  1  0.360700  0.123700  0.640800  1.0  0.108
  H  H234  1  0.540700  0.248000  0.635500  1.0  0.1066
  H  H235  1  0.563000  0.303800  0.531000  1.0  0.1213
  H  H236  1  0.133270  0.446830  0.797030  1.0  0.112
  H  H237  1  0.108970  0.493930  0.824730  1.0  0.1049
  H  H238  1  0.090270  0.448330  0.992530  1.0  0.1224
  H  H239  1  0.114970  0.400830  0.964030  1.0  0.1034
  H  H240  1  0.027370  0.457030  0.974130  1.0  0.1081
  H  H241  1  0.207370  0.581330  0.968830  1.0  0.1066
  H  H242  1  0.229670  0.637130  0.864330  1.0  0.1213
  H  H243  1  0.799930  0.780170  0.130370  1.0  0.112
  H  H244  1  0.775630  0.827270  0.158070  1.0  0.1041
  H  H245  1  0.756930  0.781670  0.325870  1.0  0.1224
  H  H246  1  0.781630  0.734170  0.297370  1.0  0.1028
  H  H247  1  0.694030  0.790370  0.307470  1.0  0.108
  H  H248  1  0.874030  0.914670  0.302170  1.0  0.1068
  H  H249  1  0.896330  0.970470  0.197670  1.0  0.1213
  H  H250  1  0.646900  0.533400  0.463700  1.0  0.1118
  H  H251  1  0.718300  0.557700  0.491400  1.0  0.1043
  H  H252  1  0.691400  0.576400  0.659200  1.0  0.1224
  H  H253  1  0.619200  0.551700  0.630700  1.0  0.1028
  H  H254  1  0.763000  0.639300  0.640800  1.0  0.1071
  H  H255  1  0.707300  0.459300  0.635500  1.0  0.1067
  H  H256  1  0.740800  0.437000  0.531000  1.0  0.1116
  H  H257  1  0.313570  0.866730  0.797030  1.0  0.1118
  H  H258  1  0.384970  0.891030  0.824730  1.0  0.1043
  H  H259  1  0.358070  0.909730  0.992530  1.0  0.1223
  H  H260  1  0.285870  0.885030  0.964030  1.0  0.1028
  H  H261  1  0.429670  0.972630  0.974130  1.0  0.107
  H  H262  1  0.373970  0.792630  0.968830  1.0  0.1067
  H  H263  1  0.407470  0.770330  0.864330  1.0  0.1116
  H  H264  1  0.980230  0.200070  0.130370  1.0  0.1118
  H  H265  1  0.051630  0.224370  0.158070  1.0  0.1053
  H  H266  1  0.024730  0.243070  0.325870  1.0  0.1224
  H  H267  1  0.952530  0.218370  0.297370  1.0  0.1028
  H  H268  1  0.096330  0.305970  0.307470  1.0  0.1071
  H  H269  1  0.040630  0.125970  0.302170  1.0  0.1072
  H  H270  1  0.074130  0.103670  0.197670  1.0  0.1116
  H  H271  1  0.750600  0.249400  0.656200  1.0  0.117
  H  H272  1  0.733000  0.267000  0.484900  1.0  0.1358
  H  H273  1  0.417270  0.582730  0.989530  1.0  0.117
  H  H274  1  0.399670  0.600330  0.818230  1.0  0.1358
  H  H275  1  0.083930  0.916070  0.322870  1.0  0.117
  H  H276  1  0.066330  0.933670  0.151570  1.0  0.1358
  H  H277  1  0.750600  0.501200  0.656200  1.0  0.1169
  H  H278  1  0.733000  0.466000  0.484900  1.0  0.1347
  H  H279  1  0.417270  0.834530  0.989530  1.0  0.1169
  H  H280  1  0.399670  0.799330  0.818230  1.0  0.1347
  H  H281  1  0.083930  0.167870  0.322870  1.0  0.1169
  H  H282  1  0.066330  0.132670  0.151570  1.0  0.1347
  H  H283  1  0.498800  0.249400  0.656200  1.0  0.1185
  H  H284  1  0.534000  0.267000  0.484900  1.0  0.1352
  H  H285  1  0.165470  0.582730  0.989530  1.0  0.1185
  H  H286  1  0.200670  0.600330  0.818230  1.0  0.1352
  H  H287  1  0.832130  0.916070  0.322870  1.0  0.1185
  H  H288  1  0.867330  0.933670  0.151570  1.0  0.1352
  H  H289  1  0.249400  0.750600  0.343800  1.0  0.1169
  H  H290  1  0.267000  0.733000  0.515100  1.0  0.1369
  H  H291  1  0.916070  0.083930  0.677130  1.0  0.1169
  H  H292  1  0.933670  0.066330  0.848430  1.0  0.137
  H  H293  1  0.582730  0.417270  0.010470  1.0  0.1169
  H  H294  1  0.600330  0.399670  0.181770  1.0  0.1369
  H  H295  1  0.501200  0.750600  0.343800  1.0  0.1154
  H  H296  1  0.466000  0.733000  0.515100  1.0  0.1349
  H  H297  1  0.167870  0.083930  0.677130  1.0  0.1154
  H  H298  1  0.132670  0.066330  0.848430  1.0  0.1349
  H  H299  1  0.834530  0.417270  0.010470  1.0  0.1154
  H  H300  1  0.799330  0.399670  0.181770  1.0  0.1349
  H  H301  1  0.249400  0.498800  0.343800  1.0  0.1178
  H  H302  1  0.267000  0.534000  0.515100  1.0  0.1337
  H  H303  1  0.916070  0.832130  0.677130  1.0  0.1178
  H  H304  1  0.933670  0.867330  0.848430  1.0  0.1337
  H  H305  1  0.582730  0.165470  0.010470  1.0  0.1178
  H  H306  1  0.600330  0.200670  0.181770  1.0  0.1337
  C  C307  1  0.578170  0.054270  0.527540  1.0  0.6778
  C  C308  1  0.625160  0.085650  0.545130  1.0  -0.1469
  C  C309  1  0.655570  0.113730  0.503010  1.0  -0.061
  C  C310  1  0.698450  0.141780  0.519770  1.0  -0.1145
  C  C311  1  0.712700  0.142760  0.577230  1.0  0.0094
  C  C312  1  0.682590  0.114750  0.619910  1.0  -0.1795
  C  C313  1  0.639150  0.086390  0.602560  1.0  -0.0312
  C  C314  1  0.759570  0.170990  0.595720  1.0  0.0265
  C  C315  1  0.779520  0.153110  0.629680  1.0  -0.0798
  C  C316  1  0.244840  0.387600  0.860870  1.0  0.6778
  C  C317  1  0.291830  0.418980  0.878460  1.0  -0.1469
  C  C318  1  0.322240  0.447060  0.836340  1.0  -0.0609
  C  C319  1  0.365120  0.475110  0.853100  1.0  -0.1145
  C  C320  1  0.379370  0.476090  0.910560  1.0  0.0094
  C  C321  1  0.349260  0.448080  0.953240  1.0  -0.1795
  C  C322  1  0.305820  0.419720  0.935890  1.0  -0.031
  C  C323  1  0.426240  0.504320  0.929050  1.0  0.0265
  C  C324  1  0.446190  0.486440  0.963010  1.0  -0.0798
  C  C325  1  0.911500  0.720940  0.194210  1.0  0.6778
  C  C326  1  0.958490  0.752320  0.211800  1.0  -0.1467
  C  C327  1  0.988900  0.780400  0.169680  1.0  -0.0609
  C  C328  1  0.031780  0.808450  0.186440  1.0  -0.1145
  C  C329  1  0.046030  0.809430  0.243900  1.0  0.0094
  C  C330  1  0.015920  0.781420  0.286580  1.0  -0.1795
  C  C331  1  0.972480  0.753060  0.269230  1.0  -0.0312
  C  C332  1  0.092900  0.837660  0.262390  1.0  0.0265
  C  C333  1  0.112850  0.819780  0.296350  1.0  -0.0798
  C  C334  1  0.945730  0.523900  0.527540  1.0  0.677
  C  C335  1  0.914350  0.539510  0.545130  1.0  -0.1473
  C  C336  1  0.886270  0.541840  0.503010  1.0  -0.0611
  C  C337  1  0.858220  0.556670  0.519770  1.0  -0.1138
  C  C338  1  0.857240  0.569940  0.577230  1.0  0.0079
  C  C339  1  0.885250  0.567840  0.619910  1.0  -0.1765
  C  C340  1  0.913610  0.552760  0.602560  1.0  -0.0274
  C  C341  1  0.829010  0.588580  0.595720  1.0  0.0271
  C  C342  1  0.846890  0.626410  0.629680  1.0  -0.0843
  C  C343  1  0.612400  0.857230  0.860870  1.0  0.677
  C  C344  1  0.581020  0.872840  0.878460  1.0  -0.1474
  C  C345  1  0.552940  0.875170  0.836340  1.0  -0.061
  C  C346  1  0.524890  0.890000  0.853100  1.0  -0.1138
  C  C347  1  0.523910  0.903270  0.910560  1.0  0.0079
  C  C348  1  0.551920  0.901170  0.953240  1.0  -0.1765
  C  C349  1  0.580280  0.886090  0.935890  1.0  -0.0276
  C  C350  1  0.495680  0.921910  0.929050  1.0  0.0271
  C  C351  1  0.513560  0.959740  0.963010  1.0  -0.0843
  C  C352  1  0.279060  0.190570  0.194210  1.0  0.677
  C  C353  1  0.247680  0.206180  0.211800  1.0  -0.1473
  C  C354  1  0.219600  0.208510  0.169680  1.0  -0.0611
  C  C355  1  0.191550  0.223340  0.186440  1.0  -0.1138
  C  C356  1  0.190570  0.236610  0.243900  1.0  0.0079
  C  C357  1  0.218580  0.234510  0.286580  1.0  -0.1765
  C  C358  1  0.246940  0.219430  0.269230  1.0  -0.0274
  C  C359  1  0.162340  0.255250  0.262390  1.0  0.0271
  C  C360  1  0.180220  0.293080  0.296350  1.0  -0.0771
  C  C361  1  0.476100  0.421830  0.527540  1.0  0.6783
  C  C362  1  0.460490  0.374840  0.545130  1.0  -0.1455
  C  C363  1  0.458160  0.344430  0.503010  1.0  -0.0615
  C  C364  1  0.443330  0.301550  0.519770  1.0  -0.1159
  C  C365  1  0.430060  0.287300  0.577230  1.0  0.0091
  C  C366  1  0.432160  0.317410  0.619910  1.0  -0.1782
  C  C367  1  0.447240  0.360850  0.602560  1.0  -0.0312
  C  C368  1  0.411420  0.240430  0.595720  1.0  0.0263
  C  C369  1  0.373590  0.220480  0.629680  1.0  -0.0765
  C  C370  1  0.142770  0.755160  0.860870  1.0  0.6783
  C  C371  1  0.127160  0.708170  0.878460  1.0  -0.1455
  C  C372  1  0.124830  0.677760  0.836340  1.0  -0.0616
  C  C373  1  0.110000  0.634880  0.853100  1.0  -0.1159
  C  C374  1  0.096730  0.620630  0.910560  1.0  0.0091
  C  C375  1  0.098830  0.650740  0.953240  1.0  -0.1782
  C  C376  1  0.113910  0.694180  0.935890  1.0  -0.0314
  C  C377  1  0.078090  0.573760  0.929050  1.0  0.0263
  C  C378  1  0.040260  0.553810  0.963010  1.0  -0.0765
  C  C379  1  0.809430  0.088500  0.194210  1.0  0.6783
  C  C380  1  0.793820  0.041510  0.211800  1.0  -0.1455
  C  C381  1  0.791490  0.011100  0.169680  1.0  -0.0615
  C  C382  1  0.776660  0.968220  0.186440  1.0  -0.1159
  C  C383  1  0.763390  0.953970  0.243900  1.0  0.0091
  C  C384  1  0.765490  0.984080  0.286580  1.0  -0.1782
  C  C385  1  0.780570  0.027520  0.269230  1.0  -0.0312
  C  C386  1  0.744750  0.907100  0.262390  1.0  0.0263
  C  C387  1  0.706920  0.887150  0.296350  1.0  -0.0842
  C  C388  1  0.054270  0.578170  0.472460  1.0  0.678
  C  C389  1  0.085650  0.625160  0.454870  1.0  -0.1459
  C  C390  1  0.113730  0.655570  0.496990  1.0  -0.0595
  C  C391  1  0.141780  0.698450  0.480230  1.0  -0.115
  C  C392  1  0.142760  0.712700  0.422770  1.0  0.0086
  C  C393  1  0.114750  0.682590  0.380090  1.0  -0.1755
  C  C394  1  0.086390  0.639150  0.397440  1.0  -0.0297
  C  C395  1  0.170990  0.759570  0.404280  1.0  0.0255
  C  C396  1  0.153110  0.779520  0.370320  1.0  -0.0855
  C  C397  1  0.720940  0.911500  0.805790  1.0  0.678
  C  C398  1  0.752320  0.958490  0.788200  1.0  -0.1457
  C  C399  1  0.780400  0.988900  0.830320  1.0  -0.0594
  C  C400  1  0.808450  0.031780  0.813560  1.0  -0.115
  C  C401  1  0.809430  0.046030  0.756100  1.0  0.0086
  C  C402  1  0.781420  0.015920  0.713420  1.0  -0.1755
  C  C403  1  0.753060  0.972480  0.730770  1.0  -0.0297
  C  C404  1  0.837660  0.092900  0.737610  1.0  0.0255
  C  C405  1  0.819780  0.112850  0.703650  1.0  -0.0855
  C  C406  1  0.387600  0.244840  0.139130  1.0  0.678
  C  C407  1  0.418980  0.291830  0.121540  1.0  -0.1459
  C  C408  1  0.447060  0.322240  0.163660  1.0  -0.0594
  C  C409  1  0.475110  0.365120  0.146900  1.0  -0.115
  C  C410  1  0.476090  0.379370  0.089440  1.0  0.0086
  C  C411  1  0.448080  0.349260  0.046760  1.0  -0.1755
  C  C412  1  0.419720  0.305820  0.064110  1.0  -0.0296
  C  C413  1  0.504320  0.426240  0.070950  1.0  0.0255
  C  C414  1  0.486440  0.446190  0.036990  1.0  -0.0855
  C  C415  1  0.523900  0.945730  0.472460  1.0  0.678
  C  C416  1  0.539510  0.914350  0.454870  1.0  -0.1464
  C  C417  1  0.541840  0.886270  0.496990  1.0  -0.06
  C  C418  1  0.556670  0.858220  0.480230  1.0  -0.1127
  C  C419  1  0.569940  0.857240  0.422770  1.0  0.0089
  C  C420  1  0.567840  0.885250  0.380090  1.0  -0.1778
  C  C421  1  0.552760  0.913610  0.397440  1.0  -0.0301
  C  C422  1  0.588580  0.829010  0.404280  1.0  0.0264
  C  C423  1  0.626410  0.846890  0.370320  1.0  -0.0839
  C  C424  1  0.190570  0.279060  0.805790  1.0  0.678
  C  C425  1  0.206180  0.247680  0.788200  1.0  -0.1465
  C  C426  1  0.208510  0.219600  0.830320  1.0  -0.06
  C  C427  1  0.223340  0.191550  0.813560  1.0  -0.1127
  C  C428  1  0.236610  0.190570  0.756100  1.0  0.0089
  C  C429  1  0.234510  0.218580  0.713420  1.0  -0.1778
  C  C430  1  0.219430  0.246940  0.730770  1.0  -0.0301
  C  C431  1  0.255250  0.162340  0.737610  1.0  0.0264
  C  C432  1  0.293080  0.180220  0.703650  1.0  -0.0753
  C  C433  1  0.857230  0.612400  0.139130  1.0  0.678
  C  C434  1  0.872840  0.581020  0.121540  1.0  -0.1466
  C  C435  1  0.875170  0.552940  0.163660  1.0  -0.0599
  C  C436  1  0.890000  0.524890  0.146900  1.0  -0.1127
  C  C437  1  0.903270  0.523910  0.089440  1.0  0.0089
  C  C438  1  0.901170  0.551920  0.046760  1.0  -0.1778
  C  C439  1  0.886090  0.580280  0.064110  1.0  -0.0303
  C  C440  1  0.921910  0.495680  0.070950  1.0  0.0264
  C  C441  1  0.959740  0.513560  0.036990  1.0  -0.0839
  C  C442  1  0.421830  0.476100  0.472460  1.0  0.6773
  C  C443  1  0.374840  0.460490  0.454870  1.0  -0.1478
  C  C444  1  0.344430  0.458160  0.496990  1.0  -0.0584
  C  C445  1  0.301550  0.443330  0.480230  1.0  -0.1137
  C  C446  1  0.287300  0.430060  0.422770  1.0  0.0071
  C  C447  1  0.317410  0.432160  0.380090  1.0  -0.1738
  C  C448  1  0.360850  0.447240  0.397440  1.0  -0.0271
  C  C449  1  0.240430  0.411420  0.404280  1.0  0.0266
  C  C450  1  0.220480  0.373590  0.370320  1.0  -0.0784
  C  C451  1  0.088500  0.809430  0.805790  1.0  0.6773
  C  C452  1  0.041510  0.793820  0.788200  1.0  -0.1478
  C  C453  1  0.011100  0.791490  0.830320  1.0  -0.0584
  C  C454  1  0.968220  0.776660  0.813560  1.0  -0.1137
  C  C455  1  0.953970  0.763390  0.756100  1.0  0.0071
  C  C456  1  0.984080  0.765490  0.713420  1.0  -0.1738
  C  C457  1  0.027520  0.780570  0.730770  1.0  -0.0271
  C  C458  1  0.907100  0.744750  0.737610  1.0  0.0266
  C  C459  1  0.887150  0.706920  0.703650  1.0  -0.0857
  C  C460  1  0.755160  0.142770  0.139130  1.0  0.6773
  C  C461  1  0.708170  0.127160  0.121540  1.0  -0.1478
  C  C462  1  0.677760  0.124830  0.163660  1.0  -0.0585
  C  C463  1  0.634880  0.110000  0.146900  1.0  -0.1137
  C  C464  1  0.620630  0.096730  0.089440  1.0  0.0071
  C  C465  1  0.650740  0.098830  0.046760  1.0  -0.1738
  C  C466  1  0.694180  0.113910  0.064110  1.0  -0.0273
  C  C467  1  0.573760  0.078090  0.070950  1.0  0.0266
  C  C468  1  0.553810  0.040260  0.036990  1.0  -0.0784
  C  C469  1  0.421830  0.945730  0.472460  1.0  0.6778
  C  C470  1  0.374840  0.914350  0.454870  1.0  -0.1476
  C  C471  1  0.344430  0.886270  0.496990  1.0  -0.0589
  C  C472  1  0.301550  0.858220  0.480230  1.0  -0.114
  C  C473  1  0.287300  0.857240  0.422770  1.0  0.0092
  C  C474  1  0.317410  0.885250  0.380090  1.0  -0.1774
  C  C475  1  0.360850  0.913610  0.397440  1.0  -0.0309
  C  C476  1  0.240430  0.829010  0.404280  1.0  0.0258
  C  C477  1  0.220480  0.846890  0.370320  1.0  -0.0831
  C  C478  1  0.088500  0.279060  0.805790  1.0  0.6778
  C  C479  1  0.041510  0.247680  0.788200  1.0  -0.1475
  C  C480  1  0.011100  0.219600  0.830320  1.0  -0.0589
  C  C481  1  0.968220  0.191550  0.813560  1.0  -0.114
  C  C482  1  0.953970  0.190570  0.756100  1.0  0.0092
  C  C483  1  0.984080  0.218580  0.713420  1.0  -0.1774
  C  C484  1  0.027520  0.246940  0.730770  1.0  -0.0309
  C  C485  1  0.907100  0.162340  0.737610  1.0  0.0258
  C  C486  1  0.887150  0.180220  0.703650  1.0  -0.0831
  C  C487  1  0.755160  0.612400  0.139130  1.0  0.6778
  C  C488  1  0.708170  0.581020  0.121540  1.0  -0.1476
  C  C489  1  0.677760  0.552940  0.163660  1.0  -0.0589
  C  C490  1  0.634880  0.524890  0.146900  1.0  -0.114
  C  C491  1  0.620630  0.523910  0.089440  1.0  0.0092
  C  C492  1  0.650740  0.551920  0.046760  1.0  -0.1774
  C  C493  1  0.694180  0.580280  0.064110  1.0  -0.0308
  C  C494  1  0.573760  0.495680  0.070950  1.0  0.0258
  C  C495  1  0.553810  0.513560  0.036990  1.0  -0.0831
  C  C496  1  0.054270  0.476100  0.472460  1.0  0.6779
  C  C497  1  0.085650  0.460490  0.454870  1.0  -0.1469
  C  C498  1  0.113730  0.458160  0.496990  1.0  -0.0596
  C  C499  1  0.141780  0.443330  0.480230  1.0  -0.1137
  C  C500  1  0.142760  0.430060  0.422770  1.0  0.0075
  C  C501  1  0.114750  0.432160  0.380090  1.0  -0.173
  C  C502  1  0.086390  0.447240  0.397440  1.0  -0.0272
  C  C503  1  0.170990  0.411420  0.404280  1.0  0.0257
  C  C504  1  0.153110  0.373590  0.370320  1.0  -0.0868
  C  C505  1  0.720940  0.809430  0.805790  1.0  0.6779
  C  C506  1  0.752320  0.793820  0.788200  1.0  -0.147
  C  C507  1  0.780400  0.791490  0.830320  1.0  -0.0596
  C  C508  1  0.808450  0.776660  0.813560  1.0  -0.1137
  C  C509  1  0.809430  0.763390  0.756100  1.0  0.0075
  C  C510  1  0.781420  0.765490  0.713420  1.0  -0.173
  C  C511  1  0.753060  0.780570  0.730770  1.0  -0.0272
  C  C512  1  0.837660  0.744750  0.737610  1.0  0.0257
  C  C513  1  0.819780  0.706920  0.703650  1.0  -0.0788
  C  C514  1  0.387600  0.142770  0.139130  1.0  0.6779
  C  C515  1  0.418980  0.127160  0.121540  1.0  -0.1471
  C  C516  1  0.447060  0.124830  0.163660  1.0  -0.0594
  C  C517  1  0.475110  0.110000  0.146900  1.0  -0.1137
  C  C518  1  0.476090  0.096730  0.089440  1.0  0.0075
  C  C519  1  0.448080  0.098830  0.046760  1.0  -0.173
  C  C520  1  0.419720  0.113910  0.064110  1.0  -0.0274
  C  C521  1  0.504320  0.078090  0.070950  1.0  0.0257
  C  C522  1  0.486440  0.040260  0.036990  1.0  -0.0868
  C  C523  1  0.523900  0.578170  0.472460  1.0  0.6778
  C  C524  1  0.539510  0.625160  0.454870  1.0  -0.1469
  C  C525  1  0.541840  0.655570  0.496990  1.0  -0.0607
  C  C526  1  0.556670  0.698450  0.480230  1.0  -0.1154
  C  C527  1  0.569940  0.712700  0.422770  1.0  0.0075
  C  C528  1  0.567840  0.682590  0.380090  1.0  -0.1759
  C  C529  1  0.552760  0.639150  0.397440  1.0  -0.0306
  C  C530  1  0.588580  0.759570  0.404280  1.0  0.0263
  C  C531  1  0.626410  0.779520  0.370320  1.0  -0.077
  C  C532  1  0.190570  0.911500  0.805790  1.0  0.6778
  C  C533  1  0.206180  0.958490  0.788200  1.0  -0.1469
  C  C534  1  0.208510  0.988900  0.830320  1.0  -0.0607
  C  C535  1  0.223340  0.031780  0.813560  1.0  -0.1154
  C  C536  1  0.236610  0.046030  0.756100  1.0  0.0075
  C  C537  1  0.234510  0.015920  0.713420  1.0  -0.1759
  C  C538  1  0.219430  0.972480  0.730770  1.0  -0.0306
  C  C539  1  0.255250  0.092900  0.737610  1.0  0.0263
  C  C540  1  0.293080  0.112850  0.703650  1.0  -0.0844
  C  C541  1  0.857230  0.244840  0.139130  1.0  0.6778
  C  C542  1  0.872840  0.291830  0.121540  1.0  -0.1469
  C  C543  1  0.875170  0.322240  0.163660  1.0  -0.0608
  C  C544  1  0.890000  0.365120  0.146900  1.0  -0.1154
  C  C545  1  0.903270  0.379370  0.089440  1.0  0.0075
  C  C546  1  0.901170  0.349260  0.046760  1.0  -0.1759
  C  C547  1  0.886090  0.305820  0.064110  1.0  -0.0308
  C  C548  1  0.921910  0.426240  0.070950  1.0  0.0263
  C  C549  1  0.959740  0.446190  0.036990  1.0  -0.077
  C  C550  1  0.945730  0.421830  0.527540  1.0  0.678
  C  C551  1  0.914350  0.374840  0.545130  1.0  -0.1463
  C  C552  1  0.886270  0.344430  0.503010  1.0  -0.0619
  C  C553  1  0.858220  0.301550  0.519770  1.0  -0.1155
  C  C554  1  0.857240  0.287300  0.577230  1.0  0.0079
  C  C555  1  0.885250  0.317410  0.619910  1.0  -0.1777
  C  C556  1  0.913610  0.360850  0.602560  1.0  -0.0291
  C  C557  1  0.829010  0.240430  0.595720  1.0  0.027
  C  C558  1  0.846890  0.220480  0.629680  1.0  -0.0833
  C  C559  1  0.612400  0.755160  0.860870  1.0  0.678
  C  C560  1  0.581020  0.708170  0.878460  1.0  -0.1463
  C  C561  1  0.552940  0.677760  0.836340  1.0  -0.0619
  C  C562  1  0.524890  0.634880  0.853100  1.0  -0.1155
  C  C563  1  0.523910  0.620630  0.910560  1.0  0.0079
  C  C564  1  0.551920  0.650740  0.953240  1.0  -0.1777
  C  C565  1  0.580280  0.694180  0.935890  1.0  -0.029
  C  C566  1  0.495680  0.573760  0.929050  1.0  0.027
  C  C567  1  0.513560  0.553810  0.963010  1.0  -0.0833
  C  C568  1  0.279060  0.088500  0.194210  1.0  0.678
  C  C569  1  0.247680  0.041510  0.211800  1.0  -0.1462
  C  C570  1  0.219600  0.011100  0.169680  1.0  -0.0619
  C  C571  1  0.191550  0.968220  0.186440  1.0  -0.1155
  C  C572  1  0.190570  0.953970  0.243900  1.0  0.0079
  C  C573  1  0.218580  0.984080  0.286580  1.0  -0.1777
  C  C574  1  0.246940  0.027520  0.269230  1.0  -0.0291
  C  C575  1  0.162340  0.907100  0.262390  1.0  0.027
  C  C576  1  0.180220  0.887150  0.296350  1.0  -0.0833
  C  C577  1  0.476100  0.054270  0.527540  1.0  0.6776
  C  C578  1  0.460490  0.085650  0.545130  1.0  -0.1476
  C  C579  1  0.458160  0.113730  0.503010  1.0  -0.0614
  C  C580  1  0.443330  0.141780  0.519770  1.0  -0.114
  C  C581  1  0.430060  0.142760  0.577230  1.0  0.0095
  C  C582  1  0.432160  0.114750  0.619910  1.0  -0.179
  C  C583  1  0.447240  0.086390  0.602560  1.0  -0.0304
  C  C584  1  0.411420  0.170990  0.595720  1.0  0.0262
  C  C585  1  0.373590  0.153110  0.629680  1.0  -0.0804
  C  C586  1  0.142770  0.387600  0.860870  1.0  0.6776
  C  C587  1  0.127160  0.418980  0.878460  1.0  -0.1477
  C  C588  1  0.124830  0.447060  0.836340  1.0  -0.0613
  C  C589  1  0.110000  0.475110  0.853100  1.0  -0.114
  C  C590  1  0.096730  0.476090  0.910560  1.0  0.0095
  C  C591  1  0.098830  0.448080  0.953240  1.0  -0.179
  C  C592  1  0.113910  0.419720  0.935890  1.0  -0.0305
  C  C593  1  0.078090  0.504320  0.929050  1.0  0.0262
  C  C594  1  0.040260  0.486440  0.963010  1.0  -0.0804
  C  C595  1  0.809430  0.720940  0.194210  1.0  0.6776
  C  C596  1  0.793820  0.752320  0.211800  1.0  -0.1476
  C  C597  1  0.791490  0.780400  0.169680  1.0  -0.0614
  C  C598  1  0.776660  0.808450  0.186440  1.0  -0.114
  C  C599  1  0.763390  0.809430  0.243900  1.0  0.0095
  C  C600  1  0.765490  0.781420  0.286580  1.0  -0.179
  C  C601  1  0.780570  0.753060  0.269230  1.0  -0.0304
  C  C602  1  0.744750  0.837660  0.262390  1.0  0.0262
  C  C603  1  0.706920  0.819780  0.296350  1.0  -0.0725
  C  C604  1  0.578170  0.523900  0.527540  1.0  0.6777
  C  C605  1  0.625160  0.539510  0.545130  1.0  -0.1468
  C  C606  1  0.655570  0.541840  0.503010  1.0  -0.06
  C  C607  1  0.698450  0.556670  0.519770  1.0  -0.115
  C  C608  1  0.712700  0.569940  0.577230  1.0  0.0084
  C  C609  1  0.682590  0.567840  0.619910  1.0  -0.1755
  C  C610  1  0.639150  0.552760  0.602560  1.0  -0.0282
  C  C611  1  0.759570  0.588580  0.595720  1.0  0.0259
  C  C612  1  0.779520  0.626410  0.629680  1.0  -0.0786
  C  C613  1  0.244840  0.857230  0.860870  1.0  0.6777
  C  C614  1  0.291830  0.872840  0.878460  1.0  -0.1468
  C  C615  1  0.322240  0.875170  0.836340  1.0  -0.06
  C  C616  1  0.365120  0.890000  0.853100  1.0  -0.115
  C  C617  1  0.379370  0.903270  0.910560  1.0  0.0084
  C  C618  1  0.349260  0.901170  0.953240  1.0  -0.1755
  C  C619  1  0.305820  0.886090  0.935890  1.0  -0.0284
  C  C620  1  0.426240  0.921910  0.929050  1.0  0.0259
  C  C621  1  0.446190  0.959740  0.963010  1.0  -0.0786
  C  C622  1  0.911500  0.190570  0.194210  1.0  0.6777
  C  C623  1  0.958490  0.206180  0.211800  1.0  -0.1468
  C  C624  1  0.988900  0.208510  0.169680  1.0  -0.06
  C  C625  1  0.031780  0.223340  0.186440  1.0  -0.115
  C  C626  1  0.046030  0.236610  0.243900  1.0  0.0084
  C  C627  1  0.015920  0.234510  0.286580  1.0  -0.1755
  C  C628  1  0.972480  0.219430  0.269230  1.0  -0.0282
  C  C629  1  0.092900  0.255250  0.262390  1.0  0.0259
  C  C630  1  0.112850  0.293080  0.296350  1.0  -0.0862
  C  C631  1  0.823080  0.176920  0.648100  1.0  0.0124
  C  C632  1  0.784620  0.215380  0.579200  1.0  0.1892
  C  C633  1  0.746400  0.253600  0.569100  1.0  0.1734
  C  C634  1  0.738420  0.261580  0.629000  1.0  -0.3508
  C  C635  1  0.727350  0.272650  0.524900  1.0  -0.3931
  C  C636  1  0.489750  0.510250  0.981430  1.0  0.0112
  C  C637  1  0.451290  0.548710  0.912530  1.0  0.1892
  C  C638  1  0.413070  0.586930  0.902430  1.0  0.1734
  C  C639  1  0.405090  0.594910  0.962330  1.0  -0.3508
  C  C640  1  0.394020  0.605980  0.858230  1.0  -0.3931
  C  C641  1  0.156410  0.843590  0.314770  1.0  0.0124
  C  C642  1  0.117950  0.882050  0.245870  1.0  0.1892
  C  C643  1  0.079730  0.920270  0.235770  1.0  0.1734
  C  C644  1  0.071750  0.928250  0.295670  1.0  -0.3508
  C  C645  1  0.060680  0.939320  0.191570  1.0  -0.3931
  C  C646  1  0.823080  0.646160  0.648100  1.0  0.0159
  C  C647  1  0.784620  0.569240  0.579200  1.0  0.1882
  C  C648  1  0.746400  0.492800  0.569100  1.0  0.1697
  C  C649  1  0.738420  0.476840  0.629000  1.0  -0.3498
  C  C650  1  0.727350  0.454700  0.524900  1.0  -0.3921
  C  C651  1  0.489750  0.979490  0.981430  1.0  0.0168
  C  C652  1  0.451290  0.902570  0.912530  1.0  0.1882
  C  C653  1  0.413070  0.826130  0.902430  1.0  0.1697
  C  C654  1  0.405090  0.810170  0.962330  1.0  -0.3498
  C  C655  1  0.394020  0.788030  0.858230  1.0  -0.3921
  C  C656  1  0.156410  0.312830  0.314770  1.0  0.0159
  C  C657  1  0.117950  0.235910  0.245870  1.0  0.1882
  C  C658  1  0.079730  0.159470  0.235770  1.0  0.1697
  C  C659  1  0.071750  0.143510  0.295670  1.0  -0.3498
  C  C660  1  0.060680  0.121370  0.191570  1.0  -0.3921
  C  C661  1  0.353840  0.176920  0.648100  1.0  0.0108
  C  C662  1  0.430760  0.215380  0.579200  1.0  0.1897
  C  C663  1  0.507200  0.253600  0.569100  1.0  0.1746
  C  C664  1  0.523160  0.261580  0.629000  1.0  -0.3509
  C  C665  1  0.545300  0.272650  0.524900  1.0  -0.3939
  C  C666  1  0.020510  0.510250  0.981430  1.0  0.0119
  C  C667  1  0.097430  0.548710  0.912530  1.0  0.1897
  C  C668  1  0.173870  0.586930  0.902430  1.0  0.1746
  C  C669  1  0.189830  0.594910  0.962330  1.0  -0.3509
  C  C670  1  0.211970  0.605980  0.858230  1.0  -0.3939
  C  C671  1  0.687170  0.843590  0.314770  1.0  0.0108
  C  C672  1  0.764090  0.882050  0.245870  1.0  0.1897
  C  C673  1  0.840530  0.920270  0.235770  1.0  0.1746
  C  C674  1  0.856490  0.928250  0.295670  1.0  -0.3509
  C  C675  1  0.878630  0.939320  0.191570  1.0  -0.3939
  C  C676  1  0.176920  0.823080  0.351900  1.0  0.0134
  C  C677  1  0.215380  0.784620  0.420800  1.0  0.1894
  C  C678  1  0.253600  0.746400  0.430900  1.0  0.1747
  C  C679  1  0.261580  0.738420  0.371000  1.0  -0.3495
  C  C680  1  0.272650  0.727350  0.475100  1.0  -0.3942
  C  C681  1  0.843590  0.156410  0.685230  1.0  0.0134
  C  C682  1  0.882050  0.117950  0.754130  1.0  0.1894
  C  C683  1  0.920270  0.079730  0.764230  1.0  0.1747
  C  C684  1  0.928250  0.071750  0.704330  1.0  -0.3495
  C  C685  1  0.939320  0.060680  0.808430  1.0  -0.3942
  C  C686  1  0.510250  0.489750  0.018570  1.0  0.0126
  C  C687  1  0.548710  0.451290  0.087470  1.0  0.1892
  C  C688  1  0.586930  0.413070  0.097570  1.0  0.1747
  C  C689  1  0.594910  0.405090  0.037670  1.0  -0.3495
  C  C690  1  0.605980  0.394020  0.141770  1.0  -0.3942
  C  C691  1  0.646160  0.823080  0.351900  1.0  0.0102
  C  C692  1  0.569240  0.784620  0.420800  1.0  0.1888
  C  C693  1  0.492800  0.746400  0.430900  1.0  0.174
  C  C694  1  0.476840  0.738420  0.371000  1.0  -0.3485
  C  C695  1  0.454700  0.727350  0.475100  1.0  -0.3943
  C  C696  1  0.312830  0.156410  0.685230  1.0  0.0103
  C  C697  1  0.235910  0.117950  0.754130  1.0  0.1888
  C  C698  1  0.159470  0.079730  0.764230  1.0  0.174
  C  C699  1  0.143510  0.071750  0.704330  1.0  -0.3485
  C  C700  1  0.121370  0.060680  0.808430  1.0  -0.3943
  C  C701  1  0.979490  0.489750  0.018570  1.0  0.0117
  C  C702  1  0.902570  0.451290  0.087470  1.0  0.1888
  C  C703  1  0.826130  0.413070  0.097570  1.0  0.174
  C  C704  1  0.810170  0.405090  0.037670  1.0  -0.3485
  C  C705  1  0.788030  0.394020  0.141770  1.0  -0.3943
  C  C706  1  0.176920  0.353840  0.351900  1.0  0.0152
  C  C707  1  0.215380  0.430760  0.420800  1.0  0.1875
  C  C708  1  0.253600  0.507200  0.430900  1.0  0.1713
  C  C709  1  0.261580  0.523160  0.371000  1.0  -0.3487
  C  C710  1  0.272650  0.545300  0.475100  1.0  -0.3935
  C  C711  1  0.843590  0.687170  0.685230  1.0  0.0152
  C  C712  1  0.882050  0.764090  0.754130  1.0  0.1875
  C  C713  1  0.920270  0.840530  0.764230  1.0  0.1713
  C  C714  1  0.928250  0.856490  0.704330  1.0  -0.3487
  C  C715  1  0.939320  0.878630  0.808430  1.0  -0.3935
  C  C716  1  0.510250  0.020510  0.018570  1.0  0.0161
  C  C717  1  0.548710  0.097430  0.087470  1.0  0.1876
  C  C718  1  0.586930  0.173870  0.097570  1.0  0.1713
  C  C719  1  0.594910  0.189830  0.037670  1.0  -0.3487
  C  C720  1  0.605980  0.211970  0.141770  1.0  -0.3935
  O  O721  1  0.553550  0.028630  0.568380  1.0  -0.5646
  O  O722  1  0.567370  0.055940  0.474840  1.0  -0.5605
  O  O723  1  0.220220  0.361960  0.901710  1.0  -0.5646
  O  O724  1  0.234040  0.389270  0.808170  1.0  -0.5605
  O  O725  1  0.886880  0.695300  0.235050  1.0  -0.5646
  O  O726  1  0.900700  0.722610  0.141510  1.0  -0.5602
  O  O727  1  0.971370  0.524920  0.568380  1.0  -0.5641
  O  O728  1  0.944060  0.511430  0.474840  1.0  -0.5598
  O  O729  1  0.638040  0.858250  0.901710  1.0  -0.5639
  O  O730  1  0.610730  0.844760  0.808170  1.0  -0.5598
  O  O731  1  0.304700  0.191590  0.235050  1.0  -0.5641
  O  O732  1  0.277390  0.178100  0.141510  1.0  -0.5605
  O  O733  1  0.475080  0.446450  0.568380  1.0  -0.5641
  O  O734  1  0.488570  0.432630  0.474840  1.0  -0.5599
  O  O735  1  0.141750  0.779780  0.901710  1.0  -0.5641
  O  O736  1  0.155240  0.765960  0.808170  1.0  -0.5599
  O  O737  1  0.808410  0.113120  0.235050  1.0  -0.5641
  O  O738  1  0.821900  0.099300  0.141510  1.0  -0.5599
  O  O739  1  0.028630  0.553550  0.431620  1.0  -0.5654
  O  O740  1  0.055940  0.567370  0.525160  1.0  -0.5585
  O  O741  1  0.695300  0.886880  0.764950  1.0  -0.5654
  O  O742  1  0.722610  0.900700  0.858490  1.0  -0.5584
  O  O743  1  0.361960  0.220220  0.098290  1.0  -0.5656
  O  O744  1  0.389270  0.234040  0.191830  1.0  -0.5585
  O  O745  1  0.524920  0.971370  0.431620  1.0  -0.5655
  O  O746  1  0.511430  0.944060  0.525160  1.0  -0.5598
  O  O747  1  0.191590  0.304700  0.764950  1.0  -0.5655
  O  O748  1  0.178100  0.277390  0.858490  1.0  -0.56
  O  O749  1  0.858250  0.638040  0.098290  1.0  -0.5657
  O  O750  1  0.844760  0.610730  0.191830  1.0  -0.5598
  O  O751  1  0.446450  0.475080  0.431620  1.0  -0.5658
  O  O752  1  0.432630  0.488570  0.525160  1.0  -0.5602
  O  O753  1  0.113120  0.808410  0.764950  1.0  -0.5658
  O  O754  1  0.099300  0.821900  0.858490  1.0  -0.5602
  O  O755  1  0.779780  0.141750  0.098290  1.0  -0.5658
  O  O756  1  0.765960  0.155240  0.191830  1.0  -0.5602
  O  O757  1  0.446450  0.971370  0.431620  1.0  -0.5655
  O  O758  1  0.432630  0.944060  0.525160  1.0  -0.5598
  O  O759  1  0.113120  0.304700  0.764950  1.0  -0.5655
  O  O760  1  0.099300  0.277390  0.858490  1.0  -0.5598
  O  O761  1  0.779780  0.638040  0.098290  1.0  -0.5654
  O  O762  1  0.765960  0.610730  0.191830  1.0  -0.5598
  O  O763  1  0.028630  0.475080  0.431620  1.0  -0.5654
  O  O764  1  0.055940  0.488570  0.525160  1.0  -0.5591
  O  O765  1  0.695300  0.808410  0.764950  1.0  -0.5654
  O  O766  1  0.722610  0.821900  0.858490  1.0  -0.5593
  O  O767  1  0.361960  0.141750  0.098290  1.0  -0.5656
  O  O768  1  0.389270  0.155240  0.191830  1.0  -0.5591
  O  O769  1  0.524920  0.553550  0.431620  1.0  -0.5655
  O  O770  1  0.511430  0.567370  0.525160  1.0  -0.5596
  O  O771  1  0.191590  0.886880  0.764950  1.0  -0.5655
  O  O772  1  0.178100  0.900700  0.858490  1.0  -0.5596
  O  O773  1  0.858250  0.220220  0.098290  1.0  -0.5655
  O  O774  1  0.844760  0.234040  0.191830  1.0  -0.5596
  O  O775  1  0.971370  0.446450  0.568380  1.0  -0.5634
  O  O776  1  0.944060  0.432630  0.474840  1.0  -0.5599
  O  O777  1  0.638040  0.779780  0.901710  1.0  -0.5634
  O  O778  1  0.610730  0.765960  0.808170  1.0  -0.5599
  O  O779  1  0.304700  0.113120  0.235050  1.0  -0.5634
  O  O780  1  0.277390  0.099300  0.141510  1.0  -0.5595
  O  O781  1  0.475080  0.028630  0.568380  1.0  -0.5646
  O  O782  1  0.488570  0.055940  0.474840  1.0  -0.5595
  O  O783  1  0.141750  0.361960  0.901710  1.0  -0.5646
  O  O784  1  0.155240  0.389270  0.808170  1.0  -0.5595
  O  O785  1  0.808410  0.695300  0.235050  1.0  -0.5646
  O  O786  1  0.821900  0.722610  0.141510  1.0  -0.5599
  O  O787  1  0.553550  0.524920  0.568380  1.0  -0.5639
  O  O788  1  0.567370  0.511430  0.474840  1.0  -0.5597
  O  O789  1  0.220220  0.858250  0.901710  1.0  -0.5639
  O  O790  1  0.234040  0.844760  0.808170  1.0  -0.5597
  O  O791  1  0.886880  0.191590  0.235050  1.0  -0.5639
  O  O792  1  0.900700  0.178100  0.141510  1.0  -0.5597
  O  O793  1  0.766080  0.233920  0.543360  1.0  -0.2975
  O  O794  1  0.432750  0.567250  0.876690  1.0  -0.2975
  O  O795  1  0.099410  0.900590  0.210030  1.0  -0.2975
  O  O796  1  0.766080  0.532160  0.543360  1.0  -0.2957
  O  O797  1  0.432750  0.865490  0.876690  1.0  -0.2957
  O  O798  1  0.099410  0.198830  0.210030  1.0  -0.2957
  O  O799  1  0.467840  0.233920  0.543360  1.0  -0.2974
  O  O800  1  0.134510  0.567250  0.876690  1.0  -0.2974
  O  O801  1  0.801170  0.900590  0.210030  1.0  -0.2974
  O  O802  1  0.233920  0.766080  0.456640  1.0  -0.2973
  O  O803  1  0.900590  0.099410  0.789970  1.0  -0.2973
  O  O804  1  0.567250  0.432750  0.123310  1.0  -0.2973
  O  O805  1  0.532160  0.766080  0.456640  1.0  -0.2982
  O  O806  1  0.198830  0.099410  0.789970  1.0  -0.2982
  O  O807  1  0.865490  0.432750  0.123310  1.0  -0.2982
  O  O808  1  0.233920  0.467840  0.456640  1.0  -0.2966
  O  O809  1  0.900590  0.801170  0.789970  1.0  -0.2966
  O  O810  1  0.567250  0.134510  0.123310  1.0  -0.2966
