# generated using pymatgen
data_CuH10(C5O)5
_symmetry_space_group_name_H-M   'P 1'
_cell_length_a   35.18780000
_cell_length_b   35.18780000
_cell_length_c   21.71800000
_cell_angle_alpha   90.00000000
_cell_angle_beta   90.00000000
_cell_angle_gamma   120.00000000
_symmetry_Int_Tables_number   1
_chemical_formula_structural   CuH10(C5O)5
_chemical_formula_sum   'Cu18 H180 C450 O90'
_cell_volume   23288.13393853
_cell_formula_units_Z   18
loop_
 _symmetry_equiv_pos_site_id
 _symmetry_equiv_pos_as_xyz
  1  'x, y, z'
loop_
 _atom_site_type_symbol
 _atom_site_label
 _atom_site_symmetry_multiplicity
 _atom_site_fract_x
 _atom_site_fract_y
 _atom_site_fract_z
 _atom_site_occupancy
 _atom_site_charge
  Cu  Cu1  1  0.681520  0.840760  0.390810  1.0  0.9088
  Cu  Cu2  1  0.348190  0.174090  0.724140  1.0  0.9088
  Cu  Cu3  1  0.014850  0.507430  0.057480  1.0  0.9116
  Cu  Cu4  1  0.159240  0.840760  0.390810  1.0  0.9088
  Cu  Cu5  1  0.825910  0.174090  0.724140  1.0  0.9088
  Cu  Cu6  1  0.492570  0.507430  0.057480  1.0  0.9088
  Cu  Cu7  1  0.159240  0.318480  0.390810  1.0  0.9086
  Cu  Cu8  1  0.825910  0.651810  0.724140  1.0  0.9086
  Cu  Cu9  1  0.492570  0.985150  0.057480  1.0  0.9108
  Cu  Cu10  1  0.840760  0.681520  0.609190  1.0  0.9083
  Cu  Cu11  1  0.507430  0.014850  0.942520  1.0  0.9106
  Cu  Cu12  1  0.174090  0.348190  0.275860  1.0  0.9083
  Cu  Cu13  1  0.840760  0.159240  0.609190  1.0  0.9078
  Cu  Cu14  1  0.507430  0.492570  0.942520  1.0  0.9078
  Cu  Cu15  1  0.174090  0.825910  0.275860  1.0  0.9078
  Cu  Cu16  1  0.318480  0.159240  0.609190  1.0  0.9076
  Cu  Cu17  1  0.985150  0.492570  0.942520  1.0  0.9105
  Cu  Cu18  1  0.651810  0.825910  0.275860  1.0  0.9076
  H  H19  1  0.554200  0.688000  0.291800  1.0  0.1162
  H  H20  1  0.506100  0.615400  0.319000  1.0  0.1077
  H  H21  1  0.550400  0.640400  0.494000  1.0  0.1201
  H  H22  1  0.597800  0.714200  0.467500  1.0  0.107
  H  H23  1  0.543100  0.570700  0.472700  1.0  0.1012
  H  H24  1  0.220870  0.021330  0.625130  1.0  0.1164
  H  H25  1  0.172770  0.948730  0.652330  1.0  0.1077
  H  H26  1  0.217070  0.973730  0.827330  1.0  0.1201
  H  H27  1  0.264470  0.047530  0.800830  1.0  0.1069
  H  H28  1  0.209770  0.904030  0.806030  1.0  0.1012
  H  H29  1  0.887530  0.354670  0.958470  1.0  0.1162
  H  H30  1  0.839430  0.282070  0.985670  1.0  0.1077
  H  H31  1  0.883730  0.307070  0.160670  1.0  0.1201
  H  H32  1  0.931130  0.380870  0.134170  1.0  0.107
  H  H33  1  0.876430  0.237370  0.139370  1.0  0.1012
  H  H34  1  0.312000  0.866200  0.291800  1.0  0.1159
  H  H35  1  0.384600  0.890700  0.319000  1.0  0.1074
  H  H36  1  0.359600  0.910000  0.494000  1.0  0.1195
  H  H37  1  0.285800  0.883600  0.467500  1.0  0.1071
  H  H38  1  0.429300  0.972400  0.472700  1.0  0.1014
  H  H39  1  0.978670  0.199530  0.625130  1.0  0.1159
  H  H40  1  0.051270  0.224030  0.652330  1.0  0.1081
  H  H41  1  0.026270  0.243330  0.827330  1.0  0.1195
  H  H42  1  0.952470  0.216930  0.800830  1.0  0.1071
  H  H43  1  0.095970  0.305730  0.806030  1.0  0.1014
  H  H44  1  0.645330  0.532870  0.958470  1.0  0.1159
  H  H45  1  0.717930  0.557370  0.985670  1.0  0.1081
  H  H46  1  0.692930  0.576670  0.160670  1.0  0.1195
  H  H47  1  0.619130  0.550270  0.134170  1.0  0.1071
  H  H48  1  0.762630  0.639070  0.139370  1.0  0.1014
  H  H49  1  0.133800  0.445800  0.291800  1.0  0.1159
  H  H50  1  0.109300  0.493900  0.319000  1.0  0.1079
  H  H51  1  0.090000  0.449600  0.494000  1.0  0.1198
  H  H52  1  0.116400  0.402200  0.467500  1.0  0.1071
  H  H53  1  0.027600  0.456900  0.472700  1.0  0.1028
  H  H54  1  0.800470  0.779130  0.625130  1.0  0.1158
  H  H55  1  0.775970  0.827230  0.652330  1.0  0.1083
  H  H56  1  0.756670  0.782930  0.827330  1.0  0.1198
  H  H57  1  0.783070  0.735530  0.800830  1.0  0.1073
  H  H58  1  0.694270  0.790230  0.806030  1.0  0.1028
  H  H59  1  0.467130  0.112470  0.958470  1.0  0.1159
  H  H60  1  0.442630  0.160570  0.985670  1.0  0.1084
  H  H61  1  0.423330  0.116270  0.160670  1.0  0.1198
  H  H62  1  0.449730  0.068870  0.134170  1.0  0.1071
  H  H63  1  0.360930  0.123570  0.139370  1.0  0.1028
  H  H64  1  0.688000  0.554200  0.708200  1.0  0.1158
  H  H65  1  0.615400  0.506100  0.681000  1.0  0.1075
  H  H66  1  0.640400  0.550400  0.506000  1.0  0.1194
  H  H67  1  0.714200  0.597800  0.532500  1.0  0.1069
  H  H68  1  0.570700  0.543100  0.527300  1.0  0.1026
  H  H69  1  0.354670  0.887530  0.041530  1.0  0.1158
  H  H70  1  0.282070  0.839430  0.014330  1.0  0.1075
  H  H71  1  0.307070  0.883730  0.839330  1.0  0.1194
  H  H72  1  0.380870  0.931130  0.865830  1.0  0.1069
  H  H73  1  0.237370  0.876430  0.860630  1.0  0.1026
  H  H74  1  0.021330  0.220870  0.374870  1.0  0.1159
  H  H75  1  0.948730  0.172770  0.347670  1.0  0.1075
  H  H76  1  0.973730  0.217070  0.172670  1.0  0.1195
  H  H77  1  0.047530  0.264470  0.199170  1.0  0.1067
  H  H78  1  0.904030  0.209770  0.193970  1.0  0.1026
  H  H79  1  0.866200  0.312000  0.708200  1.0  0.1159
  H  H80  1  0.890700  0.384600  0.681000  1.0  0.1063
  H  H81  1  0.910000  0.359600  0.506000  1.0  0.1195
  H  H82  1  0.883600  0.285800  0.532500  1.0  0.1064
  H  H83  1  0.972400  0.429300  0.527300  1.0  0.1019
  H  H84  1  0.532870  0.645330  0.041530  1.0  0.1159
  H  H85  1  0.557370  0.717930  0.014330  1.0  0.1071
  H  H86  1  0.576670  0.692930  0.839330  1.0  0.1195
  H  H87  1  0.550270  0.619130  0.865830  1.0  0.1064
  H  H88  1  0.639070  0.762630  0.860630  1.0  0.1019
  H  H89  1  0.199530  0.978670  0.374870  1.0  0.1159
  H  H90  1  0.224030  0.051270  0.347670  1.0  0.1069
  H  H91  1  0.243330  0.026270  0.172670  1.0  0.1194
  H  H92  1  0.216930  0.952470  0.199170  1.0  0.1064
  H  H93  1  0.305730  0.095970  0.193970  1.0  0.1019
  H  H94  1  0.445800  0.133800  0.708200  1.0  0.1154
  H  H95  1  0.493900  0.109300  0.681000  1.0  0.1075
  H  H96  1  0.449600  0.090000  0.506000  1.0  0.1186
  H  H97  1  0.402200  0.116400  0.532500  1.0  0.1067
  H  H98  1  0.456900  0.027600  0.527300  1.0  0.1021
  H  H99  1  0.112470  0.467130  0.041530  1.0  0.1154
  H  H100  1  0.160570  0.442630  0.014330  1.0  0.108
  H  H101  1  0.116270  0.423330  0.839330  1.0  0.1186
  H  H102  1  0.068870  0.449730  0.865830  1.0  0.1067
  H  H103  1  0.123570  0.360930  0.860630  1.0  0.1021
  H  H104  1  0.779130  0.800470  0.374870  1.0  0.1152
  H  H105  1  0.827230  0.775970  0.347670  1.0  0.1079
  H  H106  1  0.782930  0.756670  0.172670  1.0  0.1186
  H  H107  1  0.735530  0.783070  0.199170  1.0  0.1067
  H  H108  1  0.790230  0.694270  0.193970  1.0  0.1021
  H  H109  1  0.445800  0.312000  0.708200  1.0  0.1157
  H  H110  1  0.493900  0.384600  0.681000  1.0  0.1075
  H  H111  1  0.449600  0.359600  0.506000  1.0  0.1194
  H  H112  1  0.402200  0.285800  0.532500  1.0  0.1062
  H  H113  1  0.456900  0.429300  0.527300  1.0  0.1015
  H  H114  1  0.112470  0.645330  0.041530  1.0  0.1157
  H  H115  1  0.160570  0.717930  0.014330  1.0  0.1075
  H  H116  1  0.116270  0.692930  0.839330  1.0  0.1194
  H  H117  1  0.068870  0.619130  0.865830  1.0  0.1062
  H  H118  1  0.123570  0.762630  0.860630  1.0  0.1015
  H  H119  1  0.779130  0.978670  0.374870  1.0  0.1159
  H  H120  1  0.827230  0.051270  0.347670  1.0  0.1075
  H  H121  1  0.782930  0.026270  0.172670  1.0  0.1195
  H  H122  1  0.735530  0.952470  0.199170  1.0  0.1063
  H  H123  1  0.790230  0.095970  0.193970  1.0  0.1015
  H  H124  1  0.688000  0.133800  0.708200  1.0  0.1155
  H  H125  1  0.615400  0.109300  0.681000  1.0  0.1072
  H  H126  1  0.640400  0.090000  0.506000  1.0  0.1196
  H  H127  1  0.714200  0.116400  0.532500  1.0  0.107
  H  H128  1  0.570700  0.027600  0.527300  1.0  0.1025
  H  H129  1  0.354670  0.467130  0.041530  1.0  0.1155
  H  H130  1  0.282070  0.442630  0.014330  1.0  0.1077
  H  H131  1  0.307070  0.423330  0.839330  1.0  0.1196
  H  H132  1  0.380870  0.449730  0.865830  1.0  0.107
  H  H133  1  0.237370  0.360930  0.860630  1.0  0.1025
  H  H134  1  0.021330  0.800470  0.374870  1.0  0.1155
  H  H135  1  0.948730  0.775970  0.347670  1.0  0.1077
  H  H136  1  0.973730  0.756670  0.172670  1.0  0.1196
  H  H137  1  0.047530  0.783070  0.199170  1.0  0.107
  H  H138  1  0.904030  0.694270  0.193970  1.0  0.1025
  H  H139  1  0.866200  0.554200  0.708200  1.0  0.1161
  H  H140  1  0.890700  0.506100  0.681000  1.0  0.1072
  H  H141  1  0.910000  0.550400  0.506000  1.0  0.1192
  H  H142  1  0.883600  0.597800  0.532500  1.0  0.1064
  H  H143  1  0.972400  0.543100  0.527300  1.0  0.1024
  H  H144  1  0.532870  0.887530  0.041530  1.0  0.1161
  H  H145  1  0.557370  0.839430  0.014330  1.0  0.108
  H  H146  1  0.576670  0.883730  0.839330  1.0  0.1192
  H  H147  1  0.550270  0.931130  0.865830  1.0  0.1064
  H  H148  1  0.639070  0.876430  0.860630  1.0  0.1024
  H  H149  1  0.199530  0.220870  0.374870  1.0  0.1159
  H  H150  1  0.224030  0.172770  0.347670  1.0  0.1075
  H  H151  1  0.243330  0.217070  0.172670  1.0  0.1192
  H  H152  1  0.216930  0.264470  0.199170  1.0  0.1065
  H  H153  1  0.305730  0.209770  0.193970  1.0  0.1024
  H  H154  1  0.312000  0.445800  0.291800  1.0  0.1161
  H  H155  1  0.384600  0.493900  0.319000  1.0  0.108
  H  H156  1  0.359600  0.449600  0.494000  1.0  0.1202
  H  H157  1  0.285800  0.402200  0.467500  1.0  0.1073
  H  H158  1  0.429300  0.456900  0.472700  1.0  0.1029
  H  H159  1  0.978670  0.779130  0.625130  1.0  0.1163
  H  H160  1  0.051270  0.827230  0.652330  1.0  0.108
  H  H161  1  0.026270  0.782930  0.827330  1.0  0.1202
  H  H162  1  0.952470  0.735530  0.800830  1.0  0.1071
  H  H163  1  0.095970  0.790230  0.806030  1.0  0.1029
  H  H164  1  0.645330  0.112470  0.958470  1.0  0.1161
  H  H165  1  0.717930  0.160570  0.985670  1.0  0.108
  H  H166  1  0.692930  0.116270  0.160670  1.0  0.1202
  H  H167  1  0.619130  0.068870  0.134170  1.0  0.1073
  H  H168  1  0.762630  0.123570  0.139370  1.0  0.1029
  H  H169  1  0.133800  0.688000  0.291800  1.0  0.1164
  H  H170  1  0.109300  0.615400  0.319000  1.0  0.1069
  H  H171  1  0.090000  0.640400  0.494000  1.0  0.1198
  H  H172  1  0.116400  0.714200  0.467500  1.0  0.1069
  H  H173  1  0.027600  0.570700  0.472700  1.0  0.1012
  H  H174  1  0.800470  0.021330  0.625130  1.0  0.1164
  H  H175  1  0.775970  0.948730  0.652330  1.0  0.1079
  H  H176  1  0.756670  0.973730  0.827330  1.0  0.1197
  H  H177  1  0.783070  0.047530  0.800830  1.0  0.1069
  H  H178  1  0.694270  0.904030  0.806030  1.0  0.1012
  H  H179  1  0.467130  0.354670  0.958470  1.0  0.1164
  H  H180  1  0.442630  0.282070  0.985670  1.0  0.1078
  H  H181  1  0.423330  0.307070  0.160670  1.0  0.1198
  H  H182  1  0.449730  0.380870  0.134170  1.0  0.1069
  H  H183  1  0.360930  0.237370  0.139370  1.0  0.1012
  H  H184  1  0.554200  0.866200  0.291800  1.0  0.1158
  H  H185  1  0.506100  0.890700  0.319000  1.0  0.1081
  H  H186  1  0.550400  0.910000  0.494000  1.0  0.1196
  H  H187  1  0.597800  0.883600  0.467500  1.0  0.1073
  H  H188  1  0.543100  0.972400  0.472700  1.0  0.1019
  H  H189  1  0.220870  0.199530  0.625130  1.0  0.1156
  H  H190  1  0.172770  0.224030  0.652330  1.0  0.1085
  H  H191  1  0.217070  0.243330  0.827330  1.0  0.1196
  H  H192  1  0.264470  0.216930  0.800830  1.0  0.1073
  H  H193  1  0.209770  0.305730  0.806030  1.0  0.1019
  H  H194  1  0.887530  0.532870  0.958470  1.0  0.1159
  H  H195  1  0.839430  0.557370  0.985670  1.0  0.1086
  H  H196  1  0.883730  0.576670  0.160670  1.0  0.1196
  H  H197  1  0.931130  0.550270  0.134170  1.0  0.1073
  H  H198  1  0.876430  0.639070  0.139370  1.0  0.1019
  C  C199  1  0.611920  0.755120  0.360750  1.0  0.681
  C  C200  1  0.580420  0.708310  0.378390  1.0  -0.1189
  C  C201  1  0.553200  0.678570  0.333060  1.0  -0.0714
  C  C202  1  0.525010  0.635380  0.349320  1.0  -0.1223
  C  C203  1  0.523620  0.620660  0.408100  1.0  0.0503
  C  C204  1  0.550990  0.650100  0.453100  1.0  -0.1768
  C  C205  1  0.579280  0.694120  0.437000  1.0  -0.0293
  C  C206  1  0.495310  0.573430  0.427500  1.0  -0.0476
  C  C207  1  0.513060  0.553770  0.461500  1.0  -0.0986
  C  C208  1  0.412300  0.622800  0.361800  1.0  0.0476
  C  C209  1  0.382700  0.571100  0.460400  1.0  -0.0065
  C  C210  1  0.278590  0.088450  0.694080  1.0  0.681
  C  C211  1  0.247090  0.041640  0.711720  1.0  -0.1189
  C  C212  1  0.219870  0.011900  0.666390  1.0  -0.0714
  C  C213  1  0.191680  0.968710  0.682650  1.0  -0.1223
  C  C214  1  0.190290  0.953990  0.741430  1.0  0.0503
  C  C215  1  0.217660  0.983430  0.786430  1.0  -0.1768
  C  C216  1  0.245950  0.027450  0.770330  1.0  -0.0293
  C  C217  1  0.161980  0.906760  0.760830  1.0  -0.0476
  C  C218  1  0.179730  0.887100  0.794830  1.0  -0.0986
  C  C219  1  0.078970  0.956130  0.695130  1.0  0.0416
  C  C220  1  0.049370  0.904430  0.793730  1.0  -0.0044
  C  C221  1  0.945250  0.421790  0.027420  1.0  0.681
  C  C222  1  0.913750  0.374980  0.045060  1.0  -0.1188
  C  C223  1  0.886530  0.345240  0.999730  1.0  -0.0714
  C  C224  1  0.858340  0.302050  0.015990  1.0  -0.1223
  C  C225  1  0.856950  0.287330  0.074770  1.0  0.0503
  C  C226  1  0.884320  0.316770  0.119770  1.0  -0.1768
  C  C227  1  0.912610  0.360790  0.103670  1.0  -0.0293
  C  C228  1  0.828640  0.240100  0.094170  1.0  -0.0476
  C  C229  1  0.846390  0.220440  0.128170  1.0  -0.0986
  C  C230  1  0.745630  0.289470  0.028470  1.0  0.0476
  C  C231  1  0.716030  0.237770  0.127070  1.0  -0.0065
  C  C232  1  0.244880  0.856800  0.360750  1.0  0.6804
  C  C233  1  0.291690  0.872110  0.378390  1.0  -0.1198
  C  C234  1  0.321430  0.874630  0.333060  1.0  -0.0709
  C  C235  1  0.364620  0.889630  0.349320  1.0  -0.1205
  C  C236  1  0.379340  0.902960  0.408100  1.0  0.05
  C  C237  1  0.349900  0.900890  0.453100  1.0  -0.1758
  C  C238  1  0.305880  0.885160  0.437000  1.0  -0.0293
  C  C239  1  0.426570  0.921880  0.427500  1.0  -0.0479
  C  C240  1  0.446230  0.959290  0.461500  1.0  -0.0976
  C  C241  1  0.377200  0.789500  0.361800  1.0  0.0449
  C  C242  1  0.428900  0.811600  0.460400  1.0  -0.0087
  C  C243  1  0.911550  0.190130  0.694080  1.0  0.6804
  C  C244  1  0.958360  0.205440  0.711720  1.0  -0.1198
  C  C245  1  0.988100  0.207960  0.666390  1.0  -0.0709
  C  C246  1  0.031290  0.222960  0.682650  1.0  -0.1205
  C  C247  1  0.046010  0.236290  0.741430  1.0  0.05
  C  C248  1  0.016570  0.234220  0.786430  1.0  -0.1758
  C  C249  1  0.972550  0.218490  0.770330  1.0  -0.0293
  C  C250  1  0.093240  0.255210  0.760830  1.0  -0.0479
  C  C251  1  0.112900  0.292620  0.794830  1.0  -0.0976
  C  C252  1  0.043870  0.122830  0.695130  1.0  0.0514
  C  C253  1  0.095570  0.144930  0.793730  1.0  -0.0064
  C  C254  1  0.578210  0.523470  0.027420  1.0  0.68
  C  C255  1  0.625020  0.538780  0.045060  1.0  -0.1197
  C  C256  1  0.654760  0.541300  0.999730  1.0  -0.0709
  C  C257  1  0.697950  0.556300  0.015990  1.0  -0.1205
  C  C258  1  0.712670  0.569630  0.074770  1.0  0.05
  C  C259  1  0.683230  0.567560  0.119770  1.0  -0.1758
  C  C260  1  0.639210  0.551830  0.103670  1.0  -0.0293
  C  C261  1  0.759900  0.588550  0.094170  1.0  -0.0479
  C  C262  1  0.779560  0.625960  0.128170  1.0  -0.0996
  C  C263  1  0.710530  0.456170  0.028470  1.0  0.0449
  C  C264  1  0.762230  0.478270  0.127070  1.0  -0.0087
  C  C265  1  0.143200  0.388080  0.360750  1.0  0.6804
  C  C266  1  0.127890  0.419580  0.378390  1.0  -0.1197
  C  C267  1  0.125370  0.446800  0.333060  1.0  -0.0717
  C  C268  1  0.110370  0.474990  0.349320  1.0  -0.121
  C  C269  1  0.097040  0.476380  0.408100  1.0  0.0515
  C  C270  1  0.099110  0.449010  0.453100  1.0  -0.1792
  C  C271  1  0.114840  0.420720  0.437000  1.0  -0.0302
  C  C272  1  0.078120  0.504690  0.427500  1.0  -0.0492
  C  C273  1  0.040710  0.486940  0.461500  1.0  -0.0972
  C  C274  1  0.210500  0.587700  0.361800  1.0  0.051
  C  C275  1  0.188400  0.617300  0.460400  1.0  -0.0059
  C  C276  1  0.809870  0.721410  0.694080  1.0  0.6804
  C  C277  1  0.794560  0.752910  0.711720  1.0  -0.1197
  C  C278  1  0.792040  0.780130  0.666390  1.0  -0.0717
  C  C279  1  0.777040  0.808320  0.682650  1.0  -0.121
  C  C280  1  0.763710  0.809710  0.741430  1.0  0.0515
  C  C281  1  0.765780  0.782340  0.786430  1.0  -0.1792
  C  C282  1  0.781510  0.754050  0.770330  1.0  -0.0302
  C  C283  1  0.744790  0.838020  0.760830  1.0  -0.0492
  C  C284  1  0.707380  0.820270  0.794830  1.0  -0.0972
  C  C285  1  0.877170  0.921030  0.695130  1.0  0.0507
  C  C286  1  0.855070  0.950630  0.793730  1.0  -0.0091
  C  C287  1  0.476530  0.054750  0.027420  1.0  0.6799
  C  C288  1  0.461220  0.086250  0.045060  1.0  -0.1199
  C  C289  1  0.458700  0.113470  0.999730  1.0  -0.0717
  C  C290  1  0.443700  0.141660  0.015990  1.0  -0.121
  C  C291  1  0.430370  0.143050  0.074770  1.0  0.0515
  C  C292  1  0.432440  0.115680  0.119770  1.0  -0.1792
  C  C293  1  0.448170  0.087390  0.103670  1.0  -0.0302
  C  C294  1  0.411450  0.171360  0.094170  1.0  -0.0492
  C  C295  1  0.374040  0.153610  0.128170  1.0  -0.0951
  C  C296  1  0.543830  0.254370  0.028470  1.0  0.051
  C  C297  1  0.521730  0.283970  0.127070  1.0  -0.0059
  C  C298  1  0.755120  0.611920  0.639250  1.0  0.6812
  C  C299  1  0.708310  0.580420  0.621610  1.0  -0.1202
  C  C300  1  0.678570  0.553200  0.666940  1.0  -0.0721
  C  C301  1  0.635380  0.525010  0.650680  1.0  -0.123
  C  C302  1  0.620660  0.523620  0.591900  1.0  0.0515
  C  C303  1  0.650100  0.550990  0.546900  1.0  -0.1781
  C  C304  1  0.694120  0.579280  0.563000  1.0  -0.0308
  C  C305  1  0.573430  0.495310  0.572500  1.0  -0.0494
  C  C306  1  0.553770  0.513060  0.538500  1.0  -0.096
  C  C307  1  0.622800  0.412300  0.638200  1.0  0.0498
  C  C308  1  0.571100  0.382700  0.539600  1.0  -0.0086
  C  C309  1  0.421790  0.945250  0.972580  1.0  0.6812
  C  C310  1  0.374980  0.913750  0.954940  1.0  -0.1201
  C  C311  1  0.345240  0.886530  0.000270  1.0  -0.0721
  C  C312  1  0.302050  0.858340  0.984010  1.0  -0.123
  C  C313  1  0.287330  0.856950  0.925230  1.0  0.0515
  C  C314  1  0.316770  0.884320  0.880230  1.0  -0.1781
  C  C315  1  0.360790  0.912610  0.896330  1.0  -0.0308
  C  C316  1  0.240100  0.828640  0.905830  1.0  -0.0494
  C  C317  1  0.220440  0.846390  0.871830  1.0  -0.096
  C  C318  1  0.289470  0.745630  0.971530  1.0  0.0498
  C  C319  1  0.237770  0.716030  0.872930  1.0  -0.0086
  C  C320  1  0.088450  0.278590  0.305920  1.0  0.6812
  C  C321  1  0.041640  0.247090  0.288280  1.0  -0.1202
  C  C322  1  0.011900  0.219870  0.333610  1.0  -0.0721
  C  C323  1  0.968710  0.191680  0.317350  1.0  -0.123
  C  C324  1  0.953990  0.190290  0.258570  1.0  0.0515
  C  C325  1  0.983430  0.217660  0.213570  1.0  -0.1781
  C  C326  1  0.027450  0.245950  0.229670  1.0  -0.0308
  C  C327  1  0.906760  0.161980  0.239170  1.0  -0.0494
  C  C328  1  0.887100  0.179730  0.205170  1.0  -0.096
  C  C329  1  0.956130  0.078970  0.304870  1.0  0.0429
  C  C330  1  0.904430  0.049370  0.206270  1.0  -0.006
  C  C331  1  0.856800  0.244880  0.639250  1.0  0.6806
  C  C332  1  0.872110  0.291690  0.621610  1.0  -0.1196
  C  C333  1  0.874630  0.321430  0.666940  1.0  -0.0726
  C  C334  1  0.889630  0.364620  0.650680  1.0  -0.1241
  C  C335  1  0.902960  0.379340  0.591900  1.0  0.0503
  C  C336  1  0.900890  0.349900  0.546900  1.0  -0.1773
  C  C337  1  0.885160  0.305880  0.563000  1.0  -0.0309
  C  C338  1  0.921880  0.426570  0.572500  1.0  -0.0482
  C  C339  1  0.959290  0.446230  0.538500  1.0  -0.0971
  C  C340  1  0.789500  0.377200  0.638200  1.0  0.0414
  C  C341  1  0.811600  0.428900  0.539600  1.0  -0.0057
  C  C342  1  0.523470  0.578210  0.972580  1.0  0.6803
  C  C343  1  0.538780  0.625020  0.954940  1.0  -0.1195
  C  C344  1  0.541300  0.654760  0.000270  1.0  -0.0726
  C  C345  1  0.556300  0.697950  0.984010  1.0  -0.1241
  C  C346  1  0.569630  0.712670  0.925230  1.0  0.0503
  C  C347  1  0.567560  0.683230  0.880230  1.0  -0.1773
  C  C348  1  0.551830  0.639210  0.896330  1.0  -0.0309
  C  C349  1  0.588550  0.759900  0.905830  1.0  -0.0482
  C  C350  1  0.625960  0.779560  0.871830  1.0  -0.0987
  C  C351  1  0.456170  0.710530  0.971530  1.0  0.0414
  C  C352  1  0.478270  0.762230  0.872930  1.0  -0.0057
  C  C353  1  0.190130  0.911550  0.305920  1.0  0.6806
  C  C354  1  0.205440  0.958360  0.288280  1.0  -0.1196
  C  C355  1  0.207960  0.988100  0.333610  1.0  -0.0726
  C  C356  1  0.222960  0.031290  0.317350  1.0  -0.1241
  C  C357  1  0.236290  0.046010  0.258570  1.0  0.0503
  C  C358  1  0.234220  0.016570  0.213570  1.0  -0.1773
  C  C359  1  0.218490  0.972550  0.229670  1.0  -0.0309
  C  C360  1  0.255210  0.093240  0.239170  1.0  -0.0482
  C  C361  1  0.292620  0.112900  0.205170  1.0  -0.0971
  C  C362  1  0.122830  0.043870  0.304870  1.0  0.0497
  C  C363  1  0.144930  0.095570  0.206270  1.0  -0.0021
  C  C364  1  0.388080  0.143200  0.639250  1.0  0.6807
  C  C365  1  0.419580  0.127890  0.621610  1.0  -0.1197
  C  C366  1  0.446800  0.125370  0.666940  1.0  -0.0726
  C  C367  1  0.474990  0.110370  0.650680  1.0  -0.1214
  C  C368  1  0.476380  0.097040  0.591900  1.0  0.0493
  C  C369  1  0.449010  0.099110  0.546900  1.0  -0.1755
  C  C370  1  0.420720  0.114840  0.563000  1.0  -0.0284
  C  C371  1  0.504690  0.078120  0.572500  1.0  -0.0484
  C  C372  1  0.486940  0.040710  0.538500  1.0  -0.0992
  C  C373  1  0.587700  0.210500  0.638200  1.0  0.0548
  C  C374  1  0.617300  0.188400  0.539600  1.0  -0.0069
  C  C375  1  0.054750  0.476530  0.972580  1.0  0.6802
  C  C376  1  0.086250  0.461220  0.954940  1.0  -0.1199
  C  C377  1  0.113470  0.458700  0.000270  1.0  -0.0726
  C  C378  1  0.141660  0.443700  0.984010  1.0  -0.1214
  C  C379  1  0.143050  0.430370  0.925230  1.0  0.0493
  C  C380  1  0.115680  0.432440  0.880230  1.0  -0.1755
  C  C381  1  0.087390  0.448170  0.896330  1.0  -0.0284
  C  C382  1  0.171360  0.411450  0.905830  1.0  -0.0484
  C  C383  1  0.153610  0.374040  0.871830  1.0  -0.0971
  C  C384  1  0.254370  0.543830  0.971530  1.0  0.0548
  C  C385  1  0.283970  0.521730  0.872930  1.0  -0.0069
  C  C386  1  0.721410  0.809870  0.305920  1.0  0.6807
  C  C387  1  0.752910  0.794560  0.288280  1.0  -0.1197
  C  C388  1  0.780130  0.792040  0.333610  1.0  -0.0726
  C  C389  1  0.808320  0.777040  0.317350  1.0  -0.1214
  C  C390  1  0.809710  0.763710  0.258570  1.0  0.0493
  C  C391  1  0.782340  0.765780  0.213570  1.0  -0.1755
  C  C392  1  0.754050  0.781510  0.229670  1.0  -0.0284
  C  C393  1  0.838020  0.744790  0.239170  1.0  -0.0484
  C  C394  1  0.820270  0.707380  0.205170  1.0  -0.0992
  C  C395  1  0.921030  0.877170  0.304870  1.0  0.0531
  C  C396  1  0.950630  0.855070  0.206270  1.0  -0.0099
  C  C397  1  0.388080  0.244880  0.639250  1.0  0.6806
  C  C398  1  0.419580  0.291690  0.621610  1.0  -0.1194
  C  C399  1  0.446800  0.321430  0.666940  1.0  -0.0722
  C  C400  1  0.474990  0.364620  0.650680  1.0  -0.1235
  C  C401  1  0.476380  0.379340  0.591900  1.0  0.0498
  C  C402  1  0.449010  0.349900  0.546900  1.0  -0.1761
  C  C403  1  0.420720  0.305880  0.563000  1.0  -0.0306
  C  C404  1  0.504690  0.426570  0.572500  1.0  -0.0481
  C  C405  1  0.486940  0.446230  0.538500  1.0  -0.0994
  C  C406  1  0.587700  0.377200  0.638200  1.0  0.0489
  C  C407  1  0.617300  0.428900  0.539600  1.0  -0.0058
  C  C408  1  0.054750  0.578210  0.972580  1.0  0.6806
  C  C409  1  0.086250  0.625020  0.954940  1.0  -0.1192
  C  C410  1  0.113470  0.654760  0.000270  1.0  -0.0722
  C  C411  1  0.141660  0.697950  0.984010  1.0  -0.1235
  C  C412  1  0.143050  0.712670  0.925230  1.0  0.0498
  C  C413  1  0.115680  0.683230  0.880230  1.0  -0.1761
  C  C414  1  0.087390  0.639210  0.896330  1.0  -0.0306
  C  C415  1  0.171360  0.759900  0.905830  1.0  -0.0481
  C  C416  1  0.153610  0.779560  0.871830  1.0  -0.0994
  C  C417  1  0.254370  0.710530  0.971530  1.0  0.0489
  C  C418  1  0.283970  0.762230  0.872930  1.0  -0.0058
  C  C419  1  0.721410  0.911550  0.305920  1.0  0.6806
  C  C420  1  0.752910  0.958360  0.288280  1.0  -0.1194
  C  C421  1  0.780130  0.988100  0.333610  1.0  -0.0722
  C  C422  1  0.808320  0.031290  0.317350  1.0  -0.1235
  C  C423  1  0.809710  0.046010  0.258570  1.0  0.0498
  C  C424  1  0.782340  0.016570  0.213570  1.0  -0.1761
  C  C425  1  0.754050  0.972550  0.229670  1.0  -0.0306
  C  C426  1  0.838020  0.093240  0.239170  1.0  -0.0481
  C  C427  1  0.820270  0.112900  0.205170  1.0  -0.0994
  C  C428  1  0.921030  0.043870  0.304870  1.0  0.0414
  C  C429  1  0.950630  0.095570  0.206270  1.0  -0.0037
  C  C430  1  0.755120  0.143200  0.639250  1.0  0.6808
  C  C431  1  0.708310  0.127890  0.621610  1.0  -0.1199
  C  C432  1  0.678570  0.125370  0.666940  1.0  -0.0722
  C  C433  1  0.635380  0.110370  0.650680  1.0  -0.1223
  C  C434  1  0.620660  0.097040  0.591900  1.0  0.0509
  C  C435  1  0.650100  0.099110  0.546900  1.0  -0.1778
  C  C436  1  0.694120  0.114840  0.563000  1.0  -0.029
  C  C437  1  0.573430  0.078120  0.572500  1.0  -0.0459
  C  C438  1  0.553770  0.040710  0.538500  1.0  -0.0971
  C  C439  1  0.622800  0.210500  0.638200  1.0  0.044
  C  C440  1  0.571100  0.188400  0.539600  1.0  -0.0079
  C  C441  1  0.421790  0.476530  0.972580  1.0  0.6804
  C  C442  1  0.374980  0.461220  0.954940  1.0  -0.1198
  C  C443  1  0.345240  0.458700  0.000270  1.0  -0.0722
  C  C444  1  0.302050  0.443700  0.984010  1.0  -0.1223
  C  C445  1  0.287330  0.430370  0.925230  1.0  0.0509
  C  C446  1  0.316770  0.432440  0.880230  1.0  -0.1778
  C  C447  1  0.360790  0.448170  0.896330  1.0  -0.029
  C  C448  1  0.240100  0.411450  0.905830  1.0  -0.0459
  C  C449  1  0.220440  0.374040  0.871830  1.0  -0.0991
  C  C450  1  0.289470  0.543830  0.971530  1.0  0.044
  C  C451  1  0.237770  0.521730  0.872930  1.0  -0.0079
  C  C452  1  0.088450  0.809870  0.305920  1.0  0.6808
  C  C453  1  0.041640  0.794560  0.288280  1.0  -0.1199
  C  C454  1  0.011900  0.792040  0.333610  1.0  -0.0722
  C  C455  1  0.968710  0.777040  0.317350  1.0  -0.1223
  C  C456  1  0.953990  0.763710  0.258570  1.0  0.0509
  C  C457  1  0.983430  0.765780  0.213570  1.0  -0.1778
  C  C458  1  0.027450  0.781510  0.229670  1.0  -0.029
  C  C459  1  0.906760  0.744790  0.239170  1.0  -0.0459
  C  C460  1  0.887100  0.707380  0.205170  1.0  -0.0971
  C  C461  1  0.956130  0.877170  0.304870  1.0  0.053
  C  C462  1  0.904430  0.855070  0.206270  1.0  -0.005
  C  C463  1  0.856800  0.611920  0.639250  1.0  0.6811
  C  C464  1  0.872110  0.580420  0.621610  1.0  -0.1197
  C  C465  1  0.874630  0.553200  0.666940  1.0  -0.0726
  C  C466  1  0.889630  0.525010  0.650680  1.0  -0.1208
  C  C467  1  0.902960  0.523620  0.591900  1.0  0.0507
  C  C468  1  0.900890  0.550990  0.546900  1.0  -0.1767
  C  C469  1  0.885160  0.579280  0.563000  1.0  -0.03
  C  C470  1  0.921880  0.495310  0.572500  1.0  -0.0481
  C  C471  1  0.959290  0.513060  0.538500  1.0  -0.0961
  C  C472  1  0.789500  0.412300  0.638200  1.0  0.0521
  C  C473  1  0.811600  0.382700  0.539600  1.0  -0.0069
  C  C474  1  0.523470  0.945250  0.972580  1.0  0.6807
  C  C475  1  0.538780  0.913750  0.954940  1.0  -0.1198
  C  C476  1  0.541300  0.886530  0.000270  1.0  -0.0726
  C  C477  1  0.556300  0.858340  0.984010  1.0  -0.1208
  C  C478  1  0.569630  0.856950  0.925230  1.0  0.0507
  C  C479  1  0.567560  0.884320  0.880230  1.0  -0.1767
  C  C480  1  0.551830  0.912610  0.896330  1.0  -0.03
  C  C481  1  0.588550  0.828640  0.905830  1.0  -0.0481
  C  C482  1  0.625960  0.846390  0.871830  1.0  -0.0929
  C  C483  1  0.456170  0.745630  0.971530  1.0  0.0521
  C  C484  1  0.478270  0.716030  0.872930  1.0  -0.0069
  C  C485  1  0.190130  0.278590  0.305920  1.0  0.6811
  C  C486  1  0.205440  0.247090  0.288280  1.0  -0.1197
  C  C487  1  0.207960  0.219870  0.333610  1.0  -0.0726
  C  C488  1  0.222960  0.191680  0.317350  1.0  -0.1208
  C  C489  1  0.236290  0.190290  0.258570  1.0  0.0507
  C  C490  1  0.234220  0.217660  0.213570  1.0  -0.1767
  C  C491  1  0.218490  0.245950  0.229670  1.0  -0.03
  C  C492  1  0.255210  0.161980  0.239170  1.0  -0.0481
  C  C493  1  0.292620  0.179730  0.205170  1.0  -0.0961
  C  C494  1  0.122830  0.078970  0.304870  1.0  0.0514
  C  C495  1  0.144930  0.049370  0.206270  1.0  -0.0102
  C  C496  1  0.244880  0.388080  0.360750  1.0  0.6804
  C  C497  1  0.291690  0.419580  0.378390  1.0  -0.1199
  C  C498  1  0.321430  0.446800  0.333060  1.0  -0.0708
  C  C499  1  0.364620  0.474990  0.349320  1.0  -0.1201
  C  C500  1  0.379340  0.476380  0.408100  1.0  0.0506
  C  C501  1  0.349900  0.449010  0.453100  1.0  -0.1768
  C  C502  1  0.305880  0.420720  0.437000  1.0  -0.0307
  C  C503  1  0.426570  0.504690  0.427500  1.0  -0.0485
  C  C504  1  0.446230  0.486940  0.461500  1.0  -0.0962
  C  C505  1  0.377200  0.587700  0.361800  1.0  0.0498
  C  C506  1  0.428900  0.617300  0.460400  1.0  -0.008
  C  C507  1  0.911550  0.721410  0.694080  1.0  0.6804
  C  C508  1  0.958360  0.752910  0.711720  1.0  -0.1199
  C  C509  1  0.988100  0.780130  0.666390  1.0  -0.0708
  C  C510  1  0.031290  0.808320  0.682650  1.0  -0.1201
  C  C511  1  0.046010  0.809710  0.741430  1.0  0.0506
  C  C512  1  0.016570  0.782340  0.786430  1.0  -0.1768
  C  C513  1  0.972550  0.754050  0.770330  1.0  -0.0307
  C  C514  1  0.093240  0.838020  0.760830  1.0  -0.0485
  C  C515  1  0.112900  0.820270  0.794830  1.0  -0.0962
  C  C516  1  0.043870  0.921030  0.695130  1.0  0.044
  C  C517  1  0.095570  0.950630  0.793730  1.0  -0.0067
  C  C518  1  0.578210  0.054750  0.027420  1.0  0.6804
  C  C519  1  0.625020  0.086250  0.045060  1.0  -0.1197
  C  C520  1  0.654760  0.113470  0.999730  1.0  -0.0708
  C  C521  1  0.697950  0.141660  0.015990  1.0  -0.1201
  C  C522  1  0.712670  0.143050  0.074770  1.0  0.0506
  C  C523  1  0.683230  0.115680  0.119770  1.0  -0.1768
  C  C524  1  0.639210  0.087390  0.103670  1.0  -0.0307
  C  C525  1  0.759900  0.171360  0.094170  1.0  -0.0485
  C  C526  1  0.779560  0.153610  0.128170  1.0  -0.0962
  C  C527  1  0.710530  0.254370  0.028470  1.0  0.0498
  C  C528  1  0.762230  0.283970  0.127070  1.0  -0.008
  C  C529  1  0.143200  0.755120  0.360750  1.0  0.681
  C  C530  1  0.127890  0.708310  0.378390  1.0  -0.1189
  C  C531  1  0.125370  0.678570  0.333060  1.0  -0.0717
  C  C532  1  0.110370  0.635380  0.349320  1.0  -0.1227
  C  C533  1  0.097040  0.620660  0.408100  1.0  0.0501
  C  C534  1  0.099110  0.650100  0.453100  1.0  -0.1769
  C  C535  1  0.114840  0.694120  0.437000  1.0  -0.0308
  C  C536  1  0.078120  0.573430  0.427500  1.0  -0.0472
  C  C537  1  0.040710  0.553770  0.461500  1.0  -0.0977
  C  C538  1  0.210500  0.622800  0.361800  1.0  0.0444
  C  C539  1  0.188400  0.571100  0.460400  1.0  -0.0058
  C  C540  1  0.809870  0.088450  0.694080  1.0  0.681
  C  C541  1  0.794560  0.041640  0.711720  1.0  -0.1189
  C  C542  1  0.792040  0.011900  0.666390  1.0  -0.0717
  C  C543  1  0.777040  0.968710  0.682650  1.0  -0.1227
  C  C544  1  0.763710  0.953990  0.741430  1.0  0.0501
  C  C545  1  0.765780  0.983430  0.786430  1.0  -0.1769
  C  C546  1  0.781510  0.027450  0.770330  1.0  -0.0308
  C  C547  1  0.744790  0.906760  0.760830  1.0  -0.0472
  C  C548  1  0.707380  0.887100  0.794830  1.0  -0.0977
  C  C549  1  0.877170  0.956130  0.695130  1.0  0.0512
  C  C550  1  0.855070  0.904430  0.793730  1.0  -0.0033
  C  C551  1  0.476530  0.421790  0.027420  1.0  0.6807
  C  C552  1  0.461220  0.374980  0.045060  1.0  -0.1188
  C  C553  1  0.458700  0.345240  0.999730  1.0  -0.0717
  C  C554  1  0.443700  0.302050  0.015990  1.0  -0.1227
  C  C555  1  0.430370  0.287330  0.074770  1.0  0.0501
  C  C556  1  0.432440  0.316770  0.119770  1.0  -0.1769
  C  C557  1  0.448170  0.360790  0.103670  1.0  -0.0308
  C  C558  1  0.411450  0.240100  0.094170  1.0  -0.0472
  C  C559  1  0.374040  0.220440  0.128170  1.0  -0.0993
  C  C560  1  0.543830  0.289470  0.028470  1.0  0.0444
  C  C561  1  0.521730  0.237770  0.127070  1.0  -0.0058
  C  C562  1  0.611920  0.856800  0.360750  1.0  0.6803
  C  C563  1  0.580420  0.872110  0.378390  1.0  -0.1195
  C  C564  1  0.553200  0.874630  0.333060  1.0  -0.0715
  C  C565  1  0.525010  0.889630  0.349320  1.0  -0.121
  C  C566  1  0.523620  0.902960  0.408100  1.0  0.0513
  C  C567  1  0.550990  0.900890  0.453100  1.0  -0.1785
  C  C568  1  0.579280  0.885160  0.437000  1.0  -0.0288
  C  C569  1  0.495310  0.921880  0.427500  1.0  -0.0457
  C  C570  1  0.513060  0.959290  0.461500  1.0  -0.0987
  C  C571  1  0.412300  0.789500  0.361800  1.0  0.0509
  C  C572  1  0.382700  0.811600  0.460400  1.0  -0.0086
  C  C573  1  0.278590  0.190130  0.694080  1.0  0.6803
  C  C574  1  0.247090  0.205440  0.711720  1.0  -0.1195
  C  C575  1  0.219870  0.207960  0.666390  1.0  -0.0715
  C  C576  1  0.191680  0.222960  0.682650  1.0  -0.121
  C  C577  1  0.190290  0.236290  0.741430  1.0  0.0513
  C  C578  1  0.217660  0.234220  0.786430  1.0  -0.1785
  C  C579  1  0.245950  0.218490  0.770330  1.0  -0.0288
  C  C580  1  0.161980  0.255210  0.760830  1.0  -0.0457
  C  C581  1  0.179730  0.292620  0.794830  1.0  -0.0987
  C  C582  1  0.078970  0.122830  0.695130  1.0  0.0501
  C  C583  1  0.049370  0.144930  0.793730  1.0  -0.0114
  C  C584  1  0.945250  0.523470  0.027420  1.0  0.6799
  C  C585  1  0.913750  0.538780  0.045060  1.0  -0.1197
  C  C586  1  0.886530  0.541300  0.999730  1.0  -0.0715
  C  C587  1  0.858340  0.556300  0.015990  1.0  -0.121
  C  C588  1  0.856950  0.569630  0.074770  1.0  0.0513
  C  C589  1  0.884320  0.567560  0.119770  1.0  -0.1785
  C  C590  1  0.912610  0.551830  0.103670  1.0  -0.0288
  C  C591  1  0.828640  0.588550  0.094170  1.0  -0.0457
  C  C592  1  0.846390  0.625960  0.128170  1.0  -0.0973
  C  C593  1  0.745630  0.456170  0.028470  1.0  0.0509
  C  C594  1  0.716030  0.478270  0.127070  1.0  -0.0086
  C  C595  1  0.489770  0.510230  0.480900  1.0  0.0281
  C  C596  1  0.451360  0.548640  0.408500  1.0  0.209
  C  C597  1  0.411350  0.588650  0.409200  1.0  0.1034
  C  C598  1  0.156440  0.843560  0.814230  1.0  0.0281
  C  C599  1  0.118030  0.881970  0.741830  1.0  0.209
  C  C600  1  0.078020  0.921980  0.742530  1.0  0.1034
  C  C601  1  0.823100  0.176900  0.147570  1.0  0.0281
  C  C602  1  0.784690  0.215310  0.075170  1.0  0.209
  C  C603  1  0.744680  0.255320  0.075870  1.0  0.1034
  C  C604  1  0.489770  0.979540  0.480900  1.0  0.0304
  C  C605  1  0.451360  0.902720  0.408500  1.0  0.2091
  C  C606  1  0.411350  0.822700  0.409200  1.0  0.1036
  C  C607  1  0.156440  0.312870  0.814230  1.0  0.0304
  C  C608  1  0.118030  0.236050  0.741830  1.0  0.2091
  C  C609  1  0.078020  0.156030  0.742530  1.0  0.1036
  C  C610  1  0.823100  0.646210  0.147570  1.0  0.0304
  C  C611  1  0.784690  0.569390  0.075170  1.0  0.2091
  C  C612  1  0.744680  0.489370  0.075870  1.0  0.1036
  C  C613  1  0.020460  0.510230  0.480900  1.0  0.027
  C  C614  1  0.097280  0.548640  0.408500  1.0  0.2087
  C  C615  1  0.177300  0.588650  0.409200  1.0  0.1025
  C  C616  1  0.687130  0.843560  0.814230  1.0  0.027
  C  C617  1  0.763950  0.881970  0.741830  1.0  0.2087
  C  C618  1  0.843970  0.921980  0.742530  1.0  0.1025
  C  C619  1  0.353790  0.176900  0.147570  1.0  0.027
  C  C620  1  0.430610  0.215310  0.075170  1.0  0.2087
  C  C621  1  0.510630  0.255320  0.075870  1.0  0.1025
  C  C622  1  0.510230  0.489770  0.519100  1.0  0.0284
  C  C623  1  0.548640  0.451360  0.591500  1.0  0.2086
  C  C624  1  0.588650  0.411350  0.590800  1.0  0.1017
  C  C625  1  0.176900  0.823100  0.852430  1.0  0.0284
  C  C626  1  0.215310  0.784690  0.924830  1.0  0.2086
  C  C627  1  0.255320  0.744680  0.924130  1.0  0.1017
  C  C628  1  0.843560  0.156440  0.185770  1.0  0.0284
  C  C629  1  0.881970  0.118030  0.258170  1.0  0.2086
  C  C630  1  0.921980  0.078020  0.257470  1.0  0.1017
  C  C631  1  0.979540  0.489770  0.519100  1.0  0.0276
  C  C632  1  0.902720  0.451360  0.591500  1.0  0.2089
  C  C633  1  0.822700  0.411350  0.590800  1.0  0.1032
  C  C634  1  0.646210  0.823100  0.852430  1.0  0.0276
  C  C635  1  0.569390  0.784690  0.924830  1.0  0.2089
  C  C636  1  0.489370  0.744680  0.924130  1.0  0.1032
  C  C637  1  0.312870  0.156440  0.185770  1.0  0.0276
  C  C638  1  0.236050  0.118030  0.258170  1.0  0.2089
  C  C639  1  0.156030  0.078020  0.257470  1.0  0.1032
  C  C640  1  0.510230  0.020460  0.519100  1.0  0.0305
  C  C641  1  0.548640  0.097280  0.591500  1.0  0.209
  C  C642  1  0.588650  0.177300  0.590800  1.0  0.1044
  C  C643  1  0.176900  0.353790  0.852430  1.0  0.0305
  C  C644  1  0.215310  0.430610  0.924830  1.0  0.209
  C  C645  1  0.255320  0.510630  0.924130  1.0  0.1044
  C  C646  1  0.843560  0.687130  0.185770  1.0  0.0305
  C  C647  1  0.881970  0.763950  0.258170  1.0  0.209
  C  C648  1  0.921980  0.843970  0.257470  1.0  0.1044
  O  O649  1  0.637130  0.779530  0.402590  1.0  -0.5693
  O  O650  1  0.611050  0.766280  0.306310  1.0  -0.5647
  O  O651  1  0.303800  0.112860  0.735920  1.0  -0.5686
  O  O652  1  0.277720  0.099610  0.639640  1.0  -0.5666
  O  O653  1  0.970460  0.446200  0.069260  1.0  -0.5693
  O  O654  1  0.944380  0.432950  0.972980  1.0  -0.5647
  O  O655  1  0.220470  0.857600  0.402590  1.0  -0.5688
  O  O656  1  0.233720  0.844770  0.306310  1.0  -0.5663
  O  O657  1  0.887140  0.190930  0.735920  1.0  -0.569
  O  O658  1  0.900390  0.178100  0.639640  1.0  -0.5663
  O  O659  1  0.553800  0.524270  0.069260  1.0  -0.5688
  O  O660  1  0.567050  0.511440  0.972980  1.0  -0.5664
  O  O661  1  0.142400  0.362870  0.402590  1.0  -0.5696
  O  O662  1  0.155230  0.388950  0.306310  1.0  -0.5674
  O  O663  1  0.809070  0.696200  0.735920  1.0  -0.5706
  O  O664  1  0.821900  0.722280  0.639640  1.0  -0.565
  O  O665  1  0.475730  0.029540  0.069260  1.0  -0.5696
  O  O666  1  0.488560  0.055620  0.972980  1.0  -0.5674
  O  O667  1  0.779530  0.637130  0.597410  1.0  -0.5716
  O  O668  1  0.766280  0.611050  0.693690  1.0  -0.5649
  O  O669  1  0.446200  0.970460  0.930740  1.0  -0.5716
  O  O670  1  0.432950  0.944380  0.027020  1.0  -0.5649
  O  O671  1  0.112860  0.303800  0.264080  1.0  -0.5706
  O  O672  1  0.099610  0.277720  0.360360  1.0  -0.5671
  O  O673  1  0.857600  0.220470  0.597410  1.0  -0.57
  O  O674  1  0.844770  0.233720  0.693690  1.0  -0.5666
  O  O675  1  0.524270  0.553800  0.930740  1.0  -0.57
  O  O676  1  0.511440  0.567050  0.027020  1.0  -0.5667
  O  O677  1  0.190930  0.887140  0.264080  1.0  -0.5701
  O  O678  1  0.178100  0.900390  0.360360  1.0  -0.5666
  O  O679  1  0.362870  0.142400  0.597410  1.0  -0.5699
  O  O680  1  0.388950  0.155230  0.693690  1.0  -0.5657
  O  O681  1  0.029540  0.475730  0.930740  1.0  -0.5699
  O  O682  1  0.055620  0.488560  0.027020  1.0  -0.5657
  O  O683  1  0.696200  0.809070  0.264080  1.0  -0.5706
  O  O684  1  0.722280  0.821900  0.360360  1.0  -0.5639
  O  O685  1  0.362870  0.220470  0.597410  1.0  -0.5709
  O  O686  1  0.388950  0.233720  0.693690  1.0  -0.5636
  O  O687  1  0.029540  0.553800  0.930740  1.0  -0.5709
  O  O688  1  0.055620  0.567050  0.027020  1.0  -0.5637
  O  O689  1  0.696200  0.887140  0.264080  1.0  -0.5702
  O  O690  1  0.722280  0.900390  0.360360  1.0  -0.5652
  O  O691  1  0.779530  0.142400  0.597410  1.0  -0.5701
  O  O692  1  0.766280  0.155230  0.693690  1.0  -0.5667
  O  O693  1  0.446200  0.475730  0.930740  1.0  -0.5701
  O  O694  1  0.432950  0.488560  0.027020  1.0  -0.5668
  O  O695  1  0.112860  0.809070  0.264080  1.0  -0.5702
  O  O696  1  0.099610  0.821900  0.360360  1.0  -0.5667
  O  O697  1  0.857600  0.637130  0.597410  1.0  -0.5707
  O  O698  1  0.844770  0.611050  0.693690  1.0  -0.5671
  O  O699  1  0.524270  0.970460  0.930740  1.0  -0.5707
  O  O700  1  0.511440  0.944380  0.027020  1.0  -0.567
  O  O701  1  0.190930  0.303800  0.264080  1.0  -0.5714
  O  O702  1  0.178100  0.277720  0.360360  1.0  -0.5647
  O  O703  1  0.220470  0.362870  0.402590  1.0  -0.5706
  O  O704  1  0.233720  0.388950  0.306310  1.0  -0.5652
  O  O705  1  0.887140  0.696200  0.735920  1.0  -0.5695
  O  O706  1  0.900390  0.722280  0.639640  1.0  -0.5672
  O  O707  1  0.553800  0.029540  0.069260  1.0  -0.5706
  O  O708  1  0.567050  0.055620  0.972980  1.0  -0.5652
  O  O709  1  0.142400  0.779530  0.402590  1.0  -0.5698
  O  O710  1  0.155230  0.766280  0.306310  1.0  -0.5657
  O  O711  1  0.809070  0.112860  0.735920  1.0  -0.5699
  O  O712  1  0.821900  0.099610  0.639640  1.0  -0.5657
  O  O713  1  0.475730  0.446200  0.069260  1.0  -0.5698
  O  O714  1  0.488560  0.432950  0.972980  1.0  -0.5658
  O  O715  1  0.637130  0.857600  0.402590  1.0  -0.5691
  O  O716  1  0.611050  0.844770  0.306310  1.0  -0.5669
  O  O717  1  0.303800  0.190930  0.735920  1.0  -0.5697
  O  O718  1  0.277720  0.178100  0.639640  1.0  -0.5649
  O  O719  1  0.970460  0.524270  0.069260  1.0  -0.5692
  O  O720  1  0.944380  0.511440  0.972980  1.0  -0.5668
  O  O721  1  0.432390  0.567610  0.373700  1.0  -0.2937
  O  O722  1  0.099060  0.900940  0.707030  1.0  -0.2937
  O  O723  1  0.765720  0.234280  0.040370  1.0  -0.2937
  O  O724  1  0.432390  0.864780  0.373700  1.0  -0.2952
  O  O725  1  0.099060  0.198110  0.707030  1.0  -0.2951
  O  O726  1  0.765720  0.531450  0.040370  1.0  -0.2952
  O  O727  1  0.135220  0.567610  0.373700  1.0  -0.2944
  O  O728  1  0.801890  0.900940  0.707030  1.0  -0.2944
  O  O729  1  0.468550  0.234280  0.040370  1.0  -0.2944
  O  O730  1  0.567610  0.432390  0.626300  1.0  -0.2963
  O  O731  1  0.234280  0.765720  0.959630  1.0  -0.2963
  O  O732  1  0.900940  0.099060  0.292970  1.0  -0.2963
  O  O733  1  0.864780  0.432390  0.626300  1.0  -0.2967
  O  O734  1  0.531450  0.765720  0.959630  1.0  -0.2967
  O  O735  1  0.198110  0.099060  0.292970  1.0  -0.2967
  O  O736  1  0.567610  0.135220  0.626300  1.0  -0.2968
  O  O737  1  0.234280  0.468550  0.959630  1.0  -0.2968
  O  O738  1  0.900940  0.801890  0.292970  1.0  -0.2968
