# generated using pymatgen
data_CuH10(C5O)5
_symmetry_space_group_name_H-M   'P 1'
_cell_length_a   34.96430000
_cell_length_b   34.96430000
_cell_length_c   23.39850000
_cell_angle_alpha   90.00000000
_cell_angle_beta   90.00000000
_cell_angle_gamma   120.00000000
_symmetry_Int_Tables_number   1
_chemical_formula_structural   CuH10(C5O)5
_chemical_formula_sum   'Cu18 H180 C450 O90'
_cell_volume   24772.41372885
_cell_formula_units_Z   18
loop_
 _symmetry_equiv_pos_site_id
 _symmetry_equiv_pos_as_xyz
  1  'x, y, z'
loop_
 _atom_site_type_symbol
 _atom_site_label
 _atom_site_symmetry_multiplicity
 _atom_site_fract_x
 _atom_site_fract_y
 _atom_site_fract_z
 _atom_site_occupancy
 _atom_site_charge
  Cu  Cu1  1  0.350200  0.175100  0.718490  1.0  0.8812
  Cu  Cu2  1  0.016870  0.508430  0.051820  1.0  0.8826
  Cu  Cu3  1  0.683530  0.841770  0.385160  1.0  0.8812
  Cu  Cu4  1  0.824900  0.175100  0.718490  1.0  0.8774
  Cu  Cu5  1  0.491570  0.508430  0.051820  1.0  0.8774
  Cu  Cu6  1  0.158230  0.841770  0.385160  1.0  0.8774
  Cu  Cu7  1  0.824900  0.649800  0.718490  1.0  0.8816
  Cu  Cu8  1  0.491570  0.983130  0.051820  1.0  0.8826
  Cu  Cu9  1  0.158230  0.316470  0.385160  1.0  0.8816
  Cu  Cu10  1  0.175100  0.350200  0.281510  1.0  0.8813
  Cu  Cu11  1  0.841770  0.683530  0.614840  1.0  0.8813
  Cu  Cu12  1  0.508430  0.016870  0.948180  1.0  0.8823
  Cu  Cu13  1  0.175100  0.824900  0.281510  1.0  0.8778
  Cu  Cu14  1  0.841770  0.158230  0.614840  1.0  0.8778
  Cu  Cu15  1  0.508430  0.491570  0.948180  1.0  0.8778
  Cu  Cu16  1  0.649800  0.824900  0.281510  1.0  0.8805
  Cu  Cu17  1  0.316470  0.158230  0.614840  1.0  0.8805
  Cu  Cu18  1  0.983130  0.491570  0.948180  1.0  0.8822
  H  H19  1  0.447600  0.314300  0.697500  1.0  0.1083
  H  H20  1  0.493800  0.386100  0.669500  1.0  0.0973
  H  H21  1  0.446400  0.357000  0.510700  1.0  0.1057
  H  H22  1  0.398500  0.285100  0.538900  1.0  0.1012
  H  H23  1  0.456500  0.429700  0.524800  1.0  0.098
  H  H24  1  0.114270  0.647630  0.030830  1.0  0.1083
  H  H25  1  0.160470  0.719430  0.002830  1.0  0.0973
  H  H26  1  0.113070  0.690330  0.844030  1.0  0.1057
  H  H27  1  0.065170  0.618430  0.872230  1.0  0.1012
  H  H28  1  0.123170  0.763030  0.858130  1.0  0.098
  H  H29  1  0.780930  0.980970  0.364170  1.0  0.1089
  H  H30  1  0.827130  0.052770  0.336170  1.0  0.0973
  H  H31  1  0.779730  0.023670  0.177370  1.0  0.1068
  H  H32  1  0.731830  0.951770  0.205570  1.0  0.1024
  H  H33  1  0.789830  0.096370  0.191470  1.0  0.098
  H  H34  1  0.685700  0.133300  0.697500  1.0  0.1082
  H  H35  1  0.613900  0.107700  0.669500  1.0  0.0979
  H  H36  1  0.643000  0.089400  0.510700  1.0  0.1064
  H  H37  1  0.714900  0.113400  0.538900  1.0  0.1025
  H  H38  1  0.570300  0.026800  0.524800  1.0  0.099
  H  H39  1  0.352370  0.466630  0.030830  1.0  0.1081
  H  H40  1  0.280570  0.441030  0.002830  1.0  0.0979
  H  H41  1  0.309670  0.422730  0.844030  1.0  0.1064
  H  H42  1  0.381570  0.446730  0.872230  1.0  0.1025
  H  H43  1  0.236970  0.360130  0.858130  1.0  0.099
  H  H44  1  0.019030  0.799970  0.364170  1.0  0.1082
  H  H45  1  0.947230  0.774370  0.336170  1.0  0.098
  H  H46  1  0.976330  0.756070  0.177370  1.0  0.1073
  H  H47  1  0.048230  0.780070  0.205570  1.0  0.103
  H  H48  1  0.903630  0.693470  0.191470  1.0  0.099
  H  H49  1  0.866700  0.552400  0.697500  1.0  0.1089
  H  H50  1  0.892300  0.506200  0.669500  1.0  0.0981
  H  H51  1  0.910600  0.553600  0.510700  1.0  0.106
  H  H52  1  0.886600  0.601500  0.538900  1.0  0.102
  H  H53  1  0.973200  0.543500  0.524800  1.0  0.0991
  H  H54  1  0.533370  0.885730  0.030830  1.0  0.1089
  H  H55  1  0.558970  0.839530  0.002830  1.0  0.0979
  H  H56  1  0.577270  0.886930  0.844030  1.0  0.106
  H  H57  1  0.553270  0.934830  0.872230  1.0  0.102
  H  H58  1  0.639870  0.876830  0.858130  1.0  0.0991
  H  H59  1  0.200030  0.219070  0.364170  1.0  0.1081
  H  H60  1  0.225630  0.172870  0.336170  1.0  0.0976
  H  H61  1  0.243930  0.220270  0.177370  1.0  0.1069
  H  H62  1  0.219930  0.268170  0.205570  1.0  0.1014
  H  H63  1  0.306530  0.210170  0.191470  1.0  0.0991
  H  H64  1  0.314300  0.447600  0.302500  1.0  0.1085
  H  H65  1  0.386100  0.493800  0.330500  1.0  0.0981
  H  H66  1  0.357000  0.446400  0.489300  1.0  0.1063
  H  H67  1  0.285100  0.398500  0.461100  1.0  0.1014
  H  H68  1  0.429700  0.456500  0.475200  1.0  0.0989
  H  H69  1  0.980970  0.780930  0.635830  1.0  0.1089
  H  H70  1  0.052770  0.827130  0.663830  1.0  0.0981
  H  H71  1  0.023670  0.779730  0.822630  1.0  0.1074
  H  H72  1  0.951770  0.731830  0.794430  1.0  0.1028
  H  H73  1  0.096370  0.789830  0.808530  1.0  0.0989
  H  H74  1  0.647630  0.114270  0.969170  1.0  0.1085
  H  H75  1  0.719430  0.160470  0.997170  1.0  0.0981
  H  H76  1  0.690330  0.113070  0.155970  1.0  0.1063
  H  H77  1  0.618430  0.065170  0.127770  1.0  0.1014
  H  H78  1  0.763030  0.123170  0.141870  1.0  0.0989
  H  H79  1  0.133300  0.685700  0.302500  1.0  0.1093
  H  H80  1  0.107700  0.613900  0.330500  1.0  0.097
  H  H81  1  0.089400  0.643000  0.489300  1.0  0.1063
  H  H82  1  0.113400  0.714900  0.461100  1.0  0.1014
  H  H83  1  0.026800  0.570300  0.475200  1.0  0.0984
  H  H84  1  0.799970  0.019030  0.635830  1.0  0.1093
  H  H85  1  0.774370  0.947230  0.663830  1.0  0.0969
  H  H86  1  0.756070  0.976330  0.822630  1.0  0.1072
  H  H87  1  0.780070  0.048230  0.794430  1.0  0.102
  H  H88  1  0.693470  0.903630  0.808530  1.0  0.0984
  H  H89  1  0.466630  0.352370  0.969170  1.0  0.1093
  H  H90  1  0.441030  0.280570  0.997170  1.0  0.0972
  H  H91  1  0.422730  0.309670  0.155970  1.0  0.1063
  H  H92  1  0.446730  0.381570  0.127770  1.0  0.1014
  H  H93  1  0.360130  0.236970  0.141870  1.0  0.0984
  H  H94  1  0.552400  0.866700  0.302500  1.0  0.1083
  H  H95  1  0.506200  0.892300  0.330500  1.0  0.0984
  H  H96  1  0.553600  0.910600  0.489300  1.0  0.1057
  H  H97  1  0.601500  0.886600  0.461100  1.0  0.1016
  H  H98  1  0.543500  0.973200  0.475200  1.0  0.0996
  H  H99  1  0.219070  0.200030  0.635830  1.0  0.1078
  H  H100  1  0.172870  0.225630  0.663830  1.0  0.0984
  H  H101  1  0.220270  0.243930  0.822630  1.0  0.1067
  H  H102  1  0.268170  0.219930  0.794430  1.0  0.1015
  H  H103  1  0.210170  0.306530  0.808530  1.0  0.0996
  H  H104  1  0.885730  0.533370  0.969170  1.0  0.1082
  H  H105  1  0.839530  0.558970  0.997170  1.0  0.0981
  H  H106  1  0.886930  0.577270  0.155970  1.0  0.1057
  H  H107  1  0.934830  0.553270  0.127770  1.0  0.1016
  H  H108  1  0.876830  0.639870  0.141870  1.0  0.0996
  H  H109  1  0.552400  0.685700  0.302500  1.0  0.1088
  H  H110  1  0.506200  0.613900  0.330500  1.0  0.0973
  H  H111  1  0.553600  0.643000  0.489300  1.0  0.1062
  H  H112  1  0.601500  0.714900  0.461100  1.0  0.1012
  H  H113  1  0.543500  0.570300  0.475200  1.0  0.0981
  H  H114  1  0.219070  0.019030  0.635830  1.0  0.1093
  H  H115  1  0.172870  0.947230  0.663830  1.0  0.0973
  H  H116  1  0.220270  0.976330  0.822630  1.0  0.1072
  H  H117  1  0.268170  0.048230  0.794430  1.0  0.102
  H  H118  1  0.210170  0.903630  0.808530  1.0  0.0981
  H  H119  1  0.885730  0.352370  0.969170  1.0  0.1088
  H  H120  1  0.839530  0.280570  0.997170  1.0  0.0973
  H  H121  1  0.886930  0.309670  0.155970  1.0  0.1062
  H  H122  1  0.934830  0.381570  0.127770  1.0  0.1012
  H  H123  1  0.876830  0.236970  0.141870  1.0  0.0981
  H  H124  1  0.314300  0.866700  0.302500  1.0  0.1088
  H  H125  1  0.386100  0.892300  0.330500  1.0  0.0975
  H  H126  1  0.357000  0.910600  0.489300  1.0  0.1058
  H  H127  1  0.285100  0.886600  0.461100  1.0  0.1019
  H  H128  1  0.429700  0.973200  0.475200  1.0  0.0985
  H  H129  1  0.980970  0.200030  0.635830  1.0  0.1088
  H  H130  1  0.052770  0.225630  0.663830  1.0  0.0974
  H  H131  1  0.023670  0.243930  0.822630  1.0  0.1068
  H  H132  1  0.951770  0.219930  0.794430  1.0  0.1025
  H  H133  1  0.096370  0.306530  0.808530  1.0  0.0985
  H  H134  1  0.647630  0.533370  0.969170  1.0  0.1088
  H  H135  1  0.719430  0.558970  0.997170  1.0  0.0979
  H  H136  1  0.690330  0.577270  0.155970  1.0  0.1058
  H  H137  1  0.618430  0.553270  0.127770  1.0  0.1019
  H  H138  1  0.763030  0.639870  0.141870  1.0  0.0985
  H  H139  1  0.133300  0.447600  0.302500  1.0  0.1087
  H  H140  1  0.107700  0.493800  0.330500  1.0  0.0982
  H  H141  1  0.089400  0.446400  0.489300  1.0  0.1058
  H  H142  1  0.113400  0.398500  0.461100  1.0  0.1019
  H  H143  1  0.026800  0.456500  0.475200  1.0  0.0981
  H  H144  1  0.799970  0.780930  0.635830  1.0  0.1084
  H  H145  1  0.774370  0.827130  0.663830  1.0  0.0981
  H  H146  1  0.756070  0.779730  0.822630  1.0  0.107
  H  H147  1  0.780070  0.731830  0.794430  1.0  0.1016
  H  H148  1  0.693470  0.789830  0.808530  1.0  0.0981
  H  H149  1  0.466630  0.114270  0.969170  1.0  0.1087
  H  H150  1  0.441030  0.160470  0.997170  1.0  0.0979
  H  H151  1  0.422730  0.113070  0.155970  1.0  0.1058
  H  H152  1  0.446730  0.065170  0.127770  1.0  0.1019
  H  H153  1  0.360130  0.123170  0.141870  1.0  0.0981
  H  H154  1  0.685700  0.552400  0.697500  1.0  0.1081
  H  H155  1  0.613900  0.506200  0.669500  1.0  0.0977
  H  H156  1  0.643000  0.553600  0.510700  1.0  0.1062
  H  H157  1  0.714900  0.601500  0.538900  1.0  0.1018
  H  H158  1  0.570300  0.543500  0.524800  1.0  0.0985
  H  H159  1  0.352370  0.885730  0.030830  1.0  0.1081
  H  H160  1  0.280570  0.839530  0.002830  1.0  0.0977
  H  H161  1  0.309670  0.886930  0.844030  1.0  0.1062
  H  H162  1  0.381570  0.934830  0.872230  1.0  0.1018
  H  H163  1  0.236970  0.876830  0.858130  1.0  0.0985
  H  H164  1  0.019030  0.219070  0.364170  1.0  0.1086
  H  H165  1  0.947230  0.172870  0.336170  1.0  0.0977
  H  H166  1  0.976330  0.220270  0.177370  1.0  0.1072
  H  H167  1  0.048230  0.268170  0.205570  1.0  0.1027
  H  H168  1  0.903630  0.210170  0.191470  1.0  0.0985
  H  H169  1  0.866700  0.314300  0.697500  1.0  0.1089
  H  H170  1  0.892300  0.386100  0.669500  1.0  0.0971
  H  H171  1  0.910600  0.357000  0.510700  1.0  0.1058
  H  H172  1  0.886600  0.285100  0.538900  1.0  0.1018
  H  H173  1  0.973200  0.429700  0.524800  1.0  0.0984
  H  H174  1  0.533370  0.647630  0.030830  1.0  0.1089
  H  H175  1  0.558970  0.719430  0.002830  1.0  0.0971
  H  H176  1  0.577270  0.690330  0.844030  1.0  0.1058
  H  H177  1  0.553270  0.618430  0.872230  1.0  0.1018
  H  H178  1  0.639870  0.763030  0.858130  1.0  0.0984
  H  H179  1  0.200030  0.980970  0.364170  1.0  0.1089
  H  H180  1  0.225630  0.052770  0.336170  1.0  0.0972
  H  H181  1  0.243930  0.023670  0.177370  1.0  0.1068
  H  H182  1  0.219930  0.951770  0.205570  1.0  0.1025
  H  H183  1  0.306530  0.096370  0.191470  1.0  0.0984
  H  H184  1  0.447600  0.133300  0.697500  1.0  0.1084
  H  H185  1  0.493800  0.107700  0.669500  1.0  0.0981
  H  H186  1  0.446400  0.089400  0.510700  1.0  0.1057
  H  H187  1  0.398500  0.113400  0.538900  1.0  0.1023
  H  H188  1  0.456500  0.026800  0.524800  1.0  0.0989
  H  H189  1  0.114270  0.466630  0.030830  1.0  0.1084
  H  H190  1  0.160470  0.441030  0.002830  1.0  0.098
  H  H191  1  0.113070  0.422730  0.844030  1.0  0.1057
  H  H192  1  0.065170  0.446730  0.872230  1.0  0.1023
  H  H193  1  0.123170  0.360130  0.858130  1.0  0.0989
  H  H194  1  0.780930  0.799970  0.364170  1.0  0.1078
  H  H195  1  0.827130  0.774370  0.336170  1.0  0.0976
  H  H196  1  0.779730  0.756070  0.177370  1.0  0.1067
  H  H197  1  0.731830  0.780070  0.205570  1.0  0.1016
  H  H198  1  0.789830  0.693470  0.191470  1.0  0.0989
  C  C199  1  0.387080  0.244410  0.637900  1.0  0.706
  C  C200  1  0.418400  0.291740  0.620900  1.0  -0.1507
  C  C201  1  0.447020  0.322570  0.659900  1.0  -0.077
  C  C202  1  0.474780  0.365760  0.642800  1.0  -0.1092
  C  C203  1  0.475230  0.379700  0.587800  1.0  0.0501
  C  C204  1  0.446500  0.348640  0.548500  1.0  -0.1485
  C  C205  1  0.418030  0.305320  0.565300  1.0  -0.0496
  C  C206  1  0.504230  0.426150  0.569500  1.0  0.0301
  C  C207  1  0.485840  0.446280  0.536100  1.0  -0.1243
  C  C208  1  0.622600  0.411300  0.633900  1.0  0.1085
  C  C209  1  0.572500  0.382100  0.539500  1.0  -0.0019
  C  C210  1  0.053750  0.577740  0.971230  1.0  0.7061
  C  C211  1  0.085070  0.625070  0.954230  1.0  -0.1507
  C  C212  1  0.113690  0.655900  0.993230  1.0  -0.077
  C  C213  1  0.141450  0.699090  0.976130  1.0  -0.1093
  C  C214  1  0.141900  0.713030  0.921130  1.0  0.0501
  C  C215  1  0.113170  0.681970  0.881830  1.0  -0.1485
  C  C216  1  0.084700  0.638650  0.898630  1.0  -0.0496
  C  C217  1  0.170900  0.759480  0.902830  1.0  0.0301
  C  C218  1  0.152510  0.779610  0.869430  1.0  -0.1243
  C  C219  1  0.289270  0.744630  0.967230  1.0  0.1085
  C  C220  1  0.239170  0.715430  0.872830  1.0  -0.0019
  C  C221  1  0.720410  0.911080  0.304570  1.0  0.706
  C  C222  1  0.751730  0.958410  0.287570  1.0  -0.1507
  C  C223  1  0.780350  0.989240  0.326570  1.0  -0.077
  C  C224  1  0.808110  0.032430  0.309470  1.0  -0.1092
  C  C225  1  0.808560  0.046370  0.254470  1.0  0.0501
  C  C226  1  0.779830  0.015310  0.215170  1.0  -0.1485
  C  C227  1  0.751360  0.971990  0.231970  1.0  -0.0496
  C  C228  1  0.837560  0.092820  0.236170  1.0  0.0301
  C  C229  1  0.819170  0.112950  0.202770  1.0  -0.1243
  C  C230  1  0.955930  0.077970  0.300570  1.0  0.104
  C  C231  1  0.905830  0.048770  0.206170  1.0  -0.0002
  C  C232  1  0.755590  0.142670  0.637900  1.0  0.7041
  C  C233  1  0.708260  0.126660  0.620900  1.0  -0.1534
  C  C234  1  0.677430  0.124450  0.659900  1.0  -0.0772
  C  C235  1  0.634240  0.109020  0.642800  1.0  -0.1079
  C  C236  1  0.620300  0.095530  0.587800  1.0  0.0497
  C  C237  1  0.651360  0.097860  0.548500  1.0  -0.1457
  C  C238  1  0.694680  0.112710  0.565300  1.0  -0.0491
  C  C239  1  0.573850  0.078080  0.569500  1.0  0.0318
  C  C240  1  0.553720  0.039560  0.536100  1.0  -0.1242
  C  C241  1  0.588700  0.211300  0.633900  1.0  0.1129
  C  C242  1  0.617900  0.190400  0.539500  1.0  -0.0003
  C  C243  1  0.422260  0.476000  0.971230  1.0  0.7039
  C  C244  1  0.374930  0.459990  0.954230  1.0  -0.1534
  C  C245  1  0.344100  0.457780  0.993230  1.0  -0.0772
  C  C246  1  0.300910  0.442350  0.976130  1.0  -0.108
  C  C247  1  0.286970  0.428860  0.921130  1.0  0.0497
  C  C248  1  0.318030  0.431190  0.881830  1.0  -0.1457
  C  C249  1  0.361350  0.446040  0.898630  1.0  -0.0491
  C  C250  1  0.240520  0.411410  0.902830  1.0  0.0318
  C  C251  1  0.220390  0.372890  0.869430  1.0  -0.1242
  C  C252  1  0.255370  0.544630  0.967230  1.0  0.1129
  C  C253  1  0.284570  0.523730  0.872830  1.0  -0.0003
  C  C254  1  0.088920  0.809340  0.304570  1.0  0.7041
  C  C255  1  0.041590  0.793330  0.287570  1.0  -0.1534
  C  C256  1  0.010760  0.791120  0.326570  1.0  -0.0772
  C  C257  1  0.967570  0.775690  0.309470  1.0  -0.1079
  C  C258  1  0.953630  0.762200  0.254470  1.0  0.0497
  C  C259  1  0.984690  0.764530  0.215170  1.0  -0.1457
  C  C260  1  0.028010  0.779380  0.231970  1.0  -0.0491
  C  C261  1  0.907180  0.744750  0.236170  1.0  0.0318
  C  C262  1  0.887050  0.706230  0.202770  1.0  -0.1242
  C  C263  1  0.922030  0.877970  0.300570  1.0  0.111
  C  C264  1  0.951230  0.857070  0.206170  1.0  0.0002
  C  C265  1  0.857330  0.612920  0.637900  1.0  0.7046
  C  C266  1  0.873340  0.581600  0.620900  1.0  -0.1522
  C  C267  1  0.875550  0.552980  0.659900  1.0  -0.0781
  C  C268  1  0.890980  0.525220  0.642800  1.0  -0.1068
  C  C269  1  0.904470  0.524770  0.587800  1.0  0.0509
  C  C270  1  0.902140  0.553500  0.548500  1.0  -0.1499
  C  C271  1  0.887290  0.581970  0.565300  1.0  -0.0506
  C  C272  1  0.921920  0.495770  0.569500  1.0  0.0317
  C  C273  1  0.960440  0.514160  0.536100  1.0  -0.1197
  C  C274  1  0.788700  0.377400  0.633900  1.0  0.1042
  C  C275  1  0.809600  0.427500  0.539500  1.0  0.0005
  C  C276  1  0.524000  0.946250  0.971230  1.0  0.7051
  C  C277  1  0.540010  0.914930  0.954230  1.0  -0.1522
  C  C278  1  0.542220  0.886310  0.993230  1.0  -0.0781
  C  C279  1  0.557650  0.858550  0.976130  1.0  -0.1068
  C  C280  1  0.571140  0.858100  0.921130  1.0  0.0509
  C  C281  1  0.568810  0.886830  0.881830  1.0  -0.1499
  C  C282  1  0.553960  0.915300  0.898630  1.0  -0.0506
  C  C283  1  0.588590  0.829100  0.902830  1.0  0.0317
  C  C284  1  0.627110  0.847490  0.869430  1.0  -0.1197
  C  C285  1  0.455370  0.710730  0.967230  1.0  0.1042
  C  C286  1  0.476270  0.760830  0.872830  1.0  0.0005
  C  C287  1  0.190660  0.279590  0.304570  1.0  0.7046
  C  C288  1  0.206670  0.248270  0.287570  1.0  -0.1522
  C  C289  1  0.208880  0.219650  0.326570  1.0  -0.0781
  C  C290  1  0.224310  0.191890  0.309470  1.0  -0.1068
  C  C291  1  0.237800  0.191440  0.254470  1.0  0.0509
  C  C292  1  0.235470  0.220170  0.215170  1.0  -0.1499
  C  C293  1  0.220620  0.248640  0.231970  1.0  -0.0506
  C  C294  1  0.255250  0.162440  0.236170  1.0  0.0317
  C  C295  1  0.293770  0.180830  0.202770  1.0  -0.1197
  C  C296  1  0.122030  0.044070  0.300570  1.0  0.1112
  C  C297  1  0.142930  0.094170  0.206170  1.0  -0.001
  C  C298  1  0.244410  0.387080  0.362100  1.0  0.7043
  C  C299  1  0.291740  0.418400  0.379100  1.0  -0.1522
  C  C300  1  0.322570  0.447020  0.340100  1.0  -0.0787
  C  C301  1  0.365760  0.474780  0.357200  1.0  -0.1108
  C  C302  1  0.379700  0.475230  0.412200  1.0  0.0503
  C  C303  1  0.348640  0.446500  0.451500  1.0  -0.1519
  C  C304  1  0.305320  0.418030  0.434700  1.0  -0.0509
  C  C305  1  0.426150  0.504230  0.430500  1.0  0.0311
  C  C306  1  0.446280  0.485840  0.463900  1.0  -0.1232
  C  C307  1  0.411300  0.622600  0.366100  1.0  0.1082
  C  C308  1  0.382100  0.572500  0.460500  1.0  -0.0016
  C  C309  1  0.911080  0.720410  0.695430  1.0  0.7043
  C  C310  1  0.958410  0.751730  0.712430  1.0  -0.1522
  C  C311  1  0.989240  0.780350  0.673430  1.0  -0.0787
  C  C312  1  0.032430  0.808110  0.690530  1.0  -0.1108
  C  C313  1  0.046370  0.808560  0.745530  1.0  0.0503
  C  C314  1  0.015310  0.779830  0.784830  1.0  -0.1519
  C  C315  1  0.971990  0.751360  0.768030  1.0  -0.0509
  C  C316  1  0.092820  0.837560  0.763830  1.0  0.0311
  C  C317  1  0.112950  0.819170  0.797230  1.0  -0.1232
  C  C318  1  0.077970  0.955930  0.699430  1.0  0.1046
  C  C319  1  0.048770  0.905830  0.793830  1.0  -0.0011
  C  C320  1  0.577740  0.053750  0.028770  1.0  0.7044
  C  C321  1  0.625070  0.085070  0.045770  1.0  -0.1522
  C  C322  1  0.655900  0.113690  0.006770  1.0  -0.0787
  C  C323  1  0.699090  0.141450  0.023870  1.0  -0.1109
  C  C324  1  0.713030  0.141900  0.078870  1.0  0.0503
  C  C325  1  0.681970  0.113170  0.118170  1.0  -0.1519
  C  C326  1  0.638650  0.084700  0.101370  1.0  -0.0509
  C  C327  1  0.759480  0.170900  0.097170  1.0  0.0311
  C  C328  1  0.779610  0.152510  0.130570  1.0  -0.1232
  C  C329  1  0.744630  0.289270  0.032770  1.0  0.1082
  C  C330  1  0.715430  0.239170  0.127170  1.0  -0.0016
  C  C331  1  0.142670  0.755590  0.362100  1.0  0.7061
  C  C332  1  0.126660  0.708260  0.379100  1.0  -0.1491
  C  C333  1  0.124450  0.677430  0.340100  1.0  -0.0801
  C  C334  1  0.109020  0.634240  0.357200  1.0  -0.1122
  C  C335  1  0.095530  0.620300  0.412200  1.0  0.0501
  C  C336  1  0.097860  0.651360  0.451500  1.0  -0.1514
  C  C337  1  0.112710  0.694680  0.434700  1.0  -0.0516
  C  C338  1  0.078080  0.573850  0.430500  1.0  0.0302
  C  C339  1  0.039560  0.553720  0.463900  1.0  -0.1254
  C  C340  1  0.211300  0.588700  0.366100  1.0  0.1106
  C  C341  1  0.190400  0.617900  0.460500  1.0  -0.002
  C  C342  1  0.809340  0.088920  0.695430  1.0  0.7061
  C  C343  1  0.793330  0.041590  0.712430  1.0  -0.1491
  C  C344  1  0.791120  0.010760  0.673430  1.0  -0.0801
  C  C345  1  0.775690  0.967570  0.690530  1.0  -0.1122
  C  C346  1  0.762200  0.953630  0.745530  1.0  0.0501
  C  C347  1  0.764530  0.984690  0.784830  1.0  -0.1514
  C  C348  1  0.779380  0.028010  0.768030  1.0  -0.0516
  C  C349  1  0.744750  0.907180  0.763830  1.0  0.0302
  C  C350  1  0.706230  0.887050  0.797230  1.0  -0.1254
  C  C351  1  0.877970  0.922030  0.699430  1.0  0.1089
  C  C352  1  0.857070  0.951230  0.793830  1.0  -0.0044
  C  C353  1  0.476000  0.422260  0.028770  1.0  0.7059
  C  C354  1  0.459990  0.374930  0.045770  1.0  -0.1491
  C  C355  1  0.457780  0.344100  0.006770  1.0  -0.0801
  C  C356  1  0.442350  0.300910  0.023870  1.0  -0.1123
  C  C357  1  0.428860  0.286970  0.078870  1.0  0.0501
  C  C358  1  0.431190  0.318030  0.118170  1.0  -0.1514
  C  C359  1  0.446040  0.361350  0.101370  1.0  -0.0516
  C  C360  1  0.411410  0.240520  0.097170  1.0  0.0302
  C  C361  1  0.372890  0.220390  0.130570  1.0  -0.1254
  C  C362  1  0.544630  0.255370  0.032770  1.0  0.1106
  C  C363  1  0.523730  0.284570  0.127170  1.0  -0.002
  C  C364  1  0.612920  0.857330  0.362100  1.0  0.7035
  C  C365  1  0.581600  0.873340  0.379100  1.0  -0.1529
  C  C366  1  0.552980  0.875550  0.340100  1.0  -0.0793
  C  C367  1  0.525220  0.890980  0.357200  1.0  -0.1108
  C  C368  1  0.524770  0.904470  0.412200  1.0  0.05
  C  C369  1  0.553500  0.902140  0.451500  1.0  -0.1492
  C  C370  1  0.581970  0.887290  0.434700  1.0  -0.0487
  C  C371  1  0.495770  0.921920  0.430500  1.0  0.0309
  C  C372  1  0.514160  0.960440  0.463900  1.0  -0.125
  C  C373  1  0.377400  0.788700  0.366100  1.0  0.1055
  C  C374  1  0.427500  0.809600  0.460500  1.0  -0.0013
  C  C375  1  0.279590  0.190660  0.695430  1.0  0.7035
  C  C376  1  0.248270  0.206670  0.712430  1.0  -0.1529
  C  C377  1  0.219650  0.208880  0.673430  1.0  -0.0793
  C  C378  1  0.191890  0.224310  0.690530  1.0  -0.1108
  C  C379  1  0.191440  0.237800  0.745530  1.0  0.05
  C  C380  1  0.220170  0.235470  0.784830  1.0  -0.1492
  C  C381  1  0.248640  0.220620  0.768030  1.0  -0.0487
  C  C382  1  0.162440  0.255250  0.763830  1.0  0.0309
  C  C383  1  0.180830  0.293770  0.797230  1.0  -0.125
  C  C384  1  0.044070  0.122030  0.699430  1.0  0.1092
  C  C385  1  0.094170  0.142930  0.793830  1.0  -0.0011
  C  C386  1  0.946250  0.524000  0.028770  1.0  0.704
  C  C387  1  0.914930  0.540010  0.045770  1.0  -0.1529
  C  C388  1  0.886310  0.542220  0.006770  1.0  -0.0792
  C  C389  1  0.858550  0.557650  0.023870  1.0  -0.1108
  C  C390  1  0.858100  0.571140  0.078870  1.0  0.05
  C  C391  1  0.886830  0.568810  0.118170  1.0  -0.1492
  C  C392  1  0.915300  0.553960  0.101370  1.0  -0.0487
  C  C393  1  0.829100  0.588590  0.097170  1.0  0.0309
  C  C394  1  0.847490  0.627110  0.130570  1.0  -0.125
  C  C395  1  0.710730  0.455370  0.032770  1.0  0.1055
  C  C396  1  0.760830  0.476270  0.127170  1.0  -0.0013
  C  C397  1  0.612920  0.755590  0.362100  1.0  0.706
  C  C398  1  0.581600  0.708260  0.379100  1.0  -0.1487
  C  C399  1  0.552980  0.677430  0.340100  1.0  -0.0797
  C  C400  1  0.525220  0.634240  0.357200  1.0  -0.1121
  C  C401  1  0.524770  0.620300  0.412200  1.0  0.0501
  C  C402  1  0.553500  0.651360  0.451500  1.0  -0.1515
  C  C403  1  0.581970  0.694680  0.434700  1.0  -0.0502
  C  C404  1  0.495770  0.573850  0.430500  1.0  0.0304
  C  C405  1  0.514160  0.553720  0.463900  1.0  -0.125
  C  C406  1  0.377400  0.588700  0.366100  1.0  0.1089
  C  C407  1  0.427500  0.617900  0.460500  1.0  -0.0056
  C  C408  1  0.279590  0.088920  0.695430  1.0  0.706
  C  C409  1  0.248270  0.041590  0.712430  1.0  -0.1487
  C  C410  1  0.219650  0.010760  0.673430  1.0  -0.0797
  C  C411  1  0.191890  0.967570  0.690530  1.0  -0.1121
  C  C412  1  0.191440  0.953630  0.745530  1.0  0.0501
  C  C413  1  0.220170  0.984690  0.784830  1.0  -0.1515
  C  C414  1  0.248640  0.028010  0.768030  1.0  -0.0502
  C  C415  1  0.162440  0.907180  0.763830  1.0  0.0304
  C  C416  1  0.180830  0.887050  0.797230  1.0  -0.125
  C  C417  1  0.044070  0.922030  0.699430  1.0  0.1043
  C  C418  1  0.094170  0.951230  0.793830  1.0  -0.0045
  C  C419  1  0.946250  0.422260  0.028770  1.0  0.706
  C  C420  1  0.914930  0.374930  0.045770  1.0  -0.1487
  C  C421  1  0.886310  0.344100  0.006770  1.0  -0.0797
  C  C422  1  0.858550  0.300910  0.023870  1.0  -0.1122
  C  C423  1  0.858100  0.286970  0.078870  1.0  0.0501
  C  C424  1  0.886830  0.318030  0.118170  1.0  -0.1515
  C  C425  1  0.915300  0.361350  0.101370  1.0  -0.0502
  C  C426  1  0.829100  0.240520  0.097170  1.0  0.0304
  C  C427  1  0.847490  0.220390  0.130570  1.0  -0.125
  C  C428  1  0.710730  0.255370  0.032770  1.0  0.1089
  C  C429  1  0.760830  0.284570  0.127170  1.0  -0.0056
  C  C430  1  0.244410  0.857330  0.362100  1.0  0.7043
  C  C431  1  0.291740  0.873340  0.379100  1.0  -0.1524
  C  C432  1  0.322570  0.875550  0.340100  1.0  -0.0788
  C  C433  1  0.365760  0.890980  0.357200  1.0  -0.1118
  C  C434  1  0.379700  0.904470  0.412200  1.0  0.0495
  C  C435  1  0.348640  0.902140  0.451500  1.0  -0.1497
  C  C436  1  0.305320  0.887290  0.434700  1.0  -0.0498
  C  C437  1  0.426150  0.921920  0.430500  1.0  0.0308
  C  C438  1  0.446280  0.960440  0.463900  1.0  -0.1252
  C  C439  1  0.411300  0.788700  0.366100  1.0  0.1111
  C  C440  1  0.382100  0.809600  0.460500  1.0  -0.0032
  C  C441  1  0.911080  0.190660  0.695430  1.0  0.7043
  C  C442  1  0.958410  0.206670  0.712430  1.0  -0.1524
  C  C443  1  0.989240  0.208880  0.673430  1.0  -0.0788
  C  C444  1  0.032430  0.224310  0.690530  1.0  -0.1118
  C  C445  1  0.046370  0.237800  0.745530  1.0  0.0495
  C  C446  1  0.015310  0.235470  0.784830  1.0  -0.1497
  C  C447  1  0.971990  0.220620  0.768030  1.0  -0.0498
  C  C448  1  0.092820  0.255250  0.763830  1.0  0.0308
  C  C449  1  0.112950  0.293770  0.797230  1.0  -0.1252
  C  C450  1  0.077970  0.122030  0.699430  1.0  0.1093
  C  C451  1  0.048770  0.142930  0.793830  1.0  -0.0038
  C  C452  1  0.577740  0.524000  0.028770  1.0  0.7041
  C  C453  1  0.625070  0.540010  0.045770  1.0  -0.1524
  C  C454  1  0.655900  0.542220  0.006770  1.0  -0.0788
  C  C455  1  0.699090  0.557650  0.023870  1.0  -0.1119
  C  C456  1  0.713030  0.571140  0.078870  1.0  0.0495
  C  C457  1  0.681970  0.568810  0.118170  1.0  -0.1497
  C  C458  1  0.638650  0.553960  0.101370  1.0  -0.0498
  C  C459  1  0.759480  0.588590  0.097170  1.0  0.0308
  C  C460  1  0.779610  0.627110  0.130570  1.0  -0.1252
  C  C461  1  0.744630  0.455370  0.032770  1.0  0.1111
  C  C462  1  0.715430  0.476270  0.127170  1.0  -0.0032
  C  C463  1  0.142670  0.387080  0.362100  1.0  0.7047
  C  C464  1  0.126660  0.418400  0.379100  1.0  -0.1522
  C  C465  1  0.124450  0.447020  0.340100  1.0  -0.0791
  C  C466  1  0.109020  0.474780  0.357200  1.0  -0.111
  C  C467  1  0.095530  0.475230  0.412200  1.0  0.0505
  C  C468  1  0.097860  0.446500  0.451500  1.0  -0.152
  C  C469  1  0.112710  0.418030  0.434700  1.0  -0.0504
  C  C470  1  0.078080  0.504230  0.430500  1.0  0.0311
  C  C471  1  0.039560  0.485840  0.463900  1.0  -0.1235
  C  C472  1  0.211300  0.622600  0.366100  1.0  0.107
  C  C473  1  0.190400  0.572500  0.460500  1.0  -0.0013
  C  C474  1  0.809340  0.720410  0.695430  1.0  0.7047
  C  C475  1  0.793330  0.751730  0.712430  1.0  -0.1522
  C  C476  1  0.791120  0.780350  0.673430  1.0  -0.0791
  C  C477  1  0.775690  0.808110  0.690530  1.0  -0.111
  C  C478  1  0.762200  0.808560  0.745530  1.0  0.0505
  C  C479  1  0.764530  0.779830  0.784830  1.0  -0.152
  C  C480  1  0.779380  0.751360  0.768030  1.0  -0.0504
  C  C481  1  0.744750  0.837560  0.763830  1.0  0.0311
  C  C482  1  0.706230  0.819170  0.797230  1.0  -0.1235
  C  C483  1  0.877970  0.955930  0.699430  1.0  0.1097
  C  C484  1  0.857070  0.905830  0.793830  1.0  -0.0015
  C  C485  1  0.476000  0.053750  0.028770  1.0  0.7052
  C  C486  1  0.459990  0.085070  0.045770  1.0  -0.1522
  C  C487  1  0.457780  0.113690  0.006770  1.0  -0.0791
  C  C488  1  0.442350  0.141450  0.023870  1.0  -0.111
  C  C489  1  0.428860  0.141900  0.078870  1.0  0.0505
  C  C490  1  0.431190  0.113170  0.118170  1.0  -0.152
  C  C491  1  0.446040  0.084700  0.101370  1.0  -0.0504
  C  C492  1  0.411410  0.170900  0.097170  1.0  0.0311
  C  C493  1  0.372890  0.152510  0.130570  1.0  -0.1235
  C  C494  1  0.544630  0.289270  0.032770  1.0  0.107
  C  C495  1  0.523730  0.239170  0.127170  1.0  -0.0013
  C  C496  1  0.755590  0.612920  0.637900  1.0  0.7051
  C  C497  1  0.708260  0.581600  0.620900  1.0  -0.1526
  C  C498  1  0.677430  0.552980  0.659900  1.0  -0.0771
  C  C499  1  0.634240  0.525220  0.642800  1.0  -0.108
  C  C500  1  0.620300  0.524770  0.587800  1.0  0.051
  C  C501  1  0.651360  0.553500  0.548500  1.0  -0.1495
  C  C502  1  0.694680  0.581970  0.565300  1.0  -0.052
  C  C503  1  0.573850  0.495770  0.569500  1.0  0.0315
  C  C504  1  0.553720  0.514160  0.536100  1.0  -0.1199
  C  C505  1  0.588700  0.377400  0.633900  1.0  0.1092
  C  C506  1  0.617900  0.427500  0.539500  1.0  -0.001
  C  C507  1  0.422260  0.946250  0.971230  1.0  0.7052
  C  C508  1  0.374930  0.914930  0.954230  1.0  -0.1526
  C  C509  1  0.344100  0.886310  0.993230  1.0  -0.0771
  C  C510  1  0.300910  0.858550  0.976130  1.0  -0.1081
  C  C511  1  0.286970  0.858100  0.921130  1.0  0.051
  C  C512  1  0.318030  0.886830  0.881830  1.0  -0.1495
  C  C513  1  0.361350  0.915300  0.898630  1.0  -0.052
  C  C514  1  0.240520  0.829100  0.902830  1.0  0.0315
  C  C515  1  0.220390  0.847490  0.869430  1.0  -0.1199
  C  C516  1  0.255370  0.710730  0.967230  1.0  0.1092
  C  C517  1  0.284570  0.760830  0.872830  1.0  -0.001
  C  C518  1  0.088920  0.279590  0.304570  1.0  0.7051
  C  C519  1  0.041590  0.248270  0.287570  1.0  -0.1526
  C  C520  1  0.010760  0.219650  0.326570  1.0  -0.0771
  C  C521  1  0.967570  0.191890  0.309470  1.0  -0.108
  C  C522  1  0.953630  0.191440  0.254470  1.0  0.051
  C  C523  1  0.984690  0.220170  0.215170  1.0  -0.1495
  C  C524  1  0.028010  0.248640  0.231970  1.0  -0.052
  C  C525  1  0.907180  0.162440  0.236170  1.0  0.0315
  C  C526  1  0.887050  0.180830  0.202770  1.0  -0.1199
  C  C527  1  0.922030  0.044070  0.300570  1.0  0.1037
  C  C528  1  0.951230  0.094170  0.206170  1.0  1e-04
  C  C529  1  0.857330  0.244410  0.637900  1.0  0.7062
  C  C530  1  0.873340  0.291740  0.620900  1.0  -0.1504
  C  C531  1  0.875550  0.322570  0.659900  1.0  -0.0782
  C  C532  1  0.890980  0.365760  0.642800  1.0  -0.1097
  C  C533  1  0.904470  0.379700  0.587800  1.0  0.0504
  C  C534  1  0.902140  0.348640  0.548500  1.0  -0.1488
  C  C535  1  0.887290  0.305320  0.565300  1.0  -0.0507
  C  C536  1  0.921920  0.426150  0.569500  1.0  0.0304
  C  C537  1  0.960440  0.446280  0.536100  1.0  -0.124
  C  C538  1  0.788700  0.411300  0.633900  1.0  0.1105
  C  C539  1  0.809600  0.382100  0.539500  1.0  -0.0024
  C  C540  1  0.524000  0.577740  0.971230  1.0  0.706
  C  C541  1  0.540010  0.625070  0.954230  1.0  -0.1504
  C  C542  1  0.542220  0.655900  0.993230  1.0  -0.0782
  C  C543  1  0.557650  0.699090  0.976130  1.0  -0.1098
  C  C544  1  0.571140  0.713030  0.921130  1.0  0.0504
  C  C545  1  0.568810  0.681970  0.881830  1.0  -0.1488
  C  C546  1  0.553960  0.638650  0.898630  1.0  -0.0507
  C  C547  1  0.588590  0.759480  0.902830  1.0  0.0304
  C  C548  1  0.627110  0.779610  0.869430  1.0  -0.124
  C  C549  1  0.455370  0.744630  0.967230  1.0  0.1105
  C  C550  1  0.476270  0.715430  0.872830  1.0  -0.0024
  C  C551  1  0.190660  0.911080  0.304570  1.0  0.7062
  C  C552  1  0.206670  0.958410  0.287570  1.0  -0.1504
  C  C553  1  0.208880  0.989240  0.326570  1.0  -0.0782
  C  C554  1  0.224310  0.032430  0.309470  1.0  -0.1097
  C  C555  1  0.237800  0.046370  0.254470  1.0  0.0504
  C  C556  1  0.235470  0.015310  0.215170  1.0  -0.1488
  C  C557  1  0.220620  0.971990  0.231970  1.0  -0.0507
  C  C558  1  0.255250  0.092820  0.236170  1.0  0.0304
  C  C559  1  0.293770  0.112950  0.202770  1.0  -0.124
  C  C560  1  0.122030  0.077970  0.300570  1.0  0.108
  C  C561  1  0.142930  0.048770  0.206170  1.0  -0.0023
  C  C562  1  0.387080  0.142670  0.637900  1.0  0.7046
  C  C563  1  0.418400  0.126660  0.620900  1.0  -0.1528
  C  C564  1  0.447020  0.124450  0.659900  1.0  -0.0778
  C  C565  1  0.474780  0.109020  0.642800  1.0  -0.108
  C  C566  1  0.475230  0.095530  0.587800  1.0  0.0492
  C  C567  1  0.446500  0.097860  0.548500  1.0  -0.1467
  C  C568  1  0.418030  0.112710  0.565300  1.0  -0.0485
  C  C569  1  0.504230  0.078080  0.569500  1.0  0.0315
  C  C570  1  0.485840  0.039560  0.536100  1.0  -0.1246
  C  C571  1  0.622600  0.211300  0.633900  1.0  0.1059
  C  C572  1  0.572500  0.190400  0.539500  1.0  -0.0004
  C  C573  1  0.053750  0.476000  0.971230  1.0  0.7051
  C  C574  1  0.085070  0.459990  0.954230  1.0  -0.1528
  C  C575  1  0.113690  0.457780  0.993230  1.0  -0.0778
  C  C576  1  0.141450  0.442350  0.976130  1.0  -0.108
  C  C577  1  0.141900  0.428860  0.921130  1.0  0.0492
  C  C578  1  0.113170  0.431190  0.881830  1.0  -0.1467
  C  C579  1  0.084700  0.446040  0.898630  1.0  -0.0485
  C  C580  1  0.170900  0.411410  0.902830  1.0  0.0315
  C  C581  1  0.152510  0.372890  0.869430  1.0  -0.1246
  C  C582  1  0.289270  0.544630  0.967230  1.0  0.1059
  C  C583  1  0.239170  0.523730  0.872830  1.0  -0.0004
  C  C584  1  0.720410  0.809340  0.304570  1.0  0.7046
  C  C585  1  0.751730  0.793330  0.287570  1.0  -0.1528
  C  C586  1  0.780350  0.791120  0.326570  1.0  -0.0778
  C  C587  1  0.808110  0.775690  0.309470  1.0  -0.108
  C  C588  1  0.808560  0.762200  0.254470  1.0  0.0492
  C  C589  1  0.779830  0.764530  0.215170  1.0  -0.1467
  C  C590  1  0.751360  0.779380  0.231970  1.0  -0.0485
  C  C591  1  0.837560  0.744750  0.236170  1.0  0.0315
  C  C592  1  0.819170  0.706230  0.202770  1.0  -0.1246
  C  C593  1  0.955930  0.877970  0.300570  1.0  0.112
  C  C594  1  0.905830  0.857070  0.206170  1.0  -0.0015
  C  C595  1  0.510010  0.489990  0.519500  1.0  -0.0635
  C  C596  1  0.548050  0.451950  0.585700  1.0  0.1946
  C  C597  1  0.588430  0.411570  0.591900  1.0  0.0961
  C  C598  1  0.176680  0.823320  0.852830  1.0  -0.0635
  C  C599  1  0.214720  0.785280  0.919030  1.0  0.1946
  C  C600  1  0.255100  0.744900  0.925230  1.0  0.0961
  C  C601  1  0.843340  0.156660  0.186170  1.0  -0.0635
  C  C602  1  0.881380  0.118620  0.252370  1.0  0.1946
  C  C603  1  0.921760  0.078240  0.258570  1.0  0.0961
  C  C604  1  0.510010  0.020020  0.519500  1.0  -0.0616
  C  C605  1  0.548050  0.096100  0.585700  1.0  0.1948
  C  C606  1  0.588430  0.176860  0.591900  1.0  0.0971
  C  C607  1  0.176680  0.353350  0.852830  1.0  -0.0616
  C  C608  1  0.214720  0.429430  0.919030  1.0  0.1948
  C  C609  1  0.255100  0.510190  0.925230  1.0  0.0971
  C  C610  1  0.843340  0.686690  0.186170  1.0  -0.0616
  C  C611  1  0.881380  0.762770  0.252370  1.0  0.1948
  C  C612  1  0.921760  0.843530  0.258570  1.0  0.0971
  C  C613  1  0.979980  0.489990  0.519500  1.0  -0.0634
  C  C614  1  0.903900  0.451950  0.585700  1.0  0.1945
  C  C615  1  0.823140  0.411570  0.591900  1.0  0.096
  C  C616  1  0.646650  0.823320  0.852830  1.0  -0.0634
  C  C617  1  0.570570  0.785280  0.919030  1.0  0.1945
  C  C618  1  0.489810  0.744900  0.925230  1.0  0.096
  C  C619  1  0.313310  0.156660  0.186170  1.0  -0.0634
  C  C620  1  0.237230  0.118620  0.252370  1.0  0.1945
  C  C621  1  0.156470  0.078240  0.258570  1.0  0.096
  C  C622  1  0.489990  0.510010  0.480500  1.0  -0.0637
  C  C623  1  0.451950  0.548050  0.414300  1.0  0.1954
  C  C624  1  0.411570  0.588430  0.408100  1.0  0.0958
  C  C625  1  0.156660  0.843340  0.813830  1.0  -0.0637
  C  C626  1  0.118620  0.881380  0.747630  1.0  0.1954
  C  C627  1  0.078240  0.921760  0.741430  1.0  0.0958
  C  C628  1  0.823320  0.176680  0.147170  1.0  -0.0637
  C  C629  1  0.785280  0.214720  0.080970  1.0  0.1954
  C  C630  1  0.744900  0.255100  0.074770  1.0  0.0958
  C  C631  1  0.020020  0.510010  0.480500  1.0  -0.0636
  C  C632  1  0.096100  0.548050  0.414300  1.0  0.1955
  C  C633  1  0.176860  0.588430  0.408100  1.0  0.0961
  C  C634  1  0.686690  0.843340  0.813830  1.0  -0.0636
  C  C635  1  0.762770  0.881380  0.747630  1.0  0.1955
  C  C636  1  0.843530  0.921760  0.741430  1.0  0.0961
  C  C637  1  0.353350  0.176680  0.147170  1.0  -0.0636
  C  C638  1  0.429430  0.214720  0.080970  1.0  0.1955
  C  C639  1  0.510190  0.255100  0.074770  1.0  0.0961
  C  C640  1  0.489990  0.979980  0.480500  1.0  -0.0607
  C  C641  1  0.451950  0.903900  0.414300  1.0  0.1956
  C  C642  1  0.411570  0.823140  0.408100  1.0  0.0954
  C  C643  1  0.156660  0.313310  0.813830  1.0  -0.0607
  C  C644  1  0.118620  0.237230  0.747630  1.0  0.1956
  C  C645  1  0.078240  0.156470  0.741430  1.0  0.0954
  C  C646  1  0.823320  0.646650  0.147170  1.0  -0.0607
  C  C647  1  0.785280  0.570570  0.080970  1.0  0.1956
  C  C648  1  0.744900  0.489810  0.074770  1.0  0.0954
  O  O649  1  0.361020  0.219710  0.600530  1.0  -0.5768
  O  O650  1  0.390450  0.234570  0.687760  1.0  -0.5709
  O  O651  1  0.027690  0.553040  0.933860  1.0  -0.5768
  O  O652  1  0.057120  0.567900  0.021090  1.0  -0.571
  O  O653  1  0.694350  0.886380  0.267200  1.0  -0.5762
  O  O654  1  0.723780  0.901240  0.354430  1.0  -0.573
  O  O655  1  0.780290  0.141310  0.600530  1.0  -0.5758
  O  O656  1  0.765430  0.155880  0.687760  1.0  -0.5747
  O  O657  1  0.446960  0.474640  0.933860  1.0  -0.5759
  O  O658  1  0.432100  0.489210  0.021090  1.0  -0.5745
  O  O659  1  0.113620  0.807980  0.267200  1.0  -0.5758
  O  O660  1  0.098760  0.822550  0.354430  1.0  -0.5747
  O  O661  1  0.858690  0.638980  0.600530  1.0  -0.5761
  O  O662  1  0.844120  0.609550  0.687760  1.0  -0.5749
  O  O663  1  0.525360  0.972310  0.933860  1.0  -0.5767
  O  O664  1  0.510790  0.942880  0.021090  1.0  -0.5751
  O  O665  1  0.192020  0.305650  0.267200  1.0  -0.5769
  O  O666  1  0.177450  0.276220  0.354430  1.0  -0.5729
  O  O667  1  0.219710  0.361020  0.399470  1.0  -0.5753
  O  O668  1  0.234570  0.390450  0.312240  1.0  -0.5727
  O  O669  1  0.886380  0.694350  0.732800  1.0  -0.575
  O  O670  1  0.901240  0.723780  0.645570  1.0  -0.5745
  O  O671  1  0.553040  0.027690  0.066140  1.0  -0.5753
  O  O672  1  0.567900  0.057120  0.978910  1.0  -0.5728
  O  O673  1  0.141310  0.780290  0.399470  1.0  -0.5748
  O  O674  1  0.155880  0.765430  0.312240  1.0  -0.5725
  O  O675  1  0.807980  0.113620  0.732800  1.0  -0.5748
  O  O676  1  0.822550  0.098760  0.645570  1.0  -0.5725
  O  O677  1  0.474640  0.446960  0.066140  1.0  -0.5749
  O  O678  1  0.489210  0.432100  0.978910  1.0  -0.5723
  O  O679  1  0.638980  0.858690  0.399470  1.0  -0.5744
  O  O680  1  0.609550  0.844120  0.312240  1.0  -0.573
  O  O681  1  0.305650  0.192020  0.732800  1.0  -0.5746
  O  O682  1  0.276220  0.177450  0.645570  1.0  -0.5725
  O  O683  1  0.972310  0.525360  0.066140  1.0  -0.5752
  O  O684  1  0.942880  0.510790  0.978910  1.0  -0.5732
  O  O685  1  0.638980  0.780290  0.399470  1.0  -0.5745
  O  O686  1  0.609550  0.765430  0.312240  1.0  -0.5718
  O  O687  1  0.305650  0.113620  0.732800  1.0  -0.5741
  O  O688  1  0.276220  0.098760  0.645570  1.0  -0.573
  O  O689  1  0.972310  0.446960  0.066140  1.0  -0.5745
  O  O690  1  0.942880  0.432100  0.978910  1.0  -0.5719
  O  O691  1  0.219710  0.858690  0.399470  1.0  -0.5738
  O  O692  1  0.234570  0.844120  0.312240  1.0  -0.5723
  O  O693  1  0.886380  0.192020  0.732800  1.0  -0.5738
  O  O694  1  0.901240  0.177450  0.645570  1.0  -0.5723
  O  O695  1  0.553040  0.525360  0.066140  1.0  -0.5739
  O  O696  1  0.567900  0.510790  0.978910  1.0  -0.5721
  O  O697  1  0.141310  0.361020  0.399470  1.0  -0.5747
  O  O698  1  0.155880  0.390450  0.312240  1.0  -0.5738
  O  O699  1  0.807980  0.694350  0.732800  1.0  -0.5752
  O  O700  1  0.822550  0.723780  0.645570  1.0  -0.5724
  O  O701  1  0.474640  0.027690  0.066140  1.0  -0.5754
  O  O702  1  0.489210  0.057120  0.978910  1.0  -0.574
  O  O703  1  0.780290  0.638980  0.600530  1.0  -0.5762
  O  O704  1  0.765430  0.609550  0.687760  1.0  -0.5723
  O  O705  1  0.446960  0.972310  0.933860  1.0  -0.5762
  O  O706  1  0.432100  0.942880  0.021090  1.0  -0.5724
  O  O707  1  0.113620  0.305650  0.267200  1.0  -0.5758
  O  O708  1  0.098760  0.276220  0.354430  1.0  -0.5747
  O  O709  1  0.858690  0.219710  0.600530  1.0  -0.5754
  O  O710  1  0.844120  0.234570  0.687760  1.0  -0.5739
  O  O711  1  0.525360  0.553040  0.933860  1.0  -0.5754
  O  O712  1  0.510790  0.567900  0.021090  1.0  -0.5737
  O  O713  1  0.192020  0.886380  0.267200  1.0  -0.5754
  O  O714  1  0.177450  0.901240  0.354430  1.0  -0.5739
  O  O715  1  0.361020  0.141310  0.600530  1.0  -0.5757
  O  O716  1  0.390450  0.155880  0.687760  1.0  -0.573
  O  O717  1  0.027690  0.474640  0.933860  1.0  -0.5763
  O  O718  1  0.057120  0.489210  0.021090  1.0  -0.5731
  O  O719  1  0.694350  0.807980  0.267200  1.0  -0.5762
  O  O720  1  0.723780  0.822550  0.354430  1.0  -0.5715
  O  O721  1  0.567190  0.432810  0.619800  1.0  -0.2971
  O  O722  1  0.233860  0.766140  0.953130  1.0  -0.2971
  O  O723  1  0.900520  0.099480  0.286470  1.0  -0.2971
  O  O724  1  0.567190  0.134380  0.619800  1.0  -0.2978
  O  O725  1  0.233860  0.467710  0.953130  1.0  -0.2978
  O  O726  1  0.900520  0.801050  0.286470  1.0  -0.2978
  O  O727  1  0.865620  0.432810  0.619800  1.0  -0.297
  O  O728  1  0.532290  0.766140  0.953130  1.0  -0.297
  O  O729  1  0.198950  0.099480  0.286470  1.0  -0.297
  O  O730  1  0.432810  0.567190  0.380200  1.0  -0.2955
  O  O731  1  0.099480  0.900520  0.713530  1.0  -0.2955
  O  O732  1  0.766140  0.233860  0.046870  1.0  -0.2955
  O  O733  1  0.134380  0.567190  0.380200  1.0  -0.2961
  O  O734  1  0.801050  0.900520  0.713530  1.0  -0.2961
  O  O735  1  0.467710  0.233860  0.046870  1.0  -0.2961
  O  O736  1  0.432810  0.865620  0.380200  1.0  -0.2972
  O  O737  1  0.099480  0.198950  0.713530  1.0  -0.2972
  O  O738  1  0.766140  0.532290  0.046870  1.0  -0.2972
