# generated using pymatgen
data_CuH10(C5O)5
_symmetry_space_group_name_H-M   'P 1'
_cell_length_a   35.57350000
_cell_length_b   35.57350000
_cell_length_c   18.28200000
_cell_angle_alpha   90.00000000
_cell_angle_beta   90.00000000
_cell_angle_gamma   120.00000000
_symmetry_Int_Tables_number   1
_chemical_formula_structural   CuH10(C5O)5
_chemical_formula_sum   'Cu18 H180 C450 O90'
_cell_volume   20035.83882745
_cell_formula_units_Z   18
loop_
 _symmetry_equiv_pos_site_id
 _symmetry_equiv_pos_as_xyz
  1  'x, y, z'
loop_
 _atom_site_type_symbol
 _atom_site_label
 _atom_site_symmetry_multiplicity
 _atom_site_fract_x
 _atom_site_fract_y
 _atom_site_fract_z
 _atom_site_occupancy
 _atom_site_charge
  Cu  Cu1  1  0.506540  0.493460  0.431520  1.0  0.8964
  Cu  Cu2  1  0.173210  0.826790  0.764850  1.0  0.8964
  Cu  Cu3  1  0.839870  0.160130  0.098190  1.0  0.8964
  Cu  Cu4  1  0.506540  0.013080  0.431520  1.0  0.896
  Cu  Cu5  1  0.173210  0.346410  0.764850  1.0  0.896
  Cu  Cu6  1  0.839870  0.679750  0.098190  1.0  0.896
  Cu  Cu7  1  0.986920  0.493460  0.431520  1.0  0.8974
  Cu  Cu8  1  0.653590  0.826790  0.764850  1.0  0.8974
  Cu  Cu9  1  0.320250  0.160130  0.098190  1.0  0.8974
  Cu  Cu10  1  0.493460  0.506540  0.568480  1.0  0.8957
  Cu  Cu11  1  0.160130  0.839870  0.901810  1.0  0.8957
  Cu  Cu12  1  0.826790  0.173210  0.235150  1.0  0.8957
  Cu  Cu13  1  0.013080  0.506540  0.568480  1.0  0.8971
  Cu  Cu14  1  0.679750  0.839870  0.901810  1.0  0.8971
  Cu  Cu15  1  0.346410  0.173210  0.235150  1.0  0.8971
  Cu  Cu16  1  0.493460  0.986920  0.568480  1.0  0.8959
  Cu  Cu17  1  0.160130  0.320250  0.901810  1.0  0.8959
  Cu  Cu18  1  0.826790  0.653590  0.235150  1.0  0.8959
  H  H19  1  0.472400  0.358200  0.444800  1.0  0.109
  H  H20  1  0.450900  0.286000  0.475400  1.0  0.1031
  H  H21  1  0.427700  0.307400  0.681300  1.0  0.1228
  H  H22  1  0.451900  0.379900  0.651600  1.0  0.1067
  H  H23  1  0.362900  0.237800  0.642700  1.0  0.1088
  H  H24  1  0.139070  0.691530  0.778130  1.0  0.109
  H  H25  1  0.117570  0.619330  0.808730  1.0  0.1031
  H  H26  1  0.094370  0.640730  0.014630  1.0  0.1228
  H  H27  1  0.118570  0.713230  0.984930  1.0  0.1067
  H  H28  1  0.029570  0.571130  0.976030  1.0  0.1088
  H  H29  1  0.805730  0.024870  0.111470  1.0  0.1092
  H  H30  1  0.784230  0.952670  0.142070  1.0  0.1001
  H  H31  1  0.761030  0.974070  0.347970  1.0  0.1228
  H  H32  1  0.785230  0.046570  0.318270  1.0  0.1067
  H  H33  1  0.696230  0.904470  0.309370  1.0  0.1088
  H  H34  1  0.641800  0.114200  0.444800  1.0  0.109
  H  H35  1  0.714000  0.164900  0.475400  1.0  0.0997
  H  H36  1  0.692600  0.120300  0.681300  1.0  0.1237
  H  H37  1  0.620100  0.072000  0.651600  1.0  0.1067
  H  H38  1  0.762200  0.125100  0.642700  1.0  0.1107
  H  H39  1  0.308470  0.447530  0.778130  1.0  0.109
  H  H40  1  0.380670  0.498230  0.808730  1.0  0.0997
  H  H41  1  0.359270  0.453630  0.014630  1.0  0.1238
  H  H42  1  0.286770  0.405330  0.984930  1.0  0.1068
  H  H43  1  0.428870  0.458430  0.976030  1.0  0.1107
  H  H44  1  0.975130  0.780870  0.111470  1.0  0.1085
  H  H45  1  0.047330  0.831570  0.142070  1.0  0.0997
  H  H46  1  0.025930  0.786970  0.347970  1.0  0.1237
  H  H47  1  0.953430  0.738670  0.318270  1.0  0.1053
  H  H48  1  0.095530  0.791770  0.309370  1.0  0.1107
  H  H49  1  0.885800  0.527600  0.444800  1.0  0.108
  H  H50  1  0.835100  0.549100  0.475400  1.0  0.1012
  H  H51  1  0.879700  0.572300  0.681300  1.0  0.1228
  H  H52  1  0.928000  0.548100  0.651600  1.0  0.1056
  H  H53  1  0.874900  0.637100  0.642700  1.0  0.1092
  H  H54  1  0.552470  0.860930  0.778130  1.0  0.108
  H  H55  1  0.501770  0.882430  0.808730  1.0  0.1012
  H  H56  1  0.546370  0.905630  0.014630  1.0  0.1228
  H  H57  1  0.594670  0.881430  0.984930  1.0  0.1056
  H  H58  1  0.541570  0.970430  0.976030  1.0  0.1091
  H  H59  1  0.219130  0.194270  0.111470  1.0  0.1086
  H  H60  1  0.168430  0.215770  0.142070  1.0  0.1038
  H  H61  1  0.213030  0.238970  0.347970  1.0  0.1228
  H  H62  1  0.261330  0.214770  0.318270  1.0  0.107
  H  H63  1  0.208230  0.303770  0.309370  1.0  0.1092
  H  H64  1  0.358200  0.472400  0.555200  1.0  0.1083
  H  H65  1  0.286000  0.450900  0.524600  1.0  0.1041
  H  H66  1  0.307400  0.427700  0.318700  1.0  0.1236
  H  H67  1  0.379900  0.451900  0.348400  1.0  0.1071
  H  H68  1  0.237800  0.362900  0.357300  1.0  0.1098
  H  H69  1  0.024870  0.805730  0.888530  1.0  0.1083
  H  H70  1  0.952670  0.784230  0.857930  1.0  0.1011
  H  H71  1  0.974070  0.761030  0.652030  1.0  0.1236
  H  H72  1  0.046570  0.785230  0.681730  1.0  0.1071
  H  H73  1  0.904470  0.696230  0.690630  1.0  0.1098
  H  H74  1  0.691530  0.139070  0.221870  1.0  0.1083
  H  H75  1  0.619330  0.117570  0.191270  1.0  0.1041
  H  H76  1  0.640730  0.094370  0.985370  1.0  0.1236
  H  H77  1  0.713230  0.118570  0.015070  1.0  0.1072
  H  H78  1  0.571130  0.029570  0.023970  1.0  0.1098
  H  H79  1  0.114200  0.641800  0.555200  1.0  0.1088
  H  H80  1  0.164900  0.714000  0.524600  1.0  0.0998
  H  H81  1  0.120300  0.692600  0.318700  1.0  0.1236
  H  H82  1  0.072000  0.620100  0.348400  1.0  0.1065
  H  H83  1  0.125100  0.762200  0.357300  1.0  0.1089
  H  H84  1  0.780870  0.975130  0.888530  1.0  0.1087
  H  H85  1  0.831570  0.047330  0.857930  1.0  0.0998
  H  H86  1  0.786970  0.025930  0.652030  1.0  0.1236
  H  H87  1  0.738670  0.953430  0.681730  1.0  0.1049
  H  H88  1  0.791770  0.095530  0.690630  1.0  0.1089
  H  H89  1  0.447530  0.308470  0.221870  1.0  0.1088
  H  H90  1  0.498230  0.380670  0.191270  1.0  0.0998
  H  H91  1  0.453630  0.359270  0.985370  1.0  0.1236
  H  H92  1  0.405330  0.286770  0.015070  1.0  0.1066
  H  H93  1  0.458430  0.428870  0.023970  1.0  0.109
  H  H94  1  0.527600  0.885800  0.555200  1.0  0.1089
  H  H95  1  0.549100  0.835100  0.524600  1.0  0.0997
  H  H96  1  0.572300  0.879700  0.318700  1.0  0.1237
  H  H97  1  0.548100  0.928000  0.348400  1.0  0.1051
  H  H98  1  0.637100  0.874900  0.357300  1.0  0.1105
  H  H99  1  0.194270  0.219130  0.888530  1.0  0.1092
  H  H100  1  0.215770  0.168430  0.857930  1.0  0.103
  H  H101  1  0.238970  0.213030  0.652030  1.0  0.1237
  H  H102  1  0.214770  0.261330  0.681730  1.0  0.1068
  H  H103  1  0.303770  0.208230  0.690630  1.0  0.1105
  H  H104  1  0.860930  0.552470  0.221870  1.0  0.1089
  H  H105  1  0.882430  0.501770  0.191270  1.0  0.0997
  H  H106  1  0.905630  0.546370  0.985370  1.0  0.1237
  H  H107  1  0.881430  0.594670  0.015070  1.0  0.1051
  H  H108  1  0.970430  0.541570  0.023970  1.0  0.1104
  H  H109  1  0.527600  0.641800  0.555200  1.0  0.1088
  H  H110  1  0.549100  0.714000  0.524600  1.0  0.1033
  H  H111  1  0.572300  0.692600  0.318700  1.0  0.1238
  H  H112  1  0.548100  0.620100  0.348400  1.0  0.1067
  H  H113  1  0.637100  0.762200  0.357300  1.0  0.1089
  H  H114  1  0.194270  0.975130  0.888530  1.0  0.1088
  H  H115  1  0.215770  0.047330  0.857930  1.0  0.1002
  H  H116  1  0.238970  0.025930  0.652030  1.0  0.1238
  H  H117  1  0.214770  0.953430  0.681730  1.0  0.1067
  H  H118  1  0.303770  0.095530  0.690630  1.0  0.1089
  H  H119  1  0.860930  0.308470  0.221870  1.0  0.1088
  H  H120  1  0.882430  0.380670  0.191270  1.0  0.1033
  H  H121  1  0.905630  0.359270  0.985370  1.0  0.1238
  H  H122  1  0.881430  0.286770  0.015070  1.0  0.1068
  H  H123  1  0.970430  0.428870  0.023970  1.0  0.1089
  H  H124  1  0.358200  0.885800  0.555200  1.0  0.109
  H  H125  1  0.286000  0.835100  0.524600  1.0  0.1001
  H  H126  1  0.307400  0.879700  0.318700  1.0  0.1238
  H  H127  1  0.379900  0.928000  0.348400  1.0  0.1069
  H  H128  1  0.237800  0.874900  0.357300  1.0  0.1105
  H  H129  1  0.024870  0.219130  0.888530  1.0  0.1089
  H  H130  1  0.952670  0.168430  0.857930  1.0  0.1001
  H  H131  1  0.974070  0.213030  0.652030  1.0  0.1238
  H  H132  1  0.046570  0.261330  0.681730  1.0  0.1055
  H  H133  1  0.904470  0.208230  0.690630  1.0  0.1105
  H  H134  1  0.691530  0.552470  0.221870  1.0  0.109
  H  H135  1  0.619330  0.501770  0.191270  1.0  0.1001
  H  H136  1  0.640730  0.546370  0.985370  1.0  0.1238
  H  H137  1  0.713230  0.594670  0.015070  1.0  0.107
  H  H138  1  0.571130  0.541570  0.023970  1.0  0.1104
  H  H139  1  0.114200  0.472400  0.555200  1.0  0.108
  H  H140  1  0.164900  0.450900  0.524600  1.0  0.1004
  H  H141  1  0.120300  0.427700  0.318700  1.0  0.1237
  H  H142  1  0.072000  0.451900  0.348400  1.0  0.1054
  H  H143  1  0.125100  0.362900  0.357300  1.0  0.1088
  H  H144  1  0.780870  0.805730  0.888530  1.0  0.1082
  H  H145  1  0.831570  0.784230  0.857930  1.0  0.1038
  H  H146  1  0.786970  0.761030  0.652030  1.0  0.1237
  H  H147  1  0.738670  0.785230  0.681730  1.0  0.107
  H  H148  1  0.791770  0.696230  0.690630  1.0  0.1088
  H  H149  1  0.447530  0.139070  0.221870  1.0  0.108
  H  H150  1  0.498230  0.117570  0.191270  1.0  0.1004
  H  H151  1  0.453630  0.094370  0.985370  1.0  0.1237
  H  H152  1  0.405330  0.118570  0.015070  1.0  0.1054
  H  H153  1  0.458430  0.029570  0.023970  1.0  0.1087
  H  H154  1  0.641800  0.527600  0.444800  1.0  0.1086
  H  H155  1  0.714000  0.549100  0.475400  1.0  0.1036
  H  H156  1  0.692600  0.572300  0.681300  1.0  0.1234
  H  H157  1  0.620100  0.548100  0.651600  1.0  0.1069
  H  H158  1  0.762200  0.637100  0.642700  1.0  0.1089
  H  H159  1  0.308470  0.860930  0.778130  1.0  0.1086
  H  H160  1  0.380670  0.882430  0.808730  1.0  0.1036
  H  H161  1  0.359270  0.905630  0.014630  1.0  0.1234
  H  H162  1  0.286770  0.881430  0.984930  1.0  0.107
  H  H163  1  0.428870  0.970430  0.976030  1.0  0.1089
  H  H164  1  0.975130  0.194270  0.111470  1.0  0.1088
  H  H165  1  0.047330  0.215770  0.142070  1.0  0.1002
  H  H166  1  0.025930  0.238970  0.347970  1.0  0.1234
  H  H167  1  0.953430  0.214770  0.318270  1.0  0.1069
  H  H168  1  0.095530  0.303770  0.309370  1.0  0.1089
  H  H169  1  0.885800  0.358200  0.444800  1.0  0.1087
  H  H170  1  0.835100  0.286000  0.475400  1.0  0.1002
  H  H171  1  0.879700  0.307400  0.681300  1.0  0.1228
  H  H172  1  0.928000  0.379900  0.651600  1.0  0.1066
  H  H173  1  0.874900  0.237800  0.642700  1.0  0.1088
  H  H174  1  0.552470  0.691530  0.778130  1.0  0.1087
  H  H175  1  0.501770  0.619330  0.808730  1.0  0.1002
  H  H176  1  0.546370  0.640730  0.014630  1.0  0.1229
  H  H177  1  0.594670  0.713230  0.984930  1.0  0.1067
  H  H178  1  0.541570  0.571130  0.976030  1.0  0.1088
  H  H179  1  0.219130  0.024870  0.111470  1.0  0.1085
  H  H180  1  0.168430  0.952670  0.142070  1.0  0.1002
  H  H181  1  0.213030  0.974070  0.347970  1.0  0.1228
  H  H182  1  0.261330  0.046570  0.318270  1.0  0.1054
  H  H183  1  0.208230  0.904470  0.309370  1.0  0.1088
  H  H184  1  0.472400  0.114200  0.444800  1.0  0.1087
  H  H185  1  0.450900  0.164900  0.475400  1.0  0.1
  H  H186  1  0.427700  0.120300  0.681300  1.0  0.1232
  H  H187  1  0.451900  0.072000  0.651600  1.0  0.1053
  H  H188  1  0.362900  0.125100  0.642700  1.0  0.1108
  H  H189  1  0.139070  0.447530  0.778130  1.0  0.1087
  H  H190  1  0.117570  0.498230  0.808730  1.0  0.1
  H  H191  1  0.094370  0.453630  0.014630  1.0  0.1232
  H  H192  1  0.118570  0.405330  0.984930  1.0  0.1053
  H  H193  1  0.029570  0.458430  0.976030  1.0  0.1106
  H  H194  1  0.805730  0.780870  0.111470  1.0  0.1093
  H  H195  1  0.784230  0.831570  0.142070  1.0  0.103
  H  H196  1  0.761030  0.786970  0.347970  1.0  0.1232
  H  H197  1  0.785230  0.738670  0.318270  1.0  0.1069
  H  H198  1  0.696230  0.791770  0.309370  1.0  0.1108
  C  C199  1  0.477830  0.422250  0.527100  1.0  0.6833
  C  C200  1  0.464360  0.376180  0.546240  1.0  -0.1148
  C  C201  1  0.463650  0.348190  0.493400  1.0  -0.0693
  C  C202  1  0.449930  0.304680  0.511500  1.0  -0.1467
  C  C203  1  0.435470  0.289270  0.578900  1.0  0.052
  C  C204  1  0.436680  0.317510  0.632700  1.0  -0.1931
  C  C205  1  0.451230  0.360730  0.614700  1.0  -0.0401
  C  C206  1  0.416150  0.242040  0.597000  1.0  -0.0399
  C  C207  1  0.376540  0.221450  0.631200  1.0  -0.1357
  C  C208  1  0.550200  0.255800  0.538500  1.0  0.0114
  C  C209  1  0.521100  0.278800  0.640100  1.0  0.1692
  C  C210  1  0.144500  0.755580  0.860430  1.0  0.6833
  C  C211  1  0.131030  0.709510  0.879570  1.0  -0.1148
  C  C212  1  0.130320  0.681520  0.826730  1.0  -0.0693
  C  C213  1  0.116600  0.638010  0.844830  1.0  -0.1467
  C  C214  1  0.102140  0.622600  0.912230  1.0  0.052
  C  C215  1  0.103350  0.650840  0.966030  1.0  -0.1931
  C  C216  1  0.117900  0.694060  0.948030  1.0  -0.0401
  C  C217  1  0.082820  0.575370  0.930330  1.0  -0.0399
  C  C218  1  0.043210  0.554780  0.964530  1.0  -0.1357
  C  C219  1  0.216870  0.589130  0.871830  1.0  0.0114
  C  C220  1  0.187770  0.612130  0.973430  1.0  0.1692
  C  C221  1  0.811160  0.088920  0.193770  1.0  0.6833
  C  C222  1  0.797690  0.042850  0.212910  1.0  -0.1149
  C  C223  1  0.796980  0.014860  0.160070  1.0  -0.0693
  C  C224  1  0.783260  0.971350  0.178170  1.0  -0.1467
  C  C225  1  0.768800  0.955940  0.245570  1.0  0.052
  C  C226  1  0.770010  0.984180  0.299370  1.0  -0.1931
  C  C227  1  0.784560  0.027400  0.281370  1.0  -0.0401
  C  C228  1  0.749480  0.908710  0.263670  1.0  -0.0399
  C  C229  1  0.709870  0.888120  0.297870  1.0  -0.1357
  C  C230  1  0.883530  0.922470  0.205170  1.0  0.0111
  C  C231  1  0.854430  0.945470  0.306770  1.0  0.1688
  C  C232  1  0.577750  0.055580  0.527100  1.0  0.6824
  C  C233  1  0.623820  0.088180  0.546240  1.0  -0.1151
  C  C234  1  0.651810  0.115460  0.493400  1.0  -0.0687
  C  C235  1  0.695320  0.145250  0.511500  1.0  -0.1464
  C  C236  1  0.710730  0.146200  0.578900  1.0  0.0515
  C  C237  1  0.682490  0.119170  0.632700  1.0  -0.1935
  C  C238  1  0.639270  0.090500  0.614700  1.0  -0.0396
  C  C239  1  0.757960  0.174110  0.597000  1.0  -0.0404
  C  C240  1  0.778550  0.155090  0.631200  1.0  -0.1343
  C  C241  1  0.744200  0.294400  0.538500  1.0  0.0023
  C  C242  1  0.721200  0.242300  0.640100  1.0  0.168
  C  C243  1  0.244420  0.388910  0.860430  1.0  0.6824
  C  C244  1  0.290490  0.421510  0.879570  1.0  -0.1151
  C  C245  1  0.318480  0.448790  0.826730  1.0  -0.0687
  C  C246  1  0.361990  0.478580  0.844830  1.0  -0.1464
  C  C247  1  0.377400  0.479530  0.912230  1.0  0.0515
  C  C248  1  0.349160  0.452500  0.966030  1.0  -0.1935
  C  C249  1  0.305940  0.423830  0.948030  1.0  -0.0396
  C  C250  1  0.424630  0.507440  0.930330  1.0  -0.0404
  C  C251  1  0.445220  0.488420  0.964530  1.0  -0.134
  C  C252  1  0.410870  0.627730  0.871830  1.0  0.0023
  C  C253  1  0.387870  0.575630  0.973430  1.0  0.168
  C  C254  1  0.911080  0.722250  0.193770  1.0  0.6824
  C  C255  1  0.957150  0.754850  0.212910  1.0  -0.1151
  C  C256  1  0.985140  0.782130  0.160070  1.0  -0.0687
  C  C257  1  0.028650  0.811920  0.178170  1.0  -0.1464
  C  C258  1  0.044060  0.812870  0.245570  1.0  0.0515
  C  C259  1  0.015820  0.785840  0.299370  1.0  -0.1935
  C  C260  1  0.972600  0.757170  0.281370  1.0  -0.0396
  C  C261  1  0.091290  0.840780  0.263670  1.0  -0.0404
  C  C262  1  0.111880  0.821760  0.297870  1.0  -0.1343
  C  C263  1  0.077530  0.961070  0.205170  1.0  0.0024
  C  C264  1  0.054530  0.908970  0.306770  1.0  0.1703
  C  C265  1  0.944420  0.522170  0.527100  1.0  0.6814
  C  C266  1  0.911820  0.535640  0.546240  1.0  -0.116
  C  C267  1  0.884540  0.536350  0.493400  1.0  -0.0688
  C  C268  1  0.854750  0.550070  0.511500  1.0  -0.1456
  C  C269  1  0.853800  0.564530  0.578900  1.0  0.0522
  C  C270  1  0.880830  0.563320  0.632700  1.0  -0.1929
  C  C271  1  0.909500  0.548770  0.614700  1.0  -0.0376
  C  C272  1  0.825890  0.583850  0.597000  1.0  -0.0384
  C  C273  1  0.844910  0.623460  0.631200  1.0  -0.1375
  C  C274  1  0.705600  0.449800  0.538500  1.0  0.0068
  C  C275  1  0.757700  0.478900  0.640100  1.0  0.1642
  C  C276  1  0.611090  0.855500  0.860430  1.0  0.6814
  C  C277  1  0.578490  0.868970  0.879570  1.0  -0.116
  C  C278  1  0.551210  0.869680  0.826730  1.0  -0.0688
  C  C279  1  0.521420  0.883400  0.844830  1.0  -0.1456
  C  C280  1  0.520470  0.897860  0.912230  1.0  0.0522
  C  C281  1  0.547500  0.896650  0.966030  1.0  -0.1929
  C  C282  1  0.576170  0.882100  0.948030  1.0  -0.0376
  C  C283  1  0.492560  0.917180  0.930330  1.0  -0.0384
  C  C284  1  0.511580  0.956790  0.964530  1.0  -0.1377
  C  C285  1  0.372270  0.783130  0.871830  1.0  0.0068
  C  C286  1  0.424370  0.812230  0.973430  1.0  0.1642
  C  C287  1  0.277750  0.188840  0.193770  1.0  0.6814
  C  C288  1  0.245150  0.202310  0.212910  1.0  -0.1161
  C  C289  1  0.217870  0.203020  0.160070  1.0  -0.0688
  C  C290  1  0.188080  0.216740  0.178170  1.0  -0.1456
  C  C291  1  0.187130  0.231200  0.245570  1.0  0.0522
  C  C292  1  0.214160  0.229990  0.299370  1.0  -0.1929
  C  C293  1  0.242830  0.215440  0.281370  1.0  -0.0376
  C  C294  1  0.159220  0.250520  0.263670  1.0  -0.0384
  C  C295  1  0.178240  0.290130  0.297870  1.0  -0.1375
  C  C296  1  0.038930  0.116470  0.205170  1.0  0.0088
  C  C297  1  0.091030  0.145570  0.306770  1.0  0.1679
  C  C298  1  0.422250  0.477830  0.472900  1.0  0.6815
  C  C299  1  0.376180  0.464360  0.453760  1.0  -0.1168
  C  C300  1  0.348190  0.463650  0.506600  1.0  -0.0698
  C  C301  1  0.304680  0.449930  0.488500  1.0  -0.145
  C  C302  1  0.289270  0.435470  0.421100  1.0  0.0514
  C  C303  1  0.317510  0.436680  0.367300  1.0  -0.1919
  C  C304  1  0.360730  0.451230  0.385300  1.0  -0.0387
  C  C305  1  0.242040  0.416150  0.403000  1.0  -0.0386
  C  C306  1  0.221450  0.376540  0.368800  1.0  -0.1372
  C  C307  1  0.255800  0.550200  0.461500  1.0  0.0076
  C  C308  1  0.278800  0.521100  0.359900  1.0  0.1669
  C  C309  1  0.088920  0.811160  0.806230  1.0  0.6815
  C  C310  1  0.042850  0.797690  0.787090  1.0  -0.117
  C  C311  1  0.014860  0.796980  0.839930  1.0  -0.0698
  C  C312  1  0.971350  0.783260  0.821830  1.0  -0.145
  C  C313  1  0.955940  0.768800  0.754430  1.0  0.0514
  C  C314  1  0.984180  0.770010  0.700630  1.0  -0.1919
  C  C315  1  0.027400  0.784560  0.718630  1.0  -0.0387
  C  C316  1  0.908710  0.749480  0.736330  1.0  -0.0386
  C  C317  1  0.888120  0.709870  0.702130  1.0  -0.1372
  C  C318  1  0.922470  0.883530  0.794830  1.0  0.008
  C  C319  1  0.945470  0.854430  0.693230  1.0  0.1635
  C  C320  1  0.755580  0.144500  0.139570  1.0  0.6815
  C  C321  1  0.709510  0.131030  0.120430  1.0  -0.1168
  C  C322  1  0.681520  0.130320  0.173270  1.0  -0.0698
  C  C323  1  0.638010  0.116600  0.155170  1.0  -0.145
  C  C324  1  0.622600  0.102140  0.087770  1.0  0.0514
  C  C325  1  0.650840  0.103350  0.033970  1.0  -0.1919
  C  C326  1  0.694060  0.117900  0.051970  1.0  -0.0387
  C  C327  1  0.575370  0.082820  0.069670  1.0  -0.0387
  C  C328  1  0.554780  0.043210  0.035470  1.0  -0.1372
  C  C329  1  0.589130  0.216870  0.128170  1.0  0.0076
  C  C330  1  0.612130  0.187770  0.026570  1.0  0.1669
  C  C331  1  0.055580  0.577750  0.472900  1.0  0.6828
  C  C332  1  0.088180  0.623820  0.453760  1.0  -0.1148
  C  C333  1  0.115460  0.651810  0.506600  1.0  -0.0697
  C  C334  1  0.145250  0.695320  0.488500  1.0  -0.1454
  C  C335  1  0.146200  0.710730  0.421100  1.0  0.0519
  C  C336  1  0.119170  0.682490  0.367300  1.0  -0.1916
  C  C337  1  0.090500  0.639270  0.385300  1.0  -0.0402
  C  C338  1  0.174110  0.757960  0.403000  1.0  -0.0402
  C  C339  1  0.155090  0.778550  0.368800  1.0  -0.1355
  C  C340  1  0.294400  0.744200  0.461500  1.0  0.0096
  C  C341  1  0.242300  0.721200  0.359900  1.0  0.1689
  C  C342  1  0.722250  0.911080  0.806230  1.0  0.6828
  C  C343  1  0.754850  0.957150  0.787090  1.0  -0.1148
  C  C344  1  0.782130  0.985140  0.839930  1.0  -0.0697
  C  C345  1  0.811920  0.028650  0.821830  1.0  -0.1454
  C  C346  1  0.812870  0.044060  0.754430  1.0  0.0519
  C  C347  1  0.785840  0.015820  0.700630  1.0  -0.1916
  C  C348  1  0.757170  0.972600  0.718630  1.0  -0.0402
  C  C349  1  0.840780  0.091290  0.736330  1.0  -0.0402
  C  C350  1  0.821760  0.111880  0.702130  1.0  -0.1355
  C  C351  1  0.961070  0.077530  0.794830  1.0  0.0105
  C  C352  1  0.908970  0.054530  0.693230  1.0  0.1694
  C  C353  1  0.388910  0.244420  0.139570  1.0  0.6828
  C  C354  1  0.421510  0.290490  0.120430  1.0  -0.1148
  C  C355  1  0.448790  0.318480  0.173270  1.0  -0.0697
  C  C356  1  0.478580  0.361990  0.155170  1.0  -0.1454
  C  C357  1  0.479530  0.377400  0.087770  1.0  0.0519
  C  C358  1  0.452500  0.349160  0.033970  1.0  -0.1916
  C  C359  1  0.423830  0.305940  0.051970  1.0  -0.0402
  C  C360  1  0.507440  0.424630  0.069670  1.0  -0.0401
  C  C361  1  0.488420  0.445220  0.035470  1.0  -0.1353
  C  C362  1  0.627730  0.410870  0.128170  1.0  0.0096
  C  C363  1  0.575630  0.387870  0.026570  1.0  0.1689
  C  C364  1  0.522170  0.944420  0.472900  1.0  0.6825
  C  C365  1  0.535640  0.911820  0.453760  1.0  -0.1156
  C  C366  1  0.536350  0.884540  0.506600  1.0  -0.0705
  C  C367  1  0.550070  0.854750  0.488500  1.0  -0.145
  C  C368  1  0.564530  0.853800  0.421100  1.0  0.0513
  C  C369  1  0.563320  0.880830  0.367300  1.0  -0.1928
  C  C370  1  0.548770  0.909500  0.385300  1.0  -0.0402
  C  C371  1  0.583850  0.825890  0.403000  1.0  -0.0399
  C  C372  1  0.623460  0.844910  0.368800  1.0  -0.1331
  C  C373  1  0.449800  0.705600  0.461500  1.0  -0.0003
  C  C374  1  0.478900  0.757700  0.359900  1.0  0.1667
  C  C375  1  0.188840  0.277750  0.806230  1.0  0.6825
  C  C376  1  0.202310  0.245150  0.787090  1.0  -0.1157
  C  C377  1  0.203020  0.217870  0.839930  1.0  -0.0705
  C  C378  1  0.216740  0.188080  0.821830  1.0  -0.145
  C  C379  1  0.231200  0.187130  0.754430  1.0  0.0513
  C  C380  1  0.229990  0.214160  0.700630  1.0  -0.1928
  C  C381  1  0.215440  0.242830  0.718630  1.0  -0.0402
  C  C382  1  0.250520  0.159220  0.736330  1.0  -0.0399
  C  C383  1  0.290130  0.178240  0.702130  1.0  -0.1331
  C  C384  1  0.116470  0.038930  0.794830  1.0  0.0012
  C  C385  1  0.145570  0.091030  0.693230  1.0  0.1696
  C  C386  1  0.855500  0.611090  0.139570  1.0  0.6825
  C  C387  1  0.868970  0.578490  0.120430  1.0  -0.1156
  C  C388  1  0.869680  0.551210  0.173270  1.0  -0.0705
  C  C389  1  0.883400  0.521420  0.155170  1.0  -0.145
  C  C390  1  0.897860  0.520470  0.087770  1.0  0.0513
  C  C391  1  0.896650  0.547500  0.033970  1.0  -0.1928
  C  C392  1  0.882100  0.576170  0.051970  1.0  -0.0402
  C  C393  1  0.917180  0.492560  0.069670  1.0  -0.0399
  C  C394  1  0.956790  0.511580  0.035470  1.0  -0.1333
  C  C395  1  0.783130  0.372270  0.128170  1.0  -0.0003
  C  C396  1  0.812230  0.424370  0.026570  1.0  0.1667
  C  C397  1  0.522170  0.577750  0.472900  1.0  0.6829
  C  C398  1  0.535640  0.623820  0.453760  1.0  -0.1144
  C  C399  1  0.536350  0.651810  0.506600  1.0  -0.0703
  C  C400  1  0.550070  0.695320  0.488500  1.0  -0.1462
  C  C401  1  0.564530  0.710730  0.421100  1.0  0.0523
  C  C402  1  0.563320  0.682490  0.367300  1.0  -0.1917
  C  C403  1  0.548770  0.639270  0.385300  1.0  -0.0406
  C  C404  1  0.583850  0.757960  0.403000  1.0  -0.0392
  C  C405  1  0.623460  0.778550  0.368800  1.0  -0.1371
  C  C406  1  0.449800  0.744200  0.461500  1.0  0.0105
  C  C407  1  0.478900  0.721200  0.359900  1.0  0.1677
  C  C408  1  0.188840  0.911080  0.806230  1.0  0.6829
  C  C409  1  0.202310  0.957150  0.787090  1.0  -0.1145
  C  C410  1  0.203020  0.985140  0.839930  1.0  -0.0703
  C  C411  1  0.216740  0.028650  0.821830  1.0  -0.1462
  C  C412  1  0.231200  0.044060  0.754430  1.0  0.0523
  C  C413  1  0.229990  0.015820  0.700630  1.0  -0.1917
  C  C414  1  0.215440  0.972600  0.718630  1.0  -0.0406
  C  C415  1  0.250520  0.091290  0.736330  1.0  -0.0392
  C  C416  1  0.290130  0.111880  0.702130  1.0  -0.1371
  C  C417  1  0.116470  0.077530  0.794830  1.0  0.0098
  C  C418  1  0.145570  0.054530  0.693230  1.0  0.1664
  C  C419  1  0.855500  0.244420  0.139570  1.0  0.6829
  C  C420  1  0.868970  0.290490  0.120430  1.0  -0.1144
  C  C421  1  0.869680  0.318480  0.173270  1.0  -0.0703
  C  C422  1  0.883400  0.361990  0.155170  1.0  -0.1462
  C  C423  1  0.897860  0.377400  0.087770  1.0  0.0523
  C  C424  1  0.896650  0.349160  0.033970  1.0  -0.1917
  C  C425  1  0.882100  0.305940  0.051970  1.0  -0.0406
  C  C426  1  0.917180  0.424630  0.069670  1.0  -0.0392
  C  C427  1  0.956790  0.445220  0.035470  1.0  -0.1372
  C  C428  1  0.783130  0.410870  0.128170  1.0  0.0105
  C  C429  1  0.812230  0.387870  0.026570  1.0  0.1677
  C  C430  1  0.422250  0.944420  0.472900  1.0  0.6822
  C  C431  1  0.376180  0.911820  0.453760  1.0  -0.1168
  C  C432  1  0.348190  0.884540  0.506600  1.0  -0.0703
  C  C433  1  0.304680  0.854750  0.488500  1.0  -0.1457
  C  C434  1  0.289270  0.853800  0.421100  1.0  0.0519
  C  C435  1  0.317510  0.880830  0.367300  1.0  -0.1927
  C  C436  1  0.360730  0.909500  0.385300  1.0  -0.0405
  C  C437  1  0.242040  0.825890  0.403000  1.0  -0.0404
  C  C438  1  0.221450  0.844910  0.368800  1.0  -0.134
  C  C439  1  0.255800  0.705600  0.461500  1.0  -0.0005
  C  C440  1  0.278800  0.757700  0.359900  1.0  0.1674
  C  C441  1  0.088920  0.277750  0.806230  1.0  0.6822
  C  C442  1  0.042850  0.245150  0.787090  1.0  -0.1168
  C  C443  1  0.014860  0.217870  0.839930  1.0  -0.0703
  C  C444  1  0.971350  0.188080  0.821830  1.0  -0.1457
  C  C445  1  0.955940  0.187130  0.754430  1.0  0.0519
  C  C446  1  0.984180  0.214160  0.700630  1.0  -0.1927
  C  C447  1  0.027400  0.242830  0.718630  1.0  -0.0405
  C  C448  1  0.908710  0.159220  0.736330  1.0  -0.0404
  C  C449  1  0.888120  0.178240  0.702130  1.0  -0.134
  C  C450  1  0.922470  0.038930  0.794830  1.0  0.0004
  C  C451  1  0.945470  0.091030  0.693230  1.0  0.1671
  C  C452  1  0.755580  0.611090  0.139570  1.0  0.6822
  C  C453  1  0.709510  0.578490  0.120430  1.0  -0.1168
  C  C454  1  0.681520  0.551210  0.173270  1.0  -0.0703
  C  C455  1  0.638010  0.521420  0.155170  1.0  -0.1457
  C  C456  1  0.622600  0.520470  0.087770  1.0  0.0519
  C  C457  1  0.650840  0.547500  0.033970  1.0  -0.1927
  C  C458  1  0.694060  0.576170  0.051970  1.0  -0.0405
  C  C459  1  0.575370  0.492560  0.069670  1.0  -0.0404
  C  C460  1  0.554780  0.511580  0.035470  1.0  -0.1339
  C  C461  1  0.589130  0.372270  0.128170  1.0  -0.0005
  C  C462  1  0.612130  0.424370  0.026570  1.0  0.1674
  C  C463  1  0.055580  0.477830  0.472900  1.0  0.6822
  C  C464  1  0.088180  0.464360  0.453760  1.0  -0.1158
  C  C465  1  0.115460  0.463650  0.506600  1.0  -0.0709
  C  C466  1  0.145250  0.449930  0.488500  1.0  -0.144
  C  C467  1  0.146200  0.435470  0.421100  1.0  0.05
  C  C468  1  0.119170  0.436680  0.367300  1.0  -0.1915
  C  C469  1  0.090500  0.451230  0.385300  1.0  -0.0388
  C  C470  1  0.174110  0.416150  0.403000  1.0  -0.0393
  C  C471  1  0.155090  0.376540  0.368800  1.0  -0.1349
  C  C472  1  0.294400  0.550200  0.461500  1.0  0.0091
  C  C473  1  0.242300  0.521100  0.359900  1.0  0.1675
  C  C474  1  0.722250  0.811160  0.806230  1.0  0.6822
  C  C475  1  0.754850  0.797690  0.787090  1.0  -0.1159
  C  C476  1  0.782130  0.796980  0.839930  1.0  -0.0709
  C  C477  1  0.811920  0.783260  0.821830  1.0  -0.144
  C  C478  1  0.812870  0.768800  0.754430  1.0  0.05
  C  C479  1  0.785840  0.770010  0.700630  1.0  -0.1915
  C  C480  1  0.757170  0.784560  0.718630  1.0  -0.0388
  C  C481  1  0.840780  0.749480  0.736330  1.0  -0.0393
  C  C482  1  0.821760  0.709870  0.702130  1.0  -0.1349
  C  C483  1  0.961070  0.883530  0.794830  1.0  0.0074
  C  C484  1  0.908970  0.854430  0.693230  1.0  0.1697
  C  C485  1  0.388910  0.144500  0.139570  1.0  0.6822
  C  C486  1  0.421510  0.131030  0.120430  1.0  -0.1158
  C  C487  1  0.448790  0.130320  0.173270  1.0  -0.0709
  C  C488  1  0.478580  0.116600  0.155170  1.0  -0.144
  C  C489  1  0.479530  0.102140  0.087770  1.0  0.05
  C  C490  1  0.452500  0.103350  0.033970  1.0  -0.1915
  C  C491  1  0.423830  0.117900  0.051970  1.0  -0.0388
  C  C492  1  0.507440  0.082820  0.069670  1.0  -0.0393
  C  C493  1  0.488420  0.043210  0.035470  1.0  -0.1352
  C  C494  1  0.627730  0.216870  0.128170  1.0  0.0091
  C  C495  1  0.575630  0.187770  0.026570  1.0  0.1675
  C  C496  1  0.577750  0.522170  0.527100  1.0  0.6821
  C  C497  1  0.623820  0.535640  0.546240  1.0  -0.1154
  C  C498  1  0.651810  0.536350  0.493400  1.0  -0.0687
  C  C499  1  0.695320  0.550070  0.511500  1.0  -0.1454
  C  C500  1  0.710730  0.564530  0.578900  1.0  0.0506
  C  C501  1  0.682490  0.563320  0.632700  1.0  -0.1924
  C  C502  1  0.639270  0.548770  0.614700  1.0  -0.0383
  C  C503  1  0.757960  0.583850  0.597000  1.0  -0.0388
  C  C504  1  0.778550  0.623460  0.631200  1.0  -0.1357
  C  C505  1  0.744200  0.449800  0.538500  1.0  0.0096
  C  C506  1  0.721200  0.478900  0.640100  1.0  0.1676
  C  C507  1  0.244420  0.855500  0.860430  1.0  0.6821
  C  C508  1  0.290490  0.868970  0.879570  1.0  -0.1154
  C  C509  1  0.318480  0.869680  0.826730  1.0  -0.0687
  C  C510  1  0.361990  0.883400  0.844830  1.0  -0.1454
  C  C511  1  0.377400  0.897860  0.912230  1.0  0.0506
  C  C512  1  0.349160  0.896650  0.966030  1.0  -0.1924
  C  C513  1  0.305940  0.882100  0.948030  1.0  -0.0383
  C  C514  1  0.424630  0.917180  0.930330  1.0  -0.0388
  C  C515  1  0.445220  0.956790  0.964530  1.0  -0.1357
  C  C516  1  0.410870  0.783130  0.871830  1.0  0.0096
  C  C517  1  0.387870  0.812230  0.973430  1.0  0.1676
  C  C518  1  0.911080  0.188840  0.193770  1.0  0.6821
  C  C519  1  0.957150  0.202310  0.212910  1.0  -0.1156
  C  C520  1  0.985140  0.203020  0.160070  1.0  -0.0687
  C  C521  1  0.028650  0.216740  0.178170  1.0  -0.1454
  C  C522  1  0.044060  0.231200  0.245570  1.0  0.0506
  C  C523  1  0.015820  0.229990  0.299370  1.0  -0.1924
  C  C524  1  0.972600  0.215440  0.281370  1.0  -0.0383
  C  C525  1  0.091290  0.250520  0.263670  1.0  -0.0388
  C  C526  1  0.111880  0.290130  0.297870  1.0  -0.1357
  C  C527  1  0.077530  0.116470  0.205170  1.0  0.0096
  C  C528  1  0.054530  0.145570  0.306770  1.0  0.1655
  C  C529  1  0.944420  0.422250  0.527100  1.0  0.6833
  C  C530  1  0.911820  0.376180  0.546240  1.0  -0.1142
  C  C531  1  0.884540  0.348190  0.493400  1.0  -0.0689
  C  C532  1  0.854750  0.304680  0.511500  1.0  -0.1468
  C  C533  1  0.853800  0.289270  0.578900  1.0  0.0526
  C  C534  1  0.880830  0.317510  0.632700  1.0  -0.1928
  C  C535  1  0.909500  0.360730  0.614700  1.0  -0.039
  C  C536  1  0.825890  0.242040  0.597000  1.0  -0.0391
  C  C537  1  0.844910  0.221450  0.631200  1.0  -0.1375
  C  C538  1  0.705600  0.255800  0.538500  1.0  0.0107
  C  C539  1  0.757700  0.278800  0.640100  1.0  0.1668
  C  C540  1  0.611090  0.755580  0.860430  1.0  0.6833
  C  C541  1  0.578490  0.709510  0.879570  1.0  -0.1142
  C  C542  1  0.551210  0.681520  0.826730  1.0  -0.0689
  C  C543  1  0.521420  0.638010  0.844830  1.0  -0.1468
  C  C544  1  0.520470  0.622600  0.912230  1.0  0.0526
  C  C545  1  0.547500  0.650840  0.966030  1.0  -0.1928
  C  C546  1  0.576170  0.694060  0.948030  1.0  -0.039
  C  C547  1  0.492560  0.575370  0.930330  1.0  -0.0391
  C  C548  1  0.511580  0.554780  0.964530  1.0  -0.1373
  C  C549  1  0.372270  0.589130  0.871830  1.0  0.0107
  C  C550  1  0.424370  0.612130  0.973430  1.0  0.1668
  C  C551  1  0.277750  0.088920  0.193770  1.0  0.6833
  C  C552  1  0.245150  0.042850  0.212910  1.0  -0.1142
  C  C553  1  0.217870  0.014860  0.160070  1.0  -0.0689
  C  C554  1  0.188080  0.971350  0.178170  1.0  -0.1468
  C  C555  1  0.187130  0.955940  0.245570  1.0  0.0526
  C  C556  1  0.214160  0.984180  0.299370  1.0  -0.1928
  C  C557  1  0.242830  0.027400  0.281370  1.0  -0.039
  C  C558  1  0.159220  0.908710  0.263670  1.0  -0.0391
  C  C559  1  0.178240  0.888120  0.297870  1.0  -0.1375
  C  C560  1  0.038930  0.922470  0.205170  1.0  0.0109
  C  C561  1  0.091030  0.945470  0.306770  1.0  0.1696
  C  C562  1  0.477830  0.055580  0.527100  1.0  0.6819
  C  C563  1  0.464360  0.088180  0.546240  1.0  -0.1157
  C  C564  1  0.463650  0.115460  0.493400  1.0  -0.0698
  C  C565  1  0.449930  0.145250  0.511500  1.0  -0.146
  C  C566  1  0.435470  0.146200  0.578900  1.0  0.052
  C  C567  1  0.436680  0.119170  0.632700  1.0  -0.1939
  C  C568  1  0.451230  0.090500  0.614700  1.0  -0.0391
  C  C569  1  0.416150  0.174110  0.597000  1.0  -0.0405
  C  C570  1  0.376540  0.155090  0.631200  1.0  -0.1352
  C  C571  1  0.550200  0.294400  0.538500  1.0  0.004
  C  C572  1  0.521100  0.242300  0.640100  1.0  0.1651
  C  C573  1  0.144500  0.388910  0.860430  1.0  0.6819
  C  C574  1  0.131030  0.421510  0.879570  1.0  -0.1157
  C  C575  1  0.130320  0.448790  0.826730  1.0  -0.0698
  C  C576  1  0.116600  0.478580  0.844830  1.0  -0.146
  C  C577  1  0.102140  0.479530  0.912230  1.0  0.052
  C  C578  1  0.103350  0.452500  0.966030  1.0  -0.1939
  C  C579  1  0.117900  0.423830  0.948030  1.0  -0.0391
  C  C580  1  0.082820  0.507440  0.930330  1.0  -0.0405
  C  C581  1  0.043210  0.488420  0.964530  1.0  -0.1354
  C  C582  1  0.216870  0.627730  0.871830  1.0  0.004
  C  C583  1  0.187770  0.575630  0.973430  1.0  0.1651
  C  C584  1  0.811160  0.722250  0.193770  1.0  0.6819
  C  C585  1  0.797690  0.754850  0.212910  1.0  -0.1158
  C  C586  1  0.796980  0.782130  0.160070  1.0  -0.0698
  C  C587  1  0.783260  0.811920  0.178170  1.0  -0.146
  C  C588  1  0.768800  0.812870  0.245570  1.0  0.052
  C  C589  1  0.770010  0.785840  0.299370  1.0  -0.1939
  C  C590  1  0.784560  0.757170  0.281370  1.0  -0.0391
  C  C591  1  0.749480  0.840780  0.263670  1.0  -0.0405
  C  C592  1  0.709870  0.821760  0.297870  1.0  -0.1352
  C  C593  1  0.883530  0.961070  0.205170  1.0  0.004
  C  C594  1  0.854430  0.908970  0.306770  1.0  0.1681
  C  C595  1  0.355560  0.177780  0.649900  1.0  0.0055
  C  C596  1  0.436600  0.218300  0.580200  1.0  0.2027
  C  C597  1  0.514300  0.257150  0.586800  1.0  -0.0343
  C  C598  1  0.022230  0.511110  0.983230  1.0  0.0044
  C  C599  1  0.103270  0.551630  0.913530  1.0  0.2027
  C  C600  1  0.180970  0.590480  0.920130  1.0  -0.0343
  C  C601  1  0.688890  0.844450  0.316570  1.0  0.0055
  C  C602  1  0.769930  0.884970  0.246870  1.0  0.2027
  C  C603  1  0.847630  0.923820  0.253470  1.0  -0.0343
  C  C604  1  0.822220  0.177780  0.649900  1.0  0.006
  C  C605  1  0.781700  0.218300  0.580200  1.0  0.2026
  C  C606  1  0.742850  0.257150  0.586800  1.0  -0.0351
  C  C607  1  0.488890  0.511110  0.983230  1.0  0.0072
  C  C608  1  0.448370  0.551630  0.913530  1.0  0.2025
  C  C609  1  0.409520  0.590480  0.920130  1.0  -0.0351
  C  C610  1  0.155550  0.844450  0.316570  1.0  0.0061
  C  C611  1  0.115030  0.884970  0.246870  1.0  0.2026
  C  C612  1  0.076180  0.923820  0.253470  1.0  -0.0351
  C  C613  1  0.822220  0.644440  0.649900  1.0  0.0078
  C  C614  1  0.781700  0.563400  0.580200  1.0  0.2025
  C  C615  1  0.742850  0.485700  0.586800  1.0  -0.0362
  C  C616  1  0.488890  0.977770  0.983230  1.0  0.0067
  C  C617  1  0.448370  0.896730  0.913530  1.0  0.2025
  C  C618  1  0.409520  0.819030  0.920130  1.0  -0.0362
  C  C619  1  0.155550  0.311110  0.316570  1.0  0.0078
  C  C620  1  0.115030  0.230070  0.246870  1.0  0.2025
  C  C621  1  0.076180  0.152370  0.253470  1.0  -0.0362
  C  C622  1  0.177780  0.355560  0.350100  1.0  0.0079
  C  C623  1  0.218300  0.436600  0.419800  1.0  0.2017
  C  C624  1  0.257150  0.514300  0.413200  1.0  -0.0352
  C  C625  1  0.844450  0.688890  0.683430  1.0  0.0079
  C  C626  1  0.884970  0.769930  0.753130  1.0  0.2017
  C  C627  1  0.923820  0.847630  0.746530  1.0  -0.0352
  C  C628  1  0.511110  0.022230  0.016770  1.0  0.0068
  C  C629  1  0.551630  0.103270  0.086470  1.0  0.2017
  C  C630  1  0.590480  0.180970  0.079870  1.0  -0.0352
  C  C631  1  0.177780  0.822220  0.350100  1.0  0.0064
  C  C632  1  0.218300  0.781700  0.419800  1.0  0.2019
  C  C633  1  0.257150  0.742850  0.413200  1.0  -0.0339
  C  C634  1  0.844450  0.155550  0.683430  1.0  0.0064
  C  C635  1  0.884970  0.115030  0.753130  1.0  0.2019
  C  C636  1  0.923820  0.076180  0.746530  1.0  -0.0339
  C  C637  1  0.511110  0.488890  0.016770  1.0  0.0076
  C  C638  1  0.551630  0.448370  0.086470  1.0  0.2018
  C  C639  1  0.590480  0.409520  0.079870  1.0  -0.0339
  C  C640  1  0.644440  0.822220  0.350100  1.0  0.0063
  C  C641  1  0.563400  0.781700  0.419800  1.0  0.2015
  C  C642  1  0.485700  0.742850  0.413200  1.0  -0.0332
  C  C643  1  0.311110  0.155550  0.683430  1.0  0.0063
  C  C644  1  0.230070  0.115030  0.753130  1.0  0.2015
  C  C645  1  0.152370  0.076180  0.746530  1.0  -0.0332
  C  C646  1  0.977770  0.488890  0.016770  1.0  0.0051
  C  C647  1  0.896730  0.448370  0.086470  1.0  0.2015
  C  C648  1  0.819030  0.409520  0.079870  1.0  -0.0332
  O  O649  1  0.477460  0.445560  0.579960  1.0  -0.5737
  O  O650  1  0.488520  0.434130  0.463190  1.0  -0.5542
  O  O651  1  0.144130  0.778890  0.913290  1.0  -0.5737
  O  O652  1  0.155190  0.767460  0.796520  1.0  -0.5542
  O  O653  1  0.810790  0.112230  0.246630  1.0  -0.5737
  O  O654  1  0.821850  0.100800  0.129860  1.0  -0.5542
  O  O655  1  0.554440  0.031900  0.579960  1.0  -0.5745
  O  O656  1  0.565870  0.054390  0.463190  1.0  -0.5554
  O  O657  1  0.221110  0.365230  0.913290  1.0  -0.5745
  O  O658  1  0.232540  0.387720  0.796520  1.0  -0.5554
  O  O659  1  0.887770  0.698570  0.246630  1.0  -0.5745
  O  O660  1  0.899200  0.721060  0.129860  1.0  -0.555
  O  O661  1  0.968100  0.522540  0.579960  1.0  -0.5727
  O  O662  1  0.945610  0.511480  0.463190  1.0  -0.5548
  O  O663  1  0.634770  0.855870  0.913290  1.0  -0.5727
  O  O664  1  0.612280  0.844810  0.796520  1.0  -0.5548
  O  O665  1  0.301430  0.189210  0.246630  1.0  -0.5727
  O  O666  1  0.278940  0.178150  0.129860  1.0  -0.5546
  O  O667  1  0.445560  0.477460  0.420040  1.0  -0.573
  O  O668  1  0.434130  0.488520  0.536810  1.0  -0.5551
  O  O669  1  0.112230  0.810790  0.753370  1.0  -0.573
  O  O670  1  0.100800  0.821850  0.870140  1.0  -0.5551
  O  O671  1  0.778890  0.144130  0.086710  1.0  -0.573
  O  O672  1  0.767460  0.155190  0.203480  1.0  -0.5551
  O  O673  1  0.031900  0.554440  0.420040  1.0  -0.5742
  O  O674  1  0.054390  0.565870  0.536810  1.0  -0.5545
  O  O675  1  0.698570  0.887770  0.753370  1.0  -0.5742
  O  O676  1  0.721060  0.899200  0.870140  1.0  -0.5543
  O  O677  1  0.365230  0.221110  0.086710  1.0  -0.5742
  O  O678  1  0.387720  0.232540  0.203480  1.0  -0.5545
  O  O679  1  0.522540  0.968100  0.420040  1.0  -0.5746
  O  O680  1  0.511480  0.945610  0.536810  1.0  -0.5554
  O  O681  1  0.189210  0.301430  0.753370  1.0  -0.5746
  O  O682  1  0.178150  0.278940  0.870140  1.0  -0.5555
  O  O683  1  0.855870  0.634770  0.086710  1.0  -0.5746
  O  O684  1  0.844810  0.612280  0.203480  1.0  -0.5554
  O  O685  1  0.522540  0.554440  0.420040  1.0  -0.5745
  O  O686  1  0.511480  0.565870  0.536810  1.0  -0.5549
  O  O687  1  0.189210  0.887770  0.753370  1.0  -0.5745
  O  O688  1  0.178150  0.899200  0.870140  1.0  -0.5549
  O  O689  1  0.855870  0.221110  0.086710  1.0  -0.5745
  O  O690  1  0.844810  0.232540  0.203480  1.0  -0.5549
  O  O691  1  0.445560  0.968100  0.420040  1.0  -0.5742
  O  O692  1  0.434130  0.945610  0.536810  1.0  -0.5549
  O  O693  1  0.112230  0.301430  0.753370  1.0  -0.5742
  O  O694  1  0.100800  0.278940  0.870140  1.0  -0.5546
  O  O695  1  0.778890  0.634770  0.086710  1.0  -0.5742
  O  O696  1  0.767460  0.612280  0.203480  1.0  -0.5549
  O  O697  1  0.031900  0.477460  0.420040  1.0  -0.5731
  O  O698  1  0.054390  0.488520  0.536810  1.0  -0.5545
  O  O699  1  0.698570  0.810790  0.753370  1.0  -0.5731
  O  O700  1  0.721060  0.821850  0.870140  1.0  -0.5548
  O  O701  1  0.365230  0.144130  0.086710  1.0  -0.5731
  O  O702  1  0.387720  0.155190  0.203480  1.0  -0.5545
  O  O703  1  0.554440  0.522540  0.579960  1.0  -0.5726
  O  O704  1  0.565870  0.511480  0.463190  1.0  -0.5553
  O  O705  1  0.221110  0.855870  0.913290  1.0  -0.5726
  O  O706  1  0.232540  0.844810  0.796520  1.0  -0.5553
  O  O707  1  0.887770  0.189210  0.246630  1.0  -0.5726
  O  O708  1  0.899200  0.178150  0.129860  1.0  -0.5553
  O  O709  1  0.968100  0.445560  0.579960  1.0  -0.5732
  O  O710  1  0.945610  0.434130  0.463190  1.0  -0.5541
  O  O711  1  0.634770  0.778890  0.913290  1.0  -0.5732
  O  O712  1  0.612280  0.767460  0.796520  1.0  -0.5541
  O  O713  1  0.301430  0.112230  0.246630  1.0  -0.5732
  O  O714  1  0.278940  0.100800  0.129860  1.0  -0.5536
  O  O715  1  0.477460  0.031900  0.579960  1.0  -0.5741
  O  O716  1  0.488520  0.054390  0.463190  1.0  -0.5551
  O  O717  1  0.144130  0.365230  0.913290  1.0  -0.5741
  O  O718  1  0.155190  0.387720  0.796520  1.0  -0.5551
  O  O719  1  0.810790  0.698570  0.246630  1.0  -0.5741
  O  O720  1  0.821850  0.721060  0.129860  1.0  -0.555
  O  O721  1  0.476240  0.238120  0.545100  1.0  -0.2508
  O  O722  1  0.142910  0.571450  0.878430  1.0  -0.2508
  O  O723  1  0.809570  0.904790  0.211770  1.0  -0.2508
  O  O724  1  0.761880  0.238120  0.545100  1.0  -0.2505
  O  O725  1  0.428550  0.571450  0.878430  1.0  -0.2505
  O  O726  1  0.095210  0.904790  0.211770  1.0  -0.2505
  O  O727  1  0.761880  0.523760  0.545100  1.0  -0.2516
  O  O728  1  0.428550  0.857090  0.878430  1.0  -0.2516
  O  O729  1  0.095210  0.190430  0.211770  1.0  -0.2516
  O  O730  1  0.238120  0.476240  0.454900  1.0  -0.254
  O  O731  1  0.904790  0.809570  0.788230  1.0  -0.254
  O  O732  1  0.571450  0.142910  0.121570  1.0  -0.254
  O  O733  1  0.238120  0.761880  0.454900  1.0  -0.2535
  O  O734  1  0.904790  0.095210  0.788230  1.0  -0.2535
  O  O735  1  0.571450  0.428550  0.121570  1.0  -0.2535
  O  O736  1  0.523760  0.761880  0.454900  1.0  -0.2543
  O  O737  1  0.190430  0.095210  0.788230  1.0  -0.2543
  O  O738  1  0.857090  0.428550  0.121570  1.0  -0.2543
