# generated using pymatgen
data_CuH15C22O5
_symmetry_space_group_name_H-M   'P 1'
_cell_length_a   35.29190000
_cell_length_b   35.29190000
_cell_length_c   20.34450000
_cell_angle_alpha   90.00000000
_cell_angle_beta   90.00000000
_cell_angle_gamma   120.00000000
_symmetry_Int_Tables_number   1
_chemical_formula_structural   CuH15C22O5
_chemical_formula_sum   'Cu18 H270 C396 O90'
_cell_volume   21944.60320387
_cell_formula_units_Z   18
loop_
 _symmetry_equiv_pos_site_id
 _symmetry_equiv_pos_as_xyz
  1  'x, y, z'
loop_
 _atom_site_type_symbol
 _atom_site_label
 _atom_site_symmetry_multiplicity
 _atom_site_fract_x
 _atom_site_fract_y
 _atom_site_fract_z
 _atom_site_occupancy
 _atom_site_charge
  Cu  Cu1  1  0.507450  0.492550  0.439210  1.0  0.9116
  Cu  Cu2  1  0.174120  0.825880  0.772540  1.0  0.9116
  Cu  Cu3  1  0.840780  0.159220  0.105880  1.0  0.9116
  Cu  Cu4  1  0.507450  0.014900  0.439210  1.0  0.9106
  Cu  Cu5  1  0.174120  0.348230  0.772540  1.0  0.9106
  Cu  Cu6  1  0.840780  0.681570  0.105880  1.0  0.9106
  Cu  Cu7  1  0.985100  0.492550  0.439210  1.0  0.9103
  Cu  Cu8  1  0.651770  0.825880  0.772540  1.0  0.9103
  Cu  Cu9  1  0.318430  0.159220  0.105880  1.0  0.9103
  Cu  Cu10  1  0.492550  0.507450  0.560790  1.0  0.9117
  Cu  Cu11  1  0.159220  0.840780  0.894120  1.0  0.9117
  Cu  Cu12  1  0.825880  0.174120  0.227460  1.0  0.9117
  Cu  Cu13  1  0.014900  0.507450  0.560790  1.0  0.9112
  Cu  Cu14  1  0.681570  0.840780  0.894120  1.0  0.9112
  Cu  Cu15  1  0.348230  0.174120  0.227460  1.0  0.9112
  Cu  Cu16  1  0.492550  0.985100  0.560790  1.0  0.9112
  Cu  Cu17  1  0.159220  0.318430  0.894120  1.0  0.9112
  Cu  Cu18  1  0.825880  0.651770  0.227460  1.0  0.9112
  H  H19  1  0.357100  0.471500  0.543400  1.0  0.1094
  H  H20  1  0.284300  0.447800  0.516000  1.0  0.1095
  H  H21  1  0.308700  0.427800  0.327900  1.0  0.1167
  H  H22  1  0.380700  0.449600  0.356700  1.0  0.1124
  H  H23  1  0.238200  0.362500  0.355900  1.0  0.111
  H  H24  1  0.232600  0.510700  0.388400  1.0  0.0803
  H  H25  1  0.251700  0.548700  0.492700  1.0  0.1201
  H  H26  1  0.023770  0.804830  0.876730  1.0  0.1094
  H  H27  1  0.950970  0.781130  0.849330  1.0  0.1093
  H  H28  1  0.975370  0.761130  0.661230  1.0  0.1168
  H  H29  1  0.047370  0.782930  0.690030  1.0  0.1124
  H  H30  1  0.904870  0.695830  0.689230  1.0  0.111
  H  H31  1  0.899270  0.844030  0.721730  1.0  0.0798
  H  H32  1  0.918370  0.882030  0.826030  1.0  0.1203
  H  H33  1  0.690430  0.138170  0.210070  1.0  0.1094
  H  H34  1  0.617630  0.114470  0.182670  1.0  0.1095
  H  H35  1  0.642030  0.094470  0.994570  1.0  0.1167
  H  H36  1  0.714030  0.116270  0.023370  1.0  0.1124
  H  H37  1  0.571530  0.029170  0.022570  1.0  0.1116
  H  H38  1  0.565930  0.177370  0.055070  1.0  0.081
  H  H39  1  0.585030  0.215370  0.159370  1.0  0.1201
  H  H40  1  0.528500  0.885600  0.543400  1.0  0.11
  H  H41  1  0.552200  0.836500  0.516000  1.0  0.1088
  H  H42  1  0.572200  0.880900  0.327900  1.0  0.1164
  H  H43  1  0.550400  0.931100  0.356700  1.0  0.1097
  H  H44  1  0.637500  0.875700  0.355900  1.0  0.1108
  H  H45  1  0.489300  0.721900  0.388400  1.0  0.0807
  H  H46  1  0.451300  0.703000  0.492700  1.0  0.1217
  H  H47  1  0.195170  0.218930  0.876730  1.0  0.1098
  H  H48  1  0.218870  0.169830  0.849330  1.0  0.1098
  H  H49  1  0.238870  0.214230  0.661230  1.0  0.116
  H  H50  1  0.217070  0.264430  0.690030  1.0  0.1119
  H  H51  1  0.304170  0.209030  0.689230  1.0  0.1108
  H  H52  1  0.155970  0.055230  0.721730  1.0  0.0827
  H  H53  1  0.117970  0.036330  0.826030  1.0  0.1208
  H  H54  1  0.861830  0.552270  0.210070  1.0  0.11
  H  H55  1  0.885530  0.503170  0.182670  1.0  0.1088
  H  H56  1  0.905530  0.547570  0.994570  1.0  0.1164
  H  H57  1  0.883730  0.597770  0.023370  1.0  0.1097
  H  H58  1  0.970830  0.542370  0.022570  1.0  0.1113
  H  H59  1  0.822630  0.388570  0.055070  1.0  0.082
  H  H60  1  0.784630  0.369670  0.159370  1.0  0.1217
  H  H61  1  0.114400  0.642900  0.543400  1.0  0.1096
  H  H62  1  0.163500  0.715700  0.516000  1.0  0.1086
  H  H63  1  0.119100  0.691300  0.327900  1.0  0.1166
  H  H64  1  0.068900  0.619300  0.356700  1.0  0.1116
  H  H65  1  0.124300  0.761800  0.355900  1.0  0.1097
  H  H66  1  0.278100  0.767400  0.388400  1.0  0.0838
  H  H67  1  0.297000  0.748300  0.492700  1.0  0.1203
  H  H68  1  0.781070  0.976230  0.876730  1.0  0.1096
  H  H69  1  0.830170  0.049030  0.849330  1.0  0.1086
  H  H70  1  0.785770  0.024630  0.661230  1.0  0.1166
  H  H71  1  0.735570  0.952630  0.690030  1.0  0.1095
  H  H72  1  0.790970  0.095130  0.689230  1.0  0.1097
  H  H73  1  0.944770  0.100730  0.721730  1.0  0.0828
  H  H74  1  0.963670  0.081630  0.826030  1.0  0.1223
  H  H75  1  0.447730  0.309570  0.210070  1.0  0.1096
  H  H76  1  0.496830  0.382370  0.182670  1.0  0.1086
  H  H77  1  0.452430  0.357970  0.994570  1.0  0.1165
  H  H78  1  0.402230  0.285970  0.023370  1.0  0.1116
  H  H79  1  0.457630  0.428470  0.022570  1.0  0.1097
  H  H80  1  0.611430  0.434070  0.055070  1.0  0.0841
  H  H81  1  0.630330  0.414970  0.159370  1.0  0.1203
  H  H82  1  0.471500  0.357100  0.456600  1.0  0.1098
  H  H83  1  0.447800  0.284300  0.484000  1.0  0.1089
  H  H84  1  0.427800  0.308700  0.672100  1.0  0.1162
  H  H85  1  0.449600  0.380700  0.643300  1.0  0.1118
  H  H86  1  0.362500  0.238200  0.644100  1.0  0.111
  H  H87  1  0.510700  0.232600  0.611600  1.0  0.0846
  H  H88  1  0.548700  0.251700  0.507300  1.0  0.1221
  H  H89  1  0.138170  0.690430  0.789930  1.0  0.1098
  H  H90  1  0.114470  0.617630  0.817330  1.0  0.1089
  H  H91  1  0.094470  0.642030  0.005430  1.0  0.1162
  H  H92  1  0.116270  0.714030  0.976630  1.0  0.1118
  H  H93  1  0.029170  0.571530  0.977430  1.0  0.1114
  H  H94  1  0.177370  0.565930  0.944930  1.0  0.085
  H  H95  1  0.215370  0.585030  0.840630  1.0  0.1221
  H  H96  1  0.804830  0.023770  0.123270  1.0  0.1098
  H  H97  1  0.781130  0.950970  0.150670  1.0  0.1078
  H  H98  1  0.761130  0.975370  0.338770  1.0  0.1161
  H  H99  1  0.782930  0.047370  0.309970  1.0  0.1118
  H  H100  1  0.695830  0.904870  0.310770  1.0  0.111
  H  H101  1  0.844030  0.899270  0.278270  1.0  0.0839
  H  H102  1  0.882030  0.918370  0.173970  1.0  0.1223
  H  H103  1  0.885600  0.528500  0.456600  1.0  0.1094
  H  H104  1  0.836500  0.552200  0.484000  1.0  0.1089
  H  H105  1  0.880900  0.572200  0.672100  1.0  0.1161
  H  H106  1  0.931100  0.550400  0.643300  1.0  0.1103
  H  H107  1  0.875700  0.637500  0.644100  1.0  0.1119
  H  H108  1  0.721900  0.489300  0.611600  1.0  0.0807
  H  H109  1  0.703000  0.451300  0.507300  1.0  0.1197
  H  H110  1  0.552270  0.861830  0.789930  1.0  0.1094
  H  H111  1  0.503170  0.885530  0.817330  1.0  0.1089
  H  H112  1  0.547570  0.905530  0.005430  1.0  0.1161
  H  H113  1  0.597770  0.883730  0.976630  1.0  0.1103
  H  H114  1  0.542370  0.970830  0.977430  1.0  0.1129
  H  H115  1  0.388570  0.822630  0.944930  1.0  0.0817
  H  H116  1  0.369670  0.784630  0.840630  1.0  0.1197
  H  H117  1  0.218930  0.195170  0.123270  1.0  0.1094
  H  H118  1  0.169830  0.218870  0.150670  1.0  0.1098
  H  H119  1  0.214230  0.238870  0.338770  1.0  0.116
  H  H120  1  0.264430  0.217070  0.309970  1.0  0.112
  H  H121  1  0.209030  0.304170  0.310770  1.0  0.1119
  H  H122  1  0.055230  0.155970  0.278270  1.0  0.0828
  H  H123  1  0.036330  0.117970  0.173970  1.0  0.1184
  H  H124  1  0.642900  0.114400  0.456600  1.0  0.11
  H  H125  1  0.715700  0.163500  0.484000  1.0  0.1082
  H  H126  1  0.691300  0.119100  0.672100  1.0  0.1168
  H  H127  1  0.619300  0.068900  0.643300  1.0  0.1117
  H  H128  1  0.761800  0.124300  0.644100  1.0  0.1128
  H  H129  1  0.767400  0.278100  0.611600  1.0  0.0845
  H  H130  1  0.748300  0.297000  0.507300  1.0  0.1197
  H  H131  1  0.309570  0.447730  0.789930  1.0  0.11
  H  H132  1  0.382370  0.496830  0.817330  1.0  0.1082
  H  H133  1  0.357970  0.452430  0.005430  1.0  0.1168
  H  H134  1  0.285970  0.402230  0.976630  1.0  0.1117
  H  H135  1  0.428470  0.457630  0.977430  1.0  0.1117
  H  H136  1  0.434070  0.611430  0.944930  1.0  0.084
  H  H137  1  0.414970  0.630330  0.840630  1.0  0.1197
  H  H138  1  0.976230  0.781070  0.123270  1.0  0.1099
  H  H139  1  0.049030  0.830170  0.150670  1.0  0.1082
  H  H140  1  0.024630  0.785770  0.338770  1.0  0.1168
  H  H141  1  0.952630  0.735570  0.309970  1.0  0.1099
  H  H142  1  0.095130  0.790970  0.310770  1.0  0.1128
  H  H143  1  0.100730  0.944770  0.278270  1.0  0.0829
  H  H144  1  0.081630  0.963670  0.173970  1.0  0.1213
  H  H145  1  0.642900  0.528500  0.456600  1.0  0.1097
  H  H146  1  0.715700  0.552200  0.484000  1.0  0.109
  H  H147  1  0.691300  0.572200  0.672100  1.0  0.1163
  H  H148  1  0.619300  0.550400  0.643300  1.0  0.1119
  H  H149  1  0.761800  0.637500  0.644100  1.0  0.1102
  H  H150  1  0.767400  0.489300  0.611600  1.0  0.0819
  H  H151  1  0.748300  0.451300  0.507300  1.0  0.1194
  H  H152  1  0.309570  0.861830  0.789930  1.0  0.1097
  H  H153  1  0.382370  0.885530  0.817330  1.0  0.109
  H  H154  1  0.357970  0.905530  0.005430  1.0  0.1163
  H  H155  1  0.285970  0.883730  0.976630  1.0  0.1119
  H  H156  1  0.428470  0.970830  0.977430  1.0  0.1103
  H  H157  1  0.434070  0.822630  0.944930  1.0  0.082
  H  H158  1  0.414970  0.784630  0.840630  1.0  0.1194
  H  H159  1  0.976230  0.195170  0.123270  1.0  0.1097
  H  H160  1  0.049030  0.218870  0.150670  1.0  0.1083
  H  H161  1  0.024630  0.238870  0.338770  1.0  0.1163
  H  H162  1  0.952630  0.217070  0.309970  1.0  0.1119
  H  H163  1  0.095130  0.304170  0.310770  1.0  0.1102
  H  H164  1  0.100730  0.155970  0.278270  1.0  0.0812
  H  H165  1  0.081630  0.117970  0.173970  1.0  0.1194
  H  H166  1  0.471500  0.114400  0.456600  1.0  0.11
  H  H167  1  0.447800  0.163500  0.484000  1.0  0.1081
  H  H168  1  0.427800  0.119100  0.672100  1.0  0.1163
  H  H169  1  0.449600  0.068900  0.643300  1.0  0.11
  H  H170  1  0.362500  0.124300  0.644100  1.0  0.1101
  H  H171  1  0.510700  0.278100  0.611600  1.0  0.0823
  H  H172  1  0.548700  0.297000  0.507300  1.0  0.1236
  H  H173  1  0.138170  0.447730  0.789930  1.0  0.11
  H  H174  1  0.114470  0.496830  0.817330  1.0  0.1081
  H  H175  1  0.094470  0.452430  0.005430  1.0  0.1163
  H  H176  1  0.116270  0.402230  0.976630  1.0  0.11
  H  H177  1  0.029170  0.457630  0.977430  1.0  0.1112
  H  H178  1  0.177370  0.611430  0.944930  1.0  0.0841
  H  H179  1  0.215370  0.630330  0.840630  1.0  0.1236
  H  H180  1  0.804830  0.781070  0.123270  1.0  0.11
  H  H181  1  0.781130  0.830170  0.150670  1.0  0.1096
  H  H182  1  0.761130  0.785770  0.338770  1.0  0.1161
  H  H183  1  0.782930  0.735570  0.309970  1.0  0.112
  H  H184  1  0.695830  0.790970  0.310770  1.0  0.1101
  H  H185  1  0.844030  0.944770  0.278270  1.0  0.0847
  H  H186  1  0.882030  0.963670  0.173970  1.0  0.1215
  H  H187  1  0.885600  0.357100  0.456600  1.0  0.1098
  H  H188  1  0.836500  0.284300  0.484000  1.0  0.108
  H  H189  1  0.880900  0.308700  0.672100  1.0  0.1163
  H  H190  1  0.931100  0.380700  0.643300  1.0  0.1117
  H  H191  1  0.875700  0.238200  0.644100  1.0  0.1109
  H  H192  1  0.721900  0.232600  0.611600  1.0  0.0864
  H  H193  1  0.703000  0.251700  0.507300  1.0  0.12
  H  H194  1  0.552270  0.690430  0.789930  1.0  0.1098
  H  H195  1  0.503170  0.617630  0.817330  1.0  0.108
  H  H196  1  0.547570  0.642030  0.005430  1.0  0.1162
  H  H197  1  0.597770  0.714030  0.976630  1.0  0.1117
  H  H198  1  0.542370  0.571530  0.977430  1.0  0.11
  H  H199  1  0.388570  0.565930  0.944930  1.0  0.0862
  H  H200  1  0.369670  0.585030  0.840630  1.0  0.12
  H  H201  1  0.218930  0.023770  0.123270  1.0  0.1097
  H  H202  1  0.169830  0.950970  0.150670  1.0  0.108
  H  H203  1  0.214230  0.975370  0.338770  1.0  0.1163
  H  H204  1  0.264430  0.047370  0.309970  1.0  0.1099
  H  H205  1  0.209030  0.904870  0.310770  1.0  0.1108
  H  H206  1  0.055230  0.899270  0.278270  1.0  0.0852
  H  H207  1  0.036330  0.918370  0.173970  1.0  0.1221
  H  H208  1  0.528500  0.642900  0.543400  1.0  0.1098
  H  H209  1  0.552200  0.715700  0.516000  1.0  0.109
  H  H210  1  0.572200  0.691300  0.327900  1.0  0.1163
  H  H211  1  0.550400  0.619300  0.356700  1.0  0.1118
  H  H212  1  0.637500  0.761800  0.355900  1.0  0.1105
  H  H213  1  0.489300  0.767400  0.388400  1.0  0.0825
  H  H214  1  0.451300  0.748300  0.492700  1.0  0.1217
  H  H215  1  0.195170  0.976230  0.876730  1.0  0.1098
  H  H216  1  0.218870  0.049030  0.849330  1.0  0.1086
  H  H217  1  0.238870  0.024630  0.661230  1.0  0.1164
  H  H218  1  0.217070  0.952630  0.690030  1.0  0.1118
  H  H219  1  0.304170  0.095130  0.689230  1.0  0.1105
  H  H220  1  0.155970  0.100730  0.721730  1.0  0.0815
  H  H221  1  0.117970  0.081630  0.826030  1.0  0.1218
  H  H222  1  0.861830  0.309570  0.210070  1.0  0.1098
  H  H223  1  0.885530  0.382370  0.182670  1.0  0.109
  H  H224  1  0.905530  0.357970  0.994570  1.0  0.1163
  H  H225  1  0.883730  0.285970  0.023370  1.0  0.1118
  H  H226  1  0.970830  0.428470  0.022570  1.0  0.1115
  H  H227  1  0.822630  0.434070  0.055070  1.0  0.0831
  H  H228  1  0.784630  0.414970  0.159370  1.0  0.1217
  H  H229  1  0.114400  0.471500  0.543400  1.0  0.1094
  H  H230  1  0.163500  0.447800  0.516000  1.0  0.1094
  H  H231  1  0.119100  0.427800  0.327900  1.0  0.1163
  H  H232  1  0.068900  0.449600  0.356700  1.0  0.1098
  H  H233  1  0.124300  0.362500  0.355900  1.0  0.1108
  H  H234  1  0.278100  0.510700  0.388400  1.0  0.0802
  H  H235  1  0.297000  0.548700  0.492700  1.0  0.1203
  H  H236  1  0.781070  0.804830  0.876730  1.0  0.1093
  H  H237  1  0.830170  0.781130  0.849330  1.0  0.1102
  H  H238  1  0.785770  0.761130  0.661230  1.0  0.1158
  H  H239  1  0.735570  0.782930  0.690030  1.0  0.1119
  H  H240  1  0.790970  0.695830  0.689230  1.0  0.1108
  H  H241  1  0.944770  0.844030  0.721730  1.0  0.0819
  H  H242  1  0.963670  0.882030  0.826030  1.0  0.1187
  H  H243  1  0.447730  0.138170  0.210070  1.0  0.1094
  H  H244  1  0.496830  0.114470  0.182670  1.0  0.1094
  H  H245  1  0.452430  0.094470  0.994570  1.0  0.1163
  H  H246  1  0.402230  0.116270  0.023370  1.0  0.1098
  H  H247  1  0.457630  0.029170  0.022570  1.0  0.1106
  H  H248  1  0.611430  0.177370  0.055070  1.0  0.0814
  H  H249  1  0.630330  0.215370  0.159370  1.0  0.1203
  H  H250  1  0.357100  0.885600  0.543400  1.0  0.11
  H  H251  1  0.284300  0.836500  0.516000  1.0  0.1088
  H  H252  1  0.308700  0.880900  0.327900  1.0  0.1163
  H  H253  1  0.380700  0.931100  0.356700  1.0  0.112
  H  H254  1  0.238200  0.875700  0.355900  1.0  0.1118
  H  H255  1  0.232600  0.721900  0.388400  1.0  0.0837
  H  H256  1  0.251700  0.703000  0.492700  1.0  0.121
  H  H257  1  0.023770  0.218930  0.876730  1.0  0.1101
  H  H258  1  0.950970  0.169830  0.849330  1.0  0.1088
  H  H259  1  0.975370  0.214230  0.661230  1.0  0.1163
  H  H260  1  0.047370  0.264430  0.690030  1.0  0.1099
  H  H261  1  0.904870  0.209030  0.689230  1.0  0.1117
  H  H262  1  0.899270  0.055230  0.721730  1.0  0.0827
  H  H263  1  0.918370  0.036330  0.826030  1.0  0.1226
  H  H264  1  0.690430  0.552270  0.210070  1.0  0.11
  H  H265  1  0.617630  0.503170  0.182670  1.0  0.1088
  H  H266  1  0.642030  0.547570  0.994570  1.0  0.1162
  H  H267  1  0.714030  0.597770  0.023370  1.0  0.112
  H  H268  1  0.571530  0.542370  0.022570  1.0  0.1108
  H  H269  1  0.565930  0.388570  0.055070  1.0  0.0834
  H  H270  1  0.585030  0.369670  0.159370  1.0  0.121
  H  H271  1  0.288600  0.577200  0.439700  1.0  0.1281
  H  H272  1  0.955270  0.910530  0.773030  1.0  0.1263
  H  H273  1  0.621930  0.243870  0.106370  1.0  0.1292
  H  H274  1  0.422800  0.711400  0.439700  1.0  0.1264
  H  H275  1  0.089470  0.044730  0.773030  1.0  0.124
  H  H276  1  0.756130  0.378070  0.106370  1.0  0.1278
  H  H277  1  0.288600  0.711400  0.439700  1.0  0.1298
  H  H278  1  0.955270  0.044730  0.773030  1.0  0.1283
  H  H279  1  0.621930  0.378070  0.106370  1.0  0.1258
  H  H280  1  0.577200  0.288600  0.560300  1.0  0.1281
  H  H281  1  0.243870  0.621930  0.893630  1.0  0.129
  H  H282  1  0.910530  0.955270  0.226970  1.0  0.1253
  H  H283  1  0.711400  0.422800  0.560300  1.0  0.1269
  H  H284  1  0.378070  0.756130  0.893630  1.0  0.1276
  H  H285  1  0.044730  0.089470  0.226970  1.0  0.1244
  H  H286  1  0.711400  0.288600  0.560300  1.0  0.126
  H  H287  1  0.378070  0.621930  0.893630  1.0  0.1226
  H  H288  1  0.044730  0.955270  0.226970  1.0  0.1255
  C  C289  1  0.422080  0.476860  0.470200  1.0  0.6802
  C  C290  1  0.375710  0.462840  0.452180  1.0  -0.127
  C  C291  1  0.347020  0.462170  0.499870  1.0  -0.0637
  C  C292  1  0.303730  0.447830  0.483620  1.0  -0.1411
  C  C293  1  0.288610  0.433610  0.420430  1.0  0.0654
  C  C294  1  0.318200  0.435720  0.371970  1.0  -0.1604
  C  C295  1  0.361170  0.449440  0.388900  1.0  -0.0402
  C  C296  1  0.241350  0.413930  0.403230  1.0  -0.0474
  C  C297  1  0.221340  0.375440  0.368380  1.0  -0.1433
  C  C298  1  0.088750  0.810190  0.803530  1.0  0.6802
  C  C299  1  0.042380  0.796170  0.785510  1.0  -0.127
  C  C300  1  0.013690  0.795500  0.833200  1.0  -0.0637
  C  C301  1  0.970400  0.781160  0.816950  1.0  -0.1411
  C  C302  1  0.955280  0.766940  0.753760  1.0  0.0654
  C  C303  1  0.984870  0.769050  0.705300  1.0  -0.1604
  C  C304  1  0.027840  0.782770  0.722230  1.0  -0.0402
  C  C305  1  0.908020  0.747260  0.736560  1.0  -0.0474
  C  C306  1  0.888010  0.708770  0.701710  1.0  -0.1478
  C  C307  1  0.755410  0.143530  0.136870  1.0  0.6802
  C  C308  1  0.709040  0.129510  0.118850  1.0  -0.127
  C  C309  1  0.680350  0.128840  0.166540  1.0  -0.0637
  C  C310  1  0.637060  0.114500  0.150290  1.0  -0.1414
  C  C311  1  0.621940  0.100280  0.087100  1.0  0.0654
  C  C312  1  0.651530  0.102390  0.038640  1.0  -0.1604
  C  C313  1  0.694500  0.116110  0.055570  1.0  -0.0402
  C  C314  1  0.574680  0.080600  0.069900  1.0  -0.0471
  C  C315  1  0.554670  0.042110  0.035050  1.0  -0.1429
  C  C316  1  0.523140  0.945220  0.470200  1.0  0.6804
  C  C317  1  0.537160  0.912870  0.452180  1.0  -0.1256
  C  C318  1  0.537830  0.884850  0.499870  1.0  -0.0641
  C  C319  1  0.552170  0.855900  0.483620  1.0  -0.1408
  C  C320  1  0.566390  0.855000  0.420430  1.0  0.0655
  C  C321  1  0.564280  0.882480  0.371970  1.0  -0.1624
  C  C322  1  0.550560  0.911730  0.388900  1.0  -0.0407
  C  C323  1  0.586070  0.827420  0.403230  1.0  -0.0479
  C  C324  1  0.624560  0.845900  0.368380  1.0  -0.1435
  C  C325  1  0.189810  0.278550  0.803530  1.0  0.6804
  C  C326  1  0.203830  0.246200  0.785510  1.0  -0.1256
  C  C327  1  0.204500  0.218180  0.833200  1.0  -0.0641
  C  C328  1  0.218840  0.189230  0.816950  1.0  -0.1408
  C  C329  1  0.233060  0.188330  0.753760  1.0  0.0655
  C  C330  1  0.230950  0.215810  0.705300  1.0  -0.1624
  C  C331  1  0.217230  0.245060  0.722230  1.0  -0.0407
  C  C332  1  0.252740  0.160750  0.736560  1.0  -0.0472
  C  C333  1  0.291230  0.179230  0.701710  1.0  -0.1373
  C  C334  1  0.856470  0.611890  0.136870  1.0  0.6804
  C  C335  1  0.870490  0.579540  0.118850  1.0  -0.1256
  C  C336  1  0.871160  0.551520  0.166540  1.0  -0.0641
  C  C337  1  0.885500  0.522570  0.150290  1.0  -0.1405
  C  C338  1  0.899720  0.521670  0.087100  1.0  0.0655
  C  C339  1  0.897610  0.549150  0.038640  1.0  -0.1624
  C  C340  1  0.883890  0.578400  0.055570  1.0  -0.0407
  C  C341  1  0.919400  0.494090  0.069900  1.0  -0.0483
  C  C342  1  0.957890  0.512570  0.035050  1.0  -0.144
  C  C343  1  0.054780  0.577920  0.470200  1.0  0.6803
  C  C344  1  0.087130  0.624290  0.452180  1.0  -0.1257
  C  C345  1  0.115150  0.652980  0.499870  1.0  -0.0634
  C  C346  1  0.144100  0.696270  0.483620  1.0  -0.143
  C  C347  1  0.145000  0.711390  0.420430  1.0  0.0659
  C  C348  1  0.117520  0.681800  0.371970  1.0  -0.1622
  C  C349  1  0.088270  0.638830  0.388900  1.0  -0.0406
  C  C350  1  0.172580  0.758650  0.403230  1.0  -0.0473
  C  C351  1  0.154100  0.778660  0.368380  1.0  -0.1468
  C  C352  1  0.721450  0.911250  0.803530  1.0  0.6803
  C  C353  1  0.753800  0.957620  0.785510  1.0  -0.1257
  C  C354  1  0.781820  0.986310  0.833200  1.0  -0.0634
  C  C355  1  0.810770  0.029600  0.816950  1.0  -0.1429
  C  C356  1  0.811670  0.044720  0.753760  1.0  0.0659
  C  C357  1  0.784190  0.015130  0.705300  1.0  -0.1622
  C  C358  1  0.754940  0.972160  0.722230  1.0  -0.0406
  C  C359  1  0.839250  0.091980  0.736560  1.0  -0.0473
  C  C360  1  0.820770  0.111990  0.701710  1.0  -0.147
  C  C361  1  0.388110  0.244590  0.136870  1.0  0.6803
  C  C362  1  0.420460  0.290960  0.118850  1.0  -0.1257
  C  C363  1  0.448480  0.319650  0.166540  1.0  -0.0634
  C  C364  1  0.477430  0.362940  0.150290  1.0  -0.143
  C  C365  1  0.478330  0.378060  0.087100  1.0  0.0659
  C  C366  1  0.450850  0.348470  0.038640  1.0  -0.1622
  C  C367  1  0.421600  0.305500  0.055570  1.0  -0.0406
  C  C368  1  0.505910  0.425320  0.069900  1.0  -0.0493
  C  C369  1  0.487430  0.445330  0.035050  1.0  -0.1473
  C  C370  1  0.476860  0.422080  0.529800  1.0  0.6805
  C  C371  1  0.462840  0.375710  0.547820  1.0  -0.1246
  C  C372  1  0.462170  0.347020  0.500130  1.0  -0.0629
  C  C373  1  0.447830  0.303730  0.516380  1.0  -0.1419
  C  C374  1  0.433610  0.288610  0.579570  1.0  0.0661
  C  C375  1  0.435720  0.318200  0.628030  1.0  -0.1653
  C  C376  1  0.449440  0.361170  0.611100  1.0  -0.0387
  C  C377  1  0.413930  0.241350  0.596770  1.0  -0.0485
  C  C378  1  0.375440  0.221340  0.631620  1.0  -0.1416
  C  C379  1  0.143530  0.755410  0.863130  1.0  0.6805
  C  C380  1  0.129510  0.709040  0.881150  1.0  -0.1246
  C  C381  1  0.128840  0.680350  0.833460  1.0  -0.0629
  C  C382  1  0.114500  0.637060  0.849710  1.0  -0.1424
  C  C383  1  0.100280  0.621940  0.912900  1.0  0.0661
  C  C384  1  0.102390  0.651530  0.961360  1.0  -0.1653
  C  C385  1  0.116110  0.694500  0.944430  1.0  -0.0387
  C  C386  1  0.080600  0.574680  0.930100  1.0  -0.0481
  C  C387  1  0.042110  0.554670  0.964950  1.0  -0.1412
  C  C388  1  0.810190  0.088750  0.196470  1.0  0.6805
  C  C389  1  0.796170  0.042380  0.214490  1.0  -0.1246
  C  C390  1  0.795500  0.013690  0.166800  1.0  -0.0629
  C  C391  1  0.781160  0.970400  0.183050  1.0  -0.1419
  C  C392  1  0.766940  0.955280  0.246240  1.0  0.0661
  C  C393  1  0.769050  0.984870  0.294700  1.0  -0.1653
  C  C394  1  0.782770  0.027840  0.277770  1.0  -0.0387
  C  C395  1  0.747260  0.908020  0.263440  1.0  -0.0485
  C  C396  1  0.708770  0.888010  0.298290  1.0  -0.1473
  C  C397  1  0.945220  0.523140  0.529800  1.0  0.68
  C  C398  1  0.912870  0.537160  0.547820  1.0  -0.1264
  C  C399  1  0.884850  0.537830  0.500130  1.0  -0.0627
  C  C400  1  0.855900  0.552170  0.516380  1.0  -0.1407
  C  C401  1  0.855000  0.566390  0.579570  1.0  0.0651
  C  C402  1  0.882480  0.564280  0.628030  1.0  -0.1636
  C  C403  1  0.911730  0.550560  0.611100  1.0  -0.0386
  C  C404  1  0.827420  0.586070  0.596770  1.0  -0.0464
  C  C405  1  0.845900  0.624560  0.631620  1.0  -0.1475
  C  C406  1  0.611890  0.856470  0.863130  1.0  0.68
  C  C407  1  0.579540  0.870490  0.881150  1.0  -0.1264
  C  C408  1  0.551520  0.871160  0.833460  1.0  -0.0627
  C  C409  1  0.522570  0.885500  0.849710  1.0  -0.1402
  C  C410  1  0.521670  0.899720  0.912900  1.0  0.0651
  C  C411  1  0.549150  0.897610  0.961360  1.0  -0.1636
  C  C412  1  0.578400  0.883890  0.944430  1.0  -0.0386
  C  C413  1  0.494090  0.919400  0.930100  1.0  -0.0469
  C  C414  1  0.512570  0.957890  0.964950  1.0  -0.1479
  C  C415  1  0.278550  0.189810  0.196470  1.0  0.68
  C  C416  1  0.246200  0.203830  0.214490  1.0  -0.1264
  C  C417  1  0.218180  0.204500  0.166800  1.0  -0.0627
  C  C418  1  0.189230  0.218840  0.183050  1.0  -0.1407
  C  C419  1  0.188330  0.233060  0.246240  1.0  0.0651
  C  C420  1  0.215810  0.230950  0.294700  1.0  -0.1636
  C  C421  1  0.245060  0.217230  0.277770  1.0  -0.0386
  C  C422  1  0.160750  0.252740  0.263440  1.0  -0.0457
  C  C423  1  0.179230  0.291230  0.298290  1.0  -0.1424
  C  C424  1  0.577920  0.054780  0.529800  1.0  0.6801
  C  C425  1  0.624290  0.087130  0.547820  1.0  -0.1262
  C  C426  1  0.652980  0.115150  0.500130  1.0  -0.0623
  C  C427  1  0.696270  0.144100  0.516380  1.0  -0.1406
  C  C428  1  0.711390  0.145000  0.579570  1.0  0.066
  C  C429  1  0.681800  0.117520  0.628030  1.0  -0.1651
  C  C430  1  0.638830  0.088270  0.611100  1.0  -0.0399
  C  C431  1  0.758650  0.172580  0.596770  1.0  -0.0475
  C  C432  1  0.778660  0.154100  0.631620  1.0  -0.1448
  C  C433  1  0.244590  0.388110  0.863130  1.0  0.6801
  C  C434  1  0.290960  0.420460  0.881150  1.0  -0.1262
  C  C435  1  0.319650  0.448480  0.833460  1.0  -0.0623
  C  C436  1  0.362940  0.477430  0.849710  1.0  -0.1406
  C  C437  1  0.378060  0.478330  0.912900  1.0  0.066
  C  C438  1  0.348470  0.450850  0.961360  1.0  -0.1651
  C  C439  1  0.305500  0.421600  0.944430  1.0  -0.0399
  C  C440  1  0.425320  0.505910  0.930100  1.0  -0.0495
  C  C441  1  0.445330  0.487430  0.964950  1.0  -0.1453
  C  C442  1  0.911250  0.721450  0.196470  1.0  0.6801
  C  C443  1  0.957620  0.753800  0.214490  1.0  -0.1262
  C  C444  1  0.986310  0.781820  0.166800  1.0  -0.0623
  C  C445  1  0.029600  0.810770  0.183050  1.0  -0.1405
  C  C446  1  0.044720  0.811670  0.246240  1.0  0.066
  C  C447  1  0.015130  0.784190  0.294700  1.0  -0.1651
  C  C448  1  0.972160  0.754940  0.277770  1.0  -0.0399
  C  C449  1  0.091980  0.839250  0.263440  1.0  -0.0475
  C  C450  1  0.111990  0.820770  0.298290  1.0  -0.1449
  C  C451  1  0.577920  0.523140  0.529800  1.0  0.6804
  C  C452  1  0.624290  0.537160  0.547820  1.0  -0.1265
  C  C453  1  0.652980  0.537830  0.500130  1.0  -0.0623
  C  C454  1  0.696270  0.552170  0.516380  1.0  -0.141
  C  C455  1  0.711390  0.566390  0.579570  1.0  0.0654
  C  C456  1  0.681800  0.564280  0.628030  1.0  -0.1632
  C  C457  1  0.638830  0.550560  0.611100  1.0  -0.0386
  C  C458  1  0.758650  0.586070  0.596770  1.0  -0.0478
  C  C459  1  0.778660  0.624560  0.631620  1.0  -0.1422
  C  C460  1  0.244590  0.856470  0.863130  1.0  0.6804
  C  C461  1  0.290960  0.870490  0.881150  1.0  -0.1265
  C  C462  1  0.319650  0.871160  0.833460  1.0  -0.0623
  C  C463  1  0.362940  0.885500  0.849710  1.0  -0.1415
  C  C464  1  0.378060  0.899720  0.912900  1.0  0.0654
  C  C465  1  0.348470  0.897610  0.961360  1.0  -0.1632
  C  C466  1  0.305500  0.883890  0.944430  1.0  -0.0386
  C  C467  1  0.425320  0.919400  0.930100  1.0  -0.0475
  C  C468  1  0.445330  0.957890  0.964950  1.0  -0.1418
  C  C469  1  0.911250  0.189810  0.196470  1.0  0.6804
  C  C470  1  0.957620  0.203830  0.214490  1.0  -0.1265
  C  C471  1  0.986310  0.204500  0.166800  1.0  -0.0623
  C  C472  1  0.029600  0.218840  0.183050  1.0  -0.141
  C  C473  1  0.044720  0.233060  0.246240  1.0  0.0654
  C  C474  1  0.015130  0.230950  0.294700  1.0  -0.1632
  C  C475  1  0.972160  0.217230  0.277770  1.0  -0.0386
  C  C476  1  0.091980  0.252740  0.263440  1.0  -0.0478
  C  C477  1  0.111990  0.291230  0.298290  1.0  -0.1482
  C  C478  1  0.476860  0.054780  0.529800  1.0  0.6797
  C  C479  1  0.462840  0.087130  0.547820  1.0  -0.1261
  C  C480  1  0.462170  0.115150  0.500130  1.0  -0.0631
  C  C481  1  0.447830  0.144100  0.516380  1.0  -0.1402
  C  C482  1  0.433610  0.145000  0.579570  1.0  0.0658
  C  C483  1  0.435720  0.117520  0.628030  1.0  -0.1668
  C  C484  1  0.449440  0.088270  0.611100  1.0  -0.0404
  C  C485  1  0.413930  0.172580  0.596770  1.0  -0.049
  C  C486  1  0.375440  0.154100  0.631620  1.0  -0.1452
  C  C487  1  0.143530  0.388110  0.863130  1.0  0.6797
  C  C488  1  0.129510  0.420460  0.881150  1.0  -0.1261
  C  C489  1  0.128840  0.448480  0.833460  1.0  -0.0631
  C  C490  1  0.114500  0.477430  0.849710  1.0  -0.1397
  C  C491  1  0.100280  0.478330  0.912900  1.0  0.0658
  C  C492  1  0.102390  0.450850  0.961360  1.0  -0.1666
  C  C493  1  0.116110  0.421600  0.944430  1.0  -0.0404
  C  C494  1  0.080600  0.505910  0.930100  1.0  -0.0494
  C  C495  1  0.042110  0.487430  0.964950  1.0  -0.1456
  C  C496  1  0.810190  0.721450  0.196470  1.0  0.6797
  C  C497  1  0.796170  0.753800  0.214490  1.0  -0.1261
  C  C498  1  0.795500  0.781820  0.166800  1.0  -0.0631
  C  C499  1  0.781160  0.810770  0.183050  1.0  -0.1402
  C  C500  1  0.766940  0.811670  0.246240  1.0  0.0658
  C  C501  1  0.769050  0.784190  0.294700  1.0  -0.1668
  C  C502  1  0.782770  0.754940  0.277770  1.0  -0.0404
  C  C503  1  0.747260  0.839250  0.263440  1.0  -0.0483
  C  C504  1  0.708770  0.820770  0.298290  1.0  -0.139
  C  C505  1  0.945220  0.422080  0.529800  1.0  0.6805
  C  C506  1  0.912870  0.375710  0.547820  1.0  -0.1249
  C  C507  1  0.884850  0.347020  0.500130  1.0  -0.062
  C  C508  1  0.855900  0.303730  0.516380  1.0  -0.1417
  C  C509  1  0.855000  0.288610  0.579570  1.0  0.0657
  C  C510  1  0.882480  0.318200  0.628030  1.0  -0.1647
  C  C511  1  0.911730  0.361170  0.611100  1.0  -0.0382
  C  C512  1  0.827420  0.241350  0.596770  1.0  -0.0454
  C  C513  1  0.845900  0.221340  0.631620  1.0  -0.1469
  C  C514  1  0.611890  0.755410  0.863130  1.0  0.6805
  C  C515  1  0.579540  0.709040  0.881150  1.0  -0.1249
  C  C516  1  0.551520  0.680350  0.833460  1.0  -0.062
  C  C517  1  0.522570  0.637060  0.849710  1.0  -0.1417
  C  C518  1  0.521670  0.621940  0.912900  1.0  0.0657
  C  C519  1  0.549150  0.651530  0.961360  1.0  -0.1647
  C  C520  1  0.578400  0.694500  0.944430  1.0  -0.0382
  C  C521  1  0.494090  0.574680  0.930100  1.0  -0.0474
  C  C522  1  0.512570  0.554670  0.964950  1.0  -0.1475
  C  C523  1  0.278550  0.088750  0.196470  1.0  0.6805
  C  C524  1  0.246200  0.042380  0.214490  1.0  -0.1249
  C  C525  1  0.218180  0.013690  0.166800  1.0  -0.062
  C  C526  1  0.189230  0.970400  0.183050  1.0  -0.1416
  C  C527  1  0.188330  0.955280  0.246240  1.0  0.0657
  C  C528  1  0.215810  0.984870  0.294700  1.0  -0.1647
  C  C529  1  0.245060  0.027840  0.277770  1.0  -0.0382
  C  C530  1  0.160750  0.908020  0.263440  1.0  -0.0454
  C  C531  1  0.179230  0.888010  0.298290  1.0  -0.147
  C  C532  1  0.523140  0.577920  0.470200  1.0  0.6803
  C  C533  1  0.537160  0.624290  0.452180  1.0  -0.1261
  C  C534  1  0.537830  0.652980  0.499870  1.0  -0.0633
  C  C535  1  0.552170  0.696270  0.483620  1.0  -0.1425
  C  C536  1  0.566390  0.711390  0.420430  1.0  0.0661
  C  C537  1  0.564280  0.681800  0.371970  1.0  -0.1626
  C  C538  1  0.550560  0.638830  0.388900  1.0  -0.0409
  C  C539  1  0.586070  0.758650  0.403230  1.0  -0.0473
  C  C540  1  0.624560  0.778660  0.368380  1.0  -0.1425
  C  C541  1  0.189810  0.911250  0.803530  1.0  0.6803
  C  C542  1  0.203830  0.957620  0.785510  1.0  -0.1261
  C  C543  1  0.204500  0.986310  0.833200  1.0  -0.0633
  C  C544  1  0.218840  0.029600  0.816950  1.0  -0.1425
  C  C545  1  0.233060  0.044720  0.753760  1.0  0.0661
  C  C546  1  0.230950  0.015130  0.705300  1.0  -0.1626
  C  C547  1  0.217230  0.972160  0.722230  1.0  -0.0409
  C  C548  1  0.252740  0.091980  0.736560  1.0  -0.0473
  C  C549  1  0.291230  0.111990  0.701710  1.0  -0.1474
  C  C550  1  0.856470  0.244590  0.136870  1.0  0.6803
  C  C551  1  0.870490  0.290960  0.118850  1.0  -0.1261
  C  C552  1  0.871160  0.319650  0.166540  1.0  -0.0633
  C  C553  1  0.885500  0.362940  0.150290  1.0  -0.1428
  C  C554  1  0.899720  0.378060  0.087100  1.0  0.0661
  C  C555  1  0.897610  0.348470  0.038640  1.0  -0.1626
  C  C556  1  0.883890  0.305500  0.055570  1.0  -0.0409
  C  C557  1  0.919400  0.425320  0.069900  1.0  -0.047
  C  C558  1  0.957890  0.445330  0.035050  1.0  -0.1422
  C  C559  1  0.054780  0.476860  0.470200  1.0  0.6806
  C  C560  1  0.087130  0.462840  0.452180  1.0  -0.1266
  C  C561  1  0.115150  0.462170  0.499870  1.0  -0.0639
  C  C562  1  0.144100  0.447830  0.483620  1.0  -0.142
  C  C563  1  0.145000  0.433610  0.420430  1.0  0.0654
  C  C564  1  0.117520  0.435720  0.371970  1.0  -0.1609
  C  C565  1  0.088270  0.449440  0.388900  1.0  -0.0396
  C  C566  1  0.172580  0.413930  0.403230  1.0  -0.048
  C  C567  1  0.154100  0.375440  0.368380  1.0  -0.1471
  C  C568  1  0.721450  0.810190  0.803530  1.0  0.6806
  C  C569  1  0.753800  0.796170  0.785510  1.0  -0.1266
  C  C570  1  0.781820  0.795500  0.833200  1.0  -0.0639
  C  C571  1  0.810770  0.781160  0.816950  1.0  -0.142
  C  C572  1  0.811670  0.766940  0.753760  1.0  0.0654
  C  C573  1  0.784190  0.769050  0.705300  1.0  -0.1609
  C  C574  1  0.754940  0.782770  0.722230  1.0  -0.0396
  C  C575  1  0.839250  0.747260  0.736560  1.0  -0.0473
  C  C576  1  0.820770  0.708770  0.701710  1.0  -0.1406
  C  C577  1  0.388110  0.143530  0.136870  1.0  0.6806
  C  C578  1  0.420460  0.129510  0.118850  1.0  -0.1266
  C  C579  1  0.448480  0.128840  0.166540  1.0  -0.0639
  C  C580  1  0.477430  0.114500  0.150290  1.0  -0.1417
  C  C581  1  0.478330  0.100280  0.087100  1.0  0.0654
  C  C582  1  0.450850  0.102390  0.038640  1.0  -0.1609
  C  C583  1  0.421600  0.116110  0.055570  1.0  -0.0396
  C  C584  1  0.505910  0.080600  0.069900  1.0  -0.0484
  C  C585  1  0.487430  0.042110  0.035050  1.0  -0.1476
  C  C586  1  0.422080  0.945220  0.470200  1.0  0.68
  C  C587  1  0.375710  0.912870  0.452180  1.0  -0.1258
  C  C588  1  0.347020  0.884850  0.499870  1.0  -0.0641
  C  C589  1  0.303730  0.855900  0.483620  1.0  -0.1419
  C  C590  1  0.288610  0.855000  0.420430  1.0  0.0656
  C  C591  1  0.318200  0.882480  0.371970  1.0  -0.1626
  C  C592  1  0.361170  0.911730  0.388900  1.0  -0.0411
  C  C593  1  0.241350  0.827420  0.403230  1.0  -0.0475
  C  C594  1  0.221340  0.845900  0.368380  1.0  -0.1428
  C  C595  1  0.088750  0.278550  0.803530  1.0  0.68
  C  C596  1  0.042380  0.246200  0.785510  1.0  -0.1258
  C  C597  1  0.013690  0.218180  0.833200  1.0  -0.0641
  C  C598  1  0.970400  0.189230  0.816950  1.0  -0.1418
  C  C599  1  0.955280  0.188330  0.753760  1.0  0.0656
  C  C600  1  0.984870  0.215810  0.705300  1.0  -0.1626
  C  C601  1  0.027840  0.245060  0.722230  1.0  -0.0411
  C  C602  1  0.908020  0.160750  0.736560  1.0  -0.0475
  C  C603  1  0.888010  0.179230  0.701710  1.0  -0.1428
  C  C604  1  0.755410  0.611890  0.136870  1.0  0.68
  C  C605  1  0.709040  0.579540  0.118850  1.0  -0.1258
  C  C606  1  0.680350  0.551520  0.166540  1.0  -0.0641
  C  C607  1  0.637060  0.522570  0.150290  1.0  -0.1419
  C  C608  1  0.621940  0.521670  0.087100  1.0  0.0656
  C  C609  1  0.651530  0.549150  0.038640  1.0  -0.1626
  C  C610  1  0.694500  0.578400  0.055570  1.0  -0.041
  C  C611  1  0.574680  0.494090  0.069900  1.0  -0.0494
  C  C612  1  0.554670  0.512570  0.035050  1.0  -0.1431
  C  C613  1  0.177260  0.354530  0.350400  1.0  0.0136
  C  C614  1  0.216840  0.433690  0.421540  1.0  0.2074
  C  C615  1  0.255040  0.510080  0.416700  1.0  0.0918
  C  C616  1  0.274900  0.549800  0.465000  1.0  -0.3688
  C  C617  1  0.843930  0.687860  0.683730  1.0  0.0137
  C  C618  1  0.883510  0.767020  0.754870  1.0  0.2072
  C  C619  1  0.921710  0.843410  0.750030  1.0  0.0918
  C  C620  1  0.941570  0.883130  0.798330  1.0  -0.3688
  C  C621  1  0.510600  0.021200  0.017070  1.0  0.0136
  C  C622  1  0.550180  0.100360  0.088210  1.0  0.2074
  C  C623  1  0.588370  0.176750  0.083370  1.0  0.0918
  C  C624  1  0.608230  0.216470  0.131670  1.0  -0.3688
  C  C625  1  0.645470  0.822740  0.350400  1.0  0.0113
  C  C626  1  0.566310  0.783160  0.421540  1.0  0.2067
  C  C627  1  0.489920  0.744960  0.416700  1.0  0.0966
  C  C628  1  0.450200  0.725100  0.465000  1.0  -0.3651
  C  C629  1  0.312140  0.156070  0.683730  1.0  0.0113
  C  C630  1  0.232980  0.116490  0.754870  1.0  0.2065
  C  C631  1  0.156590  0.078290  0.750030  1.0  0.0966
  C  C632  1  0.116870  0.058430  0.798330  1.0  -0.3651
  C  C633  1  0.978800  0.489400  0.017070  1.0  0.0113
  C  C634  1  0.899640  0.449820  0.088210  1.0  0.2067
  C  C635  1  0.823250  0.411630  0.083370  1.0  0.0966
  C  C636  1  0.783530  0.391770  0.131670  1.0  -0.3651
  C  C637  1  0.177260  0.822740  0.350400  1.0  0.0131
  C  C638  1  0.216840  0.783160  0.421540  1.0  0.207
  C  C639  1  0.255040  0.744960  0.416700  1.0  0.0957
  C  C640  1  0.274900  0.725100  0.465000  1.0  -0.3655
  C  C641  1  0.843930  0.156070  0.683730  1.0  0.0131
  C  C642  1  0.883510  0.116490  0.754870  1.0  0.207
  C  C643  1  0.921710  0.078290  0.750030  1.0  0.0957
  C  C644  1  0.941570  0.058430  0.798330  1.0  -0.3655
  C  C645  1  0.510600  0.489400  0.017070  1.0  0.0126
  C  C646  1  0.550180  0.449820  0.088210  1.0  0.2066
  C  C647  1  0.588370  0.411630  0.083370  1.0  0.0956
  C  C648  1  0.608230  0.391770  0.131670  1.0  -0.3655
  C  C649  1  0.354530  0.177260  0.649600  1.0  0.0106
  C  C650  1  0.433690  0.216840  0.578460  1.0  0.2075
  C  C651  1  0.510080  0.255040  0.583300  1.0  0.0956
  C  C652  1  0.549800  0.274900  0.535000  1.0  -0.3686
  C  C653  1  0.021200  0.510600  0.982930  1.0  0.0106
  C  C654  1  0.100360  0.550180  0.911790  1.0  0.2075
  C  C655  1  0.176750  0.588370  0.916630  1.0  0.0956
  C  C656  1  0.216470  0.608230  0.868330  1.0  -0.3686
  C  C657  1  0.687860  0.843930  0.316270  1.0  0.0106
  C  C658  1  0.767020  0.883510  0.245130  1.0  0.2074
  C  C659  1  0.843410  0.921710  0.249970  1.0  0.0956
  C  C660  1  0.883130  0.941570  0.201670  1.0  -0.3686
  C  C661  1  0.822740  0.645470  0.649600  1.0  0.0137
  C  C662  1  0.783160  0.566310  0.578460  1.0  0.2081
  C  C663  1  0.744960  0.489920  0.583300  1.0  0.0932
  C  C664  1  0.725100  0.450200  0.535000  1.0  -0.3674
  C  C665  1  0.489400  0.978800  0.982930  1.0  0.0137
  C  C666  1  0.449820  0.899640  0.911790  1.0  0.208
  C  C667  1  0.411630  0.823250  0.916630  1.0  0.0932
  C  C668  1  0.391770  0.783530  0.868330  1.0  -0.3674
  C  C669  1  0.156070  0.312140  0.316270  1.0  0.0137
  C  C670  1  0.116490  0.232980  0.245130  1.0  0.2079
  C  C671  1  0.078290  0.156590  0.249970  1.0  0.0932
  C  C672  1  0.058430  0.116870  0.201670  1.0  -0.3674
  C  C673  1  0.822740  0.177260  0.649600  1.0  0.0128
  C  C674  1  0.783160  0.216840  0.578460  1.0  0.2084
  C  C675  1  0.744960  0.255040  0.583300  1.0  0.0958
  C  C676  1  0.725100  0.274900  0.535000  1.0  -0.3665
  C  C677  1  0.489400  0.510600  0.982930  1.0  0.0125
  C  C678  1  0.449820  0.550180  0.911790  1.0  0.208
  C  C679  1  0.411630  0.588370  0.916630  1.0  0.0957
  C  C680  1  0.391770  0.608230  0.868330  1.0  -0.3665
  C  C681  1  0.156070  0.843930  0.316270  1.0  0.0128
  C  C682  1  0.116490  0.883510  0.245130  1.0  0.2084
  C  C683  1  0.078290  0.921710  0.249970  1.0  0.0958
  C  C684  1  0.058430  0.941570  0.201670  1.0  -0.3665
  O  O685  1  0.446180  0.475790  0.425270  1.0  -0.57
  O  O686  1  0.433390  0.488650  0.528850  1.0  -0.5634
  O  O687  1  0.112850  0.809120  0.758600  1.0  -0.5699
  O  O688  1  0.100060  0.821980  0.862180  1.0  -0.5634
  O  O689  1  0.779510  0.142460  0.091940  1.0  -0.5699
  O  O690  1  0.766720  0.155320  0.195520  1.0  -0.5634
  O  O691  1  0.524210  0.970390  0.425270  1.0  -0.5713
  O  O692  1  0.511350  0.944740  0.528850  1.0  -0.5645
  O  O693  1  0.190880  0.303720  0.758600  1.0  -0.5712
  O  O694  1  0.178020  0.278070  0.862180  1.0  -0.563
  O  O695  1  0.857540  0.637060  0.091940  1.0  -0.5718
  O  O696  1  0.844680  0.611410  0.195520  1.0  -0.5645
  O  O697  1  0.029610  0.553820  0.425270  1.0  -0.5715
  O  O698  1  0.055260  0.566610  0.528850  1.0  -0.5624
  O  O699  1  0.696280  0.887150  0.758600  1.0  -0.5715
  O  O700  1  0.721930  0.899940  0.862180  1.0  -0.564
  O  O701  1  0.362940  0.220490  0.091940  1.0  -0.5704
  O  O702  1  0.388590  0.233280  0.195520  1.0  -0.5624
  O  O703  1  0.475790  0.446180  0.574730  1.0  -0.5696
  O  O704  1  0.488650  0.433390  0.471150  1.0  -0.5625
  O  O705  1  0.142460  0.779510  0.908060  1.0  -0.5696
  O  O706  1  0.155320  0.766720  0.804480  1.0  -0.5625
  O  O707  1  0.809120  0.112850  0.241400  1.0  -0.5696
  O  O708  1  0.821980  0.100060  0.137820  1.0  -0.5626
  O  O709  1  0.970390  0.524210  0.574730  1.0  -0.5683
  O  O710  1  0.944740  0.511350  0.471150  1.0  -0.5649
  O  O711  1  0.637060  0.857540  0.908060  1.0  -0.5689
  O  O712  1  0.611410  0.844680  0.804480  1.0  -0.5649
  O  O713  1  0.303720  0.190880  0.241400  1.0  -0.5682
  O  O714  1  0.278070  0.178020  0.137820  1.0  -0.5634
  O  O715  1  0.553820  0.029610  0.574730  1.0  -0.5701
  O  O716  1  0.566610  0.055260  0.471150  1.0  -0.5628
  O  O717  1  0.220490  0.362940  0.908060  1.0  -0.5696
  O  O718  1  0.233280  0.388590  0.804480  1.0  -0.5628
  O  O719  1  0.887150  0.696280  0.241400  1.0  -0.5701
  O  O720  1  0.899940  0.721930  0.137820  1.0  -0.5647
  O  O721  1  0.553820  0.524210  0.574730  1.0  -0.5681
  O  O722  1  0.566610  0.511350  0.471150  1.0  -0.5638
  O  O723  1  0.220490  0.857540  0.908060  1.0  -0.568
  O  O724  1  0.233280  0.844680  0.804480  1.0  -0.5638
  O  O725  1  0.887150  0.190880  0.241400  1.0  -0.568
  O  O726  1  0.899940  0.178020  0.137820  1.0  -0.5638
  O  O727  1  0.475790  0.029610  0.574730  1.0  -0.569
  O  O728  1  0.488650  0.055260  0.471150  1.0  -0.5642
  O  O729  1  0.142460  0.362940  0.908060  1.0  -0.5694
  O  O730  1  0.155320  0.388590  0.804480  1.0  -0.5642
  O  O731  1  0.809120  0.696280  0.241400  1.0  -0.5689
  O  O732  1  0.821980  0.721930  0.137820  1.0  -0.5625
  O  O733  1  0.970390  0.446180  0.574730  1.0  -0.5689
  O  O734  1  0.944740  0.433390  0.471150  1.0  -0.5625
  O  O735  1  0.637060  0.779510  0.908060  1.0  -0.5684
  O  O736  1  0.611410  0.766720  0.804480  1.0  -0.5625
  O  O737  1  0.303720  0.112850  0.241400  1.0  -0.5689
  O  O738  1  0.278070  0.100060  0.137820  1.0  -0.5639
  O  O739  1  0.524210  0.553820  0.425270  1.0  -0.5701
  O  O740  1  0.511350  0.566610  0.528850  1.0  -0.5631
  O  O741  1  0.190880  0.887150  0.758600  1.0  -0.57
  O  O742  1  0.178020  0.899940  0.862180  1.0  -0.5631
  O  O743  1  0.857540  0.220490  0.091940  1.0  -0.57
  O  O744  1  0.844680  0.233280  0.195520  1.0  -0.5631
  O  O745  1  0.029610  0.475790  0.425270  1.0  -0.5699
  O  O746  1  0.055260  0.488650  0.528850  1.0  -0.5639
  O  O747  1  0.696280  0.809120  0.758600  1.0  -0.5698
  O  O748  1  0.721930  0.821980  0.862180  1.0  -0.5624
  O  O749  1  0.362940  0.142460  0.091940  1.0  -0.571
  O  O750  1  0.388590  0.155320  0.195520  1.0  -0.5639
  O  O751  1  0.446180  0.970390  0.425270  1.0  -0.5717
  O  O752  1  0.433390  0.944740  0.528850  1.0  -0.5625
  O  O753  1  0.112850  0.303720  0.758600  1.0  -0.5717
  O  O754  1  0.100060  0.278070  0.862180  1.0  -0.5644
  O  O755  1  0.779510  0.637060  0.091940  1.0  -0.5709
  O  O756  1  0.766720  0.611410  0.195520  1.0  -0.5625
  O  O757  1  0.236200  0.472400  0.456130  1.0  -0.2817
  O  O758  1  0.902870  0.805730  0.789460  1.0  -0.2817
  O  O759  1  0.569530  0.139070  0.122800  1.0  -0.2817
  O  O760  1  0.527600  0.763800  0.456130  1.0  -0.2816
  O  O761  1  0.194270  0.097130  0.789460  1.0  -0.2816
  O  O762  1  0.860930  0.430470  0.122800  1.0  -0.2816
  O  O763  1  0.236200  0.763800  0.456130  1.0  -0.2826
  O  O764  1  0.902870  0.097130  0.789460  1.0  -0.2826
  O  O765  1  0.569530  0.430470  0.122800  1.0  -0.2826
  O  O766  1  0.472400  0.236200  0.543870  1.0  -0.2797
  O  O767  1  0.139070  0.569530  0.877200  1.0  -0.2797
  O  O768  1  0.805730  0.902870  0.210540  1.0  -0.2797
  O  O769  1  0.763800  0.527600  0.543870  1.0  -0.2796
  O  O770  1  0.430470  0.860930  0.877200  1.0  -0.2796
  O  O771  1  0.097130  0.194270  0.210540  1.0  -0.2796
  O  O772  1  0.763800  0.236200  0.543870  1.0  -0.2793
  O  O773  1  0.430470  0.569530  0.877200  1.0  -0.2792
  O  O774  1  0.097130  0.902870  0.210540  1.0  -0.2793
