# generated using pymatgen
data_CuH15C22O5
_symmetry_space_group_name_H-M   'P 1'
_cell_length_a   35.28790000
_cell_length_b   35.28790000
_cell_length_c   20.32410000
_cell_angle_alpha   90.00000000
_cell_angle_beta   90.00000000
_cell_angle_gamma   120.00000000
_symmetry_Int_Tables_number   1
_chemical_formula_structural   CuH15C22O5
_chemical_formula_sum   'Cu18 H270 C396 O90'
_cell_volume   21917.62958257
_cell_formula_units_Z   18
loop_
 _symmetry_equiv_pos_site_id
 _symmetry_equiv_pos_as_xyz
  1  'x, y, z'
loop_
 _atom_site_type_symbol
 _atom_site_label
 _atom_site_symmetry_multiplicity
 _atom_site_fract_x
 _atom_site_fract_y
 _atom_site_fract_z
 _atom_site_occupancy
 _atom_site_charge
  Cu  Cu1  1  0.318660  0.159330  0.605740  1.0  0.9065
  Cu  Cu2  1  0.985330  0.492660  0.939070  1.0  0.9065
  Cu  Cu3  1  0.651990  0.826000  0.272410  1.0  0.9065
  Cu  Cu4  1  0.840670  0.159330  0.605740  1.0  0.9001
  Cu  Cu5  1  0.507340  0.492660  0.939070  1.0  0.9002
  Cu  Cu6  1  0.174000  0.826000  0.272410  1.0  0.9001
  Cu  Cu7  1  0.840670  0.681340  0.605740  1.0  0.9062
  Cu  Cu8  1  0.507340  0.014670  0.939070  1.0  0.9062
  Cu  Cu9  1  0.174000  0.348010  0.272410  1.0  0.9062
  Cu  Cu10  1  0.159330  0.318660  0.394260  1.0  0.9057
  Cu  Cu11  1  0.826000  0.651990  0.727590  1.0  0.9057
  Cu  Cu12  1  0.492660  0.985330  0.060930  1.0  0.9057
  Cu  Cu13  1  0.159330  0.840670  0.394260  1.0  0.8989
  Cu  Cu14  1  0.826000  0.174000  0.727590  1.0  0.899
  Cu  Cu15  1  0.492660  0.507340  0.060930  1.0  0.8991
  Cu  Cu16  1  0.681340  0.840670  0.394260  1.0  0.9064
  Cu  Cu17  1  0.348010  0.174000  0.727590  1.0  0.9064
  Cu  Cu18  1  0.014670  0.507340  0.060930  1.0  0.9064
  H  H19  1  0.447500  0.309800  0.710800  1.0  0.1114
  H  H20  1  0.496400  0.382400  0.683400  1.0  0.1071
  H  H21  1  0.452400  0.358300  0.495400  1.0  0.117
  H  H22  1  0.402800  0.286000  0.524000  1.0  0.1096
  H  H23  1  0.457600  0.428500  0.521800  1.0  0.1069
  H  H24  1  0.611200  0.434300  0.556800  1.0  0.0851
  H  H25  1  0.631500  0.413800  0.662700  1.0  0.1272
  H  H26  1  0.114170  0.643130  0.044130  1.0  0.1114
  H  H27  1  0.163070  0.715730  0.016730  1.0  0.1071
  H  H28  1  0.119070  0.691630  0.828730  1.0  0.117
  H  H29  1  0.069470  0.619330  0.857330  1.0  0.1096
  H  H30  1  0.124270  0.761830  0.855130  1.0  0.1069
  H  H31  1  0.277870  0.767630  0.890130  1.0  0.0851
  H  H32  1  0.298170  0.747130  0.996030  1.0  0.1272
  H  H33  1  0.780830  0.976470  0.377470  1.0  0.1113
  H  H34  1  0.829730  0.049070  0.350070  1.0  0.1071
  H  H35  1  0.785730  0.024970  0.162070  1.0  0.117
  H  H36  1  0.736130  0.952670  0.190670  1.0  0.1097
  H  H37  1  0.790930  0.095170  0.188470  1.0  0.1069
  H  H38  1  0.944530  0.100970  0.223470  1.0  0.0879
  H  H39  1  0.964830  0.080470  0.329370  1.0  0.1253
  H  H40  1  0.690200  0.137700  0.710800  1.0  0.1107
  H  H41  1  0.617600  0.114000  0.683400  1.0  0.1075
  H  H42  1  0.641700  0.094100  0.495400  1.0  0.1174
  H  H43  1  0.714000  0.116800  0.524000  1.0  0.1106
  H  H44  1  0.571500  0.029100  0.521800  1.0  0.1078
  H  H45  1  0.565700  0.176900  0.556800  1.0  0.0844
  H  H46  1  0.586200  0.217700  0.662700  1.0  0.1237
  H  H47  1  0.356870  0.471030  0.044130  1.0  0.1107
  H  H48  1  0.284270  0.447330  0.016730  1.0  0.1075
  H  H49  1  0.308370  0.427430  0.828730  1.0  0.1174
  H  H50  1  0.380670  0.450130  0.857330  1.0  0.1106
  H  H51  1  0.238170  0.362430  0.855130  1.0  0.1078
  H  H52  1  0.232370  0.510230  0.890130  1.0  0.0844
  H  H53  1  0.252870  0.551030  0.996030  1.0  0.1237
  H  H54  1  0.023530  0.804370  0.377470  1.0  0.1107
  H  H55  1  0.950930  0.780670  0.350070  1.0  0.109
  H  H56  1  0.975030  0.760770  0.162070  1.0  0.1181
  H  H57  1  0.047330  0.783470  0.190670  1.0  0.1106
  H  H58  1  0.904830  0.695770  0.188470  1.0  0.1078
  H  H59  1  0.899030  0.843570  0.223470  1.0  0.0847
  H  H60  1  0.919530  0.884370  0.329370  1.0  0.1233
  H  H61  1  0.862300  0.552500  0.710800  1.0  0.1114
  H  H62  1  0.886000  0.503600  0.683400  1.0  0.1088
  H  H63  1  0.905900  0.547600  0.495400  1.0  0.1181
  H  H64  1  0.883200  0.597200  0.524000  1.0  0.1102
  H  H65  1  0.970900  0.542400  0.521800  1.0  0.1083
  H  H66  1  0.823100  0.388800  0.556800  1.0  0.086
  H  H67  1  0.782300  0.368500  0.662700  1.0  0.1266
  H  H68  1  0.528970  0.885830  0.044130  1.0  0.1114
  H  H69  1  0.552670  0.836930  0.016730  1.0  0.1088
  H  H70  1  0.572570  0.880930  0.828730  1.0  0.1181
  H  H71  1  0.549870  0.930530  0.857330  1.0  0.1102
  H  H72  1  0.637570  0.875730  0.855130  1.0  0.1083
  H  H73  1  0.489770  0.722130  0.890130  1.0  0.086
  H  H74  1  0.448970  0.701830  0.996030  1.0  0.1266
  H  H75  1  0.195630  0.219170  0.377470  1.0  0.1115
  H  H76  1  0.219330  0.170270  0.350070  1.0  0.1072
  H  H77  1  0.239230  0.214270  0.162070  1.0  0.117
  H  H78  1  0.216530  0.263870  0.190670  1.0  0.1102
  H  H79  1  0.304230  0.209070  0.188470  1.0  0.1083
  H  H80  1  0.156430  0.055470  0.223470  1.0  0.0859
  H  H81  1  0.115630  0.035170  0.329370  1.0  0.1269
  H  H82  1  0.309800  0.447500  0.289200  1.0  0.1116
  H  H83  1  0.382400  0.496400  0.316600  1.0  0.1067
  H  H84  1  0.358300  0.452400  0.504600  1.0  0.1175
  H  H85  1  0.286000  0.402800  0.476000  1.0  0.1101
  H  H86  1  0.428500  0.457600  0.478200  1.0  0.1081
  H  H87  1  0.434300  0.611200  0.443200  1.0  0.0849
  H  H88  1  0.413800  0.631500  0.337300  1.0  0.1267
  H  H89  1  0.976470  0.780830  0.622530  1.0  0.1114
  H  H90  1  0.049070  0.829730  0.649930  1.0  0.1067
  H  H91  1  0.024970  0.785730  0.837930  1.0  0.1175
  H  H92  1  0.952670  0.736130  0.809330  1.0  0.1099
  H  H93  1  0.095170  0.790930  0.811530  1.0  0.1081
  H  H94  1  0.100970  0.944530  0.776530  1.0  0.0877
  H  H95  1  0.080470  0.964830  0.670630  1.0  0.1242
  H  H96  1  0.643130  0.114170  0.955870  1.0  0.1116
  H  H97  1  0.715730  0.163070  0.983270  1.0  0.1067
  H  H98  1  0.691630  0.119070  0.171270  1.0  0.1175
  H  H99  1  0.619330  0.069470  0.142670  1.0  0.1101
  H  H100  1  0.761830  0.124270  0.144870  1.0  0.1081
  H  H101  1  0.767630  0.277870  0.109870  1.0  0.0849
  H  H102  1  0.747130  0.298170  0.003970  1.0  0.1267
  H  H103  1  0.137700  0.690200  0.289200  1.0  0.1112
  H  H104  1  0.114000  0.617600  0.316600  1.0  0.1063
  H  H105  1  0.094100  0.641700  0.504600  1.0  0.1167
  H  H106  1  0.116800  0.714000  0.476000  1.0  0.1097
  H  H107  1  0.029100  0.571500  0.478200  1.0  0.1073
  H  H108  1  0.176900  0.565700  0.443200  1.0  0.0871
  H  H109  1  0.217700  0.586200  0.337300  1.0  0.1263
  H  H110  1  0.804370  0.023530  0.622530  1.0  0.1112
  H  H111  1  0.780670  0.950930  0.649930  1.0  0.1076
  H  H112  1  0.760770  0.975030  0.837930  1.0  0.1177
  H  H113  1  0.783470  0.047330  0.809330  1.0  0.1097
  H  H114  1  0.695770  0.904830  0.811530  1.0  0.1073
  H  H115  1  0.843570  0.899030  0.776530  1.0  0.0882
  H  H116  1  0.884370  0.919530  0.670630  1.0  0.1258
  H  H117  1  0.471030  0.356870  0.955870  1.0  0.1112
  H  H118  1  0.447330  0.284270  0.983270  1.0  0.1063
  H  H119  1  0.427430  0.308370  0.171270  1.0  0.1167
  H  H120  1  0.450130  0.380670  0.142670  1.0  0.1097
  H  H121  1  0.362430  0.238170  0.144870  1.0  0.1073
  H  H122  1  0.510230  0.232370  0.109870  1.0  0.0871
  H  H123  1  0.551030  0.252870  0.003970  1.0  0.1263
  H  H124  1  0.552500  0.862300  0.289200  1.0  0.1106
  H  H125  1  0.503600  0.886000  0.316600  1.0  0.1084
  H  H126  1  0.547600  0.905900  0.504600  1.0  0.1178
  H  H127  1  0.597200  0.883200  0.476000  1.0  0.1102
  H  H128  1  0.542400  0.970900  0.478200  1.0  0.1083
  H  H129  1  0.388800  0.823100  0.443200  1.0  0.0852
  H  H130  1  0.368500  0.782300  0.337300  1.0  0.1225
  H  H131  1  0.219170  0.195630  0.622530  1.0  0.1109
  H  H132  1  0.170270  0.219330  0.649930  1.0  0.1073
  H  H133  1  0.214270  0.239230  0.837930  1.0  0.1166
  H  H134  1  0.263870  0.216530  0.809330  1.0  0.1104
  H  H135  1  0.209070  0.304230  0.811530  1.0  0.1083
  H  H136  1  0.055470  0.156430  0.776530  1.0  0.085
  H  H137  1  0.035170  0.115630  0.670630  1.0  0.1236
  H  H138  1  0.885830  0.528970  0.955870  1.0  0.1106
  H  H139  1  0.836930  0.552670  0.983270  1.0  0.1084
  H  H140  1  0.880930  0.572570  0.171270  1.0  0.1178
  H  H141  1  0.930530  0.549870  0.142670  1.0  0.1102
  H  H142  1  0.875730  0.637570  0.144870  1.0  0.1083
  H  H143  1  0.722130  0.489770  0.109870  1.0  0.0852
  H  H144  1  0.701830  0.448970  0.003970  1.0  0.1225
  H  H145  1  0.552500  0.690200  0.289200  1.0  0.1115
  H  H146  1  0.503600  0.617600  0.316600  1.0  0.1065
  H  H147  1  0.547600  0.641700  0.504600  1.0  0.1168
  H  H148  1  0.597200  0.714000  0.476000  1.0  0.1101
  H  H149  1  0.542400  0.571500  0.478200  1.0  0.1069
  H  H150  1  0.388800  0.565700  0.443200  1.0  0.0866
  H  H151  1  0.368500  0.586200  0.337300  1.0  0.127
  H  H152  1  0.219170  0.023530  0.622530  1.0  0.1112
  H  H153  1  0.170270  0.950930  0.649930  1.0  0.1065
  H  H154  1  0.214270  0.975030  0.837930  1.0  0.1168
  H  H155  1  0.263870  0.047330  0.809330  1.0  0.1098
  H  H156  1  0.209070  0.904830  0.811530  1.0  0.1069
  H  H157  1  0.055470  0.899030  0.776530  1.0  0.0893
  H  H158  1  0.035170  0.919530  0.670630  1.0  0.125
  H  H159  1  0.885830  0.356870  0.955870  1.0  0.1115
  H  H160  1  0.836930  0.284270  0.983270  1.0  0.1065
  H  H161  1  0.880930  0.308370  0.171270  1.0  0.1168
  H  H162  1  0.930530  0.380670  0.142670  1.0  0.1101
  H  H163  1  0.875730  0.238170  0.144870  1.0  0.1069
  H  H164  1  0.722130  0.232370  0.109870  1.0  0.0866
  H  H165  1  0.701830  0.252870  0.003970  1.0  0.127
  H  H166  1  0.309800  0.862300  0.289200  1.0  0.1109
  H  H167  1  0.382400  0.886000  0.316600  1.0  0.1068
  H  H168  1  0.358300  0.905900  0.504600  1.0  0.117
  H  H169  1  0.286000  0.883200  0.476000  1.0  0.1099
  H  H170  1  0.428500  0.970900  0.478200  1.0  0.107
  H  H171  1  0.434300  0.823100  0.443200  1.0  0.085
  H  H172  1  0.413800  0.782300  0.337300  1.0  0.1236
  H  H173  1  0.976470  0.195630  0.622530  1.0  0.1109
  H  H174  1  0.049070  0.219330  0.649930  1.0  0.1079
  H  H175  1  0.024970  0.239230  0.837930  1.0  0.1179
  H  H176  1  0.952670  0.216530  0.809330  1.0  0.1099
  H  H177  1  0.095170  0.304230  0.811530  1.0  0.107
  H  H178  1  0.100970  0.156430  0.776530  1.0  0.086
  H  H179  1  0.080470  0.115630  0.670630  1.0  0.1232
  H  H180  1  0.643130  0.528970  0.955870  1.0  0.1109
  H  H181  1  0.715730  0.552670  0.983270  1.0  0.1068
  H  H182  1  0.691630  0.572570  0.171270  1.0  0.117
  H  H183  1  0.619330  0.549870  0.142670  1.0  0.1099
  H  H184  1  0.761830  0.637570  0.144870  1.0  0.107
  H  H185  1  0.767630  0.489770  0.109870  1.0  0.085
  H  H186  1  0.747130  0.448970  0.003970  1.0  0.1236
  H  H187  1  0.137700  0.447500  0.289200  1.0  0.1114
  H  H188  1  0.114000  0.496400  0.316600  1.0  0.1081
  H  H189  1  0.094100  0.452400  0.504600  1.0  0.1181
  H  H190  1  0.116800  0.402800  0.476000  1.0  0.11
  H  H191  1  0.029100  0.457600  0.478200  1.0  0.1072
  H  H192  1  0.176900  0.611200  0.443200  1.0  0.0874
  H  H193  1  0.217700  0.631500  0.337300  1.0  0.126
  H  H194  1  0.804370  0.780830  0.622530  1.0  0.1117
  H  H195  1  0.780670  0.829730  0.649930  1.0  0.1069
  H  H196  1  0.760770  0.785730  0.837930  1.0  0.1169
  H  H197  1  0.783470  0.736130  0.809330  1.0  0.1103
  H  H198  1  0.695770  0.790930  0.811530  1.0  0.1072
  H  H199  1  0.843570  0.944530  0.776530  1.0  0.0868
  H  H200  1  0.884370  0.964830  0.670630  1.0  0.1277
  H  H201  1  0.471030  0.114170  0.955870  1.0  0.1114
  H  H202  1  0.447330  0.163070  0.983270  1.0  0.1081
  H  H203  1  0.427430  0.119070  0.171270  1.0  0.1181
  H  H204  1  0.450130  0.069470  0.142670  1.0  0.11
  H  H205  1  0.362430  0.124270  0.144870  1.0  0.1072
  H  H206  1  0.510230  0.277870  0.109870  1.0  0.0874
  H  H207  1  0.551030  0.298170  0.003970  1.0  0.126
  H  H208  1  0.690200  0.552500  0.710800  1.0  0.1118
  H  H209  1  0.617600  0.503600  0.683400  1.0  0.1072
  H  H210  1  0.641700  0.547600  0.495400  1.0  0.1168
  H  H211  1  0.714000  0.597200  0.524000  1.0  0.1103
  H  H212  1  0.571500  0.542400  0.521800  1.0  0.108
  H  H213  1  0.565700  0.388800  0.556800  1.0  0.0847
  H  H214  1  0.586200  0.368500  0.662700  1.0  0.1274
  H  H215  1  0.356870  0.885830  0.044130  1.0  0.1118
  H  H216  1  0.284270  0.836930  0.016730  1.0  0.1072
  H  H217  1  0.308370  0.880930  0.828730  1.0  0.1168
  H  H218  1  0.380670  0.930530  0.857330  1.0  0.1103
  H  H219  1  0.238170  0.875730  0.855130  1.0  0.108
  H  H220  1  0.232370  0.722130  0.890130  1.0  0.0847
  H  H221  1  0.252870  0.701830  0.996030  1.0  0.1274
  H  H222  1  0.023530  0.219170  0.377470  1.0  0.1116
  H  H223  1  0.950930  0.170270  0.350070  1.0  0.1072
  H  H224  1  0.975030  0.214270  0.162070  1.0  0.1168
  H  H225  1  0.047330  0.263870  0.190670  1.0  0.1103
  H  H226  1  0.904830  0.209070  0.188470  1.0  0.108
  H  H227  1  0.899030  0.055470  0.223470  1.0  0.0876
  H  H228  1  0.919530  0.035170  0.329370  1.0  0.1264
  H  H229  1  0.862300  0.309800  0.710800  1.0  0.1113
  H  H230  1  0.886000  0.382400  0.683400  1.0  0.107
  H  H231  1  0.905900  0.358300  0.495400  1.0  0.1168
  H  H232  1  0.883200  0.286000  0.524000  1.0  0.1099
  H  H233  1  0.970900  0.428500  0.521800  1.0  0.107
  H  H234  1  0.823100  0.434300  0.556800  1.0  0.0857
  H  H235  1  0.782300  0.413800  0.662700  1.0  0.1263
  H  H236  1  0.528970  0.643130  0.044130  1.0  0.1113
  H  H237  1  0.552670  0.715730  0.016730  1.0  0.107
  H  H238  1  0.572570  0.691630  0.828730  1.0  0.1168
  H  H239  1  0.549870  0.619330  0.857330  1.0  0.1099
  H  H240  1  0.637570  0.761830  0.855130  1.0  0.107
  H  H241  1  0.489770  0.767630  0.890130  1.0  0.0857
  H  H242  1  0.448970  0.747130  0.996030  1.0  0.1263
  H  H243  1  0.195630  0.976470  0.377470  1.0  0.1113
  H  H244  1  0.219330  0.049070  0.350070  1.0  0.1085
  H  H245  1  0.239230  0.024970  0.162070  1.0  0.1176
  H  H246  1  0.216530  0.952670  0.190670  1.0  0.1099
  H  H247  1  0.304230  0.095170  0.188470  1.0  0.107
  H  H248  1  0.156430  0.100970  0.223470  1.0  0.0871
  H  H249  1  0.115630  0.080470  0.329370  1.0  0.1257
  H  H250  1  0.447500  0.137700  0.710800  1.0  0.1107
  H  H251  1  0.496400  0.114000  0.683400  1.0  0.1093
  H  H252  1  0.452400  0.094100  0.495400  1.0  0.1178
  H  H253  1  0.402800  0.116800  0.524000  1.0  0.1101
  H  H254  1  0.457600  0.029100  0.521800  1.0  0.1074
  H  H255  1  0.611200  0.176900  0.556800  1.0  0.0858
  H  H256  1  0.631500  0.217700  0.662700  1.0  0.1232
  H  H257  1  0.114170  0.471030  0.044130  1.0  0.1107
  H  H258  1  0.163070  0.447330  0.016730  1.0  0.1093
  H  H259  1  0.119070  0.427430  0.828730  1.0  0.1178
  H  H260  1  0.069470  0.450130  0.857330  1.0  0.1101
  H  H261  1  0.124270  0.362430  0.855130  1.0  0.1074
  H  H262  1  0.277870  0.510230  0.890130  1.0  0.0858
  H  H263  1  0.298170  0.551030  0.996030  1.0  0.1232
  H  H264  1  0.780830  0.804370  0.377470  1.0  0.111
  H  H265  1  0.829730  0.780670  0.350070  1.0  0.1078
  H  H266  1  0.785730  0.760770  0.162070  1.0  0.117
  H  H267  1  0.736130  0.783470  0.190670  1.0  0.1102
  H  H268  1  0.790930  0.695770  0.188470  1.0  0.1074
  H  H269  1  0.944530  0.843570  0.223470  1.0  0.0849
  H  H270  1  0.964830  0.884370  0.329370  1.0  0.1241
  H  H271  1  0.622800  0.377200  0.609000  1.0  0.1358
  H  H272  1  0.289470  0.710530  0.942330  1.0  0.1358
  H  H273  1  0.956130  0.043870  0.275670  1.0  0.1359
  H  H274  1  0.622800  0.245600  0.609000  1.0  0.1365
  H  H275  1  0.289470  0.578930  0.942330  1.0  0.1365
  H  H276  1  0.956130  0.912270  0.275670  1.0  0.1388
  H  H277  1  0.754400  0.377200  0.609000  1.0  0.1336
  H  H278  1  0.421070  0.710530  0.942330  1.0  0.1336
  H  H279  1  0.087730  0.043870  0.275670  1.0  0.1361
  H  H280  1  0.377200  0.622800  0.391000  1.0  0.133
  H  H281  1  0.043870  0.956130  0.724330  1.0  0.133
  H  H282  1  0.710530  0.289470  0.057670  1.0  0.133
  H  H283  1  0.245600  0.622800  0.391000  1.0  0.1355
  H  H284  1  0.912270  0.956130  0.724330  1.0  0.1383
  H  H285  1  0.578930  0.289470  0.057670  1.0  0.1355
  H  H286  1  0.377200  0.754400  0.391000  1.0  0.1342
  H  H287  1  0.043870  0.087730  0.724330  1.0  0.1368
  H  H288  1  0.710530  0.421070  0.057670  1.0  0.1342
  C  C289  1  0.388080  0.244610  0.637310  1.0  0.6817
  C  C290  1  0.420400  0.290990  0.619270  1.0  -0.1259
  C  C291  1  0.448280  0.319780  0.667150  1.0  -0.0415
  C  C292  1  0.477090  0.363020  0.650860  1.0  -0.1371
  C  C293  1  0.478090  0.378290  0.588120  1.0  0.0346
  C  C294  1  0.450880  0.348740  0.539490  1.0  -0.154
  C  C295  1  0.421890  0.305670  0.556430  1.0  -0.0311
  C  C296  1  0.505480  0.425680  0.571340  1.0  -0.0456
  C  C297  1  0.487330  0.445500  0.535110  1.0  -0.1552
  C  C298  1  0.054750  0.577940  0.970640  1.0  0.6817
  C  C299  1  0.087070  0.624320  0.952600  1.0  -0.1263
  C  C300  1  0.114950  0.653110  0.000480  1.0  -0.0415
  C  C301  1  0.143760  0.696350  0.984190  1.0  -0.1371
  C  C302  1  0.144760  0.711620  0.921450  1.0  0.0346
  C  C303  1  0.117550  0.682070  0.872820  1.0  -0.154
  C  C304  1  0.088560  0.639000  0.889760  1.0  -0.0311
  C  C305  1  0.172150  0.759010  0.904670  1.0  -0.0456
  C  C306  1  0.154000  0.778830  0.868440  1.0  -0.1552
  C  C307  1  0.721410  0.911280  0.303980  1.0  0.6817
  C  C308  1  0.753730  0.957660  0.285940  1.0  -0.1259
  C  C309  1  0.781610  0.986450  0.333820  1.0  -0.0415
  C  C310  1  0.810420  0.029690  0.317530  1.0  -0.1371
  C  C311  1  0.811420  0.044960  0.254790  1.0  0.0346
  C  C312  1  0.784210  0.015410  0.206160  1.0  -0.154
  C  C313  1  0.755220  0.972340  0.223100  1.0  -0.0311
  C  C314  1  0.838810  0.092350  0.238010  1.0  -0.0456
  C  C315  1  0.820660  0.112170  0.201780  1.0  -0.1552
  C  C316  1  0.755390  0.143470  0.637310  1.0  0.6814
  C  C317  1  0.709010  0.129410  0.619270  1.0  -0.1263
  C  C318  1  0.680220  0.128500  0.667150  1.0  -0.042
  C  C319  1  0.636980  0.114070  0.650860  1.0  -0.1355
  C  C320  1  0.621710  0.099800  0.588120  1.0  0.0344
  C  C321  1  0.651260  0.102140  0.539490  1.0  -0.153
  C  C322  1  0.694330  0.116220  0.556430  1.0  -0.0296
  C  C323  1  0.574320  0.079800  0.571340  1.0  -0.0352
  C  C324  1  0.554500  0.041830  0.535110  1.0  -0.1556
  C  C325  1  0.422060  0.476800  0.970640  1.0  0.6815
  C  C326  1  0.375680  0.462740  0.952600  1.0  -0.1261
  C  C327  1  0.346890  0.461830  0.000480  1.0  -0.042
  C  C328  1  0.303650  0.447400  0.984190  1.0  -0.1355
  C  C329  1  0.288380  0.433130  0.921450  1.0  0.0344
  C  C330  1  0.317930  0.435470  0.872820  1.0  -0.153
  C  C331  1  0.361000  0.449550  0.889760  1.0  -0.0296
  C  C332  1  0.240990  0.413130  0.904670  1.0  -0.0449
  C  C333  1  0.221170  0.375160  0.868440  1.0  -0.1556
  C  C334  1  0.088720  0.810140  0.303980  1.0  0.6814
  C  C335  1  0.042340  0.796080  0.285940  1.0  -0.1263
  C  C336  1  0.013550  0.795170  0.333820  1.0  -0.042
  C  C337  1  0.970310  0.780740  0.317530  1.0  -0.1355
  C  C338  1  0.955040  0.766470  0.254790  1.0  0.0344
  C  C339  1  0.984590  0.768810  0.206160  1.0  -0.153
  C  C340  1  0.027660  0.782890  0.223100  1.0  -0.0296
  C  C341  1  0.907650  0.746470  0.238010  1.0  -0.0352
  C  C342  1  0.887830  0.708500  0.201780  1.0  -0.1556
  C  C343  1  0.856530  0.611920  0.637310  1.0  0.6816
  C  C344  1  0.870590  0.579600  0.619270  1.0  -0.1259
  C  C345  1  0.871500  0.551720  0.667150  1.0  -0.0421
  C  C346  1  0.885930  0.522910  0.650860  1.0  -0.1356
  C  C347  1  0.900200  0.521910  0.588120  1.0  0.0349
  C  C348  1  0.897860  0.549120  0.539490  1.0  -0.154
  C  C349  1  0.883780  0.578110  0.556430  1.0  -0.0311
  C  C350  1  0.920200  0.494520  0.571340  1.0  -0.0452
  C  C351  1  0.958170  0.512670  0.535110  1.0  -0.1525
  C  C352  1  0.523200  0.945250  0.970640  1.0  0.6815
  C  C353  1  0.537260  0.912930  0.952600  1.0  -0.1252
  C  C354  1  0.538170  0.885050  0.000480  1.0  -0.0421
  C  C355  1  0.552600  0.856240  0.984190  1.0  -0.1356
  C  C356  1  0.566870  0.855240  0.921450  1.0  0.0349
  C  C357  1  0.564530  0.882450  0.872820  1.0  -0.154
  C  C358  1  0.550450  0.911440  0.889760  1.0  -0.0311
  C  C359  1  0.586870  0.827850  0.904670  1.0  -0.0354
  C  C360  1  0.624840  0.846000  0.868440  1.0  -0.1525
  C  C361  1  0.189860  0.278590  0.303980  1.0  0.6816
  C  C362  1  0.203920  0.246270  0.285940  1.0  -0.1259
  C  C363  1  0.204830  0.218390  0.333820  1.0  -0.0421
  C  C364  1  0.219260  0.189580  0.317530  1.0  -0.1356
  C  C365  1  0.233530  0.188580  0.254790  1.0  0.0349
  C  C366  1  0.231190  0.215790  0.206160  1.0  -0.154
  C  C367  1  0.217110  0.244780  0.223100  1.0  -0.0311
  C  C368  1  0.253530  0.161190  0.238010  1.0  -0.0452
  C  C369  1  0.291500  0.179340  0.201780  1.0  -0.1525
  C  C370  1  0.244610  0.388080  0.362690  1.0  0.6814
  C  C371  1  0.290990  0.420400  0.380730  1.0  -0.1257
  C  C372  1  0.319780  0.448280  0.332850  1.0  -0.0417
  C  C373  1  0.363020  0.477090  0.349140  1.0  -0.1341
  C  C374  1  0.378290  0.478090  0.411880  1.0  0.0355
  C  C375  1  0.348740  0.450880  0.460510  1.0  -0.1572
  C  C376  1  0.305670  0.421890  0.443570  1.0  -0.032
  C  C377  1  0.425680  0.505480  0.428660  1.0  -0.0461
  C  C378  1  0.445500  0.487330  0.464890  1.0  -0.153
  C  C379  1  0.911280  0.721410  0.696020  1.0  0.6814
  C  C380  1  0.957660  0.753730  0.714060  1.0  -0.1257
  C  C381  1  0.986450  0.781610  0.666180  1.0  -0.0417
  C  C382  1  0.029690  0.810420  0.682470  1.0  -0.1341
  C  C383  1  0.044960  0.811420  0.745210  1.0  0.0355
  C  C384  1  0.015410  0.784210  0.793840  1.0  -0.1572
  C  C385  1  0.972340  0.755220  0.776900  1.0  -0.032
  C  C386  1  0.092350  0.838810  0.761990  1.0  -0.0461
  C  C387  1  0.112170  0.820660  0.798220  1.0  -0.153
  C  C388  1  0.577940  0.054750  0.029360  1.0  0.6814
  C  C389  1  0.624320  0.087070  0.047400  1.0  -0.1261
  C  C390  1  0.653110  0.114950  0.999520  1.0  -0.0417
  C  C391  1  0.696350  0.143760  0.015810  1.0  -0.1341
  C  C392  1  0.711620  0.144760  0.078550  1.0  0.0355
  C  C393  1  0.682070  0.117550  0.127180  1.0  -0.1572
  C  C394  1  0.639000  0.088560  0.110240  1.0  -0.032
  C  C395  1  0.759010  0.172150  0.095330  1.0  -0.0461
  C  C396  1  0.778830  0.154000  0.131560  1.0  -0.153
  C  C397  1  0.143470  0.755390  0.362690  1.0  0.682
  C  C398  1  0.129410  0.709010  0.380730  1.0  -0.1256
  C  C399  1  0.128500  0.680220  0.332850  1.0  -0.042
  C  C400  1  0.114070  0.636980  0.349140  1.0  -0.1364
  C  C401  1  0.099800  0.621710  0.411880  1.0  0.0343
  C  C402  1  0.102140  0.651260  0.460510  1.0  -0.157
  C  C403  1  0.116220  0.694330  0.443570  1.0  -0.0318
  C  C404  1  0.079800  0.574320  0.428660  1.0  -0.0362
  C  C405  1  0.041830  0.554500  0.464890  1.0  -0.1555
  C  C406  1  0.810140  0.088720  0.696020  1.0  0.682
  C  C407  1  0.796080  0.042340  0.714060  1.0  -0.1256
  C  C408  1  0.795170  0.013550  0.666180  1.0  -0.042
  C  C409  1  0.780740  0.970310  0.682470  1.0  -0.1364
  C  C410  1  0.766470  0.955040  0.745210  1.0  0.0343
  C  C411  1  0.768810  0.984590  0.793840  1.0  -0.157
  C  C412  1  0.782890  0.027660  0.776900  1.0  -0.0318
  C  C413  1  0.746470  0.907650  0.761990  1.0  -0.0362
  C  C414  1  0.708500  0.887830  0.798220  1.0  -0.1555
  C  C415  1  0.476800  0.422060  0.029360  1.0  0.682
  C  C416  1  0.462740  0.375680  0.047400  1.0  -0.1252
  C  C417  1  0.461830  0.346890  0.999520  1.0  -0.042
  C  C418  1  0.447400  0.303650  0.015810  1.0  -0.1364
  C  C419  1  0.433130  0.288380  0.078550  1.0  0.0343
  C  C420  1  0.435470  0.317930  0.127180  1.0  -0.157
  C  C421  1  0.449550  0.361000  0.110240  1.0  -0.0318
  C  C422  1  0.413130  0.240990  0.095330  1.0  -0.0455
  C  C423  1  0.375160  0.221170  0.131560  1.0  -0.1555
  C  C424  1  0.611920  0.856530  0.362690  1.0  0.6811
  C  C425  1  0.579600  0.870590  0.380730  1.0  -0.1263
  C  C426  1  0.551720  0.871500  0.332850  1.0  -0.0417
  C  C427  1  0.522910  0.885930  0.349140  1.0  -0.1349
  C  C428  1  0.521910  0.900200  0.411880  1.0  0.0341
  C  C429  1  0.549120  0.897860  0.460510  1.0  -0.1572
  C  C430  1  0.578110  0.883780  0.443570  1.0  -0.0294
  C  C431  1  0.494520  0.920200  0.428660  1.0  -0.0438
  C  C432  1  0.512670  0.958170  0.464890  1.0  -0.1561
  C  C433  1  0.278590  0.189860  0.696020  1.0  0.6811
  C  C434  1  0.246270  0.203920  0.714060  1.0  -0.1263
  C  C435  1  0.218390  0.204830  0.666180  1.0  -0.0417
  C  C436  1  0.189580  0.219260  0.682470  1.0  -0.1349
  C  C437  1  0.188580  0.233530  0.745210  1.0  0.0341
  C  C438  1  0.215790  0.231190  0.793840  1.0  -0.1572
  C  C439  1  0.244780  0.217110  0.776900  1.0  -0.0294
  C  C440  1  0.161190  0.253530  0.761990  1.0  -0.0438
  C  C441  1  0.179340  0.291500  0.798220  1.0  -0.1561
  C  C442  1  0.945250  0.523200  0.029360  1.0  0.6811
  C  C443  1  0.912930  0.537260  0.047400  1.0  -0.1261
  C  C444  1  0.885050  0.538170  0.999520  1.0  -0.0417
  C  C445  1  0.856240  0.552600  0.015810  1.0  -0.1349
  C  C446  1  0.855240  0.566870  0.078550  1.0  0.0341
  C  C447  1  0.882450  0.564530  0.127180  1.0  -0.1572
  C  C448  1  0.911440  0.550450  0.110240  1.0  -0.0294
  C  C449  1  0.827850  0.586870  0.095330  1.0  -0.034
  C  C450  1  0.846000  0.624840  0.131560  1.0  -0.1561
  C  C451  1  0.611920  0.755390  0.362690  1.0  0.6819
  C  C452  1  0.579600  0.709010  0.380730  1.0  -0.125
  C  C453  1  0.551720  0.680220  0.332850  1.0  -0.0423
  C  C454  1  0.522910  0.636980  0.349140  1.0  -0.136
  C  C455  1  0.521910  0.621710  0.411880  1.0  0.0343
  C  C456  1  0.549120  0.651260  0.460510  1.0  -0.1563
  C  C457  1  0.578110  0.694330  0.443570  1.0  -0.0305
  C  C458  1  0.494520  0.574320  0.428660  1.0  -0.0445
  C  C459  1  0.512670  0.554500  0.464890  1.0  -0.1556
  C  C460  1  0.278590  0.088720  0.696020  1.0  0.6819
  C  C461  1  0.246270  0.042340  0.714060  1.0  -0.125
  C  C462  1  0.218390  0.013550  0.666180  1.0  -0.0423
  C  C463  1  0.189580  0.970310  0.682470  1.0  -0.136
  C  C464  1  0.188580  0.955040  0.745210  1.0  0.0343
  C  C465  1  0.215790  0.984590  0.793840  1.0  -0.1563
  C  C466  1  0.244780  0.027660  0.776900  1.0  -0.0305
  C  C467  1  0.161190  0.907650  0.761990  1.0  -0.0445
  C  C468  1  0.179340  0.887830  0.798220  1.0  -0.1556
  C  C469  1  0.945250  0.422060  0.029360  1.0  0.682
  C  C470  1  0.912930  0.375680  0.047400  1.0  -0.1255
  C  C471  1  0.885050  0.346890  0.999520  1.0  -0.0423
  C  C472  1  0.856240  0.303650  0.015810  1.0  -0.136
  C  C473  1  0.855240  0.288380  0.078550  1.0  0.0343
  C  C474  1  0.882450  0.317930  0.127180  1.0  -0.1563
  C  C475  1  0.911440  0.361000  0.110240  1.0  -0.0305
  C  C476  1  0.827850  0.240990  0.095330  1.0  -0.0445
  C  C477  1  0.846000  0.221170  0.131560  1.0  -0.1556
  C  C478  1  0.244610  0.856530  0.362690  1.0  0.6815
  C  C479  1  0.290990  0.870590  0.380730  1.0  -0.1258
  C  C480  1  0.319780  0.871500  0.332850  1.0  -0.0411
  C  C481  1  0.363020  0.885930  0.349140  1.0  -0.135
  C  C482  1  0.378290  0.900200  0.411880  1.0  0.0339
  C  C483  1  0.348740  0.897860  0.460510  1.0  -0.1554
  C  C484  1  0.305670  0.883780  0.443570  1.0  -0.0302
  C  C485  1  0.425680  0.920200  0.428660  1.0  -0.0348
  C  C486  1  0.445500  0.958170  0.464890  1.0  -0.1547
  C  C487  1  0.911280  0.189860  0.696020  1.0  0.6815
  C  C488  1  0.957660  0.203920  0.714060  1.0  -0.1258
  C  C489  1  0.986450  0.204830  0.666180  1.0  -0.0411
  C  C490  1  0.029690  0.219260  0.682470  1.0  -0.135
  C  C491  1  0.044960  0.233530  0.745210  1.0  0.0339
  C  C492  1  0.015410  0.231190  0.793840  1.0  -0.1554
  C  C493  1  0.972340  0.217110  0.776900  1.0  -0.0302
  C  C494  1  0.092350  0.253530  0.761990  1.0  -0.0348
  C  C495  1  0.112170  0.291500  0.798220  1.0  -0.1547
  C  C496  1  0.577940  0.523200  0.029360  1.0  0.6816
  C  C497  1  0.624320  0.537260  0.047400  1.0  -0.1253
  C  C498  1  0.653110  0.538170  0.999520  1.0  -0.0411
  C  C499  1  0.696350  0.552600  0.015810  1.0  -0.135
  C  C500  1  0.711620  0.566870  0.078550  1.0  0.0339
  C  C501  1  0.682070  0.564530  0.127180  1.0  -0.1554
  C  C502  1  0.639000  0.550450  0.110240  1.0  -0.0302
  C  C503  1  0.759010  0.586870  0.095330  1.0  -0.0446
  C  C504  1  0.778830  0.624840  0.131560  1.0  -0.1547
  C  C505  1  0.143470  0.388080  0.362690  1.0  0.6811
  C  C506  1  0.129410  0.420400  0.380730  1.0  -0.1268
  C  C507  1  0.128500  0.448280  0.332850  1.0  -0.0422
  C  C508  1  0.114070  0.477090  0.349140  1.0  -0.134
  C  C509  1  0.099800  0.478090  0.411880  1.0  0.0354
  C  C510  1  0.102140  0.450880  0.460510  1.0  -0.1587
  C  C511  1  0.116220  0.421890  0.443570  1.0  -0.0317
  C  C512  1  0.079800  0.505480  0.428660  1.0  -0.0467
  C  C513  1  0.041830  0.487330  0.464890  1.0  -0.1534
  C  C514  1  0.810140  0.721410  0.696020  1.0  0.6811
  C  C515  1  0.796080  0.753730  0.714060  1.0  -0.1268
  C  C516  1  0.795170  0.781610  0.666180  1.0  -0.0422
  C  C517  1  0.780740  0.810420  0.682470  1.0  -0.134
  C  C518  1  0.766470  0.811420  0.745210  1.0  0.0354
  C  C519  1  0.768810  0.784210  0.793840  1.0  -0.1587
  C  C520  1  0.782890  0.755220  0.776900  1.0  -0.0317
  C  C521  1  0.746470  0.838810  0.761990  1.0  -0.0467
  C  C522  1  0.708500  0.820660  0.798220  1.0  -0.1534
  C  C523  1  0.476800  0.054750  0.029360  1.0  0.6811
  C  C524  1  0.462740  0.087070  0.047400  1.0  -0.1266
  C  C525  1  0.461830  0.114950  0.999520  1.0  -0.0422
  C  C526  1  0.447400  0.143760  0.015810  1.0  -0.134
  C  C527  1  0.433130  0.144760  0.078550  1.0  0.0354
  C  C528  1  0.435470  0.117550  0.127180  1.0  -0.1587
  C  C529  1  0.449550  0.088560  0.110240  1.0  -0.0317
  C  C530  1  0.413130  0.172150  0.095330  1.0  -0.0365
  C  C531  1  0.375160  0.154000  0.131560  1.0  -0.1534
  C  C532  1  0.755390  0.611920  0.637310  1.0  0.6814
  C  C533  1  0.709010  0.579600  0.619270  1.0  -0.126
  C  C534  1  0.680220  0.551720  0.667150  1.0  -0.042
  C  C535  1  0.636980  0.522910  0.650860  1.0  -0.1367
  C  C536  1  0.621710  0.521910  0.588120  1.0  0.0352
  C  C537  1  0.651260  0.549120  0.539490  1.0  -0.1546
  C  C538  1  0.694330  0.578110  0.556430  1.0  -0.0315
  C  C539  1  0.574320  0.494520  0.571340  1.0  -0.0461
  C  C540  1  0.554500  0.512670  0.535110  1.0  -0.1528
  C  C541  1  0.422060  0.945250  0.970640  1.0  0.6814
  C  C542  1  0.375680  0.912930  0.952600  1.0  -0.1265
  C  C543  1  0.346890  0.885050  0.000480  1.0  -0.042
  C  C544  1  0.303650  0.856240  0.984190  1.0  -0.1367
  C  C545  1  0.288380  0.855240  0.921450  1.0  0.0352
  C  C546  1  0.317930  0.882450  0.872820  1.0  -0.1546
  C  C547  1  0.361000  0.911440  0.889760  1.0  -0.0315
  C  C548  1  0.240990  0.827850  0.904670  1.0  -0.0462
  C  C549  1  0.221170  0.846000  0.868440  1.0  -0.1528
  C  C550  1  0.088720  0.278590  0.303980  1.0  0.6814
  C  C551  1  0.042340  0.246270  0.285940  1.0  -0.126
  C  C552  1  0.013550  0.218390  0.333820  1.0  -0.042
  C  C553  1  0.970310  0.189580  0.317530  1.0  -0.1367
  C  C554  1  0.955040  0.188580  0.254790  1.0  0.0352
  C  C555  1  0.984590  0.215790  0.206160  1.0  -0.1546
  C  C556  1  0.027660  0.244780  0.223100  1.0  -0.0315
  C  C557  1  0.907650  0.161190  0.238010  1.0  -0.0461
  C  C558  1  0.887830  0.179340  0.201780  1.0  -0.1528
  C  C559  1  0.856530  0.244610  0.637310  1.0  0.6816
  C  C560  1  0.870590  0.290990  0.619270  1.0  -0.1265
  C  C561  1  0.871500  0.319780  0.667150  1.0  -0.0418
  C  C562  1  0.885930  0.363020  0.650860  1.0  -0.137
  C  C563  1  0.900200  0.378290  0.588120  1.0  0.0347
  C  C564  1  0.897860  0.348740  0.539490  1.0  -0.1546
  C  C565  1  0.883780  0.305670  0.556430  1.0  -0.0315
  C  C566  1  0.920200  0.425680  0.571340  1.0  -0.0349
  C  C567  1  0.958170  0.445500  0.535110  1.0  -0.1562
  C  C568  1  0.523200  0.577940  0.970640  1.0  0.6816
  C  C569  1  0.537260  0.624320  0.952600  1.0  -0.126
  C  C570  1  0.538170  0.653110  0.000480  1.0  -0.0418
  C  C571  1  0.552600  0.696350  0.984190  1.0  -0.137
  C  C572  1  0.566870  0.711620  0.921450  1.0  0.0347
  C  C573  1  0.564530  0.682070  0.872820  1.0  -0.1546
  C  C574  1  0.550450  0.639000  0.889760  1.0  -0.0315
  C  C575  1  0.586870  0.759010  0.904670  1.0  -0.0444
  C  C576  1  0.624840  0.778830  0.868440  1.0  -0.1562
  C  C577  1  0.189860  0.911280  0.303980  1.0  0.6816
  C  C578  1  0.203920  0.957660  0.285940  1.0  -0.1265
  C  C579  1  0.204830  0.986450  0.333820  1.0  -0.0418
  C  C580  1  0.219260  0.029690  0.317530  1.0  -0.137
  C  C581  1  0.233530  0.044960  0.254790  1.0  0.0347
  C  C582  1  0.231190  0.015410  0.206160  1.0  -0.1546
  C  C583  1  0.217110  0.972340  0.223100  1.0  -0.0315
  C  C584  1  0.253530  0.092350  0.238010  1.0  -0.0349
  C  C585  1  0.291500  0.112170  0.201780  1.0  -0.1562
  C  C586  1  0.388080  0.143470  0.637310  1.0  0.6818
  C  C587  1  0.420400  0.129410  0.619270  1.0  -0.1257
  C  C588  1  0.448280  0.128500  0.667150  1.0  -0.0425
  C  C589  1  0.477090  0.114070  0.650860  1.0  -0.1355
  C  C590  1  0.478090  0.099800  0.588120  1.0  0.0342
  C  C591  1  0.450880  0.102140  0.539490  1.0  -0.1521
  C  C592  1  0.421890  0.116220  0.556430  1.0  -0.0297
  C  C593  1  0.505480  0.079800  0.571340  1.0  -0.0457
  C  C594  1  0.487330  0.041830  0.535110  1.0  -0.1548
  C  C595  1  0.054750  0.476800  0.970640  1.0  0.6818
  C  C596  1  0.087070  0.462740  0.952600  1.0  -0.125
  C  C597  1  0.114950  0.461830  0.000480  1.0  -0.0425
  C  C598  1  0.143760  0.447400  0.984190  1.0  -0.1355
  C  C599  1  0.144760  0.433130  0.921450  1.0  0.0342
  C  C600  1  0.117550  0.435470  0.872820  1.0  -0.1521
  C  C601  1  0.088560  0.449550  0.889760  1.0  -0.0297
  C  C602  1  0.172150  0.413130  0.904670  1.0  -0.0356
  C  C603  1  0.154000  0.375160  0.868440  1.0  -0.1548
  C  C604  1  0.721410  0.810140  0.303980  1.0  0.6818
  C  C605  1  0.753730  0.796080  0.285940  1.0  -0.1257
  C  C606  1  0.781610  0.795170  0.333820  1.0  -0.0425
  C  C607  1  0.810420  0.780740  0.317530  1.0  -0.1355
  C  C608  1  0.811420  0.766470  0.254790  1.0  0.0342
  C  C609  1  0.784210  0.768810  0.206160  1.0  -0.1521
  C  C610  1  0.755220  0.782890  0.223100  1.0  -0.0297
  C  C611  1  0.838810  0.746470  0.238010  1.0  -0.0457
  C  C612  1  0.820660  0.708500  0.201780  1.0  -0.1548
  C  C613  1  0.510640  0.489360  0.517100  1.0  0.03
  C  C614  1  0.549890  0.450110  0.589300  1.0  0.2021
  C  C615  1  0.588180  0.411820  0.585200  1.0  0.054
  C  C616  1  0.609300  0.390700  0.634900  1.0  -0.3545
  C  C617  1  0.177310  0.822690  0.850430  1.0  0.03
  C  C618  1  0.216560  0.783440  0.922630  1.0  0.2016
  C  C619  1  0.254850  0.745150  0.918530  1.0  0.054
  C  C620  1  0.275970  0.724030  0.968230  1.0  -0.3545
  C  C621  1  0.843970  0.156030  0.183770  1.0  0.03
  C  C622  1  0.883220  0.116780  0.255970  1.0  0.2021
  C  C623  1  0.921510  0.078490  0.251870  1.0  0.054
  C  C624  1  0.942630  0.057370  0.301570  1.0  -0.3545
  C  C625  1  0.510640  0.021280  0.517100  1.0  0.034
  C  C626  1  0.549890  0.099780  0.589300  1.0  0.2023
  C  C627  1  0.588180  0.176360  0.585200  1.0  0.0499
  C  C628  1  0.609300  0.218600  0.634900  1.0  -0.3579
  C  C629  1  0.177310  0.354610  0.850430  1.0  0.034
  C  C630  1  0.216560  0.433110  0.922630  1.0  0.2027
  C  C631  1  0.254850  0.509690  0.918530  1.0  0.0499
  C  C632  1  0.275970  0.551930  0.968230  1.0  -0.3579
  C  C633  1  0.843970  0.687950  0.183770  1.0  0.034
  C  C634  1  0.883220  0.766450  0.255970  1.0  0.2023
  C  C635  1  0.921510  0.843030  0.251870  1.0  0.0499
  C  C636  1  0.942630  0.885270  0.301570  1.0  -0.3579
  C  C637  1  0.978720  0.489360  0.517100  1.0  0.0322
  C  C638  1  0.900220  0.450110  0.589300  1.0  0.2015
  C  C639  1  0.823640  0.411820  0.585200  1.0  0.0552
  C  C640  1  0.781400  0.390700  0.634900  1.0  -0.3549
  C  C641  1  0.645390  0.822690  0.850430  1.0  0.0322
  C  C642  1  0.566890  0.783440  0.922630  1.0  0.2019
  C  C643  1  0.490310  0.745150  0.918530  1.0  0.0552
  C  C644  1  0.448070  0.724030  0.968230  1.0  -0.3549
  C  C645  1  0.312050  0.156030  0.183770  1.0  0.0322
  C  C646  1  0.233550  0.116780  0.255970  1.0  0.2015
  C  C647  1  0.156970  0.078490  0.251870  1.0  0.0552
  C  C648  1  0.114730  0.057370  0.301570  1.0  -0.3549
  C  C649  1  0.489360  0.510640  0.482900  1.0  0.0298
  C  C650  1  0.450110  0.549890  0.410700  1.0  0.2039
  C  C651  1  0.411820  0.588180  0.414800  1.0  0.0555
  C  C652  1  0.390700  0.609300  0.365100  1.0  -0.3556
  C  C653  1  0.156030  0.843970  0.816230  1.0  0.0298
  C  C654  1  0.116780  0.883220  0.744030  1.0  0.2039
  C  C655  1  0.078490  0.921510  0.748130  1.0  0.0555
  C  C656  1  0.057370  0.942630  0.698430  1.0  -0.3556
  C  C657  1  0.822690  0.177310  0.149570  1.0  0.0298
  C  C658  1  0.783440  0.216560  0.077370  1.0  0.2033
  C  C659  1  0.745150  0.254850  0.081470  1.0  0.0555
  C  C660  1  0.724030  0.275970  0.031770  1.0  -0.3556
  C  C661  1  0.021280  0.510640  0.482900  1.0  0.0313
  C  C662  1  0.099780  0.549890  0.410700  1.0  0.2019
  C  C663  1  0.176360  0.588180  0.414800  1.0  0.0556
  C  C664  1  0.218600  0.609300  0.365100  1.0  -0.3572
  C  C665  1  0.687950  0.843970  0.816230  1.0  0.0313
  C  C666  1  0.766450  0.883220  0.744030  1.0  0.2019
  C  C667  1  0.843030  0.921510  0.748130  1.0  0.0556
  C  C668  1  0.885270  0.942630  0.698430  1.0  -0.3572
  C  C669  1  0.354610  0.177310  0.149570  1.0  0.0313
  C  C670  1  0.433110  0.216560  0.077370  1.0  0.2023
  C  C671  1  0.509690  0.254850  0.081470  1.0  0.0556
  C  C672  1  0.551930  0.275970  0.031770  1.0  -0.3572
  C  C673  1  0.489360  0.978720  0.482900  1.0  0.0338
  C  C674  1  0.450110  0.900220  0.410700  1.0  0.2028
  C  C675  1  0.411820  0.823640  0.414800  1.0  0.0538
  C  C676  1  0.390700  0.781400  0.365100  1.0  -0.3564
  C  C677  1  0.156030  0.312050  0.816230  1.0  0.0338
  C  C678  1  0.116780  0.233550  0.744030  1.0  0.2028
  C  C679  1  0.078490  0.156970  0.748130  1.0  0.0538
  C  C680  1  0.057370  0.114730  0.698430  1.0  -0.3564
  C  C681  1  0.822690  0.645390  0.149570  1.0  0.0338
  C  C682  1  0.783440  0.566890  0.077370  1.0  0.2032
  C  C683  1  0.745150  0.490310  0.081470  1.0  0.0538
  C  C684  1  0.724030  0.448070  0.031770  1.0  -0.3564
  O  O685  1  0.363190  0.220580  0.591970  1.0  -0.577
  O  O686  1  0.388640  0.233260  0.695520  1.0  -0.562
  O  O687  1  0.029860  0.553910  0.925300  1.0  -0.577
  O  O688  1  0.055310  0.566590  0.028850  1.0  -0.562
  O  O689  1  0.696520  0.887250  0.258640  1.0  -0.5789
  O  O690  1  0.721970  0.899930  0.362190  1.0  -0.5642
  O  O691  1  0.779420  0.142610  0.591970  1.0  -0.5796
  O  O692  1  0.766740  0.155380  0.695520  1.0  -0.5648
  O  O693  1  0.446090  0.475940  0.925300  1.0  -0.5796
  O  O694  1  0.433410  0.488710  0.028850  1.0  -0.5648
  O  O695  1  0.112750  0.809280  0.258640  1.0  -0.5796
  O  O696  1  0.100070  0.822050  0.362190  1.0  -0.5648
  O  O697  1  0.857390  0.636810  0.591970  1.0  -0.5795
  O  O698  1  0.844620  0.611360  0.695520  1.0  -0.5656
  O  O699  1  0.524060  0.970140  0.925300  1.0  -0.5795
  O  O700  1  0.511290  0.944690  0.028850  1.0  -0.5656
  O  O701  1  0.190720  0.303480  0.258640  1.0  -0.5783
  O  O702  1  0.177950  0.278030  0.362190  1.0  -0.5631
  O  O703  1  0.220580  0.363190  0.408030  1.0  -0.5772
  O  O704  1  0.233260  0.388640  0.304480  1.0  -0.5635
  O  O705  1  0.887250  0.696520  0.741360  1.0  -0.5786
  O  O706  1  0.899930  0.721970  0.637810  1.0  -0.5654
  O  O707  1  0.553910  0.029860  0.074700  1.0  -0.5772
  O  O708  1  0.566590  0.055310  0.971150  1.0  -0.5636
  O  O709  1  0.142610  0.779420  0.408030  1.0  -0.5783
  O  O710  1  0.155380  0.766740  0.304480  1.0  -0.5642
  O  O711  1  0.809280  0.112750  0.741360  1.0  -0.5783
  O  O712  1  0.822050  0.100070  0.637810  1.0  -0.5642
  O  O713  1  0.475940  0.446090  0.074700  1.0  -0.5783
  O  O714  1  0.488710  0.433410  0.971150  1.0  -0.5642
  O  O715  1  0.636810  0.857390  0.408030  1.0  -0.5775
  O  O716  1  0.611360  0.844620  0.304480  1.0  -0.5651
  O  O717  1  0.303480  0.190720  0.741360  1.0  -0.5767
  O  O718  1  0.278030  0.177950  0.637810  1.0  -0.5633
  O  O719  1  0.970140  0.524060  0.074700  1.0  -0.5775
  O  O720  1  0.944690  0.511290  0.971150  1.0  -0.565
  O  O721  1  0.636810  0.779420  0.408030  1.0  -0.5754
  O  O722  1  0.611360  0.766740  0.304480  1.0  -0.5622
  O  O723  1  0.303480  0.112750  0.741360  1.0  -0.5771
  O  O724  1  0.278030  0.100070  0.637810  1.0  -0.564
  O  O725  1  0.970140  0.446090  0.074700  1.0  -0.5754
  O  O726  1  0.944690  0.433410  0.971150  1.0  -0.5621
  O  O727  1  0.220580  0.857390  0.408030  1.0  -0.5771
  O  O728  1  0.233260  0.844620  0.304480  1.0  -0.5654
  O  O729  1  0.887250  0.190720  0.741360  1.0  -0.5771
  O  O730  1  0.899930  0.177950  0.637810  1.0  -0.5654
  O  O731  1  0.553910  0.524060  0.074700  1.0  -0.5771
  O  O732  1  0.566590  0.511290  0.971150  1.0  -0.5654
  O  O733  1  0.142610  0.363190  0.408030  1.0  -0.578
  O  O734  1  0.155380  0.388640  0.304480  1.0  -0.5653
  O  O735  1  0.809280  0.696520  0.741360  1.0  -0.5774
  O  O736  1  0.822050  0.721970  0.637810  1.0  -0.5632
  O  O737  1  0.475940  0.029860  0.074700  1.0  -0.578
  O  O738  1  0.488710  0.055310  0.971150  1.0  -0.5652
  O  O739  1  0.779420  0.636810  0.591970  1.0  -0.5772
  O  O740  1  0.766740  0.611360  0.695520  1.0  -0.5626
  O  O741  1  0.446090  0.970140  0.925300  1.0  -0.5772
  O  O742  1  0.433410  0.944690  0.028850  1.0  -0.5626
  O  O743  1  0.112750  0.303480  0.258640  1.0  -0.5793
  O  O744  1  0.100070  0.278030  0.362190  1.0  -0.5652
  O  O745  1  0.857390  0.220580  0.591970  1.0  -0.5788
  O  O746  1  0.844620  0.233260  0.695520  1.0  -0.5646
  O  O747  1  0.524060  0.553910  0.925300  1.0  -0.5788
  O  O748  1  0.511290  0.566590  0.028850  1.0  -0.5646
  O  O749  1  0.190720  0.887250  0.258640  1.0  -0.5788
  O  O750  1  0.177950  0.899930  0.362190  1.0  -0.5646
  O  O751  1  0.363190  0.142610  0.591970  1.0  -0.5792
  O  O752  1  0.388640  0.155380  0.695520  1.0  -0.5645
  O  O753  1  0.029860  0.475940  0.925300  1.0  -0.5793
  O  O754  1  0.055310  0.488710  0.028850  1.0  -0.5645
  O  O755  1  0.696520  0.809280  0.258640  1.0  -0.5779
  O  O756  1  0.721970  0.822050  0.362190  1.0  -0.5624
  O  O757  1  0.569120  0.430880  0.624650  1.0  -0.2789
  O  O758  1  0.235790  0.764210  0.957980  1.0  -0.2789
  O  O759  1  0.902450  0.097550  0.291320  1.0  -0.2789
  O  O760  1  0.569120  0.138240  0.624650  1.0  -0.2782
  O  O761  1  0.235790  0.471570  0.957980  1.0  -0.2782
  O  O762  1  0.902450  0.804910  0.291320  1.0  -0.2782
  O  O763  1  0.861760  0.430880  0.624650  1.0  -0.2785
  O  O764  1  0.528430  0.764210  0.957980  1.0  -0.2785
  O  O765  1  0.195090  0.097550  0.291320  1.0  -0.2785
  O  O766  1  0.430880  0.569120  0.375350  1.0  -0.275
  O  O767  1  0.097550  0.902450  0.708680  1.0  -0.275
  O  O768  1  0.764210  0.235790  0.042020  1.0  -0.275
  O  O769  1  0.138240  0.569120  0.375350  1.0  -0.2754
  O  O770  1  0.804910  0.902450  0.708680  1.0  -0.2754
  O  O771  1  0.471570  0.235790  0.042020  1.0  -0.2754
  O  O772  1  0.430880  0.861760  0.375350  1.0  -0.2756
  O  O773  1  0.097550  0.195090  0.708680  1.0  -0.2756
  O  O774  1  0.764210  0.528430  0.042020  1.0  -0.2756
