# generated using pymatgen
data_CuH15C22O5
_symmetry_space_group_name_H-M   'P 1'
_cell_length_a   35.34840000
_cell_length_b   35.34840000
_cell_length_c   20.08810000
_cell_angle_alpha   90.00000000
_cell_angle_beta   90.00000000
_cell_angle_gamma   120.00000000
_symmetry_Int_Tables_number   1
_chemical_formula_structural   CuH15C22O5
_chemical_formula_sum   'Cu18 H270 C396 O90'
_cell_volume   21737.47096631
_cell_formula_units_Z   18
loop_
 _symmetry_equiv_pos_site_id
 _symmetry_equiv_pos_as_xyz
  1  'x, y, z'
loop_
 _atom_site_type_symbol
 _atom_site_label
 _atom_site_symmetry_multiplicity
 _atom_site_fract_x
 _atom_site_fract_y
 _atom_site_fract_z
 _atom_site_occupancy
 _atom_site_charge
  Cu  Cu1  1  0.826200  0.652400  0.728310  1.0  0.919
  Cu  Cu2  1  0.492870  0.985730  0.061640  1.0  0.9186
  Cu  Cu3  1  0.159530  0.319070  0.394980  1.0  0.919
  Cu  Cu4  1  0.347600  0.173800  0.728310  1.0  0.9196
  Cu  Cu5  1  0.014270  0.507130  0.061640  1.0  0.9192
  Cu  Cu6  1  0.680930  0.840470  0.394980  1.0  0.9196
  Cu  Cu7  1  0.826200  0.173800  0.728310  1.0  0.9145
  Cu  Cu8  1  0.492870  0.507130  0.061640  1.0  0.9147
  Cu  Cu9  1  0.159530  0.840470  0.394980  1.0  0.9144
  Cu  Cu10  1  0.652400  0.826200  0.271690  1.0  0.9196
  Cu  Cu11  1  0.319070  0.159530  0.605020  1.0  0.9196
  Cu  Cu12  1  0.985730  0.492870  0.938360  1.0  0.9192
  Cu  Cu13  1  0.173800  0.347600  0.271690  1.0  0.9189
  Cu  Cu14  1  0.840470  0.680930  0.605020  1.0  0.9189
  Cu  Cu15  1  0.507130  0.014270  0.938360  1.0  0.9184
  Cu  Cu16  1  0.173800  0.826200  0.271690  1.0  0.9153
  Cu  Cu17  1  0.840470  0.159530  0.605020  1.0  0.9152
  Cu  Cu18  1  0.507130  0.492870  0.938360  1.0  0.9154
  H  H19  1  0.690100  0.552700  0.712500  1.0  0.108
  H  H20  1  0.617400  0.504000  0.685400  1.0  0.1059
  H  H21  1  0.640800  0.546200  0.494300  1.0  0.1242
  H  H22  1  0.713900  0.597100  0.524100  1.0  0.1079
  H  H23  1  0.571900  0.541800  0.520500  1.0  0.1043
  H  H24  1  0.611700  0.433900  0.558700  1.0  0.0858
  H  H25  1  0.629300  0.416000  0.665600  1.0  0.1236
  H  H26  1  0.356770  0.886030  0.045830  1.0  0.108
  H  H27  1  0.284070  0.837330  0.018730  1.0  0.1059
  H  H28  1  0.307470  0.879530  0.827630  1.0  0.1242
  H  H29  1  0.380570  0.930430  0.857430  1.0  0.1079
  H  H30  1  0.238570  0.875130  0.853830  1.0  0.1043
  H  H31  1  0.278370  0.767230  0.892030  1.0  0.0858
  H  H32  1  0.295970  0.749330  0.998930  1.0  0.1236
  H  H33  1  0.023430  0.219370  0.379170  1.0  0.1068
  H  H34  1  0.950730  0.170670  0.352070  1.0  0.1059
  H  H35  1  0.974130  0.212870  0.160970  1.0  0.1242
  H  H36  1  0.047230  0.263770  0.190770  1.0  0.108
  H  H37  1  0.905230  0.208470  0.187170  1.0  0.1043
  H  H38  1  0.945030  0.100570  0.225370  1.0  0.0875
  H  H39  1  0.962630  0.082670  0.332270  1.0  0.1229
  H  H40  1  0.447300  0.137400  0.712500  1.0  0.1058
  H  H41  1  0.496000  0.113400  0.685400  1.0  0.1087
  H  H42  1  0.453800  0.094600  0.494300  1.0  0.1236
  H  H43  1  0.402900  0.116800  0.524100  1.0  0.1074
  H  H44  1  0.458200  0.030100  0.520500  1.0  0.105
  H  H45  1  0.566100  0.177800  0.558700  1.0  0.0832
  H  H46  1  0.584000  0.213300  0.665600  1.0  0.1223
  H  H47  1  0.113970  0.470730  0.045830  1.0  0.1059
  H  H48  1  0.162670  0.446730  0.018730  1.0  0.1087
  H  H49  1  0.120470  0.427930  0.827630  1.0  0.1236
  H  H50  1  0.069570  0.450130  0.857430  1.0  0.1074
  H  H51  1  0.124870  0.363430  0.853830  1.0  0.105
  H  H52  1  0.232770  0.511130  0.892030  1.0  0.0832
  H  H53  1  0.250670  0.546630  0.998930  1.0  0.1223
  H  H54  1  0.780630  0.804070  0.379170  1.0  0.1076
  H  H55  1  0.829330  0.780070  0.352070  1.0  0.1066
  H  H56  1  0.787130  0.761270  0.160970  1.0  0.1242
  H  H57  1  0.736230  0.783470  0.190770  1.0  0.1072
  H  H58  1  0.791530  0.696770  0.187170  1.0  0.105
  H  H59  1  0.899430  0.844470  0.225370  1.0  0.0853
  H  H60  1  0.917330  0.879970  0.332270  1.0  0.1224
  H  H61  1  0.862600  0.309900  0.712500  1.0  0.1061
  H  H62  1  0.886600  0.382600  0.685400  1.0  0.1057
  H  H63  1  0.905400  0.359200  0.494300  1.0  0.1234
  H  H64  1  0.883200  0.286100  0.524100  1.0  0.1079
  H  H65  1  0.969900  0.428100  0.520500  1.0  0.1044
  H  H66  1  0.822200  0.388300  0.558700  1.0  0.0856
  H  H67  1  0.786700  0.370700  0.665600  1.0  0.1237
  H  H68  1  0.529270  0.643230  0.045830  1.0  0.1061
  H  H69  1  0.553270  0.715930  0.018730  1.0  0.1057
  H  H70  1  0.572070  0.692530  0.827630  1.0  0.1234
  H  H71  1  0.549870  0.619430  0.857430  1.0  0.1079
  H  H72  1  0.636570  0.761430  0.853830  1.0  0.1045
  H  H73  1  0.488870  0.721630  0.892030  1.0  0.0856
  H  H74  1  0.453370  0.704030  0.998930  1.0  0.1237
  H  H75  1  0.195930  0.976570  0.379170  1.0  0.1061
  H  H76  1  0.219930  0.049270  0.352070  1.0  0.1077
  H  H77  1  0.238730  0.025870  0.160970  1.0  0.1229
  H  H78  1  0.216530  0.952770  0.190770  1.0  0.1079
  H  H79  1  0.303230  0.094770  0.187170  1.0  0.1044
  H  H80  1  0.155530  0.054970  0.225370  1.0  0.0856
  H  H81  1  0.120030  0.037370  0.332270  1.0  0.1247
  H  H82  1  0.552700  0.690100  0.287500  1.0  0.1078
  H  H83  1  0.504000  0.617400  0.314600  1.0  0.1052
  H  H84  1  0.546200  0.640800  0.505700  1.0  0.1244
  H  H85  1  0.597100  0.713900  0.475900  1.0  0.1083
  H  H86  1  0.541800  0.571900  0.479500  1.0  0.1044
  H  H87  1  0.433900  0.611700  0.441300  1.0  0.0854
  H  H88  1  0.416000  0.629300  0.334400  1.0  0.1227
  H  H89  1  0.219370  0.023430  0.620830  1.0  0.1069
  H  H90  1  0.170670  0.950730  0.647930  1.0  0.1052
  H  H91  1  0.212870  0.974130  0.839030  1.0  0.1244
  H  H92  1  0.263770  0.047230  0.809230  1.0  0.1082
  H  H93  1  0.208470  0.905230  0.812830  1.0  0.1044
  H  H94  1  0.100570  0.945030  0.774630  1.0  0.0871
  H  H95  1  0.082670  0.962630  0.667730  1.0  0.1226
  H  H96  1  0.886030  0.356770  0.954170  1.0  0.1078
  H  H97  1  0.837330  0.284070  0.981270  1.0  0.1052
  H  H98  1  0.879530  0.307470  0.172370  1.0  0.1244
  H  H99  1  0.930430  0.380570  0.142570  1.0  0.1083
  H  H100  1  0.875130  0.238570  0.146170  1.0  0.1044
  H  H101  1  0.767230  0.278370  0.107970  1.0  0.0854
  H  H102  1  0.749330  0.295970  0.001070  1.0  0.1227
  H  H103  1  0.137400  0.447300  0.287500  1.0  0.1071
  H  H104  1  0.113400  0.496000  0.314600  1.0  0.1068
  H  H105  1  0.094600  0.453800  0.505700  1.0  0.1242
  H  H106  1  0.116800  0.402900  0.475900  1.0  0.1084
  H  H107  1  0.030100  0.458200  0.479500  1.0  0.1045
  H  H108  1  0.177800  0.566100  0.441300  1.0  0.0864
  H  H109  1  0.213300  0.584000  0.334400  1.0  0.1243
  H  H110  1  0.804070  0.780630  0.620830  1.0  0.1082
  H  H111  1  0.780070  0.829330  0.647930  1.0  0.105
  H  H112  1  0.761270  0.787130  0.839030  1.0  0.1248
  H  H113  1  0.783470  0.736230  0.809230  1.0  0.1082
  H  H114  1  0.696770  0.791530  0.812830  1.0  0.1045
  H  H115  1  0.844470  0.899430  0.774630  1.0  0.0881
  H  H116  1  0.879970  0.917330  0.667730  1.0  0.1247
  H  H117  1  0.470730  0.113970  0.954170  1.0  0.107
  H  H118  1  0.446730  0.162670  0.981270  1.0  0.1068
  H  H119  1  0.427930  0.120470  0.172370  1.0  0.1242
  H  H120  1  0.450130  0.069570  0.142570  1.0  0.1084
  H  H121  1  0.363430  0.124870  0.146170  1.0  0.1045
  H  H122  1  0.511130  0.232770  0.107970  1.0  0.0864
  H  H123  1  0.546630  0.250670  0.001070  1.0  0.1243
  H  H124  1  0.309900  0.862600  0.287500  1.0  0.1067
  H  H125  1  0.382600  0.886600  0.314600  1.0  0.1052
  H  H126  1  0.359200  0.905400  0.505700  1.0  0.1253
  H  H127  1  0.286100  0.883200  0.475900  1.0  0.1076
  H  H128  1  0.428100  0.969900  0.479500  1.0  0.1049
  H  H129  1  0.388300  0.822200  0.441300  1.0  0.0849
  H  H130  1  0.370700  0.786700  0.334400  1.0  0.1212
  H  H131  1  0.976570  0.195930  0.620830  1.0  0.1067
  H  H132  1  0.049270  0.219930  0.647930  1.0  0.1072
  H  H133  1  0.025870  0.238730  0.839030  1.0  0.1244
  H  H134  1  0.952770  0.216530  0.809230  1.0  0.1077
  H  H135  1  0.094770  0.303230  0.812830  1.0  0.1049
  H  H136  1  0.054970  0.155530  0.774630  1.0  0.0845
  H  H137  1  0.037370  0.120030  0.667730  1.0  0.1226
  H  H138  1  0.643230  0.529270  0.954170  1.0  0.1068
  H  H139  1  0.715930  0.553270  0.981270  1.0  0.1052
  H  H140  1  0.692530  0.572070  0.172370  1.0  0.1253
  H  H141  1  0.619430  0.549870  0.142570  1.0  0.1076
  H  H142  1  0.761430  0.636570  0.146170  1.0  0.1049
  H  H143  1  0.721630  0.488870  0.107970  1.0  0.0849
  H  H144  1  0.704030  0.453370  0.001070  1.0  0.1212
  H  H145  1  0.309900  0.447300  0.287500  1.0  0.1079
  H  H146  1  0.382600  0.496000  0.314600  1.0  0.105
  H  H147  1  0.359200  0.453800  0.505700  1.0  0.1253
  H  H148  1  0.286100  0.402900  0.475900  1.0  0.108
  H  H149  1  0.428100  0.458200  0.479500  1.0  0.105
  H  H150  1  0.388300  0.566100  0.441300  1.0  0.0876
  H  H151  1  0.370700  0.584000  0.334400  1.0  0.1231
  H  H152  1  0.976570  0.780630  0.620830  1.0  0.1071
  H  H153  1  0.049270  0.829330  0.647930  1.0  0.105
  H  H154  1  0.025870  0.787130  0.839030  1.0  0.1253
  H  H155  1  0.952770  0.736230  0.809230  1.0  0.1081
  H  H156  1  0.094770  0.791530  0.812830  1.0  0.105
  H  H157  1  0.054970  0.899430  0.774630  1.0  0.0893
  H  H158  1  0.037370  0.917330  0.667730  1.0  0.1225
  H  H159  1  0.643230  0.113970  0.954170  1.0  0.1079
  H  H160  1  0.715930  0.162670  0.981270  1.0  0.105
  H  H161  1  0.692530  0.120470  0.172370  1.0  0.1253
  H  H162  1  0.619430  0.069570  0.142570  1.0  0.108
  H  H163  1  0.761430  0.124870  0.146170  1.0  0.105
  H  H164  1  0.721630  0.232770  0.107970  1.0  0.0876
  H  H165  1  0.704030  0.250670  0.001070  1.0  0.1231
  H  H166  1  0.552700  0.862600  0.287500  1.0  0.1066
  H  H167  1  0.504000  0.886600  0.314600  1.0  0.1079
  H  H168  1  0.546200  0.905400  0.505700  1.0  0.124
  H  H169  1  0.597100  0.883200  0.475900  1.0  0.1079
  H  H170  1  0.541800  0.969900  0.479500  1.0  0.1048
  H  H171  1  0.433900  0.822200  0.441300  1.0  0.0846
  H  H172  1  0.416000  0.786700  0.334400  1.0  0.1216
  H  H173  1  0.219370  0.195930  0.620830  1.0  0.1079
  H  H174  1  0.170670  0.219930  0.647930  1.0  0.1059
  H  H175  1  0.212870  0.238730  0.839030  1.0  0.1248
  H  H176  1  0.263770  0.216530  0.809230  1.0  0.1079
  H  H177  1  0.208470  0.303230  0.812830  1.0  0.1048
  H  H178  1  0.100570  0.155530  0.774630  1.0  0.086
  H  H179  1  0.082670  0.120030  0.667730  1.0  0.1221
  H  H180  1  0.886030  0.529270  0.954170  1.0  0.1066
  H  H181  1  0.837330  0.553270  0.981270  1.0  0.1079
  H  H182  1  0.879530  0.572070  0.172370  1.0  0.124
  H  H183  1  0.930430  0.549870  0.142570  1.0  0.1079
  H  H184  1  0.875130  0.636570  0.146170  1.0  0.1048
  H  H185  1  0.767230  0.488870  0.107970  1.0  0.0846
  H  H186  1  0.749330  0.453370  0.001070  1.0  0.1216
  H  H187  1  0.137400  0.690100  0.287500  1.0  0.1068
  H  H188  1  0.113400  0.617400  0.314600  1.0  0.1052
  H  H189  1  0.094600  0.640800  0.505700  1.0  0.1246
  H  H190  1  0.116800  0.713900  0.475900  1.0  0.1079
  H  H191  1  0.030100  0.571900  0.479500  1.0  0.1041
  H  H192  1  0.177800  0.611700  0.441300  1.0  0.0871
  H  H193  1  0.213300  0.629300  0.334400  1.0  0.1245
  H  H194  1  0.804070  0.023430  0.620830  1.0  0.1068
  H  H195  1  0.780070  0.950730  0.647930  1.0  0.1071
  H  H196  1  0.761270  0.974130  0.839030  1.0  0.1236
  H  H197  1  0.783470  0.047230  0.809230  1.0  0.1079
  H  H198  1  0.696770  0.905230  0.812830  1.0  0.1041
  H  H199  1  0.844470  0.945030  0.774630  1.0  0.0866
  H  H200  1  0.879970  0.962630  0.667730  1.0  0.1269
  H  H201  1  0.470730  0.356770  0.954170  1.0  0.1068
  H  H202  1  0.446730  0.284070  0.981270  1.0  0.1052
  H  H203  1  0.427930  0.307470  0.172370  1.0  0.1246
  H  H204  1  0.450130  0.380570  0.142570  1.0  0.1079
  H  H205  1  0.363430  0.238570  0.146170  1.0  0.1041
  H  H206  1  0.511130  0.278370  0.107970  1.0  0.0871
  H  H207  1  0.546630  0.295970  0.001070  1.0  0.1245
  H  H208  1  0.447300  0.309900  0.712500  1.0  0.1074
  H  H209  1  0.496000  0.382600  0.685400  1.0  0.1059
  H  H210  1  0.453800  0.359200  0.494300  1.0  0.124
  H  H211  1  0.402900  0.286100  0.524100  1.0  0.1073
  H  H212  1  0.458200  0.428100  0.520500  1.0  0.1044
  H  H213  1  0.566100  0.388300  0.558700  1.0  0.0856
  H  H214  1  0.584000  0.370700  0.665600  1.0  0.1242
  H  H215  1  0.113970  0.643230  0.045830  1.0  0.1074
  H  H216  1  0.162670  0.715930  0.018730  1.0  0.1059
  H  H217  1  0.120470  0.692530  0.827630  1.0  0.124
  H  H218  1  0.069570  0.619430  0.857430  1.0  0.1073
  H  H219  1  0.124870  0.761430  0.853830  1.0  0.1044
  H  H220  1  0.232770  0.721630  0.892030  1.0  0.0856
  H  H221  1  0.250670  0.704030  0.998930  1.0  0.1242
  H  H222  1  0.780630  0.976570  0.379170  1.0  0.1063
  H  H223  1  0.829330  0.049270  0.352070  1.0  0.1059
  H  H224  1  0.787130  0.025870  0.160970  1.0  0.124
  H  H225  1  0.736230  0.952770  0.190770  1.0  0.1074
  H  H226  1  0.791530  0.094770  0.187170  1.0  0.1044
  H  H227  1  0.899430  0.054970  0.225370  1.0  0.0877
  H  H228  1  0.917330  0.037370  0.332270  1.0  0.1242
  H  H229  1  0.862600  0.552700  0.712500  1.0  0.1064
  H  H230  1  0.886600  0.504000  0.685400  1.0  0.108
  H  H231  1  0.905400  0.546200  0.494300  1.0  0.1239
  H  H232  1  0.883200  0.597100  0.524100  1.0  0.1077
  H  H233  1  0.969900  0.541800  0.520500  1.0  0.1051
  H  H234  1  0.822200  0.433900  0.558700  1.0  0.0849
  H  H235  1  0.786700  0.416000  0.665600  1.0  0.1243
  H  H236  1  0.529270  0.886030  0.045830  1.0  0.1064
  H  H237  1  0.553270  0.837330  0.018730  1.0  0.108
  H  H238  1  0.572070  0.879530  0.827630  1.0  0.1239
  H  H239  1  0.549870  0.930430  0.857430  1.0  0.1077
  H  H240  1  0.636570  0.875130  0.853830  1.0  0.1051
  H  H241  1  0.488870  0.767230  0.892030  1.0  0.0849
  H  H242  1  0.453370  0.749330  0.998930  1.0  0.1243
  H  H243  1  0.195930  0.219370  0.379170  1.0  0.1079
  H  H244  1  0.219930  0.170670  0.352070  1.0  0.1059
  H  H245  1  0.238730  0.212870  0.160970  1.0  0.1243
  H  H246  1  0.216530  0.263770  0.190770  1.0  0.1076
  H  H247  1  0.303230  0.208470  0.187170  1.0  0.1051
  H  H248  1  0.155530  0.100570  0.225370  1.0  0.0875
  H  H249  1  0.120030  0.082670  0.332270  1.0  0.1245
  H  H250  1  0.690100  0.137400  0.712500  1.0  0.1061
  H  H251  1  0.617400  0.113400  0.685400  1.0  0.1061
  H  H252  1  0.640800  0.094600  0.494300  1.0  0.1247
  H  H253  1  0.713900  0.116800  0.524100  1.0  0.1079
  H  H254  1  0.571900  0.030100  0.520500  1.0  0.1053
  H  H255  1  0.611700  0.177800  0.558700  1.0  0.0862
  H  H256  1  0.629300  0.213300  0.665600  1.0  0.1214
  H  H257  1  0.356770  0.470730  0.045830  1.0  0.1061
  H  H258  1  0.284070  0.446730  0.018730  1.0  0.1061
  H  H259  1  0.307470  0.427930  0.827630  1.0  0.1247
  H  H260  1  0.380570  0.450130  0.857430  1.0  0.1079
  H  H261  1  0.238570  0.363430  0.853830  1.0  0.1053
  H  H262  1  0.278370  0.511130  0.892030  1.0  0.0862
  H  H263  1  0.295970  0.546630  0.998930  1.0  0.1214
  H  H264  1  0.023430  0.804070  0.379170  1.0  0.1061
  H  H265  1  0.950730  0.780070  0.352070  1.0  0.1081
  H  H266  1  0.974130  0.761270  0.160970  1.0  0.124
  H  H267  1  0.047230  0.783470  0.190770  1.0  0.1079
  H  H268  1  0.905230  0.696770  0.187170  1.0  0.1053
  H  H269  1  0.945030  0.844470  0.225370  1.0  0.0852
  H  H270  1  0.962630  0.879970  0.332270  1.0  0.1229
  H  H271  1  0.621400  0.378600  0.613400  1.0  0.1256
  H  H272  1  0.288070  0.711930  0.946730  1.0  0.1256
  H  H273  1  0.954730  0.045270  0.280070  1.0  0.1265
  H  H274  1  0.621400  0.242800  0.613400  1.0  0.1266
  H  H275  1  0.288070  0.576130  0.946730  1.0  0.1266
  H  H276  1  0.954730  0.909470  0.280070  1.0  0.1287
  H  H277  1  0.757200  0.378600  0.613400  1.0  0.1243
  H  H278  1  0.423870  0.711930  0.946730  1.0  0.1243
  H  H279  1  0.090530  0.045270  0.280070  1.0  0.1269
  H  H280  1  0.378600  0.621400  0.386600  1.0  0.123
  H  H281  1  0.045270  0.954730  0.719930  1.0  0.1235
  H  H282  1  0.711930  0.288070  0.053270  1.0  0.123
  H  H283  1  0.242800  0.621400  0.386600  1.0  0.1265
  H  H284  1  0.909470  0.954730  0.719930  1.0  0.1293
  H  H285  1  0.576130  0.288070  0.053270  1.0  0.1265
  H  H286  1  0.378600  0.757200  0.386600  1.0  0.1243
  H  H287  1  0.045270  0.090530  0.719930  1.0  0.1263
  H  H288  1  0.711930  0.423870  0.053270  1.0  0.1243
  C  C289  1  0.755740  0.612210  0.636960  1.0  0.6753
  C  C290  1  0.708830  0.579780  0.620420  1.0  -0.1039
  C  C291  1  0.680090  0.552060  0.668440  1.0  -0.0413
  C  C292  1  0.636560  0.523280  0.652340  1.0  -0.1755
  C  C293  1  0.621390  0.522330  0.591130  1.0  0.069
  C  C294  1  0.650530  0.548570  0.539000  1.0  -0.172
  C  C295  1  0.694200  0.578070  0.556800  1.0  -0.0341
  C  C296  1  0.574040  0.494690  0.573300  1.0  -0.0533
  C  C297  1  0.554520  0.512460  0.535000  1.0  -0.1378
  C  C298  1  0.422410  0.945540  0.970290  1.0  0.6753
  C  C299  1  0.375500  0.913110  0.953750  1.0  -0.1041
  C  C300  1  0.346760  0.885390  0.001770  1.0  -0.0413
  C  C301  1  0.303230  0.856610  0.985670  1.0  -0.1755
  C  C302  1  0.288060  0.855660  0.924460  1.0  0.069
  C  C303  1  0.317200  0.881900  0.872330  1.0  -0.172
  C  C304  1  0.360870  0.911400  0.890130  1.0  -0.0341
  C  C305  1  0.240710  0.828020  0.906630  1.0  -0.0533
  C  C306  1  0.221190  0.845790  0.868330  1.0  -0.1378
  C  C307  1  0.089070  0.278880  0.303630  1.0  0.6753
  C  C308  1  0.042160  0.246450  0.287090  1.0  -0.1039
  C  C309  1  0.013420  0.218730  0.335110  1.0  -0.0413
  C  C310  1  0.969890  0.189950  0.319010  1.0  -0.1755
  C  C311  1  0.954720  0.189000  0.257800  1.0  0.069
  C  C312  1  0.983860  0.215240  0.205670  1.0  -0.172
  C  C313  1  0.027530  0.244740  0.223470  1.0  -0.0341
  C  C314  1  0.907370  0.161360  0.239970  1.0  -0.0533
  C  C315  1  0.887850  0.179130  0.201670  1.0  -0.1378
  C  C316  1  0.387790  0.143530  0.636960  1.0  0.6752
  C  C317  1  0.420220  0.129050  0.620420  1.0  -0.1044
  C  C318  1  0.447940  0.128030  0.668440  1.0  -0.0422
  C  C319  1  0.476720  0.113280  0.652340  1.0  -0.1749
  C  C320  1  0.477670  0.099060  0.591130  1.0  0.069
  C  C321  1  0.451430  0.101960  0.539000  1.0  -0.1688
  C  C322  1  0.421930  0.116130  0.556800  1.0  -0.0323
  C  C323  1  0.505310  0.079350  0.573300  1.0  -0.0526
  C  C324  1  0.487540  0.042060  0.535000  1.0  -0.1412
  C  C325  1  0.054460  0.476860  0.970290  1.0  0.6749
  C  C326  1  0.086890  0.462380  0.953750  1.0  -0.1043
  C  C327  1  0.114610  0.461360  0.001770  1.0  -0.0422
  C  C328  1  0.143390  0.446610  0.985670  1.0  -0.1749
  C  C329  1  0.144340  0.432390  0.924460  1.0  0.069
  C  C330  1  0.118100  0.435290  0.872330  1.0  -0.1688
  C  C331  1  0.088600  0.449460  0.890130  1.0  -0.0323
  C  C332  1  0.171980  0.412680  0.906630  1.0  -0.0423
  C  C333  1  0.154210  0.375390  0.868330  1.0  -0.1412
  C  C334  1  0.721120  0.810200  0.303630  1.0  0.6752
  C  C335  1  0.753550  0.795720  0.287090  1.0  -0.1044
  C  C336  1  0.781270  0.794700  0.335110  1.0  -0.0422
  C  C337  1  0.810050  0.779950  0.319010  1.0  -0.1749
  C  C338  1  0.811000  0.765730  0.257800  1.0  0.069
  C  C339  1  0.784760  0.768630  0.205670  1.0  -0.1688
  C  C340  1  0.755260  0.782800  0.223470  1.0  -0.0323
  C  C341  1  0.838640  0.746020  0.239970  1.0  -0.0526
  C  C342  1  0.820870  0.708730  0.201670  1.0  -0.1412
  C  C343  1  0.856470  0.244260  0.636960  1.0  0.676
  C  C344  1  0.870950  0.291170  0.620420  1.0  -0.1039
  C  C345  1  0.871970  0.319910  0.668440  1.0  -0.0416
  C  C346  1  0.886720  0.363440  0.652340  1.0  -0.1769
  C  C347  1  0.900940  0.378610  0.591130  1.0  0.0697
  C  C348  1  0.898040  0.349470  0.539000  1.0  -0.171
  C  C349  1  0.883870  0.305800  0.556800  1.0  -0.0344
  C  C350  1  0.920650  0.425960  0.573300  1.0  -0.0413
  C  C351  1  0.957940  0.445480  0.535000  1.0  -0.1428
  C  C352  1  0.523140  0.577590  0.970290  1.0  0.6759
  C  C353  1  0.537620  0.624500  0.953750  1.0  -0.1039
  C  C354  1  0.538640  0.653240  0.001770  1.0  -0.0416
  C  C355  1  0.553390  0.696770  0.985670  1.0  -0.1769
  C  C356  1  0.567610  0.711940  0.924460  1.0  0.0697
  C  C357  1  0.564710  0.682800  0.872330  1.0  -0.171
  C  C358  1  0.550540  0.639130  0.890130  1.0  -0.0344
  C  C359  1  0.587320  0.759290  0.906630  1.0  -0.0512
  C  C360  1  0.624610  0.778810  0.868330  1.0  -0.1428
  C  C361  1  0.189800  0.910930  0.303630  1.0  0.676
  C  C362  1  0.204280  0.957840  0.287090  1.0  -0.1039
  C  C363  1  0.205300  0.986580  0.335110  1.0  -0.0416
  C  C364  1  0.220050  0.030110  0.319010  1.0  -0.1769
  C  C365  1  0.234270  0.045280  0.257800  1.0  0.0697
  C  C366  1  0.231370  0.016140  0.205670  1.0  -0.171
  C  C367  1  0.217200  0.972470  0.223470  1.0  -0.0344
  C  C368  1  0.253980  0.092630  0.239970  1.0  -0.0413
  C  C369  1  0.291270  0.112150  0.201670  1.0  -0.1428
  C  C370  1  0.612210  0.755740  0.363040  1.0  0.6763
  C  C371  1  0.579780  0.708830  0.379580  1.0  -0.103
  C  C372  1  0.552060  0.680090  0.331560  1.0  -0.0414
  C  C373  1  0.523280  0.636560  0.347660  1.0  -0.1761
  C  C374  1  0.522330  0.621390  0.408870  1.0  0.07
  C  C375  1  0.548570  0.650530  0.461000  1.0  -0.1741
  C  C376  1  0.578070  0.694200  0.443200  1.0  -0.0323
  C  C377  1  0.494690  0.574040  0.426700  1.0  -0.0512
  C  C378  1  0.512460  0.554520  0.465000  1.0  -0.1428
  C  C379  1  0.278880  0.089070  0.696370  1.0  0.6763
  C  C380  1  0.246450  0.042160  0.712910  1.0  -0.103
  C  C381  1  0.218730  0.013420  0.664890  1.0  -0.0414
  C  C382  1  0.189950  0.969890  0.680990  1.0  -0.1761
  C  C383  1  0.189000  0.954720  0.742200  1.0  0.07
  C  C384  1  0.215240  0.983860  0.794330  1.0  -0.1741
  C  C385  1  0.244740  0.027530  0.776530  1.0  -0.0323
  C  C386  1  0.161360  0.907370  0.760030  1.0  -0.0512
  C  C387  1  0.179130  0.887850  0.798330  1.0  -0.1428
  C  C388  1  0.945540  0.422410  0.029710  1.0  0.6763
  C  C389  1  0.913110  0.375500  0.046250  1.0  -0.1031
  C  C390  1  0.885390  0.346760  0.998230  1.0  -0.0414
  C  C391  1  0.856610  0.303230  0.014330  1.0  -0.1761
  C  C392  1  0.855660  0.288060  0.075540  1.0  0.07
  C  C393  1  0.881900  0.317200  0.127670  1.0  -0.1741
  C  C394  1  0.911400  0.360870  0.109870  1.0  -0.0323
  C  C395  1  0.828020  0.240710  0.093370  1.0  -0.0512
  C  C396  1  0.845790  0.221190  0.131670  1.0  -0.1428
  C  C397  1  0.143530  0.387790  0.363040  1.0  0.6754
  C  C398  1  0.129050  0.420220  0.379580  1.0  -0.1039
  C  C399  1  0.128030  0.447940  0.331560  1.0  -0.0411
  C  C400  1  0.113280  0.476720  0.347660  1.0  -0.1744
  C  C401  1  0.099060  0.477670  0.408870  1.0  0.0688
  C  C402  1  0.101960  0.451430  0.461000  1.0  -0.176
  C  C403  1  0.116130  0.421930  0.443200  1.0  -0.0327
  C  C404  1  0.079350  0.505310  0.426700  1.0  -0.0532
  C  C405  1  0.042060  0.487540  0.465000  1.0  -0.1386
  C  C406  1  0.810200  0.721120  0.696370  1.0  0.6754
  C  C407  1  0.795720  0.753550  0.712910  1.0  -0.1039
  C  C408  1  0.794700  0.781270  0.664890  1.0  -0.0411
  C  C409  1  0.779950  0.810050  0.680990  1.0  -0.1744
  C  C410  1  0.765730  0.811000  0.742200  1.0  0.0688
  C  C411  1  0.768630  0.784760  0.794330  1.0  -0.176
  C  C412  1  0.782800  0.755260  0.776530  1.0  -0.0327
  C  C413  1  0.746020  0.838640  0.760030  1.0  -0.0532
  C  C414  1  0.708730  0.820870  0.798330  1.0  -0.1386
  C  C415  1  0.476860  0.054460  0.029710  1.0  0.6752
  C  C416  1  0.462380  0.086890  0.046250  1.0  -0.1038
  C  C417  1  0.461360  0.114610  0.998230  1.0  -0.0411
  C  C418  1  0.446610  0.143390  0.014330  1.0  -0.1744
  C  C419  1  0.432390  0.144340  0.075540  1.0  0.0688
  C  C420  1  0.435290  0.118100  0.127670  1.0  -0.176
  C  C421  1  0.449460  0.088600  0.109870  1.0  -0.0327
  C  C422  1  0.412680  0.171980  0.093370  1.0  -0.0427
  C  C423  1  0.375390  0.154210  0.131670  1.0  -0.1386
  C  C424  1  0.244260  0.856470  0.363040  1.0  0.6746
  C  C425  1  0.291170  0.870950  0.379580  1.0  -0.1044
  C  C426  1  0.319910  0.871970  0.331560  1.0  -0.0402
  C  C427  1  0.363440  0.886720  0.347660  1.0  -0.1747
  C  C428  1  0.378610  0.900940  0.408870  1.0  0.0697
  C  C429  1  0.349470  0.898040  0.461000  1.0  -0.1726
  C  C430  1  0.305800  0.883870  0.443200  1.0  -0.0324
  C  C431  1  0.425960  0.920650  0.426700  1.0  -0.041
  C  C432  1  0.445480  0.957940  0.465000  1.0  -0.1414
  C  C433  1  0.910930  0.189800  0.696370  1.0  0.6746
  C  C434  1  0.957840  0.204280  0.712910  1.0  -0.1044
  C  C435  1  0.986580  0.205300  0.664890  1.0  -0.0402
  C  C436  1  0.030110  0.220050  0.680990  1.0  -0.1747
  C  C437  1  0.045280  0.234270  0.742200  1.0  0.0697
  C  C438  1  0.016140  0.231370  0.794330  1.0  -0.1726
  C  C439  1  0.972470  0.217200  0.776530  1.0  -0.0324
  C  C440  1  0.092630  0.253980  0.760030  1.0  -0.041
  C  C441  1  0.112150  0.291270  0.798330  1.0  -0.1414
  C  C442  1  0.577590  0.523140  0.029710  1.0  0.6745
  C  C443  1  0.624500  0.537620  0.046250  1.0  -0.1044
  C  C444  1  0.653240  0.538640  0.998230  1.0  -0.0402
  C  C445  1  0.696770  0.553390  0.014330  1.0  -0.1747
  C  C446  1  0.711940  0.567610  0.075540  1.0  0.0697
  C  C447  1  0.682800  0.564710  0.127670  1.0  -0.1726
  C  C448  1  0.639130  0.550540  0.109870  1.0  -0.0324
  C  C449  1  0.759290  0.587320  0.093370  1.0  -0.0516
  C  C450  1  0.778810  0.624610  0.131670  1.0  -0.1414
  C  C451  1  0.244260  0.387790  0.363040  1.0  0.6754
  C  C452  1  0.291170  0.420220  0.379580  1.0  -0.1036
  C  C453  1  0.319910  0.447940  0.331560  1.0  -0.0407
  C  C454  1  0.363440  0.476720  0.347660  1.0  -0.175
  C  C455  1  0.378610  0.477670  0.408870  1.0  0.0688
  C  C456  1  0.349470  0.451430  0.461000  1.0  -0.1745
  C  C457  1  0.305800  0.421930  0.443200  1.0  -0.0334
  C  C458  1  0.425960  0.505310  0.426700  1.0  -0.0526
  C  C459  1  0.445480  0.487540  0.465000  1.0  -0.1386
  C  C460  1  0.910930  0.721120  0.696370  1.0  0.6754
  C  C461  1  0.957840  0.753550  0.712910  1.0  -0.1036
  C  C462  1  0.986580  0.781270  0.664890  1.0  -0.0407
  C  C463  1  0.030110  0.810050  0.680990  1.0  -0.175
  C  C464  1  0.045280  0.811000  0.742200  1.0  0.0688
  C  C465  1  0.016140  0.784760  0.794330  1.0  -0.1745
  C  C466  1  0.972470  0.755260  0.776530  1.0  -0.0334
  C  C467  1  0.092630  0.838640  0.760030  1.0  -0.0526
  C  C468  1  0.112150  0.820870  0.798330  1.0  -0.1386
  C  C469  1  0.577590  0.054460  0.029710  1.0  0.6753
  C  C470  1  0.624500  0.086890  0.046250  1.0  -0.1038
  C  C471  1  0.653240  0.114610  0.998230  1.0  -0.0407
  C  C472  1  0.696770  0.143390  0.014330  1.0  -0.175
  C  C473  1  0.711940  0.144340  0.075540  1.0  0.0688
  C  C474  1  0.682800  0.118100  0.127670  1.0  -0.1745
  C  C475  1  0.639130  0.088600  0.109870  1.0  -0.0334
  C  C476  1  0.759290  0.171980  0.093370  1.0  -0.0526
  C  C477  1  0.778810  0.154210  0.131670  1.0  -0.1386
  C  C478  1  0.612210  0.856470  0.363040  1.0  0.6745
  C  C479  1  0.579780  0.870950  0.379580  1.0  -0.104
  C  C480  1  0.552060  0.871970  0.331560  1.0  -0.0408
  C  C481  1  0.523280  0.886720  0.347660  1.0  -0.1746
  C  C482  1  0.522330  0.900940  0.408870  1.0  0.069
  C  C483  1  0.548570  0.898040  0.461000  1.0  -0.1744
  C  C484  1  0.578070  0.883870  0.443200  1.0  -0.0313
  C  C485  1  0.494690  0.920650  0.426700  1.0  -0.0509
  C  C486  1  0.512460  0.957940  0.465000  1.0  -0.143
  C  C487  1  0.278880  0.189800  0.696370  1.0  0.6745
  C  C488  1  0.246450  0.204280  0.712910  1.0  -0.104
  C  C489  1  0.218730  0.205300  0.664890  1.0  -0.0408
  C  C490  1  0.189950  0.220050  0.680990  1.0  -0.1746
  C  C491  1  0.189000  0.234270  0.742200  1.0  0.069
  C  C492  1  0.215240  0.231370  0.794330  1.0  -0.1744
  C  C493  1  0.244740  0.217200  0.776530  1.0  -0.0313
  C  C494  1  0.161360  0.253980  0.760030  1.0  -0.0509
  C  C495  1  0.179130  0.291270  0.798330  1.0  -0.143
  C  C496  1  0.945540  0.523140  0.029710  1.0  0.6742
  C  C497  1  0.913110  0.537620  0.046250  1.0  -0.1039
  C  C498  1  0.885390  0.538640  0.998230  1.0  -0.0408
  C  C499  1  0.856610  0.553390  0.014330  1.0  -0.1746
  C  C500  1  0.855660  0.567610  0.075540  1.0  0.069
  C  C501  1  0.881900  0.564710  0.127670  1.0  -0.1744
  C  C502  1  0.911400  0.550540  0.109870  1.0  -0.0313
  C  C503  1  0.828020  0.587320  0.093370  1.0  -0.0405
  C  C504  1  0.845790  0.624610  0.131670  1.0  -0.143
  C  C505  1  0.143530  0.755740  0.363040  1.0  0.6765
  C  C506  1  0.129050  0.708830  0.379580  1.0  -0.1031
  C  C507  1  0.128030  0.680090  0.331560  1.0  -0.0414
  C  C508  1  0.113280  0.636560  0.347660  1.0  -0.1766
  C  C509  1  0.099060  0.621390  0.408870  1.0  0.0699
  C  C510  1  0.101960  0.650530  0.461000  1.0  -0.1745
  C  C511  1  0.116130  0.694200  0.443200  1.0  -0.034
  C  C512  1  0.079350  0.574040  0.426700  1.0  -0.0429
  C  C513  1  0.042060  0.554520  0.465000  1.0  -0.1412
  C  C514  1  0.810200  0.089070  0.696370  1.0  0.6765
  C  C515  1  0.795720  0.042160  0.712910  1.0  -0.1031
  C  C516  1  0.794700  0.013420  0.664890  1.0  -0.0414
  C  C517  1  0.779950  0.969890  0.680990  1.0  -0.1766
  C  C518  1  0.765730  0.954720  0.742200  1.0  0.0699
  C  C519  1  0.768630  0.983860  0.794330  1.0  -0.1745
  C  C520  1  0.782800  0.027530  0.776530  1.0  -0.034
  C  C521  1  0.746020  0.907370  0.760030  1.0  -0.0429
  C  C522  1  0.708730  0.887850  0.798330  1.0  -0.1412
  C  C523  1  0.476860  0.422410  0.029710  1.0  0.6765
  C  C524  1  0.462380  0.375500  0.046250  1.0  -0.1031
  C  C525  1  0.461360  0.346760  0.998230  1.0  -0.0414
  C  C526  1  0.446610  0.303230  0.014330  1.0  -0.1766
  C  C527  1  0.432390  0.288060  0.075540  1.0  0.0699
  C  C528  1  0.435290  0.317200  0.127670  1.0  -0.1745
  C  C529  1  0.449460  0.360870  0.109870  1.0  -0.034
  C  C530  1  0.412680  0.240710  0.093370  1.0  -0.0529
  C  C531  1  0.375390  0.221190  0.131670  1.0  -0.1411
  C  C532  1  0.387790  0.244260  0.636960  1.0  0.6763
  C  C533  1  0.420220  0.291170  0.620420  1.0  -0.1038
  C  C534  1  0.447940  0.319910  0.668440  1.0  -0.0414
  C  C535  1  0.476720  0.363440  0.652340  1.0  -0.1773
  C  C536  1  0.477670  0.378610  0.591130  1.0  0.0693
  C  C537  1  0.451430  0.349470  0.539000  1.0  -0.1706
  C  C538  1  0.421930  0.305800  0.556800  1.0  -0.0338
  C  C539  1  0.505310  0.425960  0.573300  1.0  -0.053
  C  C540  1  0.487540  0.445480  0.535000  1.0  -0.1416
  C  C541  1  0.054460  0.577590  0.970290  1.0  0.6764
  C  C542  1  0.086890  0.624500  0.953750  1.0  -0.104
  C  C543  1  0.114610  0.653240  0.001770  1.0  -0.0414
  C  C544  1  0.143390  0.696770  0.985670  1.0  -0.1773
  C  C545  1  0.144340  0.711940  0.924460  1.0  0.0693
  C  C546  1  0.118100  0.682800  0.872330  1.0  -0.1706
  C  C547  1  0.088600  0.639130  0.890130  1.0  -0.0338
  C  C548  1  0.171980  0.759290  0.906630  1.0  -0.053
  C  C549  1  0.154210  0.778810  0.868330  1.0  -0.1417
  C  C550  1  0.721120  0.910930  0.303630  1.0  0.6763
  C  C551  1  0.753550  0.957840  0.287090  1.0  -0.1038
  C  C552  1  0.781270  0.986580  0.335110  1.0  -0.0414
  C  C553  1  0.810050  0.030110  0.319010  1.0  -0.1773
  C  C554  1  0.811000  0.045280  0.257800  1.0  0.0693
  C  C555  1  0.784760  0.016140  0.205670  1.0  -0.1706
  C  C556  1  0.755260  0.972470  0.223470  1.0  -0.0338
  C  C557  1  0.838640  0.092630  0.239970  1.0  -0.053
  C  C558  1  0.820870  0.112150  0.201670  1.0  -0.1416
  C  C559  1  0.856470  0.612210  0.636960  1.0  0.6759
  C  C560  1  0.870950  0.579780  0.620420  1.0  -0.1037
  C  C561  1  0.871970  0.552060  0.668440  1.0  -0.0415
  C  C562  1  0.886720  0.523280  0.652340  1.0  -0.175
  C  C563  1  0.900940  0.522330  0.591130  1.0  0.0687
  C  C564  1  0.898040  0.548570  0.539000  1.0  -0.1715
  C  C565  1  0.883870  0.578070  0.556800  1.0  -0.0337
  C  C566  1  0.920650  0.494690  0.573300  1.0  -0.0524
  C  C567  1  0.957940  0.512460  0.535000  1.0  -0.1388
  C  C568  1  0.523140  0.945540  0.970290  1.0  0.6756
  C  C569  1  0.537620  0.913110  0.953750  1.0  -0.1037
  C  C570  1  0.538640  0.885390  0.001770  1.0  -0.0415
  C  C571  1  0.553390  0.856610  0.985670  1.0  -0.175
  C  C572  1  0.567610  0.855660  0.924460  1.0  0.0687
  C  C573  1  0.564710  0.881900  0.872330  1.0  -0.1715
  C  C574  1  0.550540  0.911400  0.890130  1.0  -0.0337
  C  C575  1  0.587320  0.828020  0.906630  1.0  -0.042
  C  C576  1  0.624610  0.845790  0.868330  1.0  -0.1388
  C  C577  1  0.189800  0.278880  0.303630  1.0  0.6759
  C  C578  1  0.204280  0.246450  0.287090  1.0  -0.1037
  C  C579  1  0.205300  0.218730  0.335110  1.0  -0.0415
  C  C580  1  0.220050  0.189950  0.319010  1.0  -0.175
  C  C581  1  0.234270  0.189000  0.257800  1.0  0.0687
  C  C582  1  0.231370  0.215240  0.205670  1.0  -0.1715
  C  C583  1  0.217200  0.244740  0.223470  1.0  -0.0337
  C  C584  1  0.253980  0.161360  0.239970  1.0  -0.0524
  C  C585  1  0.291270  0.179130  0.201670  1.0  -0.1388
  C  C586  1  0.755740  0.143530  0.636960  1.0  0.6745
  C  C587  1  0.708830  0.129050  0.620420  1.0  -0.1044
  C  C588  1  0.680090  0.128030  0.668440  1.0  -0.0416
  C  C589  1  0.636560  0.113280  0.652340  1.0  -0.1748
  C  C590  1  0.621390  0.099060  0.591130  1.0  0.0686
  C  C591  1  0.650530  0.101960  0.539000  1.0  -0.1693
  C  C592  1  0.694200  0.116130  0.556800  1.0  -0.0322
  C  C593  1  0.574040  0.079350  0.573300  1.0  -0.0415
  C  C594  1  0.554520  0.042060  0.535000  1.0  -0.1434
  C  C595  1  0.422410  0.476860  0.970290  1.0  0.6744
  C  C596  1  0.375500  0.462380  0.953750  1.0  -0.1044
  C  C597  1  0.346760  0.461360  0.001770  1.0  -0.0416
  C  C598  1  0.303230  0.446610  0.985670  1.0  -0.1748
  C  C599  1  0.288060  0.432390  0.924460  1.0  0.0686
  C  C600  1  0.317200  0.435290  0.872330  1.0  -0.1693
  C  C601  1  0.360870  0.449460  0.890130  1.0  -0.0322
  C  C602  1  0.240710  0.412680  0.906630  1.0  -0.0517
  C  C603  1  0.221190  0.375390  0.868330  1.0  -0.1434
  C  C604  1  0.089070  0.810200  0.303630  1.0  0.6745
  C  C605  1  0.042160  0.795720  0.287090  1.0  -0.1044
  C  C606  1  0.013420  0.794700  0.335110  1.0  -0.0416
  C  C607  1  0.969890  0.779950  0.319010  1.0  -0.1748
  C  C608  1  0.954720  0.765730  0.257800  1.0  0.0686
  C  C609  1  0.983860  0.768630  0.205670  1.0  -0.1693
  C  C610  1  0.027530  0.782800  0.223470  1.0  -0.0322
  C  C611  1  0.907370  0.746020  0.239970  1.0  -0.0415
  C  C612  1  0.887850  0.708730  0.201670  1.0  -0.1434
  C  C613  1  0.510360  0.489640  0.516200  1.0  0.024
  C  C614  1  0.549550  0.450450  0.592500  1.0  0.1759
  C  C615  1  0.588400  0.411600  0.587300  1.0  0.1031
  C  C616  1  0.607530  0.392470  0.637600  1.0  -0.3656
  C  C617  1  0.177030  0.822970  0.849530  1.0  0.024
  C  C618  1  0.216220  0.783780  0.925830  1.0  0.1758
  C  C619  1  0.255070  0.744930  0.920630  1.0  0.1031
  C  C620  1  0.274200  0.725800  0.970930  1.0  -0.3656
  C  C621  1  0.843690  0.156310  0.182870  1.0  0.024
  C  C622  1  0.882880  0.117120  0.259170  1.0  0.1758
  C  C623  1  0.921730  0.078270  0.253970  1.0  0.1031
  C  C624  1  0.940860  0.059140  0.304270  1.0  -0.3656
  C  C625  1  0.510360  0.020720  0.516200  1.0  0.0231
  C  C626  1  0.549550  0.099100  0.592500  1.0  0.1752
  C  C627  1  0.588400  0.176800  0.587300  1.0  0.0997
  C  C628  1  0.607530  0.215060  0.637600  1.0  -0.3673
  C  C629  1  0.177030  0.354050  0.849530  1.0  0.0231
  C  C630  1  0.216220  0.432430  0.925830  1.0  0.175
  C  C631  1  0.255070  0.510130  0.920630  1.0  0.0997
  C  C632  1  0.274200  0.548390  0.970930  1.0  -0.3673
  C  C633  1  0.843690  0.687390  0.182870  1.0  0.0231
  C  C634  1  0.882880  0.765770  0.259170  1.0  0.175
  C  C635  1  0.921730  0.843470  0.253970  1.0  0.0997
  C  C636  1  0.940860  0.881730  0.304270  1.0  -0.3673
  C  C637  1  0.979280  0.489640  0.516200  1.0  0.0226
  C  C638  1  0.900900  0.450450  0.592500  1.0  0.1748
  C  C639  1  0.823200  0.411600  0.587300  1.0  0.104
  C  C640  1  0.784940  0.392470  0.637600  1.0  -0.3654
  C  C641  1  0.645950  0.822970  0.849530  1.0  0.0226
  C  C642  1  0.567570  0.783780  0.925830  1.0  0.1747
  C  C643  1  0.489870  0.744930  0.920630  1.0  0.104
  C  C644  1  0.451610  0.725800  0.970930  1.0  -0.3654
  C  C645  1  0.312610  0.156310  0.182870  1.0  0.0226
  C  C646  1  0.234230  0.117120  0.259170  1.0  0.1747
  C  C647  1  0.156530  0.078270  0.253970  1.0  0.104
  C  C648  1  0.118270  0.059140  0.304270  1.0  -0.3654
  C  C649  1  0.489640  0.510360  0.483800  1.0  0.0231
  C  C650  1  0.450450  0.549550  0.407500  1.0  0.1771
  C  C651  1  0.411600  0.588400  0.412700  1.0  0.1025
  C  C652  1  0.392470  0.607530  0.362400  1.0  -0.3667
  C  C653  1  0.156310  0.843690  0.817130  1.0  0.0231
  C  C654  1  0.117120  0.882880  0.740830  1.0  0.1771
  C  C655  1  0.078270  0.921730  0.746030  1.0  0.1025
  C  C656  1  0.059140  0.940860  0.695730  1.0  -0.3667
  C  C657  1  0.822970  0.177030  0.150470  1.0  0.0231
  C  C658  1  0.783780  0.216220  0.074170  1.0  0.1771
  C  C659  1  0.744930  0.255070  0.079370  1.0  0.1025
  C  C660  1  0.725800  0.274200  0.029070  1.0  -0.3667
  C  C661  1  0.020720  0.510360  0.483800  1.0  0.0224
  C  C662  1  0.099100  0.549550  0.407500  1.0  0.1762
  C  C663  1  0.176800  0.588400  0.412700  1.0  0.1022
  C  C664  1  0.215060  0.607530  0.362400  1.0  -0.3683
  C  C665  1  0.687390  0.843690  0.817130  1.0  0.0224
  C  C666  1  0.765770  0.882880  0.740830  1.0  0.1761
  C  C667  1  0.843470  0.921730  0.746030  1.0  0.1022
  C  C668  1  0.881730  0.940860  0.695730  1.0  -0.3683
  C  C669  1  0.354050  0.177030  0.150470  1.0  0.0224
  C  C670  1  0.432430  0.216220  0.074170  1.0  0.1761
  C  C671  1  0.510130  0.255070  0.079370  1.0  0.1022
  C  C672  1  0.548390  0.274200  0.029070  1.0  -0.3683
  C  C673  1  0.489640  0.979280  0.483800  1.0  0.0231
  C  C674  1  0.450450  0.900900  0.407500  1.0  0.1768
  C  C675  1  0.411600  0.823200  0.412700  1.0  0.1003
  C  C676  1  0.392470  0.784940  0.362400  1.0  -0.3665
  C  C677  1  0.156310  0.312610  0.817130  1.0  0.0231
  C  C678  1  0.117120  0.234230  0.740830  1.0  0.1767
  C  C679  1  0.078270  0.156530  0.746030  1.0  0.1003
  C  C680  1  0.059140  0.118270  0.695730  1.0  -0.3665
  C  C681  1  0.822970  0.645950  0.150470  1.0  0.0231
  C  C682  1  0.783780  0.567570  0.074170  1.0  0.1767
  C  C683  1  0.744930  0.489870  0.079370  1.0  0.1003
  C  C684  1  0.725800  0.451610  0.029070  1.0  -0.3665
  O  O685  1  0.779350  0.636700  0.591600  1.0  -0.5633
  O  O686  1  0.766930  0.611950  0.696840  1.0  -0.5677
  O  O687  1  0.446020  0.970030  0.924930  1.0  -0.5633
  O  O688  1  0.433600  0.945280  0.030170  1.0  -0.5668
  O  O689  1  0.112680  0.303370  0.258270  1.0  -0.5656
  O  O690  1  0.100260  0.278620  0.363510  1.0  -0.5689
  O  O691  1  0.363300  0.142650  0.591600  1.0  -0.5647
  O  O692  1  0.388050  0.154980  0.696840  1.0  -0.5683
  O  O693  1  0.029970  0.475980  0.924930  1.0  -0.5647
  O  O694  1  0.054720  0.488310  0.030170  1.0  -0.5692
  O  O695  1  0.696630  0.809320  0.258270  1.0  -0.5627
  O  O696  1  0.721380  0.821650  0.363510  1.0  -0.567
  O  O697  1  0.857350  0.220650  0.591600  1.0  -0.5661
  O  O698  1  0.845020  0.233070  0.696840  1.0  -0.5688
  O  O699  1  0.524020  0.553980  0.924930  1.0  -0.5661
  O  O700  1  0.511690  0.566400  0.030170  1.0  -0.5694
  O  O701  1  0.190680  0.887320  0.258270  1.0  -0.5661
  O  O702  1  0.178350  0.899740  0.363510  1.0  -0.5688
  O  O703  1  0.636700  0.779350  0.408400  1.0  -0.5618
  O  O704  1  0.611950  0.766930  0.303160  1.0  -0.5678
  O  O705  1  0.303370  0.112680  0.741730  1.0  -0.5641
  O  O706  1  0.278620  0.100260  0.636490  1.0  -0.5686
  O  O707  1  0.970030  0.446020  0.075070  1.0  -0.5618
  O  O708  1  0.945280  0.433600  0.969830  1.0  -0.5671
  O  O709  1  0.142650  0.363300  0.408400  1.0  -0.565
  O  O710  1  0.154980  0.388050  0.303160  1.0  -0.5682
  O  O711  1  0.809320  0.696630  0.741730  1.0  -0.5631
  O  O712  1  0.821650  0.721380  0.636490  1.0  -0.5674
  O  O713  1  0.475980  0.029970  0.075070  1.0  -0.5647
  O  O714  1  0.488310  0.054720  0.969830  1.0  -0.5692
  O  O715  1  0.220650  0.857350  0.408400  1.0  -0.5631
  O  O716  1  0.233070  0.845020  0.303160  1.0  -0.5697
  O  O717  1  0.887320  0.190680  0.741730  1.0  -0.5631
  O  O718  1  0.899740  0.178350  0.636490  1.0  -0.5697
  O  O719  1  0.553980  0.524020  0.075070  1.0  -0.5631
  O  O720  1  0.566400  0.511690  0.969830  1.0  -0.5703
  O  O721  1  0.220650  0.363300  0.408400  1.0  -0.5629
  O  O722  1  0.233070  0.388050  0.303160  1.0  -0.5684
  O  O723  1  0.887320  0.696630  0.741730  1.0  -0.5651
  O  O724  1  0.899740  0.721380  0.636490  1.0  -0.5694
  O  O725  1  0.553980  0.029970  0.075070  1.0  -0.5629
  O  O726  1  0.566400  0.054720  0.969830  1.0  -0.5676
  O  O727  1  0.636700  0.857350  0.408400  1.0  -0.563
  O  O728  1  0.611950  0.845020  0.303160  1.0  -0.5693
  O  O729  1  0.303370  0.190680  0.741730  1.0  -0.5612
  O  O730  1  0.278620  0.178350  0.636490  1.0  -0.5684
  O  O731  1  0.970030  0.524020  0.075070  1.0  -0.5628
  O  O732  1  0.945280  0.511690  0.969830  1.0  -0.5702
  O  O733  1  0.142650  0.779350  0.408400  1.0  -0.5652
  O  O734  1  0.154980  0.766930  0.303160  1.0  -0.5685
  O  O735  1  0.809320  0.112680  0.741730  1.0  -0.5652
  O  O736  1  0.821650  0.100260  0.636490  1.0  -0.5685
  O  O737  1  0.475980  0.446020  0.075070  1.0  -0.5652
  O  O738  1  0.488310  0.433600  0.969830  1.0  -0.5692
  O  O739  1  0.363300  0.220650  0.591600  1.0  -0.5635
  O  O740  1  0.388050  0.233070  0.696840  1.0  -0.5674
  O  O741  1  0.029970  0.553980  0.924930  1.0  -0.5635
  O  O742  1  0.054720  0.566400  0.030170  1.0  -0.5665
  O  O743  1  0.696630  0.887320  0.258270  1.0  -0.5659
  O  O744  1  0.721380  0.899740  0.363510  1.0  -0.5688
  O  O745  1  0.857350  0.636700  0.591600  1.0  -0.5663
  O  O746  1  0.845020  0.611950  0.696840  1.0  -0.5686
  O  O747  1  0.524020  0.970030  0.924930  1.0  -0.5662
  O  O748  1  0.511690  0.945280  0.030170  1.0  -0.5695
  O  O749  1  0.190680  0.303370  0.258270  1.0  -0.5646
  O  O750  1  0.178350  0.278620  0.363510  1.0  -0.5672
  O  O751  1  0.779350  0.142650  0.591600  1.0  -0.5645
  O  O752  1  0.766930  0.154980  0.696840  1.0  -0.5693
  O  O753  1  0.446020  0.475980  0.924930  1.0  -0.5645
  O  O754  1  0.433600  0.488310  0.030170  1.0  -0.5698
  O  O755  1  0.112680  0.809320  0.258270  1.0  -0.5645
  O  O756  1  0.100260  0.821650  0.363510  1.0  -0.5693
  O  O757  1  0.568980  0.431020  0.627800  1.0  -0.2902
  O  O758  1  0.235650  0.764350  0.961130  1.0  -0.2902
  O  O759  1  0.902310  0.097690  0.294470  1.0  -0.2902
  O  O760  1  0.568980  0.137960  0.627800  1.0  -0.289
  O  O761  1  0.235650  0.471290  0.961130  1.0  -0.289
  O  O762  1  0.902310  0.804630  0.294470  1.0  -0.289
  O  O763  1  0.862040  0.431020  0.627800  1.0  -0.29
  O  O764  1  0.528710  0.764350  0.961130  1.0  -0.29
  O  O765  1  0.195370  0.097690  0.294470  1.0  -0.29
  O  O766  1  0.431020  0.568980  0.372200  1.0  -0.2867
  O  O767  1  0.097690  0.902310  0.705530  1.0  -0.2867
  O  O768  1  0.764350  0.235650  0.038870  1.0  -0.2867
  O  O769  1  0.137960  0.568980  0.372200  1.0  -0.2874
  O  O770  1  0.804630  0.902310  0.705530  1.0  -0.2874
  O  O771  1  0.471290  0.235650  0.038870  1.0  -0.2874
  O  O772  1  0.431020  0.862040  0.372200  1.0  -0.2874
  O  O773  1  0.097690  0.195370  0.705530  1.0  -0.2874
  O  O774  1  0.764350  0.528710  0.038870  1.0  -0.2874
