# generated using pymatgen
data_CuH15C22O5
_symmetry_space_group_name_H-M   'P 1'
_cell_length_a   35.18520000
_cell_length_b   35.18520000
_cell_length_c   21.65170000
_cell_angle_alpha   90.00000000
_cell_angle_beta   90.00000000
_cell_angle_gamma   120.00000000
_symmetry_Int_Tables_number   1
_chemical_formula_structural   CuH15C22O5
_chemical_formula_sum   'Cu18 H270 C396 O90'
_cell_volume   23213.60983251
_cell_formula_units_Z   18
loop_
 _symmetry_equiv_pos_site_id
 _symmetry_equiv_pos_as_xyz
  1  'x, y, z'
loop_
 _atom_site_type_symbol
 _atom_site_label
 _atom_site_symmetry_multiplicity
 _atom_site_fract_x
 _atom_site_fract_y
 _atom_site_fract_z
 _atom_site_occupancy
 _atom_site_charge
  Cu  Cu1  1  0.317940  0.158970  0.109580  1.0  0.9067
  Cu  Cu2  1  0.984610  0.492300  0.442910  1.0  0.9098
  Cu  Cu3  1  0.651270  0.825640  0.776250  1.0  0.9067
  Cu  Cu4  1  0.841030  0.158970  0.109580  1.0  0.9076
  Cu  Cu5  1  0.507700  0.492300  0.442910  1.0  0.9076
  Cu  Cu6  1  0.174360  0.825640  0.776250  1.0  0.9076
  Cu  Cu7  1  0.841030  0.682060  0.109580  1.0  0.9077
  Cu  Cu8  1  0.507700  0.015390  0.442910  1.0  0.9103
  Cu  Cu9  1  0.174360  0.348730  0.776250  1.0  0.9077
  Cu  Cu10  1  0.158970  0.317940  0.890420  1.0  0.9082
  Cu  Cu11  1  0.825640  0.651270  0.223750  1.0  0.9082
  Cu  Cu12  1  0.492300  0.984610  0.557090  1.0  0.9104
  Cu  Cu13  1  0.158970  0.841030  0.890420  1.0  0.9081
  Cu  Cu14  1  0.825640  0.174360  0.223750  1.0  0.9081
  Cu  Cu15  1  0.492300  0.507700  0.557090  1.0  0.9081
  Cu  Cu16  1  0.682060  0.841030  0.890420  1.0  0.908
  Cu  Cu17  1  0.348730  0.174360  0.223750  1.0  0.908
  Cu  Cu18  1  0.015390  0.507700  0.557090  1.0  0.9108
  H  H19  1  0.446200  0.312200  0.206300  1.0  0.107
  H  H20  1  0.494400  0.384200  0.179200  1.0  0.1032
  H  H21  1  0.451200  0.357900  0.003600  1.0  0.1151
  H  H22  1  0.402500  0.286000  0.031300  1.0  0.1057
  H  H23  1  0.457200  0.428900  0.024700  1.0  0.1089
  H  H24  1  0.611500  0.434000  0.061600  1.0  0.1023
  H  H25  1  0.625900  0.419100  0.165200  1.0  0.1101
  H  H26  1  0.112870  0.645530  0.539630  1.0  0.107
  H  H27  1  0.161070  0.717530  0.512530  1.0  0.1032
  H  H28  1  0.117870  0.691230  0.336930  1.0  0.1151
  H  H29  1  0.069170  0.619330  0.364630  1.0  0.1057
  H  H30  1  0.123870  0.762230  0.358030  1.0  0.1089
  H  H31  1  0.278170  0.767330  0.394930  1.0  0.1023
  H  H32  1  0.292570  0.752430  0.498530  1.0  0.1101
  H  H33  1  0.779530  0.978870  0.872970  1.0  0.1076
  H  H34  1  0.827730  0.050870  0.845870  1.0  0.1032
  H  H35  1  0.784530  0.024570  0.670270  1.0  0.1151
  H  H36  1  0.735830  0.952670  0.697970  1.0  0.1066
  H  H37  1  0.790530  0.095570  0.691370  1.0  0.1089
  H  H38  1  0.944830  0.100670  0.728270  1.0  0.1017
  H  H39  1  0.959230  0.085770  0.831870  1.0  0.1104
  H  H40  1  0.687800  0.134000  0.206300  1.0  0.1076
  H  H41  1  0.615800  0.110200  0.179200  1.0  0.1046
  H  H42  1  0.642100  0.093300  0.003600  1.0  0.1152
  H  H43  1  0.714000  0.116500  0.031300  1.0  0.1073
  H  H44  1  0.571100  0.028300  0.024700  1.0  0.1094
  H  H45  1  0.566000  0.177500  0.061600  1.0  0.1005
  H  H46  1  0.580900  0.206800  0.165200  1.0  0.1087
  H  H47  1  0.354470  0.467330  0.539630  1.0  0.1075
  H  H48  1  0.282470  0.443530  0.512530  1.0  0.1034
  H  H49  1  0.308770  0.426630  0.336930  1.0  0.1152
  H  H50  1  0.380670  0.449830  0.364630  1.0  0.1073
  H  H51  1  0.237770  0.361630  0.358030  1.0  0.1094
  H  H52  1  0.232670  0.510830  0.394930  1.0  0.1007
  H  H53  1  0.247570  0.540130  0.498530  1.0  0.1087
  H  H54  1  0.021130  0.800670  0.872970  1.0  0.1076
  H  H55  1  0.949130  0.776870  0.845870  1.0  0.1042
  H  H56  1  0.975430  0.759970  0.670270  1.0  0.1151
  H  H57  1  0.047330  0.783170  0.697970  1.0  0.1073
  H  H58  1  0.904430  0.694970  0.691370  1.0  0.1094
  H  H59  1  0.899330  0.844170  0.728270  1.0  0.0995
  H  H60  1  0.914230  0.873470  0.831870  1.0  0.1085
  H  H61  1  0.866000  0.553800  0.206300  1.0  0.1081
  H  H62  1  0.889800  0.505600  0.179200  1.0  0.1051
  H  H63  1  0.906700  0.548800  0.003600  1.0  0.1147
  H  H64  1  0.883500  0.597500  0.031300  1.0  0.1068
  H  H65  1  0.971700  0.542800  0.024700  1.0  0.1094
  H  H66  1  0.822500  0.388500  0.061600  1.0  0.1015
  H  H67  1  0.793200  0.374100  0.165200  1.0  0.1123
  H  H68  1  0.532670  0.887130  0.539630  1.0  0.1081
  H  H69  1  0.556470  0.838930  0.512530  1.0  0.1043
  H  H70  1  0.573370  0.882130  0.336930  1.0  0.1147
  H  H71  1  0.550170  0.930830  0.364630  1.0  0.1068
  H  H72  1  0.638370  0.876130  0.358030  1.0  0.1094
  H  H73  1  0.489170  0.721830  0.394930  1.0  0.0999
  H  H74  1  0.459870  0.707430  0.498530  1.0  0.1123
  H  H75  1  0.199330  0.220470  0.872970  1.0  0.1072
  H  H76  1  0.223130  0.172270  0.845870  1.0  0.1034
  H  H77  1  0.240030  0.215470  0.670270  1.0  0.1145
  H  H78  1  0.216830  0.264170  0.697970  1.0  0.1058
  H  H79  1  0.305030  0.209470  0.691370  1.0  0.1094
  H  H80  1  0.155830  0.055170  0.728270  1.0  0.1002
  H  H81  1  0.126530  0.040770  0.831870  1.0  0.1104
  H  H82  1  0.312200  0.446200  0.793700  1.0  0.1072
  H  H83  1  0.384200  0.494400  0.820800  1.0  0.1033
  H  H84  1  0.357900  0.451200  0.996400  1.0  0.1155
  H  H85  1  0.286000  0.402500  0.968700  1.0  0.1062
  H  H86  1  0.428900  0.457200  0.975300  1.0  0.1092
  H  H87  1  0.434000  0.611500  0.938400  1.0  0.1019
  H  H88  1  0.419100  0.625900  0.834800  1.0  0.1084
  H  H89  1  0.978870  0.779530  0.127030  1.0  0.1078
  H  H90  1  0.050870  0.827730  0.154130  1.0  0.1033
  H  H91  1  0.024570  0.784530  0.329730  1.0  0.1155
  H  H92  1  0.952670  0.735830  0.302030  1.0  0.1071
  H  H93  1  0.095570  0.790530  0.308630  1.0  0.1092
  H  H94  1  0.100670  0.944830  0.271730  1.0  0.1015
  H  H95  1  0.085770  0.959230  0.168130  1.0  0.1089
  H  H96  1  0.645530  0.112870  0.460370  1.0  0.1072
  H  H97  1  0.717530  0.161070  0.487470  1.0  0.1033
  H  H98  1  0.691230  0.117870  0.663070  1.0  0.1155
  H  H99  1  0.619330  0.069170  0.635370  1.0  0.1062
  H  H100  1  0.762230  0.123870  0.641970  1.0  0.1092
  H  H101  1  0.767330  0.278170  0.605070  1.0  0.1019
  H  H102  1  0.752430  0.292570  0.501470  1.0  0.1084
  H  H103  1  0.134000  0.687800  0.793700  1.0  0.1077
  H  H104  1  0.110200  0.615800  0.820800  1.0  0.1041
  H  H105  1  0.093300  0.642100  0.996400  1.0  0.1149
  H  H106  1  0.116500  0.714000  0.968700  1.0  0.1067
  H  H107  1  0.028300  0.571100  0.975300  1.0  0.1093
  H  H108  1  0.177500  0.566000  0.938400  1.0  0.1034
  H  H109  1  0.206800  0.580900  0.834800  1.0  0.1107
  H  H110  1  0.800670  0.021130  0.127030  1.0  0.1077
  H  H111  1  0.776870  0.949130  0.154130  1.0  0.104
  H  H112  1  0.759970  0.975430  0.329730  1.0  0.1147
  H  H113  1  0.783170  0.047330  0.302030  1.0  0.1067
  H  H114  1  0.694970  0.904430  0.308630  1.0  0.1093
  H  H115  1  0.844170  0.899330  0.271730  1.0  0.1025
  H  H116  1  0.873470  0.914230  0.168130  1.0  0.1105
  H  H117  1  0.467330  0.354470  0.460370  1.0  0.1077
  H  H118  1  0.443530  0.282470  0.487470  1.0  0.1031
  H  H119  1  0.426630  0.308770  0.663070  1.0  0.1149
  H  H120  1  0.449830  0.380670  0.635370  1.0  0.1067
  H  H121  1  0.361630  0.237770  0.641970  1.0  0.1093
  H  H122  1  0.510830  0.232670  0.605070  1.0  0.1032
  H  H123  1  0.540130  0.247570  0.501470  1.0  0.1107
  H  H124  1  0.553800  0.866000  0.793700  1.0  0.1073
  H  H125  1  0.505600  0.889800  0.820800  1.0  0.1053
  H  H126  1  0.548800  0.906700  0.996400  1.0  0.1149
  H  H127  1  0.597500  0.883500  0.968700  1.0  0.1068
  H  H128  1  0.542800  0.971700  0.975300  1.0  0.1094
  H  H129  1  0.388500  0.822500  0.938400  1.0  0.1021
  H  H130  1  0.374100  0.793200  0.834800  1.0  0.108
  H  H131  1  0.220470  0.199330  0.127030  1.0  0.1065
  H  H132  1  0.172270  0.223130  0.154130  1.0  0.1037
  H  H133  1  0.215470  0.240030  0.329730  1.0  0.1148
  H  H134  1  0.264170  0.216830  0.302030  1.0  0.1064
  H  H135  1  0.209470  0.305030  0.308630  1.0  0.1094
  H  H136  1  0.055170  0.155830  0.271730  1.0  0.1013
  H  H137  1  0.040770  0.126530  0.168130  1.0  0.1071
  H  H138  1  0.887130  0.532670  0.460370  1.0  0.1073
  H  H139  1  0.838930  0.556470  0.487470  1.0  0.1046
  H  H140  1  0.882130  0.573370  0.663070  1.0  0.1149
  H  H141  1  0.930830  0.550170  0.635370  1.0  0.1068
  H  H142  1  0.876130  0.638370  0.641970  1.0  0.1094
  H  H143  1  0.721830  0.489170  0.605070  1.0  0.1009
  H  H144  1  0.707430  0.459870  0.501470  1.0  0.108
  H  H145  1  0.553800  0.687800  0.793700  1.0  0.1069
  H  H146  1  0.505600  0.615800  0.820800  1.0  0.1032
  H  H147  1  0.548800  0.642100  0.996400  1.0  0.1152
  H  H148  1  0.597500  0.714000  0.968700  1.0  0.1059
  H  H149  1  0.542800  0.571100  0.975300  1.0  0.1084
  H  H150  1  0.388500  0.566000  0.938400  1.0  0.1035
  H  H151  1  0.374100  0.580900  0.834800  1.0  0.1101
  H  H152  1  0.220470  0.021130  0.127030  1.0  0.1076
  H  H153  1  0.172270  0.949130  0.154130  1.0  0.1032
  H  H154  1  0.215470  0.975430  0.329730  1.0  0.1152
  H  H155  1  0.264170  0.047330  0.302030  1.0  0.1067
  H  H156  1  0.209470  0.904430  0.308630  1.0  0.1084
  H  H157  1  0.055170  0.899330  0.271730  1.0  0.103
  H  H158  1  0.040770  0.914230  0.168130  1.0  0.1106
  H  H159  1  0.887130  0.354470  0.460370  1.0  0.1069
  H  H160  1  0.838930  0.282470  0.487470  1.0  0.1032
  H  H161  1  0.882130  0.308770  0.663070  1.0  0.1152
  H  H162  1  0.930830  0.380670  0.635370  1.0  0.1059
  H  H163  1  0.876130  0.237770  0.641970  1.0  0.1084
  H  H164  1  0.721830  0.232670  0.605070  1.0  0.1035
  H  H165  1  0.707430  0.247570  0.501470  1.0  0.1101
  H  H166  1  0.312200  0.866000  0.793700  1.0  0.1074
  H  H167  1  0.384200  0.889800  0.820800  1.0  0.1045
  H  H168  1  0.357900  0.906700  0.996400  1.0  0.115
  H  H169  1  0.286000  0.883500  0.968700  1.0  0.107
  H  H170  1  0.428900  0.971700  0.975300  1.0  0.1093
  H  H171  1  0.434000  0.822500  0.938400  1.0  0.1014
  H  H172  1  0.419100  0.793200  0.834800  1.0  0.1077
  H  H173  1  0.978870  0.199330  0.127030  1.0  0.1074
  H  H174  1  0.050870  0.223130  0.154130  1.0  0.1043
  H  H175  1  0.024570  0.240030  0.329730  1.0  0.115
  H  H176  1  0.952670  0.216830  0.302030  1.0  0.107
  H  H177  1  0.095570  0.305030  0.308630  1.0  0.1093
  H  H178  1  0.100670  0.155830  0.271730  1.0  0.1007
  H  H179  1  0.085770  0.126530  0.168130  1.0  0.1074
  H  H180  1  0.645530  0.532670  0.460370  1.0  0.1074
  H  H181  1  0.717530  0.556470  0.487470  1.0  0.1032
  H  H182  1  0.691230  0.573370  0.663070  1.0  0.115
  H  H183  1  0.619330  0.550170  0.635370  1.0  0.107
  H  H184  1  0.762230  0.638370  0.641970  1.0  0.1093
  H  H185  1  0.767330  0.489170  0.605070  1.0  0.1012
  H  H186  1  0.752430  0.459870  0.501470  1.0  0.1077
  H  H187  1  0.134000  0.446200  0.793700  1.0  0.1078
  H  H188  1  0.110200  0.494400  0.820800  1.0  0.1048
  H  H189  1  0.093300  0.451200  0.996400  1.0  0.1153
  H  H190  1  0.116500  0.402500  0.968700  1.0  0.107
  H  H191  1  0.028300  0.457200  0.975300  1.0  0.1088
  H  H192  1  0.177500  0.611500  0.938400  1.0  0.1021
  H  H193  1  0.206800  0.625900  0.834800  1.0  0.1108
  H  H194  1  0.800670  0.779530  0.127030  1.0  0.1071
  H  H195  1  0.776870  0.827730  0.154130  1.0  0.103
  H  H196  1  0.759970  0.784530  0.329730  1.0  0.1152
  H  H197  1  0.783170  0.735830  0.302030  1.0  0.1061
  H  H198  1  0.694970  0.790530  0.308630  1.0  0.1088
  H  H199  1  0.844170  0.944830  0.271730  1.0  0.1016
  H  H200  1  0.873470  0.959230  0.168130  1.0  0.1106
  H  H201  1  0.467330  0.112870  0.460370  1.0  0.1078
  H  H202  1  0.443530  0.161070  0.487470  1.0  0.1042
  H  H203  1  0.426630  0.117870  0.663070  1.0  0.1153
  H  H204  1  0.449830  0.069170  0.635370  1.0  0.107
  H  H205  1  0.361630  0.123870  0.641970  1.0  0.1088
  H  H206  1  0.510830  0.278170  0.605070  1.0  0.1013
  H  H207  1  0.540130  0.292570  0.501470  1.0  0.1108
  H  H208  1  0.687800  0.553800  0.206300  1.0  0.1074
  H  H209  1  0.615800  0.505600  0.179200  1.0  0.1033
  H  H210  1  0.642100  0.548800  0.003600  1.0  0.1147
  H  H211  1  0.714000  0.597500  0.031300  1.0  0.1061
  H  H212  1  0.571100  0.542800  0.024700  1.0  0.1092
  H  H213  1  0.566000  0.388500  0.061600  1.0  0.1015
  H  H214  1  0.580900  0.374100  0.165200  1.0  0.1115
  H  H215  1  0.354470  0.887130  0.539630  1.0  0.1074
  H  H216  1  0.282470  0.838930  0.512530  1.0  0.1033
  H  H217  1  0.308770  0.882130  0.336930  1.0  0.1147
  H  H218  1  0.380670  0.930830  0.364630  1.0  0.1061
  H  H219  1  0.237770  0.876130  0.358030  1.0  0.1092
  H  H220  1  0.232670  0.721830  0.394930  1.0  0.1015
  H  H221  1  0.247570  0.707430  0.498530  1.0  0.1115
  H  H222  1  0.021130  0.220470  0.872970  1.0  0.108
  H  H223  1  0.949130  0.172270  0.845870  1.0  0.1033
  H  H224  1  0.975430  0.215470  0.670270  1.0  0.1148
  H  H225  1  0.047330  0.264170  0.697970  1.0  0.107
  H  H226  1  0.904430  0.209470  0.691370  1.0  0.1092
  H  H227  1  0.899330  0.055170  0.728270  1.0  0.1007
  H  H228  1  0.914230  0.040770  0.831870  1.0  0.1125
  H  H229  1  0.866000  0.312200  0.206300  1.0  0.1077
  H  H230  1  0.889800  0.384200  0.179200  1.0  0.1042
  H  H231  1  0.906700  0.357900  0.003600  1.0  0.115
  H  H232  1  0.883500  0.286000  0.031300  1.0  0.1068
  H  H233  1  0.971700  0.428900  0.024700  1.0  0.1088
  H  H234  1  0.822500  0.434000  0.061600  1.0  0.1021
  H  H235  1  0.793200  0.419100  0.165200  1.0  0.1108
  H  H236  1  0.532670  0.645530  0.539630  1.0  0.1077
  H  H237  1  0.556470  0.717530  0.512530  1.0  0.1031
  H  H238  1  0.573370  0.691230  0.336930  1.0  0.115
  H  H239  1  0.550170  0.619330  0.364630  1.0  0.1068
  H  H240  1  0.638370  0.762230  0.358030  1.0  0.1088
  H  H241  1  0.489170  0.767330  0.394930  1.0  0.1019
  H  H242  1  0.459870  0.752430  0.498530  1.0  0.1108
  H  H243  1  0.199330  0.978870  0.872970  1.0  0.1077
  H  H244  1  0.223130  0.050870  0.845870  1.0  0.104
  H  H245  1  0.240030  0.024570  0.670270  1.0  0.115
  H  H246  1  0.216830  0.952670  0.697970  1.0  0.1068
  H  H247  1  0.305030  0.095570  0.691370  1.0  0.1088
  H  H248  1  0.155830  0.100670  0.728270  1.0  0.1012
  H  H249  1  0.126530  0.085770  0.831870  1.0  0.1107
  H  H250  1  0.446200  0.134000  0.206300  1.0  0.1075
  H  H251  1  0.494400  0.110200  0.179200  1.0  0.1055
  H  H252  1  0.451200  0.093300  0.003600  1.0  0.1144
  H  H253  1  0.402500  0.116500  0.031300  1.0  0.107
  H  H254  1  0.457200  0.028300  0.024700  1.0  0.1096
  H  H255  1  0.611500  0.177500  0.061600  1.0  0.1023
  H  H256  1  0.625900  0.206800  0.165200  1.0  0.1085
  H  H257  1  0.112870  0.467330  0.539630  1.0  0.1075
  H  H258  1  0.161070  0.443530  0.512530  1.0  0.1046
  H  H259  1  0.117870  0.426630  0.336930  1.0  0.1144
  H  H260  1  0.069170  0.449830  0.364630  1.0  0.107
  H  H261  1  0.123870  0.361630  0.358030  1.0  0.1096
  H  H262  1  0.278170  0.510830  0.394930  1.0  0.1012
  H  H263  1  0.292570  0.540130  0.498530  1.0  0.1085
  H  H264  1  0.779530  0.800670  0.872970  1.0  0.1066
  H  H265  1  0.827730  0.776870  0.845870  1.0  0.1039
  H  H266  1  0.784530  0.759970  0.670270  1.0  0.1143
  H  H267  1  0.735830  0.783170  0.697970  1.0  0.106
  H  H268  1  0.790530  0.694970  0.691370  1.0  0.1096
  H  H269  1  0.944830  0.844170  0.728270  1.0  0.1013
  H  H270  1  0.959230  0.873470  0.831870  1.0  0.1079
  H  H271  1  0.619800  0.380200  0.121700  1.0  0.1315
  H  H272  1  0.286470  0.713530  0.455030  1.0  0.126
  H  H273  1  0.953130  0.046870  0.788370  1.0  0.1273
  H  H274  1  0.619800  0.239600  0.121700  1.0  0.1252
  H  H275  1  0.286470  0.572930  0.455030  1.0  0.1272
  H  H276  1  0.953130  0.906270  0.788370  1.0  0.1273
  H  H277  1  0.760400  0.380200  0.121700  1.0  0.1217
  H  H278  1  0.427070  0.713530  0.455030  1.0  0.1226
  H  H279  1  0.093730  0.046870  0.788370  1.0  0.1238
  H  H280  1  0.380200  0.619800  0.878300  1.0  0.127
  H  H281  1  0.046870  0.953130  0.211630  1.0  0.1234
  H  H282  1  0.713530  0.286470  0.544970  1.0  0.1231
  H  H283  1  0.239600  0.619800  0.878300  1.0  0.1245
  H  H284  1  0.906270  0.953130  0.211630  1.0  0.1275
  H  H285  1  0.572930  0.286470  0.544970  1.0  0.1261
  H  H286  1  0.380200  0.760400  0.878300  1.0  0.1228
  H  H287  1  0.046870  0.093730  0.211630  1.0  0.1257
  H  H288  1  0.713530  0.427070  0.544970  1.0  0.125
  C  C289  1  0.387720  0.244860  0.138540  1.0  0.6782
  C  C290  1  0.419430  0.291560  0.120690  1.0  -0.137
  C  C291  1  0.447040  0.321430  0.165300  1.0  -0.0523
  C  C292  1  0.475570  0.364550  0.149140  1.0  -0.1426
  C  C293  1  0.476800  0.379250  0.089330  1.0  0.0725
  C  C294  1  0.449840  0.348940  0.044830  1.0  -0.1706
  C  C295  1  0.421120  0.305820  0.061320  1.0  -0.0386
  C  C296  1  0.504770  0.426110  0.071820  1.0  0.021
  C  C297  1  0.486770  0.445810  0.036750  1.0  -0.125
  C  C298  1  0.054390  0.578190  0.471870  1.0  0.6782
  C  C299  1  0.086100  0.624890  0.454020  1.0  -0.137
  C  C300  1  0.113710  0.654760  0.498630  1.0  -0.0523
  C  C301  1  0.142240  0.697880  0.482470  1.0  -0.1426
  C  C302  1  0.143470  0.712580  0.422660  1.0  0.0725
  C  C303  1  0.116510  0.682270  0.378160  1.0  -0.1706
  C  C304  1  0.087790  0.639150  0.394650  1.0  -0.0386
  C  C305  1  0.171440  0.759440  0.405150  1.0  0.021
  C  C306  1  0.153440  0.779140  0.370080  1.0  -0.125
  C  C307  1  0.721050  0.911530  0.805210  1.0  0.6782
  C  C308  1  0.752760  0.958230  0.787360  1.0  -0.137
  C  C309  1  0.780370  0.988100  0.831970  1.0  -0.0523
  C  C310  1  0.808900  0.031220  0.815810  1.0  -0.1426
  C  C311  1  0.810130  0.045920  0.756000  1.0  0.0725
  C  C312  1  0.783170  0.015610  0.711500  1.0  -0.1706
  C  C313  1  0.754450  0.972490  0.727990  1.0  -0.0386
  C  C314  1  0.838100  0.092780  0.738490  1.0  0.021
  C  C315  1  0.820100  0.112480  0.703420  1.0  -0.125
  C  C316  1  0.755140  0.142860  0.138540  1.0  0.6775
  C  C317  1  0.708440  0.127870  0.120690  1.0  -0.139
  C  C318  1  0.678570  0.125610  0.165300  1.0  -0.0521
  C  C319  1  0.635450  0.111020  0.149140  1.0  -0.141
  C  C320  1  0.620750  0.097550  0.089330  1.0  0.072
  C  C321  1  0.651060  0.100900  0.044830  1.0  -0.1692
  C  C322  1  0.694180  0.115300  0.061320  1.0  -0.0373
  C  C323  1  0.573890  0.078660  0.071820  1.0  0.0223
  C  C324  1  0.554190  0.040960  0.036750  1.0  -0.1206
  C  C325  1  0.421810  0.476190  0.471870  1.0  0.6775
  C  C326  1  0.375110  0.461200  0.454020  1.0  -0.139
  C  C327  1  0.345240  0.458940  0.498630  1.0  -0.0521
  C  C328  1  0.302120  0.444350  0.482470  1.0  -0.141
  C  C329  1  0.287420  0.430880  0.422660  1.0  0.072
  C  C330  1  0.317730  0.434230  0.378160  1.0  -0.1692
  C  C331  1  0.360850  0.448630  0.394650  1.0  -0.0373
  C  C332  1  0.240560  0.411990  0.405150  1.0  0.0223
  C  C333  1  0.220860  0.374290  0.370080  1.0  -0.1243
  C  C334  1  0.088470  0.809530  0.805210  1.0  0.6775
  C  C335  1  0.041770  0.794540  0.787360  1.0  -0.139
  C  C336  1  0.011900  0.792280  0.831970  1.0  -0.0521
  C  C337  1  0.968780  0.777690  0.815810  1.0  -0.141
  C  C338  1  0.954080  0.764220  0.756000  1.0  0.072
  C  C339  1  0.984390  0.767570  0.711500  1.0  -0.1692
  C  C340  1  0.027510  0.781970  0.727990  1.0  -0.0373
  C  C341  1  0.907220  0.745330  0.738490  1.0  0.0223
  C  C342  1  0.887520  0.707630  0.703420  1.0  -0.1206
  C  C343  1  0.857140  0.612280  0.138540  1.0  0.6782
  C  C344  1  0.872130  0.580570  0.120690  1.0  -0.1379
  C  C345  1  0.874390  0.552960  0.165300  1.0  -0.0522
  C  C346  1  0.888980  0.524430  0.149140  1.0  -0.1399
  C  C347  1  0.902450  0.523200  0.089330  1.0  0.0718
  C  C348  1  0.899100  0.550160  0.044830  1.0  -0.171
  C  C349  1  0.884700  0.578880  0.061320  1.0  -0.0387
  C  C350  1  0.921340  0.495230  0.071820  1.0  0.0216
  C  C351  1  0.959040  0.513230  0.036750  1.0  -0.1224
  C  C352  1  0.523810  0.945610  0.471870  1.0  0.6783
  C  C353  1  0.538800  0.913900  0.454020  1.0  -0.1379
  C  C354  1  0.541060  0.886290  0.498630  1.0  -0.0522
  C  C355  1  0.555650  0.857760  0.482470  1.0  -0.1399
  C  C356  1  0.569120  0.856530  0.422660  1.0  0.0717
  C  C357  1  0.565770  0.883490  0.378160  1.0  -0.171
  C  C358  1  0.551370  0.912210  0.394650  1.0  -0.0387
  C  C359  1  0.588010  0.828560  0.405150  1.0  0.0216
  C  C360  1  0.625710  0.846560  0.370080  1.0  -0.1186
  C  C361  1  0.190470  0.278950  0.805210  1.0  0.6782
  C  C362  1  0.205460  0.247240  0.787360  1.0  -0.1379
  C  C363  1  0.207720  0.219630  0.831970  1.0  -0.0522
  C  C364  1  0.222310  0.191100  0.815810  1.0  -0.1399
  C  C365  1  0.235780  0.189870  0.756000  1.0  0.0718
  C  C366  1  0.232430  0.216830  0.711500  1.0  -0.171
  C  C367  1  0.218030  0.245550  0.727990  1.0  -0.0387
  C  C368  1  0.254670  0.161900  0.738490  1.0  0.0216
  C  C369  1  0.292370  0.179900  0.703420  1.0  -0.1224
  C  C370  1  0.244860  0.387720  0.861460  1.0  0.678
  C  C371  1  0.291560  0.419430  0.879310  1.0  -0.1383
  C  C372  1  0.321430  0.447040  0.834700  1.0  -0.0513
  C  C373  1  0.364550  0.475570  0.850860  1.0  -0.1398
  C  C374  1  0.379250  0.476800  0.910670  1.0  0.0727
  C  C375  1  0.348940  0.449840  0.955170  1.0  -0.1724
  C  C376  1  0.305820  0.421120  0.938680  1.0  -0.0386
  C  C377  1  0.426110  0.504770  0.928180  1.0  0.0217
  C  C378  1  0.445810  0.486770  0.963250  1.0  -0.124
  C  C379  1  0.911530  0.721050  0.194790  1.0  0.678
  C  C380  1  0.958230  0.752760  0.212640  1.0  -0.1383
  C  C381  1  0.988100  0.780370  0.168030  1.0  -0.0513
  C  C382  1  0.031220  0.808900  0.184190  1.0  -0.1398
  C  C383  1  0.045920  0.810130  0.244000  1.0  0.0727
  C  C384  1  0.015610  0.783170  0.288500  1.0  -0.1724
  C  C385  1  0.972490  0.754450  0.272010  1.0  -0.0386
  C  C386  1  0.092780  0.838100  0.261510  1.0  0.0217
  C  C387  1  0.112480  0.820100  0.296580  1.0  -0.124
  C  C388  1  0.578190  0.054390  0.528130  1.0  0.678
  C  C389  1  0.624890  0.086100  0.545980  1.0  -0.1383
  C  C390  1  0.654760  0.113710  0.501370  1.0  -0.0513
  C  C391  1  0.697880  0.142240  0.517530  1.0  -0.1398
  C  C392  1  0.712580  0.143470  0.577340  1.0  0.0727
  C  C393  1  0.682270  0.116510  0.621840  1.0  -0.1724
  C  C394  1  0.639150  0.087790  0.605350  1.0  -0.0386
  C  C395  1  0.759440  0.171440  0.594850  1.0  0.0217
  C  C396  1  0.779140  0.153440  0.629920  1.0  -0.124
  C  C397  1  0.142860  0.755140  0.861460  1.0  0.6785
  C  C398  1  0.127870  0.708440  0.879310  1.0  -0.1365
  C  C399  1  0.125610  0.678570  0.834700  1.0  -0.0528
  C  C400  1  0.111020  0.635450  0.850860  1.0  -0.1411
  C  C401  1  0.097550  0.620750  0.910670  1.0  0.0724
  C  C402  1  0.100900  0.651060  0.955170  1.0  -0.1722
  C  C403  1  0.115300  0.694180  0.938680  1.0  -0.0395
  C  C404  1  0.078660  0.573890  0.928180  1.0  0.0216
  C  C405  1  0.040960  0.554190  0.963250  1.0  -0.1214
  C  C406  1  0.809530  0.088470  0.194790  1.0  0.6785
  C  C407  1  0.794540  0.041770  0.212640  1.0  -0.1365
  C  C408  1  0.792280  0.011900  0.168030  1.0  -0.0528
  C  C409  1  0.777690  0.968780  0.184190  1.0  -0.1411
  C  C410  1  0.764220  0.954080  0.244000  1.0  0.0724
  C  C411  1  0.767570  0.984390  0.288500  1.0  -0.1722
  C  C412  1  0.781970  0.027510  0.272010  1.0  -0.0395
  C  C413  1  0.745330  0.907220  0.261510  1.0  0.0216
  C  C414  1  0.707630  0.887520  0.296580  1.0  -0.1214
  C  C415  1  0.476190  0.421810  0.528130  1.0  0.6785
  C  C416  1  0.461200  0.375110  0.545980  1.0  -0.1365
  C  C417  1  0.458940  0.345240  0.501370  1.0  -0.0528
  C  C418  1  0.444350  0.302120  0.517530  1.0  -0.1411
  C  C419  1  0.430880  0.287420  0.577340  1.0  0.0724
  C  C420  1  0.434230  0.317730  0.621840  1.0  -0.1722
  C  C421  1  0.448630  0.360850  0.605350  1.0  -0.0395
  C  C422  1  0.411990  0.240560  0.594850  1.0  0.0216
  C  C423  1  0.374290  0.220860  0.629920  1.0  -0.1261
  C  C424  1  0.612280  0.857140  0.861460  1.0  0.6772
  C  C425  1  0.580570  0.872130  0.879310  1.0  -0.1386
  C  C426  1  0.552960  0.874390  0.834700  1.0  -0.0525
  C  C427  1  0.524430  0.888980  0.850860  1.0  -0.1394
  C  C428  1  0.523200  0.902450  0.910670  1.0  0.0722
  C  C429  1  0.550160  0.899100  0.955170  1.0  -0.1709
  C  C430  1  0.578880  0.884700  0.938680  1.0  -0.0367
  C  C431  1  0.495230  0.921340  0.928180  1.0  0.0226
  C  C432  1  0.513230  0.959040  0.963250  1.0  -0.1253
  C  C433  1  0.278950  0.190470  0.194790  1.0  0.6772
  C  C434  1  0.247240  0.205460  0.212640  1.0  -0.1386
  C  C435  1  0.219630  0.207720  0.168030  1.0  -0.0525
  C  C436  1  0.191100  0.222310  0.184190  1.0  -0.1394
  C  C437  1  0.189870  0.235780  0.244000  1.0  0.0722
  C  C438  1  0.216830  0.232430  0.288500  1.0  -0.1709
  C  C439  1  0.245550  0.218030  0.272010  1.0  -0.0367
  C  C440  1  0.161900  0.254670  0.261510  1.0  0.0226
  C  C441  1  0.179900  0.292370  0.296580  1.0  -0.1253
  C  C442  1  0.945610  0.523810  0.528130  1.0  0.6772
  C  C443  1  0.913900  0.538800  0.545980  1.0  -0.1386
  C  C444  1  0.886290  0.541060  0.501370  1.0  -0.0525
  C  C445  1  0.857760  0.555650  0.517530  1.0  -0.1394
  C  C446  1  0.856530  0.569120  0.577340  1.0  0.0722
  C  C447  1  0.883490  0.565770  0.621840  1.0  -0.1709
  C  C448  1  0.912210  0.551370  0.605350  1.0  -0.0367
  C  C449  1  0.828560  0.588010  0.594850  1.0  0.0226
  C  C450  1  0.846560  0.625710  0.629920  1.0  -0.121
  C  C451  1  0.612280  0.755140  0.861460  1.0  0.6781
  C  C452  1  0.580570  0.708440  0.879310  1.0  -0.137
  C  C453  1  0.552960  0.678570  0.834700  1.0  -0.0524
  C  C454  1  0.524430  0.635450  0.850860  1.0  -0.1406
  C  C455  1  0.523200  0.620750  0.910670  1.0  0.0726
  C  C456  1  0.550160  0.651060  0.955170  1.0  -0.1715
  C  C457  1  0.578880  0.694180  0.938680  1.0  -0.0378
  C  C458  1  0.495230  0.573890  0.928180  1.0  0.0223
  C  C459  1  0.513230  0.554190  0.963250  1.0  -0.1246
  C  C460  1  0.278950  0.088470  0.194790  1.0  0.6781
  C  C461  1  0.247240  0.041770  0.212640  1.0  -0.137
  C  C462  1  0.219630  0.011900  0.168030  1.0  -0.0524
  C  C463  1  0.191100  0.968780  0.184190  1.0  -0.1406
  C  C464  1  0.189870  0.954080  0.244000  1.0  0.0726
  C  C465  1  0.216830  0.984390  0.288500  1.0  -0.1715
  C  C466  1  0.245550  0.027510  0.272010  1.0  -0.0378
  C  C467  1  0.161900  0.907220  0.261510  1.0  0.0223
  C  C468  1  0.179900  0.887520  0.296580  1.0  -0.1246
  C  C469  1  0.945610  0.421810  0.528130  1.0  0.6781
  C  C470  1  0.913900  0.375110  0.545980  1.0  -0.137
  C  C471  1  0.886290  0.345240  0.501370  1.0  -0.0524
  C  C472  1  0.857760  0.302120  0.517530  1.0  -0.1406
  C  C473  1  0.856530  0.287420  0.577340  1.0  0.0726
  C  C474  1  0.883490  0.317730  0.621840  1.0  -0.1715
  C  C475  1  0.912210  0.360850  0.605350  1.0  -0.0378
  C  C476  1  0.828560  0.240560  0.594850  1.0  0.0223
  C  C477  1  0.846560  0.220860  0.629920  1.0  -0.1246
  C  C478  1  0.244860  0.857140  0.861460  1.0  0.6778
  C  C479  1  0.291560  0.872130  0.879310  1.0  -0.138
  C  C480  1  0.321430  0.874390  0.834700  1.0  -0.0523
  C  C481  1  0.364550  0.888980  0.850860  1.0  -0.1395
  C  C482  1  0.379250  0.902450  0.910670  1.0  0.0716
  C  C483  1  0.348940  0.899100  0.955170  1.0  -0.1699
  C  C484  1  0.305820  0.884700  0.938680  1.0  -0.0365
  C  C485  1  0.426110  0.921340  0.928180  1.0  0.0219
  C  C486  1  0.445810  0.959040  0.963250  1.0  -0.1214
  C  C487  1  0.911530  0.190470  0.194790  1.0  0.6778
  C  C488  1  0.958230  0.205460  0.212640  1.0  -0.138
  C  C489  1  0.988100  0.207720  0.168030  1.0  -0.0523
  C  C490  1  0.031220  0.222310  0.184190  1.0  -0.1395
  C  C491  1  0.045920  0.235780  0.244000  1.0  0.0716
  C  C492  1  0.015610  0.232430  0.288500  1.0  -0.1699
  C  C493  1  0.972490  0.218030  0.272010  1.0  -0.0365
  C  C494  1  0.092780  0.254670  0.261510  1.0  0.0219
  C  C495  1  0.112480  0.292370  0.296580  1.0  -0.1214
  C  C496  1  0.578190  0.523810  0.528130  1.0  0.6778
  C  C497  1  0.624890  0.538800  0.545980  1.0  -0.138
  C  C498  1  0.654760  0.541060  0.501370  1.0  -0.0523
  C  C499  1  0.697880  0.555650  0.517530  1.0  -0.1395
  C  C500  1  0.712580  0.569120  0.577340  1.0  0.0716
  C  C501  1  0.682270  0.565770  0.621840  1.0  -0.1699
  C  C502  1  0.639150  0.551370  0.605350  1.0  -0.0365
  C  C503  1  0.759440  0.588010  0.594850  1.0  0.0219
  C  C504  1  0.779140  0.625710  0.629920  1.0  -0.1262
  C  C505  1  0.142860  0.387720  0.861460  1.0  0.6777
  C  C506  1  0.127870  0.419430  0.879310  1.0  -0.1388
  C  C507  1  0.125610  0.447040  0.834700  1.0  -0.052
  C  C508  1  0.111020  0.475570  0.850860  1.0  -0.1399
  C  C509  1  0.097550  0.476800  0.910670  1.0  0.0722
  C  C510  1  0.100900  0.449840  0.955170  1.0  -0.173
  C  C511  1  0.115300  0.421120  0.938680  1.0  -0.0377
  C  C512  1  0.078660  0.504770  0.928180  1.0  0.022
  C  C513  1  0.040960  0.486770  0.963250  1.0  -0.1242
  C  C514  1  0.809530  0.721050  0.194790  1.0  0.6777
  C  C515  1  0.794540  0.752760  0.212640  1.0  -0.1388
  C  C516  1  0.792280  0.780370  0.168030  1.0  -0.052
  C  C517  1  0.777690  0.808900  0.184190  1.0  -0.1399
  C  C518  1  0.764220  0.810130  0.244000  1.0  0.0722
  C  C519  1  0.767570  0.783170  0.288500  1.0  -0.173
  C  C520  1  0.781970  0.754450  0.272010  1.0  -0.0377
  C  C521  1  0.745330  0.838100  0.261510  1.0  0.022
  C  C522  1  0.707630  0.820100  0.296580  1.0  -0.1242
  C  C523  1  0.476190  0.054390  0.528130  1.0  0.6777
  C  C524  1  0.461200  0.086100  0.545980  1.0  -0.1388
  C  C525  1  0.458940  0.113710  0.501370  1.0  -0.052
  C  C526  1  0.444350  0.142240  0.517530  1.0  -0.1399
  C  C527  1  0.430880  0.143470  0.577340  1.0  0.0722
  C  C528  1  0.434230  0.116510  0.621840  1.0  -0.173
  C  C529  1  0.448630  0.087790  0.605350  1.0  -0.0377
  C  C530  1  0.411990  0.171440  0.594850  1.0  0.022
  C  C531  1  0.374290  0.153440  0.629920  1.0  -0.119
  C  C532  1  0.755140  0.612280  0.138540  1.0  0.6779
  C  C533  1  0.708440  0.580570  0.120690  1.0  -0.1388
  C  C534  1  0.678570  0.552960  0.165300  1.0  -0.0521
  C  C535  1  0.635450  0.524430  0.149140  1.0  -0.1412
  C  C536  1  0.620750  0.523200  0.089330  1.0  0.0718
  C  C537  1  0.651060  0.550160  0.044830  1.0  -0.1708
  C  C538  1  0.694180  0.578880  0.061320  1.0  -0.0393
  C  C539  1  0.573890  0.495230  0.071820  1.0  0.0218
  C  C540  1  0.554190  0.513230  0.036750  1.0  -0.1217
  C  C541  1  0.421810  0.945610  0.471870  1.0  0.6779
  C  C542  1  0.375110  0.913900  0.454020  1.0  -0.1388
  C  C543  1  0.345240  0.886290  0.498630  1.0  -0.0521
  C  C544  1  0.302120  0.857760  0.482470  1.0  -0.1412
  C  C545  1  0.287420  0.856530  0.422660  1.0  0.0718
  C  C546  1  0.317730  0.883490  0.378160  1.0  -0.1708
  C  C547  1  0.360850  0.912210  0.394650  1.0  -0.0393
  C  C548  1  0.240560  0.828560  0.405150  1.0  0.0218
  C  C549  1  0.220860  0.846560  0.370080  1.0  -0.1217
  C  C550  1  0.088470  0.278950  0.805210  1.0  0.6779
  C  C551  1  0.041770  0.247240  0.787360  1.0  -0.1388
  C  C552  1  0.011900  0.219630  0.831970  1.0  -0.0521
  C  C553  1  0.968780  0.191100  0.815810  1.0  -0.1412
  C  C554  1  0.954080  0.189870  0.756000  1.0  0.0718
  C  C555  1  0.984390  0.216830  0.711500  1.0  -0.1708
  C  C556  1  0.027510  0.245550  0.727990  1.0  -0.0393
  C  C557  1  0.907220  0.161900  0.738490  1.0  0.0218
  C  C558  1  0.887520  0.179900  0.703420  1.0  -0.1217
  C  C559  1  0.857140  0.244860  0.138540  1.0  0.6778
  C  C560  1  0.872130  0.291560  0.120690  1.0  -0.1376
  C  C561  1  0.874390  0.321430  0.165300  1.0  -0.0524
  C  C562  1  0.888980  0.364550  0.149140  1.0  -0.1421
  C  C563  1  0.902450  0.379250  0.089330  1.0  0.0726
  C  C564  1  0.899100  0.348940  0.044830  1.0  -0.1706
  C  C565  1  0.884700  0.305820  0.061320  1.0  -0.039
  C  C566  1  0.921340  0.426110  0.071820  1.0  0.0217
  C  C567  1  0.959040  0.445810  0.036750  1.0  -0.12
  C  C568  1  0.523810  0.578190  0.471870  1.0  0.6778
  C  C569  1  0.538800  0.624890  0.454020  1.0  -0.1376
  C  C570  1  0.541060  0.654760  0.498630  1.0  -0.0523
  C  C571  1  0.555650  0.697880  0.482470  1.0  -0.1421
  C  C572  1  0.569120  0.712580  0.422660  1.0  0.0726
  C  C573  1  0.565770  0.682270  0.378160  1.0  -0.1706
  C  C574  1  0.551370  0.639150  0.394650  1.0  -0.039
  C  C575  1  0.588010  0.759440  0.405150  1.0  0.0217
  C  C576  1  0.625710  0.779140  0.370080  1.0  -0.124
  C  C577  1  0.190470  0.911530  0.805210  1.0  0.6778
  C  C578  1  0.205460  0.958230  0.787360  1.0  -0.1376
  C  C579  1  0.207720  0.988100  0.831970  1.0  -0.0524
  C  C580  1  0.222310  0.031220  0.815810  1.0  -0.1421
  C  C581  1  0.235780  0.045920  0.756000  1.0  0.0726
  C  C582  1  0.232430  0.015610  0.711500  1.0  -0.1706
  C  C583  1  0.218030  0.972490  0.727990  1.0  -0.039
  C  C584  1  0.254670  0.092780  0.738490  1.0  0.0217
  C  C585  1  0.292370  0.112480  0.703420  1.0  -0.12
  C  C586  1  0.387720  0.142860  0.138540  1.0  0.678
  C  C587  1  0.419430  0.127870  0.120690  1.0  -0.1378
  C  C588  1  0.447040  0.125610  0.165300  1.0  -0.0531
  C  C589  1  0.475570  0.111020  0.149140  1.0  -0.141
  C  C590  1  0.476800  0.097550  0.089330  1.0  0.0716
  C  C591  1  0.449840  0.100900  0.044830  1.0  -0.1693
  C  C592  1  0.421120  0.115300  0.061320  1.0  -0.0367
  C  C593  1  0.504770  0.078660  0.071820  1.0  0.021
  C  C594  1  0.486770  0.040960  0.036750  1.0  -0.1253
  C  C595  1  0.054390  0.476190  0.471870  1.0  0.6781
  C  C596  1  0.086100  0.461200  0.454020  1.0  -0.1377
  C  C597  1  0.113710  0.458940  0.498630  1.0  -0.0531
  C  C598  1  0.142240  0.444350  0.482470  1.0  -0.141
  C  C599  1  0.143470  0.430880  0.422660  1.0  0.0716
  C  C600  1  0.116510  0.434230  0.378160  1.0  -0.1693
  C  C601  1  0.087790  0.448630  0.394650  1.0  -0.0367
  C  C602  1  0.171440  0.411990  0.405150  1.0  0.021
  C  C603  1  0.153440  0.374290  0.370080  1.0  -0.1207
  C  C604  1  0.721050  0.809530  0.805210  1.0  0.678
  C  C605  1  0.752760  0.794540  0.787360  1.0  -0.1378
  C  C606  1  0.780370  0.792280  0.831970  1.0  -0.0531
  C  C607  1  0.808900  0.777690  0.815810  1.0  -0.141
  C  C608  1  0.810130  0.764220  0.756000  1.0  0.0716
  C  C609  1  0.783170  0.767570  0.711500  1.0  -0.1693
  C  C610  1  0.754450  0.781970  0.727990  1.0  -0.0367
  C  C611  1  0.838100  0.745330  0.738490  1.0  0.021
  C  C612  1  0.820100  0.707630  0.703420  1.0  -0.1253
  C  C613  1  0.510220  0.489780  0.018240  1.0  -0.0087
  C  C614  1  0.548800  0.451200  0.089140  1.0  0.2006
  C  C615  1  0.587700  0.412300  0.087500  1.0  0.0365
  C  C616  1  0.605250  0.394750  0.139800  1.0  -0.3626
  C  C617  1  0.176890  0.823110  0.351570  1.0  -0.0087
  C  C618  1  0.215470  0.784530  0.422470  1.0  0.2006
  C  C619  1  0.254370  0.745630  0.420830  1.0  0.0365
  C  C620  1  0.271920  0.728080  0.473130  1.0  -0.3626
  C  C621  1  0.843550  0.156450  0.684910  1.0  -0.0087
  C  C622  1  0.882130  0.117870  0.755810  1.0  0.2006
  C  C623  1  0.921030  0.078970  0.754170  1.0  0.0365
  C  C624  1  0.938580  0.061420  0.806470  1.0  -0.3626
  C  C625  1  0.510220  0.020440  0.018240  1.0  -0.0027
  C  C626  1  0.548800  0.097600  0.089140  1.0  0.2009
  C  C627  1  0.587700  0.175400  0.087500  1.0  0.035
  C  C628  1  0.605250  0.210500  0.139800  1.0  -0.3634
  C  C629  1  0.176890  0.353770  0.351570  1.0  -0.0027
  C  C630  1  0.215470  0.430930  0.422470  1.0  0.2009
  C  C631  1  0.254370  0.508730  0.420830  1.0  0.035
  C  C632  1  0.271920  0.543830  0.473130  1.0  -0.3634
  C  C633  1  0.843550  0.687110  0.684910  1.0  -0.0027
  C  C634  1  0.882130  0.764270  0.755810  1.0  0.2009
  C  C635  1  0.921030  0.842070  0.754170  1.0  0.035
  C  C636  1  0.938580  0.877170  0.806470  1.0  -0.3634
  C  C637  1  0.979560  0.489780  0.018240  1.0  -0.0063
  C  C638  1  0.902400  0.451200  0.089140  1.0  0.201
  C  C639  1  0.824600  0.412300  0.087500  1.0  0.0378
  C  C640  1  0.789500  0.394750  0.139800  1.0  -0.3638
  C  C641  1  0.646230  0.823110  0.351570  1.0  -0.0063
  C  C642  1  0.569070  0.784530  0.422470  1.0  0.201
  C  C643  1  0.491270  0.745630  0.420830  1.0  0.0378
  C  C644  1  0.456170  0.728080  0.473130  1.0  -0.3638
  C  C645  1  0.312890  0.156450  0.684910  1.0  -0.0063
  C  C646  1  0.235730  0.117870  0.755810  1.0  0.201
  C  C647  1  0.157930  0.078970  0.754170  1.0  0.0378
  C  C648  1  0.122830  0.061420  0.806470  1.0  -0.3638
  C  C649  1  0.489780  0.510220  0.981760  1.0  -0.0098
  C  C650  1  0.451200  0.548800  0.910860  1.0  0.2015
  C  C651  1  0.412300  0.587700  0.912500  1.0  0.0379
  C  C652  1  0.394750  0.605250  0.860200  1.0  -0.3643
  C  C653  1  0.156450  0.843550  0.315090  1.0  -0.0098
  C  C654  1  0.117870  0.882130  0.244190  1.0  0.2015
  C  C655  1  0.078970  0.921030  0.245830  1.0  0.0379
  C  C656  1  0.061420  0.938580  0.193530  1.0  -0.3643
  C  C657  1  0.823110  0.176890  0.648430  1.0  -0.0098
  C  C658  1  0.784530  0.215470  0.577530  1.0  0.2015
  C  C659  1  0.745630  0.254370  0.579170  1.0  0.0379
  C  C660  1  0.728080  0.271920  0.526870  1.0  -0.3643
  C  C661  1  0.020440  0.510220  0.981760  1.0  -0.0064
  C  C662  1  0.097600  0.548800  0.910860  1.0  0.2008
  C  C663  1  0.175400  0.587700  0.912500  1.0  0.0372
  C  C664  1  0.210500  0.605250  0.860200  1.0  -0.3651
  C  C665  1  0.687110  0.843550  0.315090  1.0  -0.0064
  C  C666  1  0.764270  0.882130  0.244190  1.0  0.2008
  C  C667  1  0.842070  0.921030  0.245830  1.0  0.0372
  C  C668  1  0.877170  0.938580  0.193530  1.0  -0.3651
  C  C669  1  0.353770  0.176890  0.648430  1.0  -0.0064
  C  C670  1  0.430930  0.215470  0.577530  1.0  0.2008
  C  C671  1  0.508730  0.254370  0.579170  1.0  0.0372
  C  C672  1  0.543830  0.271920  0.526870  1.0  -0.3651
  C  C673  1  0.489780  0.979560  0.981760  1.0  -0.0028
  C  C674  1  0.451200  0.902400  0.910860  1.0  0.2017
  C  C675  1  0.412300  0.824600  0.912500  1.0  0.0355
  C  C676  1  0.394750  0.789500  0.860200  1.0  -0.3634
  C  C677  1  0.156450  0.312890  0.315090  1.0  -0.0028
  C  C678  1  0.117870  0.235730  0.244190  1.0  0.2017
  C  C679  1  0.078970  0.157930  0.245830  1.0  0.0355
  C  C680  1  0.061420  0.122830  0.193530  1.0  -0.3634
  C  C681  1  0.823110  0.646230  0.648430  1.0  -0.0028
  C  C682  1  0.784530  0.569070  0.577530  1.0  0.2017
  C  C683  1  0.745630  0.491270  0.579170  1.0  0.0355
  C  C684  1  0.728080  0.456170  0.526870  1.0  -0.3634
  O  O685  1  0.362450  0.220380  0.096080  1.0  -0.5627
  O  O686  1  0.388880  0.233750  0.193200  1.0  -0.5553
  O  O687  1  0.029120  0.553710  0.429410  1.0  -0.5627
  O  O688  1  0.055550  0.567080  0.526530  1.0  -0.5552
  O  O689  1  0.695780  0.887050  0.762750  1.0  -0.5614
  O  O690  1  0.722210  0.900420  0.859870  1.0  -0.5582
  O  O691  1  0.779620  0.142070  0.096080  1.0  -0.5622
  O  O692  1  0.766250  0.155130  0.193200  1.0  -0.5594
  O  O693  1  0.446290  0.475400  0.429410  1.0  -0.5624
  O  O694  1  0.432920  0.488460  0.526530  1.0  -0.559
  O  O695  1  0.112950  0.808740  0.762750  1.0  -0.5622
  O  O696  1  0.099580  0.821800  0.859870  1.0  -0.5594
  O  O697  1  0.857930  0.637550  0.096080  1.0  -0.5618
  O  O698  1  0.844870  0.611120  0.193200  1.0  -0.5594
  O  O699  1  0.524600  0.970880  0.429410  1.0  -0.5618
  O  O700  1  0.511540  0.944450  0.526530  1.0  -0.5599
  O  O701  1  0.191260  0.304220  0.762750  1.0  -0.5635
  O  O702  1  0.178200  0.277790  0.859870  1.0  -0.5564
  O  O703  1  0.220380  0.362450  0.903920  1.0  -0.5621
  O  O704  1  0.233750  0.388880  0.806800  1.0  -0.557
  O  O705  1  0.887050  0.695780  0.237250  1.0  -0.5608
  O  O706  1  0.900420  0.722210  0.140130  1.0  -0.5601
  O  O707  1  0.553710  0.029120  0.570590  1.0  -0.5621
  O  O708  1  0.567080  0.055550  0.473470  1.0  -0.5569
  O  O709  1  0.142070  0.779620  0.903920  1.0  -0.5607
  O  O710  1  0.155130  0.766250  0.806800  1.0  -0.559
  O  O711  1  0.808740  0.112950  0.237250  1.0  -0.5607
  O  O712  1  0.821800  0.099580  0.140130  1.0  -0.559
  O  O713  1  0.475400  0.446290  0.570590  1.0  -0.5609
  O  O714  1  0.488460  0.432920  0.473470  1.0  -0.5585
  O  O715  1  0.637550  0.857930  0.903920  1.0  -0.5606
  O  O716  1  0.611120  0.844870  0.806800  1.0  -0.5593
  O  O717  1  0.304220  0.191260  0.237250  1.0  -0.5619
  O  O718  1  0.277790  0.178200  0.140130  1.0  -0.5568
  O  O719  1  0.970880  0.524600  0.570590  1.0  -0.5606
  O  O720  1  0.944450  0.511540  0.473470  1.0  -0.5598
  O  O721  1  0.637550  0.779620  0.903920  1.0  -0.5613
  O  O722  1  0.611120  0.766250  0.806800  1.0  -0.5562
  O  O723  1  0.304220  0.112950  0.237250  1.0  -0.5601
  O  O724  1  0.277790  0.099580  0.140130  1.0  -0.5591
  O  O725  1  0.970880  0.446290  0.570590  1.0  -0.5613
  O  O726  1  0.944450  0.432920  0.473470  1.0  -0.556
  O  O727  1  0.220380  0.857930  0.903920  1.0  -0.5603
  O  O728  1  0.233750  0.844870  0.806800  1.0  -0.5594
  O  O729  1  0.887050  0.191260  0.237250  1.0  -0.5603
  O  O730  1  0.900420  0.178200  0.140130  1.0  -0.5594
  O  O731  1  0.553710  0.524600  0.570590  1.0  -0.5606
  O  O732  1  0.567080  0.511540  0.473470  1.0  -0.5589
  O  O733  1  0.142070  0.362450  0.903920  1.0  -0.5609
  O  O734  1  0.155130  0.388880  0.806800  1.0  -0.5597
  O  O735  1  0.808740  0.695780  0.237250  1.0  -0.5624
  O  O736  1  0.821800  0.722210  0.140130  1.0  -0.5567
  O  O737  1  0.475400  0.029120  0.570590  1.0  -0.5609
  O  O738  1  0.488460  0.055550  0.473470  1.0  -0.5602
  O  O739  1  0.779620  0.637550  0.096080  1.0  -0.5631
  O  O740  1  0.766250  0.611120  0.193200  1.0  -0.5565
  O  O741  1  0.446290  0.970880  0.429410  1.0  -0.5631
  O  O742  1  0.432920  0.944450  0.526530  1.0  -0.5563
  O  O743  1  0.112950  0.304220  0.762750  1.0  -0.5619
  O  O744  1  0.099580  0.277790  0.859870  1.0  -0.5597
  O  O745  1  0.857930  0.220380  0.096080  1.0  -0.5617
  O  O746  1  0.844870  0.233750  0.193200  1.0  -0.559
  O  O747  1  0.524600  0.553710  0.429410  1.0  -0.5618
  O  O748  1  0.511540  0.567080  0.526530  1.0  -0.5585
  O  O749  1  0.191260  0.887050  0.762750  1.0  -0.5617
  O  O750  1  0.178200  0.900420  0.859870  1.0  -0.559
  O  O751  1  0.362450  0.142070  0.096080  1.0  -0.5616
  O  O752  1  0.388880  0.155130  0.193200  1.0  -0.5581
  O  O753  1  0.029120  0.475400  0.429410  1.0  -0.5616
  O  O754  1  0.055550  0.488460  0.526530  1.0  -0.5586
  O  O755  1  0.695780  0.808740  0.762750  1.0  -0.5632
  O  O756  1  0.722210  0.821800  0.859870  1.0  -0.5556
  O  O757  1  0.567710  0.432290  0.125260  1.0  -0.3891
  O  O758  1  0.234380  0.765620  0.458590  1.0  -0.3891
  O  O759  1  0.901040  0.098960  0.791930  1.0  -0.3891
  O  O760  1  0.567710  0.135420  0.125260  1.0  -0.388
  O  O761  1  0.234380  0.468750  0.458590  1.0  -0.388
  O  O762  1  0.901040  0.802090  0.791930  1.0  -0.388
  O  O763  1  0.864580  0.432290  0.125260  1.0  -0.3893
  O  O764  1  0.531250  0.765620  0.458590  1.0  -0.3893
  O  O765  1  0.197910  0.098960  0.791930  1.0  -0.3893
  O  O766  1  0.432290  0.567710  0.874740  1.0  -0.3847
  O  O767  1  0.098960  0.901040  0.208070  1.0  -0.3847
  O  O768  1  0.765620  0.234380  0.541410  1.0  -0.3847
  O  O769  1  0.135420  0.567710  0.874740  1.0  -0.3846
  O  O770  1  0.802090  0.901040  0.208070  1.0  -0.3846
  O  O771  1  0.468750  0.234380  0.541410  1.0  -0.3846
  O  O772  1  0.432290  0.864580  0.874740  1.0  -0.3843
  O  O773  1  0.098960  0.197910  0.208070  1.0  -0.3843
  O  O774  1  0.765620  0.531250  0.541410  1.0  -0.3843
