# generated using pymatgen
data_CuH15C22O5
_symmetry_space_group_name_H-M   'P 1'
_cell_length_a   35.26960000
_cell_length_b   35.26960000
_cell_length_c   20.74240000
_cell_angle_alpha   90.00000000
_cell_angle_beta   90.00000000
_cell_angle_gamma   120.00000000
_symmetry_Int_Tables_number   1
_chemical_formula_structural   CuH15C22O5
_chemical_formula_sum   'Cu18 H270 C396 O90'
_cell_volume   22345.53233424
_cell_formula_units_Z   18
loop_
 _symmetry_equiv_pos_site_id
 _symmetry_equiv_pos_as_xyz
  1  'x, y, z'
loop_
 _atom_site_type_symbol
 _atom_site_label
 _atom_site_symmetry_multiplicity
 _atom_site_fract_x
 _atom_site_fract_y
 _atom_site_fract_z
 _atom_site_occupancy
 _atom_site_charge
  Cu  Cu1  1  0.507680  0.015360  0.940490  1.0  0.8863
  Cu  Cu2  1  0.174350  0.348690  0.273820  1.0  0.8863
  Cu  Cu3  1  0.841010  0.682030  0.607160  1.0  0.8863
  Cu  Cu4  1  0.984640  0.492320  0.940490  1.0  0.8851
  Cu  Cu5  1  0.651310  0.825650  0.273820  1.0  0.8851
  Cu  Cu6  1  0.317970  0.158990  0.607160  1.0  0.8851
  Cu  Cu7  1  0.507680  0.492320  0.940490  1.0  0.8829
  Cu  Cu8  1  0.174350  0.825650  0.273820  1.0  0.8829
  Cu  Cu9  1  0.841010  0.158990  0.607160  1.0  0.8829
  Cu  Cu10  1  0.015360  0.507680  0.059510  1.0  0.887
  Cu  Cu11  1  0.682030  0.841010  0.392840  1.0  0.887
  Cu  Cu12  1  0.348690  0.174350  0.726180  1.0  0.887
  Cu  Cu13  1  0.492320  0.984640  0.059510  1.0  0.8871
  Cu  Cu14  1  0.158990  0.317970  0.392840  1.0  0.8871
  Cu  Cu15  1  0.825650  0.651310  0.726180  1.0  0.8871
  Cu  Cu16  1  0.492320  0.507680  0.059510  1.0  0.8837
  Cu  Cu17  1  0.158990  0.841010  0.392840  1.0  0.8837
  Cu  Cu18  1  0.825650  0.174350  0.726180  1.0  0.8837
  H  H19  1  0.528700  0.885800  0.039400  1.0  0.1116
  H  H20  1  0.553700  0.837400  0.012500  1.0  0.1112
  H  H21  1  0.570600  0.880000  0.827600  1.0  0.1155
  H  H22  1  0.549000  0.930500  0.856000  1.0  0.1097
  H  H23  1  0.637500  0.875800  0.855500  1.0  0.1127
  H  H24  1  0.492800  0.723600  0.890000  1.0  0.0863
  H  H25  1  0.451000  0.748100  0.993500  1.0  0.1158
  H  H26  1  0.195370  0.219130  0.372730  1.0  0.1115
  H  H27  1  0.220370  0.170730  0.345830  1.0  0.1125
  H  H28  1  0.237270  0.213330  0.160930  1.0  0.1155
  H  H29  1  0.215670  0.263830  0.189330  1.0  0.1095
  H  H30  1  0.304170  0.209130  0.188830  1.0  0.1127
  H  H31  1  0.159470  0.056930  0.223330  1.0  0.0861
  H  H32  1  0.117670  0.081430  0.326830  1.0  0.119
  H  H33  1  0.862030  0.552470  0.706070  1.0  0.1116
  H  H34  1  0.887030  0.504070  0.679170  1.0  0.1112
  H  H35  1  0.903930  0.546670  0.494270  1.0  0.1155
  H  H36  1  0.882330  0.597170  0.522670  1.0  0.1098
  H  H37  1  0.970830  0.542470  0.522170  1.0  0.1128
  H  H38  1  0.826130  0.390270  0.556670  1.0  0.0863
  H  H39  1  0.784330  0.414770  0.660170  1.0  0.1158
  H  H40  1  0.114200  0.642900  0.039400  1.0  0.1113
  H  H41  1  0.162600  0.716300  0.012500  1.0  0.111
  H  H42  1  0.120000  0.690600  0.827600  1.0  0.1152
  H  H43  1  0.069500  0.618500  0.856000  1.0  0.1105
  H  H44  1  0.124200  0.761700  0.855500  1.0  0.111
  H  H45  1  0.276400  0.769200  0.890000  1.0  0.0895
  H  H46  1  0.251900  0.702900  0.993500  1.0  0.1188
  H  H47  1  0.780870  0.976230  0.372730  1.0  0.1115
  H  H48  1  0.829270  0.049630  0.345830  1.0  0.1111
  H  H49  1  0.786670  0.023930  0.160930  1.0  0.1152
  H  H50  1  0.736170  0.951830  0.189330  1.0  0.1098
  H  H51  1  0.790870  0.095030  0.188830  1.0  0.1111
  H  H52  1  0.943070  0.102530  0.223330  1.0  0.0889
  H  H53  1  0.918570  0.036230  0.326830  1.0  0.1176
  H  H54  1  0.447530  0.309570  0.706070  1.0  0.1113
  H  H55  1  0.495930  0.382970  0.679170  1.0  0.111
  H  H56  1  0.453330  0.357270  0.494270  1.0  0.1153
  H  H57  1  0.402830  0.285170  0.522670  1.0  0.1094
  H  H58  1  0.457530  0.428370  0.522170  1.0  0.111
  H  H59  1  0.609730  0.435870  0.556670  1.0  0.0895
  H  H60  1  0.585230  0.369570  0.660170  1.0  0.1188
  H  H61  1  0.357100  0.471300  0.039400  1.0  0.111
  H  H62  1  0.283700  0.446300  0.012500  1.0  0.1123
  H  H63  1  0.309400  0.429400  0.827600  1.0  0.1159
  H  H64  1  0.381500  0.451000  0.856000  1.0  0.1105
  H  H65  1  0.238300  0.362500  0.855500  1.0  0.1122
  H  H66  1  0.230800  0.507200  0.890000  1.0  0.0865
  H  H67  1  0.297100  0.549000  0.993500  1.0  0.1173
  H  H68  1  0.023770  0.804630  0.372730  1.0  0.111
  H  H69  1  0.950370  0.779630  0.345830  1.0  0.111
  H  H70  1  0.976070  0.762730  0.160930  1.0  0.1157
  H  H71  1  0.048170  0.784330  0.189330  1.0  0.1105
  H  H72  1  0.904970  0.695830  0.188830  1.0  0.1122
  H  H73  1  0.897470  0.840530  0.223330  1.0  0.0861
  H  H74  1  0.963770  0.882330  0.326830  1.0  0.1169
  H  H75  1  0.690430  0.137970  0.706070  1.0  0.111
  H  H76  1  0.617030  0.112970  0.679170  1.0  0.1123
  H  H77  1  0.642730  0.096070  0.494270  1.0  0.1159
  H  H78  1  0.714830  0.117670  0.522670  1.0  0.1105
  H  H79  1  0.571630  0.029170  0.522170  1.0  0.1121
  H  H80  1  0.564130  0.173870  0.556670  1.0  0.0865
  H  H81  1  0.630430  0.215670  0.660170  1.0  0.1173
  H  H82  1  0.885800  0.528700  0.960600  1.0  0.1108
  H  H83  1  0.837400  0.553700  0.987500  1.0  0.1113
  H  H84  1  0.880000  0.570600  0.172400  1.0  0.1149
  H  H85  1  0.930500  0.549000  0.144000  1.0  0.1105
  H  H86  1  0.875800  0.637500  0.144500  1.0  0.1125
  H  H87  1  0.723600  0.492800  0.110000  1.0  0.0874
  H  H88  1  0.748100  0.451000  0.006500  1.0  0.113
  H  H89  1  0.552470  0.862030  0.293930  1.0  0.1108
  H  H90  1  0.504070  0.887030  0.320830  1.0  0.1113
  H  H91  1  0.546670  0.903930  0.505730  1.0  0.115
  H  H92  1  0.597170  0.882330  0.477330  1.0  0.1107
  H  H93  1  0.542470  0.970830  0.477830  1.0  0.1125
  H  H94  1  0.390270  0.826130  0.443330  1.0  0.0874
  H  H95  1  0.414770  0.784330  0.339830  1.0  0.113
  H  H96  1  0.219130  0.195370  0.627270  1.0  0.1108
  H  H97  1  0.170730  0.220370  0.654170  1.0  0.1126
  H  H98  1  0.213330  0.237270  0.839070  1.0  0.1145
  H  H99  1  0.263830  0.215670  0.810670  1.0  0.1103
  H  H100  1  0.209130  0.304170  0.811170  1.0  0.1125
  H  H101  1  0.056930  0.159470  0.776670  1.0  0.087
  H  H102  1  0.081430  0.117670  0.673170  1.0  0.1165
  H  H103  1  0.642900  0.114200  0.960600  1.0  0.1114
  H  H104  1  0.716300  0.162600  0.987500  1.0  0.1107
  H  H105  1  0.690600  0.120000  0.172400  1.0  0.1158
  H  H106  1  0.618500  0.069500  0.144000  1.0  0.1112
  H  H107  1  0.761700  0.124200  0.144500  1.0  0.1129
  H  H108  1  0.769200  0.276400  0.110000  1.0  0.0868
  H  H109  1  0.702900  0.251900  0.006500  1.0  0.1175
  H  H110  1  0.309570  0.447530  0.293930  1.0  0.1114
  H  H111  1  0.382970  0.495930  0.320830  1.0  0.1107
  H  H112  1  0.357270  0.453330  0.505730  1.0  0.1157
  H  H113  1  0.285170  0.402830  0.477330  1.0  0.1102
  H  H114  1  0.428370  0.457530  0.477830  1.0  0.1129
  H  H115  1  0.435870  0.609730  0.443330  1.0  0.0868
  H  H116  1  0.369570  0.585230  0.339830  1.0  0.1175
  H  H117  1  0.976230  0.780870  0.627270  1.0  0.1115
  H  H118  1  0.049630  0.829270  0.654170  1.0  0.1108
  H  H119  1  0.023930  0.786670  0.839070  1.0  0.1157
  H  H120  1  0.951830  0.736170  0.810670  1.0  0.1107
  H  H121  1  0.095030  0.790870  0.811170  1.0  0.113
  H  H122  1  0.102530  0.943070  0.776670  1.0  0.0866
  H  H123  1  0.036230  0.918570  0.673170  1.0  0.1169
  H  H124  1  0.471300  0.357100  0.960600  1.0  0.1113
  H  H125  1  0.446300  0.283700  0.987500  1.0  0.112
  H  H126  1  0.429400  0.309400  0.172400  1.0  0.1149
  H  H127  1  0.451000  0.381500  0.144000  1.0  0.11
  H  H128  1  0.362500  0.238300  0.144500  1.0  0.112
  H  H129  1  0.507200  0.230800  0.110000  1.0  0.09
  H  H130  1  0.549000  0.297100  0.006500  1.0  0.1199
  H  H131  1  0.137970  0.690430  0.293930  1.0  0.1113
  H  H132  1  0.112970  0.617030  0.320830  1.0  0.112
  H  H133  1  0.096070  0.642730  0.505730  1.0  0.1149
  H  H134  1  0.117670  0.714830  0.477330  1.0  0.1099
  H  H135  1  0.029170  0.571630  0.477830  1.0  0.112
  H  H136  1  0.173870  0.564130  0.443330  1.0  0.09
  H  H137  1  0.215670  0.630430  0.339830  1.0  0.1199
  H  H138  1  0.804630  0.023770  0.627270  1.0  0.1113
  H  H139  1  0.779630  0.950370  0.654170  1.0  0.1107
  H  H140  1  0.762730  0.976070  0.839070  1.0  0.1148
  H  H141  1  0.784330  0.048170  0.810670  1.0  0.1099
  H  H142  1  0.695830  0.904970  0.811170  1.0  0.1121
  H  H143  1  0.840530  0.897470  0.776670  1.0  0.0899
  H  H144  1  0.882330  0.963770  0.673170  1.0  0.1181
  H  H145  1  0.471300  0.114200  0.960600  1.0  0.1116
  H  H146  1  0.446300  0.162600  0.987500  1.0  0.1104
  H  H147  1  0.429400  0.120000  0.172400  1.0  0.1152
  H  H148  1  0.451000  0.069500  0.144000  1.0  0.1105
  H  H149  1  0.362500  0.124200  0.144500  1.0  0.1113
  H  H150  1  0.507200  0.276400  0.110000  1.0  0.0886
  H  H151  1  0.549000  0.251900  0.006500  1.0  0.1162
  H  H152  1  0.137970  0.447530  0.293930  1.0  0.1116
  H  H153  1  0.112970  0.495930  0.320830  1.0  0.1104
  H  H154  1  0.096070  0.453330  0.505730  1.0  0.1152
  H  H155  1  0.117670  0.402830  0.477330  1.0  0.1107
  H  H156  1  0.029170  0.457530  0.477830  1.0  0.1114
  H  H157  1  0.173870  0.609730  0.443330  1.0  0.0886
  H  H158  1  0.215670  0.585230  0.339830  1.0  0.1162
  H  H159  1  0.804630  0.780870  0.627270  1.0  0.1115
  H  H160  1  0.779630  0.829270  0.654170  1.0  0.1119
  H  H161  1  0.762730  0.786670  0.839070  1.0  0.1148
  H  H162  1  0.784330  0.736170  0.810670  1.0  0.1103
  H  H163  1  0.695830  0.790870  0.811170  1.0  0.1114
  H  H164  1  0.840530  0.943070  0.776670  1.0  0.088
  H  H165  1  0.882330  0.918570  0.673170  1.0  0.1196
  H  H166  1  0.885800  0.357100  0.960600  1.0  0.1112
  H  H167  1  0.837400  0.283700  0.987500  1.0  0.1106
  H  H168  1  0.880000  0.309400  0.172400  1.0  0.1147
  H  H169  1  0.930500  0.381500  0.144000  1.0  0.111
  H  H170  1  0.875800  0.238300  0.144500  1.0  0.1113
  H  H171  1  0.723600  0.230800  0.110000  1.0  0.0904
  H  H172  1  0.748100  0.297100  0.006500  1.0  0.1166
  H  H173  1  0.552470  0.690430  0.293930  1.0  0.1112
  H  H174  1  0.504070  0.617030  0.320830  1.0  0.1106
  H  H175  1  0.546670  0.642730  0.505730  1.0  0.1147
  H  H176  1  0.597170  0.714830  0.477330  1.0  0.11
  H  H177  1  0.542470  0.571630  0.477830  1.0  0.1113
  H  H178  1  0.390270  0.564130  0.443330  1.0  0.0904
  H  H179  1  0.414770  0.630430  0.339830  1.0  0.1166
  H  H180  1  0.219130  0.023770  0.627270  1.0  0.1114
  H  H181  1  0.170730  0.950370  0.654170  1.0  0.1107
  H  H182  1  0.213330  0.976070  0.839070  1.0  0.1147
  H  H183  1  0.263830  0.048170  0.810670  1.0  0.1104
  H  H184  1  0.209130  0.904970  0.811170  1.0  0.1114
  H  H185  1  0.056930  0.897470  0.776670  1.0  0.09
  H  H186  1  0.081430  0.963770  0.673170  1.0  0.1153
  H  H187  1  0.642900  0.528700  0.960600  1.0  0.111
  H  H188  1  0.716300  0.553700  0.987500  1.0  0.1121
  H  H189  1  0.690600  0.570600  0.172400  1.0  0.1153
  H  H190  1  0.618500  0.549000  0.144000  1.0  0.1102
  H  H191  1  0.761700  0.637500  0.144500  1.0  0.111
  H  H192  1  0.769200  0.492800  0.110000  1.0  0.0855
  H  H193  1  0.702900  0.451000  0.006500  1.0  0.1167
  H  H194  1  0.309570  0.862030  0.293930  1.0  0.111
  H  H195  1  0.382970  0.887030  0.320830  1.0  0.1121
  H  H196  1  0.357270  0.903930  0.505730  1.0  0.1153
  H  H197  1  0.285170  0.882330  0.477330  1.0  0.1102
  H  H198  1  0.428370  0.970830  0.477830  1.0  0.1109
  H  H199  1  0.435870  0.826130  0.443330  1.0  0.0855
  H  H200  1  0.369570  0.784330  0.339830  1.0  0.1167
  H  H201  1  0.976230  0.195370  0.627270  1.0  0.111
  H  H202  1  0.049630  0.220370  0.654170  1.0  0.1109
  H  H203  1  0.023930  0.237270  0.839070  1.0  0.1154
  H  H204  1  0.951830  0.215670  0.810670  1.0  0.1102
  H  H205  1  0.095030  0.304170  0.811170  1.0  0.111
  H  H206  1  0.102530  0.159470  0.776670  1.0  0.0851
  H  H207  1  0.036230  0.117670  0.673170  1.0  0.1156
  H  H208  1  0.114200  0.471300  0.039400  1.0  0.1111
  H  H209  1  0.162600  0.446300  0.012500  1.0  0.1114
  H  H210  1  0.120000  0.429400  0.827600  1.0  0.1151
  H  H211  1  0.069500  0.451000  0.856000  1.0  0.1099
  H  H212  1  0.124200  0.362500  0.855500  1.0  0.1114
  H  H213  1  0.276400  0.507200  0.890000  1.0  0.0863
  H  H214  1  0.251900  0.549000  0.993500  1.0  0.1149
  H  H215  1  0.780870  0.804630  0.372730  1.0  0.111
  H  H216  1  0.829270  0.779630  0.345830  1.0  0.1128
  H  H217  1  0.786670  0.762730  0.160930  1.0  0.115
  H  H218  1  0.736170  0.784330  0.189330  1.0  0.1098
  H  H219  1  0.790870  0.695830  0.188830  1.0  0.1115
  H  H220  1  0.943070  0.840530  0.223330  1.0  0.0849
  H  H221  1  0.918570  0.882330  0.326830  1.0  0.1171
  H  H222  1  0.447530  0.137970  0.706070  1.0  0.1111
  H  H223  1  0.495930  0.112970  0.679170  1.0  0.1114
  H  H224  1  0.453330  0.096070  0.494270  1.0  0.1151
  H  H225  1  0.402830  0.117670  0.522670  1.0  0.1101
  H  H226  1  0.457530  0.029170  0.522170  1.0  0.1115
  H  H227  1  0.609730  0.173870  0.556670  1.0  0.0863
  H  H228  1  0.585230  0.215670  0.660170  1.0  0.1149
  H  H229  1  0.357100  0.885800  0.039400  1.0  0.1117
  H  H230  1  0.283700  0.837400  0.012500  1.0  0.1108
  H  H231  1  0.309400  0.880000  0.827600  1.0  0.1154
  H  H232  1  0.381500  0.930500  0.856000  1.0  0.1109
  H  H233  1  0.238300  0.875800  0.855500  1.0  0.1121
  H  H234  1  0.230800  0.723600  0.890000  1.0  0.087
  H  H235  1  0.297100  0.748100  0.993500  1.0  0.1187
  H  H236  1  0.023770  0.219130  0.372730  1.0  0.112
  H  H237  1  0.950370  0.170730  0.345830  1.0  0.1109
  H  H238  1  0.976070  0.213330  0.160930  1.0  0.1154
  H  H239  1  0.048170  0.263830  0.189330  1.0  0.1101
  H  H240  1  0.904970  0.209130  0.188830  1.0  0.1122
  H  H241  1  0.897470  0.056930  0.223330  1.0  0.0873
  H  H242  1  0.963770  0.081430  0.326830  1.0  0.1173
  H  H243  1  0.690430  0.552470  0.706070  1.0  0.1117
  H  H244  1  0.617030  0.504070  0.679170  1.0  0.1108
  H  H245  1  0.642730  0.546670  0.494270  1.0  0.1155
  H  H246  1  0.714830  0.597170  0.522670  1.0  0.1097
  H  H247  1  0.571630  0.542470  0.522170  1.0  0.112
  H  H248  1  0.564130  0.390270  0.556670  1.0  0.087
  H  H249  1  0.630430  0.414770  0.660170  1.0  0.1187
  H  H250  1  0.528700  0.642900  0.039400  1.0  0.1113
  H  H251  1  0.553700  0.716300  0.012500  1.0  0.112
  H  H252  1  0.570600  0.690600  0.827600  1.0  0.1153
  H  H253  1  0.549000  0.618500  0.856000  1.0  0.1097
  H  H254  1  0.637500  0.761700  0.855500  1.0  0.1117
  H  H255  1  0.492800  0.769200  0.890000  1.0  0.0881
  H  H256  1  0.451000  0.702900  0.993500  1.0  0.1196
  H  H257  1  0.195370  0.976230  0.372730  1.0  0.1113
  H  H258  1  0.220370  0.049630  0.345830  1.0  0.111
  H  H259  1  0.237270  0.023930  0.160930  1.0  0.1148
  H  H260  1  0.215670  0.951830  0.189330  1.0  0.1097
  H  H261  1  0.304170  0.095030  0.188830  1.0  0.1117
  H  H262  1  0.159470  0.102530  0.223330  1.0  0.0881
  H  H263  1  0.117670  0.036230  0.326830  1.0  0.1193
  H  H264  1  0.862030  0.309570  0.706070  1.0  0.1113
  H  H265  1  0.887030  0.382970  0.679170  1.0  0.112
  H  H266  1  0.903930  0.357270  0.494270  1.0  0.1153
  H  H267  1  0.882330  0.285170  0.522670  1.0  0.1097
  H  H268  1  0.970830  0.428370  0.522170  1.0  0.1117
  H  H269  1  0.826130  0.435870  0.556670  1.0  0.0881
  H  H270  1  0.784330  0.369570  0.660170  1.0  0.1196
  H  H271  1  0.423400  0.711700  0.940200  1.0  0.1377
  H  H272  1  0.090070  0.045030  0.273530  1.0  0.1351
  H  H273  1  0.756730  0.378370  0.606870  1.0  0.1377
  H  H274  1  0.288300  0.711700  0.940200  1.0  0.1406
  H  H275  1  0.954970  0.045030  0.273530  1.0  0.1407
  H  H276  1  0.621630  0.378370  0.606870  1.0  0.1406
  H  H277  1  0.288300  0.576600  0.940200  1.0  0.1402
  H  H278  1  0.954970  0.909930  0.273530  1.0  0.1378
  H  H279  1  0.621630  0.243270  0.606870  1.0  0.1402
  H  H280  1  0.711700  0.423400  0.059800  1.0  0.1397
  H  H281  1  0.378370  0.756730  0.393130  1.0  0.1397
  H  H282  1  0.045030  0.090070  0.726470  1.0  0.1365
  H  H283  1  0.711700  0.288300  0.059800  1.0  0.1371
  H  H284  1  0.378370  0.621630  0.393130  1.0  0.1371
  H  H285  1  0.045030  0.954970  0.726470  1.0  0.1376
  H  H286  1  0.576600  0.288300  0.059800  1.0  0.14
  H  H287  1  0.243270  0.621630  0.393130  1.0  0.14
  H  H288  1  0.909930  0.954970  0.726470  1.0  0.1366
  C  C289  1  0.523060  0.945610  0.968260  1.0  0.6814
  C  C290  1  0.537420  0.913220  0.950310  1.0  -0.1232
  C  C291  1  0.538140  0.885280  0.996690  1.0  -0.047
  C  C292  1  0.552870  0.856230  0.980520  1.0  -0.1292
  C  C293  1  0.566070  0.854840  0.918690  1.0  0.0387
  C  C294  1  0.563250  0.881970  0.871080  1.0  -0.1401
  C  C295  1  0.549780  0.911450  0.887760  1.0  -0.0351
  C  C296  1  0.584950  0.826770  0.901410  1.0  0.0008
  C  C297  1  0.624400  0.845760  0.867120  1.0  -0.1451
  C  C298  1  0.189730  0.278940  0.301590  1.0  0.6814
  C  C299  1  0.204090  0.246550  0.283640  1.0  -0.1232
  C  C300  1  0.204810  0.218610  0.330020  1.0  -0.047
  C  C301  1  0.219540  0.189560  0.313850  1.0  -0.1292
  C  C302  1  0.232740  0.188170  0.252020  1.0  0.0387
  C  C303  1  0.229920  0.215300  0.204410  1.0  -0.1401
  C  C304  1  0.216450  0.244780  0.221090  1.0  -0.0351
  C  C305  1  0.251620  0.160100  0.234740  1.0  0.0012
  C  C306  1  0.291070  0.179090  0.200450  1.0  -0.139
  C  C307  1  0.856390  0.612280  0.634930  1.0  0.6814
  C  C308  1  0.870750  0.579890  0.616980  1.0  -0.1232
  C  C309  1  0.871470  0.551950  0.663360  1.0  -0.047
  C  C310  1  0.886200  0.522900  0.647190  1.0  -0.1292
  C  C311  1  0.899400  0.521510  0.585360  1.0  0.0387
  C  C312  1  0.896580  0.548640  0.537750  1.0  -0.1401
  C  C313  1  0.883110  0.578120  0.554430  1.0  -0.0353
  C  C314  1  0.918280  0.493440  0.568080  1.0  0.0008
  C  C315  1  0.957730  0.512430  0.533790  1.0  -0.1453
  C  C316  1  0.054390  0.577450  0.968260  1.0  0.6813
  C  C317  1  0.086780  0.624200  0.950310  1.0  -0.1238
  C  C318  1  0.114720  0.652860  0.996690  1.0  -0.0471
  C  C319  1  0.143770  0.696640  0.980520  1.0  -0.1323
  C  C320  1  0.145160  0.711230  0.918690  1.0  0.0381
  C  C321  1  0.118030  0.681280  0.871080  1.0  -0.1398
  C  C322  1  0.088550  0.638330  0.887760  1.0  -0.0346
  C  C323  1  0.173230  0.758180  0.901410  1.0  -0.0008
  C  C324  1  0.154240  0.778640  0.867120  1.0  -0.1471
  C  C325  1  0.721060  0.910780  0.301590  1.0  0.6813
  C  C326  1  0.753450  0.957530  0.283640  1.0  -0.1238
  C  C327  1  0.781390  0.986190  0.330020  1.0  -0.0471
  C  C328  1  0.810440  0.029970  0.313850  1.0  -0.1323
  C  C329  1  0.811830  0.044560  0.252020  1.0  0.0381
  C  C330  1  0.784700  0.014610  0.204410  1.0  -0.1398
  C  C331  1  0.755220  0.971660  0.221090  1.0  -0.0346
  C  C332  1  0.839900  0.091510  0.234740  1.0  1e-04
  C  C333  1  0.820910  0.111970  0.200450  1.0  -0.1465
  C  C334  1  0.387720  0.244120  0.634930  1.0  0.6813
  C  C335  1  0.420110  0.290870  0.616980  1.0  -0.1238
  C  C336  1  0.448050  0.319530  0.663360  1.0  -0.0471
  C  C337  1  0.477100  0.363310  0.647190  1.0  -0.1323
  C  C338  1  0.478490  0.377900  0.585360  1.0  0.0381
  C  C339  1  0.451360  0.347950  0.537750  1.0  -0.1398
  C  C340  1  0.421880  0.305000  0.554430  1.0  -0.0346
  C  C341  1  0.506560  0.424850  0.568080  1.0  -0.0008
  C  C342  1  0.487570  0.445310  0.533790  1.0  -0.1471
  C  C343  1  0.422550  0.476940  0.968260  1.0  0.6811
  C  C344  1  0.375800  0.462580  0.950310  1.0  -0.124
  C  C345  1  0.347140  0.461860  0.996690  1.0  -0.0472
  C  C346  1  0.303360  0.447130  0.980520  1.0  -0.1299
  C  C347  1  0.288770  0.433930  0.918690  1.0  0.0385
  C  C348  1  0.318720  0.436750  0.871080  1.0  -0.1373
  C  C349  1  0.361670  0.450220  0.887760  1.0  -0.034
  C  C350  1  0.241820  0.415050  0.901410  1.0  0.002
  C  C351  1  0.221360  0.375600  0.867120  1.0  -0.1411
  C  C352  1  0.089220  0.810270  0.301590  1.0  0.6811
  C  C353  1  0.042470  0.795910  0.283640  1.0  -0.124
  C  C354  1  0.013810  0.795190  0.330020  1.0  -0.0472
  C  C355  1  0.970030  0.780460  0.313850  1.0  -0.13
  C  C356  1  0.955440  0.767260  0.252020  1.0  0.0384
  C  C357  1  0.985390  0.770080  0.204410  1.0  -0.1376
  C  C358  1  0.028340  0.783550  0.221090  1.0  -0.034
  C  C359  1  0.908490  0.748380  0.234740  1.0  0.0017
  C  C360  1  0.888030  0.708930  0.200450  1.0  -0.1467
  C  C361  1  0.755880  0.143610  0.634930  1.0  0.6811
  C  C362  1  0.709130  0.129250  0.616980  1.0  -0.124
  C  C363  1  0.680470  0.128530  0.663360  1.0  -0.0472
  C  C364  1  0.636690  0.113800  0.647190  1.0  -0.1299
  C  C365  1  0.622100  0.100600  0.585360  1.0  0.0385
  C  C366  1  0.652050  0.103420  0.537750  1.0  -0.1376
  C  C367  1  0.695000  0.116890  0.554430  1.0  -0.034
  C  C368  1  0.575150  0.081720  0.568080  1.0  0.002
  C  C369  1  0.554690  0.042270  0.533790  1.0  -0.1411
  C  C370  1  0.945610  0.523060  0.031740  1.0  0.681
  C  C371  1  0.913220  0.537420  0.049690  1.0  -0.1237
  C  C372  1  0.885280  0.538140  0.003310  1.0  -0.0459
  C  C373  1  0.856230  0.552870  0.019480  1.0  -0.1306
  C  C374  1  0.854840  0.566070  0.081310  1.0  0.0382
  C  C375  1  0.881970  0.563250  0.128920  1.0  -0.1407
  C  C376  1  0.911450  0.549780  0.112240  1.0  -0.0348
  C  C377  1  0.826770  0.584950  0.098590  1.0  0.002
  C  C378  1  0.845760  0.624400  0.132880  1.0  -0.148
  C  C379  1  0.612280  0.856390  0.365070  1.0  0.681
  C  C380  1  0.579890  0.870750  0.383020  1.0  -0.1237
  C  C381  1  0.551950  0.871470  0.336640  1.0  -0.0459
  C  C382  1  0.522900  0.886200  0.352810  1.0  -0.1306
  C  C383  1  0.521510  0.899400  0.414640  1.0  0.0382
  C  C384  1  0.548640  0.896580  0.462250  1.0  -0.1407
  C  C385  1  0.578120  0.883110  0.445570  1.0  -0.0349
  C  C386  1  0.493440  0.918280  0.431920  1.0  0.002
  C  C387  1  0.512430  0.957730  0.466210  1.0  -0.1483
  C  C388  1  0.278940  0.189730  0.698410  1.0  0.681
  C  C389  1  0.246550  0.204090  0.716360  1.0  -0.1237
  C  C390  1  0.218610  0.204810  0.669980  1.0  -0.0459
  C  C391  1  0.189560  0.219540  0.686150  1.0  -0.1306
  C  C392  1  0.188170  0.232740  0.747980  1.0  0.0382
  C  C393  1  0.215300  0.229920  0.795590  1.0  -0.1404
  C  C394  1  0.244780  0.216450  0.778910  1.0  -0.0348
  C  C395  1  0.160100  0.251620  0.765260  1.0  0.0024
  C  C396  1  0.179090  0.291070  0.799550  1.0  -0.1422
  C  C397  1  0.577450  0.054390  0.031740  1.0  0.681
  C  C398  1  0.624200  0.086780  0.049690  1.0  -0.1236
  C  C399  1  0.652860  0.114720  0.003310  1.0  -0.0454
  C  C400  1  0.696640  0.143770  0.019480  1.0  -0.1304
  C  C401  1  0.711230  0.145160  0.081310  1.0  0.0383
  C  C402  1  0.681280  0.118030  0.128920  1.0  -0.1424
  C  C403  1  0.638330  0.088550  0.112240  1.0  -0.0366
  C  C404  1  0.758180  0.173230  0.098590  1.0  -0.0005
  C  C405  1  0.778640  0.154240  0.132880  1.0  -0.1458
  C  C406  1  0.244120  0.387720  0.365070  1.0  0.681
  C  C407  1  0.290870  0.420110  0.383020  1.0  -0.1236
  C  C408  1  0.319530  0.448050  0.336640  1.0  -0.0454
  C  C409  1  0.363310  0.477100  0.352810  1.0  -0.1304
  C  C410  1  0.377900  0.478490  0.414640  1.0  0.0383
  C  C411  1  0.347950  0.451360  0.462250  1.0  -0.1424
  C  C412  1  0.305000  0.421880  0.445570  1.0  -0.0366
  C  C413  1  0.424850  0.506560  0.431920  1.0  -0.0005
  C  C414  1  0.445310  0.487570  0.466210  1.0  -0.1458
  C  C415  1  0.910780  0.721060  0.698410  1.0  0.681
  C  C416  1  0.957530  0.753450  0.716360  1.0  -0.1236
  C  C417  1  0.986190  0.781390  0.669980  1.0  -0.0454
  C  C418  1  0.029970  0.810440  0.686150  1.0  -0.1304
  C  C419  1  0.044560  0.811830  0.747980  1.0  0.0383
  C  C420  1  0.014610  0.784700  0.795590  1.0  -0.1423
  C  C421  1  0.971660  0.755220  0.778910  1.0  -0.0366
  C  C422  1  0.091510  0.839900  0.765260  1.0  0.0002
  C  C423  1  0.111970  0.820910  0.799550  1.0  -0.1449
  C  C424  1  0.476940  0.422550  0.031740  1.0  0.6814
  C  C425  1  0.462580  0.375800  0.049690  1.0  -0.1227
  C  C426  1  0.461860  0.347140  0.003310  1.0  -0.0463
  C  C427  1  0.447130  0.303360  0.019480  1.0  -0.1321
  C  C428  1  0.433930  0.288770  0.081310  1.0  0.0381
  C  C429  1  0.436750  0.318720  0.128920  1.0  -0.1424
  C  C430  1  0.450220  0.361670  0.112240  1.0  -0.0365
  C  C431  1  0.415050  0.241820  0.098590  1.0  0.0005
  C  C432  1  0.375600  0.221360  0.132880  1.0  -0.1419
  C  C433  1  0.143610  0.755880  0.365070  1.0  0.6814
  C  C434  1  0.129250  0.709130  0.383020  1.0  -0.1227
  C  C435  1  0.128530  0.680470  0.336640  1.0  -0.0463
  C  C436  1  0.113800  0.636690  0.352810  1.0  -0.1321
  C  C437  1  0.100600  0.622100  0.414640  1.0  0.0381
  C  C438  1  0.103420  0.652050  0.462250  1.0  -0.1424
  C  C439  1  0.116890  0.695000  0.445570  1.0  -0.0365
  C  C440  1  0.081720  0.575150  0.431920  1.0  0.0005
  C  C441  1  0.042270  0.554690  0.466210  1.0  -0.1419
  C  C442  1  0.810270  0.089220  0.698410  1.0  0.6814
  C  C443  1  0.795910  0.042470  0.716360  1.0  -0.1227
  C  C444  1  0.795190  0.013810  0.669980  1.0  -0.0463
  C  C445  1  0.780460  0.970030  0.686150  1.0  -0.1321
  C  C446  1  0.767260  0.955440  0.747980  1.0  0.0381
  C  C447  1  0.770080  0.985390  0.795590  1.0  -0.1424
  C  C448  1  0.783550  0.028340  0.778910  1.0  -0.0365
  C  C449  1  0.748380  0.908490  0.765260  1.0  1e-04
  C  C450  1  0.708930  0.888030  0.799550  1.0  -0.1479
  C  C451  1  0.476940  0.054390  0.031740  1.0  0.6806
  C  C452  1  0.462580  0.086780  0.049690  1.0  -0.1229
  C  C453  1  0.461860  0.114720  0.003310  1.0  -0.046
  C  C454  1  0.447130  0.143770  0.019480  1.0  -0.1304
  C  C455  1  0.433930  0.145160  0.081310  1.0  0.0382
  C  C456  1  0.436750  0.118030  0.128920  1.0  -0.1433
  C  C457  1  0.450220  0.088550  0.112240  1.0  -0.0366
  C  C458  1  0.415050  0.173230  0.098590  1.0  0.0
  C  C459  1  0.375600  0.154240  0.132880  1.0  -0.1459
  C  C460  1  0.143610  0.387720  0.365070  1.0  0.6806
  C  C461  1  0.129250  0.420110  0.383020  1.0  -0.1229
  C  C462  1  0.128530  0.448050  0.336640  1.0  -0.046
  C  C463  1  0.113800  0.477100  0.352810  1.0  -0.1304
  C  C464  1  0.100600  0.478490  0.414640  1.0  0.0382
  C  C465  1  0.103420  0.451360  0.462250  1.0  -0.1433
  C  C466  1  0.116890  0.421880  0.445570  1.0  -0.0368
  C  C467  1  0.081720  0.506560  0.431920  1.0  0.0
  C  C468  1  0.042270  0.487570  0.466210  1.0  -0.1461
  C  C469  1  0.810270  0.721060  0.698410  1.0  0.6806
  C  C470  1  0.795910  0.753450  0.716360  1.0  -0.1229
  C  C471  1  0.795190  0.781390  0.669980  1.0  -0.046
  C  C472  1  0.780460  0.810440  0.686150  1.0  -0.1304
  C  C473  1  0.767260  0.811830  0.747980  1.0  0.0382
  C  C474  1  0.770080  0.784700  0.795590  1.0  -0.1433
  C  C475  1  0.783550  0.755220  0.778910  1.0  -0.0366
  C  C476  1  0.748380  0.839900  0.765260  1.0  0.0002
  C  C477  1  0.708930  0.820910  0.799550  1.0  -0.1397
  C  C478  1  0.945610  0.422550  0.031740  1.0  0.6814
  C  C479  1  0.913220  0.375800  0.049690  1.0  -0.123
  C  C480  1  0.885280  0.347140  0.003310  1.0  -0.0464
  C  C481  1  0.856230  0.303360  0.019480  1.0  -0.1312
  C  C482  1  0.854840  0.288770  0.081310  1.0  0.0383
  C  C483  1  0.881970  0.318720  0.128920  1.0  -0.142
  C  C484  1  0.911450  0.361670  0.112240  1.0  -0.0356
  C  C485  1  0.826770  0.241820  0.098590  1.0  0.0007
  C  C486  1  0.845760  0.221360  0.132880  1.0  -0.1477
  C  C487  1  0.612280  0.755880  0.365070  1.0  0.6814
  C  C488  1  0.579890  0.709130  0.383020  1.0  -0.123
  C  C489  1  0.551950  0.680470  0.336640  1.0  -0.0464
  C  C490  1  0.522900  0.636690  0.352810  1.0  -0.1312
  C  C491  1  0.521510  0.622100  0.414640  1.0  0.0383
  C  C492  1  0.548640  0.652050  0.462250  1.0  -0.142
  C  C493  1  0.578120  0.695000  0.445570  1.0  -0.0356
  C  C494  1  0.493440  0.575150  0.431920  1.0  0.0007
  C  C495  1  0.512430  0.554690  0.466210  1.0  -0.1477
  C  C496  1  0.278940  0.089220  0.698410  1.0  0.6814
  C  C497  1  0.246550  0.042470  0.716360  1.0  -0.123
  C  C498  1  0.218610  0.013810  0.669980  1.0  -0.0464
  C  C499  1  0.189560  0.970030  0.686150  1.0  -0.1312
  C  C500  1  0.188170  0.955440  0.747980  1.0  0.0383
  C  C501  1  0.215300  0.985390  0.795590  1.0  -0.1419
  C  C502  1  0.244780  0.028340  0.778910  1.0  -0.0356
  C  C503  1  0.160100  0.908490  0.765260  1.0  0.0016
  C  C504  1  0.179090  0.888030  0.799550  1.0  -0.1468
  C  C505  1  0.577450  0.523060  0.031740  1.0  0.6814
  C  C506  1  0.624200  0.537420  0.049690  1.0  -0.1234
  C  C507  1  0.652860  0.538140  0.003310  1.0  -0.0448
  C  C508  1  0.696640  0.552870  0.019480  1.0  -0.1312
  C  C509  1  0.711230  0.566070  0.081310  1.0  0.0375
  C  C510  1  0.681280  0.563250  0.128920  1.0  -0.1393
  C  C511  1  0.638330  0.549780  0.112240  1.0  -0.0353
  C  C512  1  0.758180  0.584950  0.098590  1.0  0.0019
  C  C513  1  0.778640  0.624400  0.132880  1.0  -0.1426
  C  C514  1  0.244120  0.856390  0.365070  1.0  0.6814
  C  C515  1  0.290870  0.870750  0.383020  1.0  -0.1234
  C  C516  1  0.319530  0.871470  0.336640  1.0  -0.0448
  C  C517  1  0.363310  0.886200  0.352810  1.0  -0.1312
  C  C518  1  0.377900  0.899400  0.414640  1.0  0.0375
  C  C519  1  0.347950  0.896580  0.462250  1.0  -0.1393
  C  C520  1  0.305000  0.883110  0.445570  1.0  -0.0353
  C  C521  1  0.424850  0.918280  0.431920  1.0  0.0019
  C  C522  1  0.445310  0.957730  0.466210  1.0  -0.1426
  C  C523  1  0.910780  0.189730  0.698410  1.0  0.6814
  C  C524  1  0.957530  0.204090  0.716360  1.0  -0.1234
  C  C525  1  0.986190  0.204810  0.669980  1.0  -0.0448
  C  C526  1  0.029970  0.219540  0.686150  1.0  -0.1312
  C  C527  1  0.044560  0.232740  0.747980  1.0  0.0375
  C  C528  1  0.014610  0.229920  0.795590  1.0  -0.1393
  C  C529  1  0.971660  0.216450  0.778910  1.0  -0.0353
  C  C530  1  0.091510  0.251620  0.765260  1.0  0.0015
  C  C531  1  0.111970  0.291070  0.799550  1.0  -0.149
  C  C532  1  0.054390  0.476940  0.968260  1.0  0.6815
  C  C533  1  0.086780  0.462580  0.950310  1.0  -0.1235
  C  C534  1  0.114720  0.461860  0.996690  1.0  -0.0475
  C  C535  1  0.143770  0.447130  0.980520  1.0  -0.1296
  C  C536  1  0.145160  0.433930  0.918690  1.0  0.0377
  C  C537  1  0.118030  0.436750  0.871080  1.0  -0.1378
  C  C538  1  0.088550  0.450220  0.887760  1.0  -0.0337
  C  C539  1  0.173230  0.415050  0.901410  1.0  0.0009
  C  C540  1  0.154240  0.375600  0.867120  1.0  -0.1475
  C  C541  1  0.721060  0.810270  0.301590  1.0  0.6815
  C  C542  1  0.753450  0.795910  0.283640  1.0  -0.1235
  C  C543  1  0.781390  0.795190  0.330020  1.0  -0.0475
  C  C544  1  0.810440  0.780460  0.313850  1.0  -0.1296
  C  C545  1  0.811830  0.767260  0.252020  1.0  0.0377
  C  C546  1  0.784700  0.770080  0.204410  1.0  -0.1378
  C  C547  1  0.755220  0.783550  0.221090  1.0  -0.0337
  C  C548  1  0.839900  0.748380  0.234740  1.0  0.0012
  C  C549  1  0.820910  0.708930  0.200450  1.0  -0.1419
  C  C550  1  0.387720  0.143610  0.634930  1.0  0.6815
  C  C551  1  0.420110  0.129250  0.616980  1.0  -0.1235
  C  C552  1  0.448050  0.128530  0.663360  1.0  -0.0475
  C  C553  1  0.477100  0.113800  0.647190  1.0  -0.1296
  C  C554  1  0.478490  0.100600  0.585360  1.0  0.0377
  C  C555  1  0.451360  0.103420  0.537750  1.0  -0.1378
  C  C556  1  0.421880  0.116890  0.554430  1.0  -0.0338
  C  C557  1  0.506560  0.081720  0.568080  1.0  0.0009
  C  C558  1  0.487570  0.042270  0.533790  1.0  -0.1477
  C  C559  1  0.422550  0.945610  0.968260  1.0  0.681
  C  C560  1  0.375800  0.913220  0.950310  1.0  -0.1227
  C  C561  1  0.347140  0.885280  0.996690  1.0  -0.0468
  C  C562  1  0.303360  0.856230  0.980520  1.0  -0.1309
  C  C563  1  0.288770  0.854840  0.918690  1.0  0.0389
  C  C564  1  0.318720  0.881970  0.871080  1.0  -0.14
  C  C565  1  0.361670  0.911450  0.887760  1.0  -0.0355
  C  C566  1  0.241820  0.826770  0.901410  1.0  -0.0002
  C  C567  1  0.221360  0.845760  0.867120  1.0  -0.1455
  C  C568  1  0.089220  0.278940  0.301590  1.0  0.681
  C  C569  1  0.042470  0.246550  0.283640  1.0  -0.1227
  C  C570  1  0.013810  0.218610  0.330020  1.0  -0.0468
  C  C571  1  0.970030  0.189560  0.313850  1.0  -0.1309
  C  C572  1  0.955440  0.188170  0.252020  1.0  0.0389
  C  C573  1  0.985390  0.215300  0.204410  1.0  -0.14
  C  C574  1  0.028340  0.244780  0.221090  1.0  -0.0355
  C  C575  1  0.908490  0.160100  0.234740  1.0  0.0008
  C  C576  1  0.888030  0.179090  0.200450  1.0  -0.1447
  C  C577  1  0.755880  0.612280  0.634930  1.0  0.681
  C  C578  1  0.709130  0.579890  0.616980  1.0  -0.1227
  C  C579  1  0.680470  0.551950  0.663360  1.0  -0.0468
  C  C580  1  0.636690  0.522900  0.647190  1.0  -0.1309
  C  C581  1  0.622100  0.521510  0.585360  1.0  0.0389
  C  C582  1  0.652050  0.548640  0.537750  1.0  -0.14
  C  C583  1  0.695000  0.578120  0.554430  1.0  -0.0355
  C  C584  1  0.575150  0.493440  0.568080  1.0  -0.0002
  C  C585  1  0.554690  0.512430  0.533790  1.0  -0.1455
  C  C586  1  0.523060  0.577450  0.968260  1.0  0.6812
  C  C587  1  0.537420  0.624200  0.950310  1.0  -0.1241
  C  C588  1  0.538140  0.652860  0.996690  1.0  -0.0475
  C  C589  1  0.552870  0.696640  0.980520  1.0  -0.132
  C  C590  1  0.566070  0.711230  0.918690  1.0  0.0386
  C  C591  1  0.563250  0.681280  0.871080  1.0  -0.1403
  C  C592  1  0.549780  0.638330  0.887760  1.0  -0.0352
  C  C593  1  0.584950  0.758180  0.901410  1.0  0.0013
  C  C594  1  0.624400  0.778640  0.867120  1.0  -0.1413
  C  C595  1  0.189730  0.910780  0.301590  1.0  0.6812
  C  C596  1  0.204090  0.957530  0.283640  1.0  -0.1241
  C  C597  1  0.204810  0.986190  0.330020  1.0  -0.0475
  C  C598  1  0.219540  0.029970  0.313850  1.0  -0.132
  C  C599  1  0.232740  0.044560  0.252020  1.0  0.0386
  C  C600  1  0.229920  0.014610  0.204410  1.0  -0.1403
  C  C601  1  0.216450  0.971660  0.221090  1.0  -0.0352
  C  C602  1  0.251620  0.091510  0.234740  1.0  0.0008
  C  C603  1  0.291070  0.111970  0.200450  1.0  -0.147
  C  C604  1  0.856390  0.244120  0.634930  1.0  0.6812
  C  C605  1  0.870750  0.290870  0.616980  1.0  -0.1241
  C  C606  1  0.871470  0.319530  0.663360  1.0  -0.0475
  C  C607  1  0.886200  0.363310  0.647190  1.0  -0.132
  C  C608  1  0.899400  0.377900  0.585360  1.0  0.0386
  C  C609  1  0.896580  0.347950  0.537750  1.0  -0.1403
  C  C610  1  0.883110  0.305000  0.554430  1.0  -0.0352
  C  C611  1  0.918280  0.424850  0.568080  1.0  0.0013
  C  C612  1  0.957730  0.445310  0.533790  1.0  -0.1413
  C  C613  1  0.645410  0.822700  0.849200  1.0  -0.0118
  C  C614  1  0.565070  0.782530  0.918200  1.0  0.1634
  C  C615  1  0.493200  0.746600  0.917900  1.0  0.0952
  C  C616  1  0.450300  0.725150  0.966100  1.0  -0.3572
  C  C617  1  0.312080  0.156040  0.182530  1.0  -0.0118
  C  C618  1  0.231740  0.115870  0.251530  1.0  0.1634
  C  C619  1  0.159870  0.079930  0.251230  1.0  0.0952
  C  C620  1  0.116970  0.058480  0.299430  1.0  -0.3572
  C  C621  1  0.978740  0.489370  0.515870  1.0  -0.0142
  C  C622  1  0.898400  0.449200  0.584870  1.0  0.1634
  C  C623  1  0.826530  0.413270  0.584570  1.0  0.0952
  C  C624  1  0.783630  0.391820  0.632770  1.0  -0.3572
  C  C625  1  0.177300  0.822700  0.849200  1.0  -0.0083
  C  C626  1  0.217470  0.782530  0.918200  1.0  0.1635
  C  C627  1  0.253400  0.746600  0.917900  1.0  0.0948
  C  C628  1  0.274850  0.725150  0.966100  1.0  -0.3562
  C  C629  1  0.843960  0.156040  0.182530  1.0  -0.0084
  C  C630  1  0.884130  0.115870  0.251530  1.0  0.1637
  C  C631  1  0.920070  0.079930  0.251230  1.0  0.0937
  C  C632  1  0.941520  0.058480  0.299430  1.0  -0.3562
  C  C633  1  0.510630  0.489370  0.515870  1.0  -0.0094
  C  C634  1  0.550800  0.449200  0.584870  1.0  0.1635
  C  C635  1  0.586730  0.413270  0.584570  1.0  0.0948
  C  C636  1  0.608180  0.391820  0.632770  1.0  -0.3562
  C  C637  1  0.177300  0.354590  0.849200  1.0  -0.0098
  C  C638  1  0.217470  0.434930  0.918200  1.0  0.1632
  C  C639  1  0.253400  0.506800  0.917900  1.0  0.0906
  C  C640  1  0.274850  0.549700  0.966100  1.0  -0.3605
  C  C641  1  0.843960  0.687920  0.182530  1.0  -0.0098
  C  C642  1  0.884130  0.768260  0.251530  1.0  0.1632
  C  C643  1  0.920070  0.840130  0.251230  1.0  0.0906
  C  C644  1  0.941520  0.883030  0.299430  1.0  -0.3605
  C  C645  1  0.510630  0.021260  0.515870  1.0  -0.0122
  C  C646  1  0.550800  0.101600  0.584870  1.0  0.1632
  C  C647  1  0.586730  0.173470  0.584570  1.0  0.0906
  C  C648  1  0.608180  0.216370  0.632770  1.0  -0.3605
  C  C649  1  0.822700  0.645410  0.150800  1.0  -0.0097
  C  C650  1  0.782530  0.565070  0.081800  1.0  0.1634
  C  C651  1  0.746600  0.493200  0.082100  1.0  0.0912
  C  C652  1  0.725150  0.450300  0.033900  1.0  -0.3585
  C  C653  1  0.489370  0.978740  0.484130  1.0  -0.0121
  C  C654  1  0.449200  0.898400  0.415130  1.0  0.1634
  C  C655  1  0.413270  0.826530  0.415430  1.0  0.0912
  C  C656  1  0.391820  0.783630  0.367230  1.0  -0.3585
  C  C657  1  0.156040  0.312080  0.817470  1.0  -0.0097
  C  C658  1  0.115870  0.231740  0.748470  1.0  0.1635
  C  C659  1  0.079930  0.159870  0.748770  1.0  0.0912
  C  C660  1  0.058480  0.116970  0.700570  1.0  -0.3585
  C  C661  1  0.822700  0.177300  0.150800  1.0  -0.0082
  C  C662  1  0.782530  0.217470  0.081800  1.0  0.1633
  C  C663  1  0.746600  0.253400  0.082100  1.0  0.0939
  C  C664  1  0.725150  0.274850  0.033900  1.0  -0.3586
  C  C665  1  0.489370  0.510630  0.484130  1.0  -0.0093
  C  C666  1  0.449200  0.550800  0.415130  1.0  0.1633
  C  C667  1  0.413270  0.586730  0.415430  1.0  0.0939
  C  C668  1  0.391820  0.608180  0.367230  1.0  -0.3586
  C  C669  1  0.156040  0.843960  0.817470  1.0  -0.0083
  C  C670  1  0.115870  0.884130  0.748470  1.0  0.1635
  C  C671  1  0.079930  0.920070  0.748770  1.0  0.0937
  C  C672  1  0.058480  0.941520  0.700570  1.0  -0.3586
  C  C673  1  0.354590  0.177300  0.150800  1.0  -0.0126
  C  C674  1  0.434930  0.217470  0.081800  1.0  0.1635
  C  C675  1  0.506800  0.253400  0.082100  1.0  0.0942
  C  C676  1  0.549700  0.274850  0.033900  1.0  -0.3596
  C  C677  1  0.021260  0.510630  0.484130  1.0  -0.015
  C  C678  1  0.101600  0.550800  0.415130  1.0  0.1635
  C  C679  1  0.173470  0.586730  0.415430  1.0  0.0942
  C  C680  1  0.216370  0.608180  0.367230  1.0  -0.3596
  C  C681  1  0.687920  0.843960  0.817470  1.0  -0.0126
  C  C682  1  0.768260  0.884130  0.748470  1.0  0.1635
  C  C683  1  0.840130  0.920070  0.748770  1.0  0.0942
  C  C684  1  0.883030  0.941520  0.700570  1.0  -0.3596
  O  O685  1  0.524710  0.971130  0.924960  1.0  -0.5646
  O  O686  1  0.511410  0.944710  0.026380  1.0  -0.5597
  O  O687  1  0.191380  0.304460  0.258290  1.0  -0.5646
  O  O688  1  0.178080  0.278040  0.359710  1.0  -0.5612
  O  O689  1  0.858040  0.637800  0.591630  1.0  -0.5613
  O  O690  1  0.844740  0.611380  0.693050  1.0  -0.5597
  O  O691  1  0.028870  0.553580  0.924960  1.0  -0.5617
  O  O692  1  0.055290  0.566700  0.026380  1.0  -0.5602
  O  O693  1  0.695540  0.886910  0.258290  1.0  -0.5617
  O  O694  1  0.721960  0.900030  0.359710  1.0  -0.5592
  O  O695  1  0.362200  0.220250  0.591630  1.0  -0.5647
  O  O696  1  0.388620  0.233370  0.693050  1.0  -0.5602
  O  O697  1  0.446420  0.475290  0.924960  1.0  -0.5643
  O  O698  1  0.433300  0.488590  0.026380  1.0  -0.5611
  O  O699  1  0.113090  0.808620  0.258290  1.0  -0.5643
  O  O700  1  0.099970  0.821920  0.359710  1.0  -0.5611
  O  O701  1  0.779750  0.141960  0.591630  1.0  -0.5643
  O  O702  1  0.766630  0.155260  0.693050  1.0  -0.5611
  O  O703  1  0.971130  0.524710  0.075040  1.0  -0.5629
  O  O704  1  0.944710  0.511410  0.973620  1.0  -0.5607
  O  O705  1  0.637800  0.858040  0.408370  1.0  -0.5603
  O  O706  1  0.611380  0.844740  0.306950  1.0  -0.5607
  O  O707  1  0.304460  0.191380  0.741710  1.0  -0.5629
  O  O708  1  0.278040  0.178080  0.640290  1.0  -0.5615
  O  O709  1  0.553580  0.028870  0.075040  1.0  -0.5608
  O  O710  1  0.566700  0.055290  0.973620  1.0  -0.5613
  O  O711  1  0.220250  0.362200  0.408370  1.0  -0.5637
  O  O712  1  0.233370  0.388620  0.306950  1.0  -0.5613
  O  O713  1  0.886910  0.695540  0.741710  1.0  -0.5608
  O  O714  1  0.900030  0.721960  0.640290  1.0  -0.5606
  O  O715  1  0.475290  0.446420  0.075040  1.0  -0.5642
  O  O716  1  0.488590  0.433300  0.973620  1.0  -0.5608
  O  O717  1  0.141960  0.779750  0.408370  1.0  -0.5642
  O  O718  1  0.155260  0.766630  0.306950  1.0  -0.5608
  O  O719  1  0.808620  0.113090  0.741710  1.0  -0.5642
  O  O720  1  0.821920  0.099970  0.640290  1.0  -0.5608
  O  O721  1  0.475290  0.028870  0.075040  1.0  -0.5633
  O  O722  1  0.488590  0.055290  0.973620  1.0  -0.5607
  O  O723  1  0.141960  0.362200  0.408370  1.0  -0.561
  O  O724  1  0.155260  0.388620  0.306950  1.0  -0.5607
  O  O725  1  0.808620  0.695540  0.741710  1.0  -0.5633
  O  O726  1  0.821920  0.721960  0.640290  1.0  -0.5617
  O  O727  1  0.971130  0.446420  0.075040  1.0  -0.5602
  O  O728  1  0.944710  0.433300  0.973620  1.0  -0.5604
  O  O729  1  0.637800  0.779750  0.408370  1.0  -0.5629
  O  O730  1  0.611380  0.766630  0.306950  1.0  -0.5604
  O  O731  1  0.304460  0.113090  0.741710  1.0  -0.5602
  O  O732  1  0.278040  0.099970  0.640290  1.0  -0.56
  O  O733  1  0.553580  0.524710  0.075040  1.0  -0.5627
  O  O734  1  0.566700  0.511410  0.973620  1.0  -0.5617
  O  O735  1  0.220250  0.858040  0.408370  1.0  -0.5627
  O  O736  1  0.233370  0.844740  0.306950  1.0  -0.5617
  O  O737  1  0.886910  0.191380  0.741710  1.0  -0.5627
  O  O738  1  0.900030  0.178080  0.640290  1.0  -0.5617
  O  O739  1  0.028870  0.475290  0.924960  1.0  -0.5636
  O  O740  1  0.055290  0.488590  0.026380  1.0  -0.5588
  O  O741  1  0.695540  0.808620  0.258290  1.0  -0.5636
  O  O742  1  0.721960  0.821920  0.359710  1.0  -0.5605
  O  O743  1  0.362200  0.141960  0.591630  1.0  -0.5607
  O  O744  1  0.388620  0.155260  0.693050  1.0  -0.5588
  O  O745  1  0.446420  0.971130  0.924960  1.0  -0.5613
  O  O746  1  0.433300  0.944710  0.026380  1.0  -0.5612
  O  O747  1  0.113090  0.304460  0.258290  1.0  -0.5613
  O  O748  1  0.099970  0.278040  0.359710  1.0  -0.5601
  O  O749  1  0.779750  0.637800  0.591630  1.0  -0.5642
  O  O750  1  0.766630  0.611380  0.693050  1.0  -0.5612
  O  O751  1  0.524710  0.553580  0.924960  1.0  -0.5643
  O  O752  1  0.511410  0.566700  0.026380  1.0  -0.5608
  O  O753  1  0.191380  0.886910  0.258290  1.0  -0.5643
  O  O754  1  0.178080  0.900030  0.359710  1.0  -0.5608
  O  O755  1  0.858040  0.220250  0.591630  1.0  -0.5643
  O  O756  1  0.844740  0.233370  0.693050  1.0  -0.5608
  O  O757  1  0.527730  0.763860  0.953850  1.0  -0.3954
  O  O758  1  0.194400  0.097200  0.287180  1.0  -0.3954
  O  O759  1  0.861060  0.430530  0.620520  1.0  -0.3954
  O  O760  1  0.236140  0.763860  0.953850  1.0  -0.3953
  O  O761  1  0.902800  0.097200  0.287180  1.0  -0.3947
  O  O762  1  0.569470  0.430530  0.620520  1.0  -0.3953
  O  O763  1  0.236140  0.472270  0.953850  1.0  -0.3949
  O  O764  1  0.902800  0.805600  0.287180  1.0  -0.3949
  O  O765  1  0.569470  0.138940  0.620520  1.0  -0.3949
  O  O766  1  0.763860  0.527730  0.046150  1.0  -0.3871
  O  O767  1  0.430530  0.861060  0.379480  1.0  -0.3871
  O  O768  1  0.097200  0.194400  0.712820  1.0  -0.3871
  O  O769  1  0.763860  0.236140  0.046150  1.0  -0.3887
  O  O770  1  0.430530  0.569470  0.379480  1.0  -0.3887
  O  O771  1  0.097200  0.902800  0.712820  1.0  -0.3883
  O  O772  1  0.472270  0.236140  0.046150  1.0  -0.3884
  O  O773  1  0.138940  0.569470  0.379480  1.0  -0.3884
  O  O774  1  0.805600  0.902800  0.712820  1.0  -0.3884
