# generated using pymatgen
data_Mn9H58W6(C2N)58
_symmetry_space_group_name_H-M   'P 1'
_cell_length_a   41.68600000
_cell_length_b   19.05000000
_cell_length_c   29.29200000
_cell_angle_alpha   90.00000000
_cell_angle_beta   120.02800000
_cell_angle_gamma   90.00000000
_symmetry_Int_Tables_number   1
_chemical_formula_structural   Mn9H58W6(C2N)58
_chemical_formula_sum   'Mn36 H232 W24 C464 N232'
_cell_volume   20139.20197801
_cell_formula_units_Z   4
loop_
 _symmetry_equiv_pos_site_id
 _symmetry_equiv_pos_as_xyz
  1  'x, y, z'
loop_
 _atom_site_type_symbol
 _atom_site_label
 _atom_site_symmetry_multiplicity
 _atom_site_fract_x
 _atom_site_fract_y
 _atom_site_fract_z
 _atom_site_occupancy
 _atom_site_charge
  Mn  Mn1  1  0.565820  0.850200  0.368040  1.0  0.934
  Mn  Mn2  1  0.568610  0.843400  0.727450  1.0  0.9535
  Mn  Mn3  1  0.547510  0.315000  0.535440  1.0  1.0948
  Mn  Mn4  1  0.670990  0.026900  0.619790  1.0  1.0534
  Mn  Mn5  1  0.065820  0.350200  0.368040  1.0  0.934
  Mn  Mn6  1  0.068610  0.343400  0.727450  1.0  0.9535
  Mn  Mn7  1  0.047510  0.815000  0.535440  1.0  1.0948
  Mn  Mn8  1  0.170990  0.526900  0.619790  1.0  1.0534
  Mn  Mn9  1  0.434180  0.850200  0.131960  1.0  0.9283
  Mn  Mn10  1  0.431390  0.843400  0.772550  1.0  0.9536
  Mn  Mn11  1  0.452490  0.315000  0.964560  1.0  1.0954
  Mn  Mn12  1  0.329010  0.026900  0.880210  1.0  1.0526
  Mn  Mn13  1  0.934180  0.350200  0.131960  1.0  0.9283
  Mn  Mn14  1  0.931390  0.343400  0.772550  1.0  0.9536
  Mn  Mn15  1  0.952490  0.815000  0.964560  1.0  1.0954
  Mn  Mn16  1  0.829010  0.526900  0.880210  1.0  1.0526
  Mn  Mn17  1  0.434180  0.149800  0.631960  1.0  0.9294
  Mn  Mn18  1  0.431390  0.156600  0.272550  1.0  0.9534
  Mn  Mn19  1  0.452490  0.685000  0.464560  1.0  1.0969
  Mn  Mn20  1  0.329010  0.973100  0.380210  1.0  1.0527
  Mn  Mn21  1  0.934180  0.649800  0.631960  1.0  0.9294
  Mn  Mn22  1  0.931390  0.656600  0.272550  1.0  0.9534
  Mn  Mn23  1  0.952490  0.185000  0.464560  1.0  1.0969
  Mn  Mn24  1  0.829010  0.473100  0.380210  1.0  1.0527
  Mn  Mn25  1  0.565820  0.149800  0.868040  1.0  0.936
  Mn  Mn26  1  0.568610  0.156600  0.227450  1.0  0.9536
  Mn  Mn27  1  0.547510  0.685000  0.035440  1.0  1.0977
  Mn  Mn28  1  0.670990  0.973100  0.119790  1.0  1.0536
  Mn  Mn29  1  0.065820  0.649800  0.868040  1.0  0.936
  Mn  Mn30  1  0.068610  0.656600  0.227450  1.0  0.9536
  Mn  Mn31  1  0.047510  0.185000  0.035440  1.0  1.0977
  Mn  Mn32  1  0.170990  0.473100  0.119790  1.0  1.0536
  Mn  Mn33  1  0.500000  0.000000  0.500000  1.0  0.8409
  Mn  Mn34  1  0.000000  0.500000  0.500000  1.0  0.8409
  Mn  Mn35  1  0.500000  0.000000  0.000000  1.0  0.8409
  Mn  Mn36  1  0.000000  0.500000  0.000000  1.0  0.8409
  H  H37  1  0.640600  0.898500  0.369800  1.0  0.12
  H  H38  1  0.702900  0.878500  0.415400  1.0  0.1185
  H  H39  1  0.686200  0.711300  0.486800  1.0  0.1312
  H  H40  1  0.623900  0.739600  0.438600  1.0  0.0788
  H  H41  1  0.755800  0.807800  0.478000  1.0  0.1173
  H  H42  1  0.544300  0.700400  0.397200  1.0  0.0922
  H  H43  1  0.540900  0.582400  0.376800  1.0  0.1256
  H  H44  1  0.549100  0.631000  0.250300  1.0  0.13
  H  H45  1  0.555800  0.746100  0.276700  1.0  0.0802
  H  H46  1  0.548600  0.485300  0.328300  1.0  0.1082
  H  H47  1  0.562700  0.308500  0.177600  1.0  0.0874
  H  H48  1  0.559600  0.427000  0.191600  1.0  0.1404
  H  H49  1  0.536200  0.375600  0.303100  1.0  0.1286
  H  H50  1  0.549000  0.259700  0.295400  1.0  0.0898
  H  H51  1  0.554900  0.523700  0.240300  1.0  0.1223
  H  H52  1  0.637400  0.746800  0.745600  1.0  0.1105
  H  H53  1  0.701400  0.741300  0.796200  1.0  0.1427
  H  H54  1  0.701200  0.921900  0.867200  1.0  0.1169
  H  H55  1  0.637400  0.914500  0.823300  1.0  0.0921
  H  H56  1  0.764400  0.851800  0.900800  1.0  0.1619
  H  H57  1  0.885100  0.849800  0.985000  1.0  0.1014
  H  H58  1  0.821300  0.858300  0.941600  1.0  0.1397
  H  H59  1  0.820000  0.836900  0.804700  1.0  0.1371
  H  H60  1  0.883700  0.822500  0.851300  1.0  0.1063
  H  H61  1  0.758500  0.836400  0.807700  1.0  0.1185
  H  H62  1  0.636800  0.902000  0.731200  1.0  0.1001
  H  H63  1  0.699800  0.881600  0.763700  1.0  0.1323
  H  H64  1  0.702100  0.797200  0.891500  1.0  0.1102
  H  H65  1  0.638200  0.788000  0.842700  1.0  0.0959
  H  H66  1  0.140600  0.398500  0.369800  1.0  0.12
  H  H67  1  0.202900  0.378500  0.415400  1.0  0.1185
  H  H68  1  0.186200  0.211300  0.486800  1.0  0.1312
  H  H69  1  0.123900  0.239600  0.438600  1.0  0.0788
  H  H70  1  0.255800  0.307800  0.478000  1.0  0.1173
  H  H71  1  0.044300  0.200400  0.397200  1.0  0.0922
  H  H72  1  0.040900  0.082400  0.376800  1.0  0.1256
  H  H73  1  0.049100  0.131000  0.250300  1.0  0.13
  H  H74  1  0.055800  0.246100  0.276700  1.0  0.0802
  H  H75  1  0.048600  0.985300  0.328300  1.0  0.1082
  H  H76  1  0.062700  0.808500  0.177600  1.0  0.0874
  H  H77  1  0.059600  0.927000  0.191600  1.0  0.1404
  H  H78  1  0.036200  0.875600  0.303100  1.0  0.1286
  H  H79  1  0.049000  0.759700  0.295400  1.0  0.0898
  H  H80  1  0.054900  0.023700  0.240300  1.0  0.1223
  H  H81  1  0.137400  0.246800  0.745600  1.0  0.1105
  H  H82  1  0.201400  0.241300  0.796200  1.0  0.1427
  H  H83  1  0.201200  0.421900  0.867200  1.0  0.1169
  H  H84  1  0.137400  0.414500  0.823300  1.0  0.0921
  H  H85  1  0.264400  0.351800  0.900800  1.0  0.1619
  H  H86  1  0.385100  0.349800  0.985000  1.0  0.1014
  H  H87  1  0.321300  0.358300  0.941600  1.0  0.1397
  H  H88  1  0.320000  0.336900  0.804700  1.0  0.1371
  H  H89  1  0.383700  0.322500  0.851300  1.0  0.1063
  H  H90  1  0.258500  0.336400  0.807700  1.0  0.1185
  H  H91  1  0.136800  0.402000  0.731200  1.0  0.1001
  H  H92  1  0.199800  0.381600  0.763700  1.0  0.1323
  H  H93  1  0.202100  0.297200  0.891500  1.0  0.1102
  H  H94  1  0.138200  0.288000  0.842700  1.0  0.0959
  H  H95  1  0.359400  0.898500  0.130200  1.0  0.1197
  H  H96  1  0.297100  0.878500  0.084600  1.0  0.1182
  H  H97  1  0.313800  0.711300  0.013200  1.0  0.1313
  H  H98  1  0.376100  0.739600  0.061400  1.0  0.0781
  H  H99  1  0.244200  0.807800  0.022000  1.0  0.1159
  H  H100  1  0.455700  0.700400  0.102800  1.0  0.092
  H  H101  1  0.459100  0.582400  0.123200  1.0  0.1252
  H  H102  1  0.450900  0.631000  0.249700  1.0  0.1295
  H  H103  1  0.444200  0.746100  0.223300  1.0  0.0796
  H  H104  1  0.451400  0.485300  0.171700  1.0  0.1073
  H  H105  1  0.437300  0.308500  0.322400  1.0  0.0875
  H  H106  1  0.440400  0.427000  0.308400  1.0  0.1409
  H  H107  1  0.463800  0.375600  0.196900  1.0  0.1294
  H  H108  1  0.451000  0.259700  0.204600  1.0  0.0906
  H  H109  1  0.445100  0.523700  0.259700  1.0  0.1237
  H  H110  1  0.362600  0.746800  0.754400  1.0  0.1106
  H  H111  1  0.298600  0.741300  0.703800  1.0  0.1449
  H  H112  1  0.298800  0.921900  0.632800  1.0  0.1189
  H  H113  1  0.362600  0.914500  0.676700  1.0  0.0917
  H  H114  1  0.235600  0.851800  0.599200  1.0  0.1637
  H  H115  1  0.114900  0.849800  0.515000  1.0  0.1012
  H  H116  1  0.178700  0.858300  0.558400  1.0  0.1397
  H  H117  1  0.180000  0.836900  0.695300  1.0  0.1369
  H  H118  1  0.116300  0.822500  0.648700  1.0  0.1064
  H  H119  1  0.241500  0.836400  0.692300  1.0  0.1146
  H  H120  1  0.363200  0.902000  0.768800  1.0  0.1004
  H  H121  1  0.300200  0.881600  0.736300  1.0  0.1307
  H  H122  1  0.297900  0.797200  0.608500  1.0  0.1111
  H  H123  1  0.361800  0.788000  0.657300  1.0  0.0968
  H  H124  1  0.859400  0.398500  0.130200  1.0  0.1197
  H  H125  1  0.797100  0.378500  0.084600  1.0  0.1182
  H  H126  1  0.813800  0.211300  0.013200  1.0  0.1313
  H  H127  1  0.876100  0.239600  0.061400  1.0  0.0781
  H  H128  1  0.744200  0.307800  0.022000  1.0  0.1168
  H  H129  1  0.955700  0.200400  0.102800  1.0  0.092
  H  H130  1  0.959100  0.082400  0.123200  1.0  0.1252
  H  H131  1  0.950900  0.131000  0.249700  1.0  0.1295
  H  H132  1  0.944200  0.246100  0.223300  1.0  0.0796
  H  H133  1  0.951400  0.985300  0.171700  1.0  0.1073
  H  H134  1  0.937300  0.808500  0.322400  1.0  0.0875
  H  H135  1  0.940400  0.927000  0.308400  1.0  0.1409
  H  H136  1  0.963800  0.875600  0.196900  1.0  0.1294
  H  H137  1  0.951000  0.759700  0.204600  1.0  0.0906
  H  H138  1  0.945100  0.023700  0.259700  1.0  0.1237
  H  H139  1  0.862600  0.246800  0.754400  1.0  0.1106
  H  H140  1  0.798600  0.241300  0.703800  1.0  0.1449
  H  H141  1  0.798800  0.421900  0.632800  1.0  0.1189
  H  H142  1  0.862600  0.414500  0.676700  1.0  0.0917
  H  H143  1  0.735600  0.351800  0.599200  1.0  0.1641
  H  H144  1  0.614900  0.349800  0.515000  1.0  0.1007
  H  H145  1  0.678700  0.358300  0.558400  1.0  0.1318
  H  H146  1  0.680000  0.336900  0.695300  1.0  0.1368
  H  H147  1  0.616300  0.322500  0.648700  1.0  0.1064
  H  H148  1  0.741500  0.336400  0.692300  1.0  0.1146
  H  H149  1  0.863200  0.402000  0.768800  1.0  0.1004
  H  H150  1  0.800200  0.381600  0.736300  1.0  0.1307
  H  H151  1  0.797900  0.297200  0.608500  1.0  0.1111
  H  H152  1  0.861800  0.288000  0.657300  1.0  0.0968
  H  H153  1  0.359400  0.101500  0.630200  1.0  0.12
  H  H154  1  0.297100  0.121500  0.584600  1.0  0.1182
  H  H155  1  0.313800  0.288700  0.513200  1.0  0.1315
  H  H156  1  0.376100  0.260400  0.561400  1.0  0.0784
  H  H157  1  0.244200  0.192200  0.522000  1.0  0.1162
  H  H158  1  0.455700  0.299600  0.602800  1.0  0.0919
  H  H159  1  0.459100  0.417600  0.623200  1.0  0.1253
  H  H160  1  0.450900  0.369000  0.749700  1.0  0.1297
  H  H161  1  0.444200  0.253900  0.723300  1.0  0.0802
  H  H162  1  0.451400  0.514700  0.671700  1.0  0.1075
  H  H163  1  0.437300  0.691500  0.822400  1.0  0.0875
  H  H164  1  0.440400  0.573000  0.808400  1.0  0.141
  H  H165  1  0.463800  0.624400  0.696900  1.0  0.1291
  H  H166  1  0.451000  0.740300  0.704600  1.0  0.0901
  H  H167  1  0.445100  0.476300  0.759700  1.0  0.1231
  H  H168  1  0.362600  0.253200  0.254400  1.0  0.1085
  H  H169  1  0.298600  0.258700  0.203800  1.0  0.1467
  H  H170  1  0.298800  0.078100  0.132800  1.0  0.1142
  H  H171  1  0.362600  0.085500  0.176700  1.0  0.0926
  H  H172  1  0.235600  0.148200  0.099200  1.0  0.1633
  H  H173  1  0.114900  0.150200  0.015000  1.0  0.1011
  H  H174  1  0.178700  0.141700  0.058400  1.0  0.1396
  H  H175  1  0.180000  0.163100  0.195300  1.0  0.1371
  H  H176  1  0.116300  0.177500  0.148700  1.0  0.1063
  H  H177  1  0.241500  0.163600  0.192300  1.0  0.1146
  H  H178  1  0.363200  0.098000  0.268800  1.0  0.1002
  H  H179  1  0.300200  0.118400  0.236300  1.0  0.1313
  H  H180  1  0.297900  0.202800  0.108500  1.0  0.1114
  H  H181  1  0.361800  0.212000  0.157300  1.0  0.0965
  H  H182  1  0.859400  0.601500  0.630200  1.0  0.12
  H  H183  1  0.797100  0.621500  0.584600  1.0  0.1182
  H  H184  1  0.813800  0.788700  0.513200  1.0  0.1315
  H  H185  1  0.876100  0.760400  0.561400  1.0  0.0784
  H  H186  1  0.744200  0.692200  0.522000  1.0  0.1162
  H  H187  1  0.955700  0.799600  0.602800  1.0  0.0919
  H  H188  1  0.959100  0.917600  0.623200  1.0  0.1253
  H  H189  1  0.950900  0.869000  0.749700  1.0  0.1297
  H  H190  1  0.944200  0.753900  0.723300  1.0  0.0802
  H  H191  1  0.951400  0.014700  0.671700  1.0  0.1075
  H  H192  1  0.937300  0.191500  0.822400  1.0  0.0875
  H  H193  1  0.940400  0.073000  0.808400  1.0  0.141
  H  H194  1  0.963800  0.124400  0.696900  1.0  0.1291
  H  H195  1  0.951000  0.240300  0.704600  1.0  0.0901
  H  H196  1  0.945100  0.976300  0.759700  1.0  0.1231
  H  H197  1  0.862600  0.753200  0.254400  1.0  0.1085
  H  H198  1  0.798600  0.758700  0.203800  1.0  0.1467
  H  H199  1  0.798800  0.578100  0.132800  1.0  0.1142
  H  H200  1  0.862600  0.585500  0.176700  1.0  0.0926
  H  H201  1  0.735600  0.648200  0.099200  1.0  0.1638
  H  H202  1  0.614900  0.650200  0.015000  1.0  0.1006
  H  H203  1  0.678700  0.641700  0.058400  1.0  0.1318
  H  H204  1  0.680000  0.663100  0.195300  1.0  0.137
  H  H205  1  0.616300  0.677500  0.148700  1.0  0.1063
  H  H206  1  0.741500  0.663600  0.192300  1.0  0.1147
  H  H207  1  0.863200  0.598000  0.268800  1.0  0.1002
  H  H208  1  0.800200  0.618400  0.236300  1.0  0.1313
  H  H209  1  0.797900  0.702800  0.108500  1.0  0.1114
  H  H210  1  0.861800  0.712000  0.157300  1.0  0.0965
  H  H211  1  0.640600  0.101500  0.869800  1.0  0.1199
  H  H212  1  0.702900  0.121500  0.915400  1.0  0.1179
  H  H213  1  0.686200  0.288700  0.986800  1.0  0.1317
  H  H214  1  0.623900  0.260400  0.938600  1.0  0.0785
  H  H215  1  0.755800  0.192200  0.978000  1.0  0.1159
  H  H216  1  0.544300  0.299600  0.897200  1.0  0.0922
  H  H217  1  0.540900  0.417600  0.876800  1.0  0.1253
  H  H218  1  0.549100  0.369000  0.750300  1.0  0.1302
  H  H219  1  0.555800  0.253900  0.776700  1.0  0.0804
  H  H220  1  0.548600  0.514700  0.828300  1.0  0.1082
  H  H221  1  0.562700  0.691500  0.677600  1.0  0.0874
  H  H222  1  0.559600  0.573000  0.691600  1.0  0.1404
  H  H223  1  0.536200  0.624400  0.803100  1.0  0.1289
  H  H224  1  0.549000  0.740300  0.795400  1.0  0.0894
  H  H225  1  0.554900  0.476300  0.740300  1.0  0.1218
  H  H226  1  0.637400  0.253200  0.245600  1.0  0.1099
  H  H227  1  0.701400  0.258700  0.296200  1.0  0.1466
  H  H228  1  0.701200  0.078100  0.367200  1.0  0.1147
  H  H229  1  0.637400  0.085500  0.323300  1.0  0.0933
  H  H230  1  0.764400  0.148200  0.400800  1.0  0.1616
  H  H231  1  0.885100  0.150200  0.485000  1.0  0.1014
  H  H232  1  0.821300  0.141700  0.441600  1.0  0.1393
  H  H233  1  0.820000  0.163100  0.304700  1.0  0.1369
  H  H234  1  0.883700  0.177500  0.351300  1.0  0.1063
  H  H235  1  0.758500  0.163600  0.307700  1.0  0.1192
  H  H236  1  0.636800  0.098000  0.231200  1.0  0.1003
  H  H237  1  0.699800  0.118400  0.263700  1.0  0.1322
  H  H238  1  0.702100  0.202800  0.391500  1.0  0.1101
  H  H239  1  0.638200  0.212000  0.342700  1.0  0.0957
  H  H240  1  0.140600  0.601500  0.869800  1.0  0.1199
  H  H241  1  0.202900  0.621500  0.915400  1.0  0.1179
  H  H242  1  0.186200  0.788700  0.986800  1.0  0.1317
  H  H243  1  0.123900  0.760400  0.938600  1.0  0.0785
  H  H244  1  0.255800  0.692200  0.978000  1.0  0.1169
  H  H245  1  0.044300  0.799600  0.897200  1.0  0.0922
  H  H246  1  0.040900  0.917600  0.876800  1.0  0.1253
  H  H247  1  0.049100  0.869000  0.750300  1.0  0.1302
  H  H248  1  0.055800  0.753900  0.776700  1.0  0.0804
  H  H249  1  0.048600  0.014700  0.828300  1.0  0.1082
  H  H250  1  0.062700  0.191500  0.677600  1.0  0.0874
  H  H251  1  0.059600  0.073000  0.691600  1.0  0.1404
  H  H252  1  0.036200  0.124400  0.803100  1.0  0.1289
  H  H253  1  0.049000  0.240300  0.795400  1.0  0.0894
  H  H254  1  0.054900  0.976300  0.740300  1.0  0.1218
  H  H255  1  0.137400  0.753200  0.245600  1.0  0.1099
  H  H256  1  0.201400  0.758700  0.296200  1.0  0.1466
  H  H257  1  0.201200  0.578100  0.367200  1.0  0.1147
  H  H258  1  0.137400  0.585500  0.323300  1.0  0.0933
  H  H259  1  0.264400  0.648200  0.400800  1.0  0.1616
  H  H260  1  0.385100  0.650200  0.485000  1.0  0.1014
  H  H261  1  0.321300  0.641700  0.441600  1.0  0.1393
  H  H262  1  0.320000  0.663100  0.304700  1.0  0.1369
  H  H263  1  0.383700  0.677500  0.351300  1.0  0.1063
  H  H264  1  0.258500  0.663600  0.307700  1.0  0.1192
  H  H265  1  0.136800  0.598000  0.231200  1.0  0.1003
  H  H266  1  0.199800  0.618400  0.263700  1.0  0.1322
  H  H267  1  0.202100  0.702800  0.391500  1.0  0.1101
  H  H268  1  0.138200  0.712000  0.342700  1.0  0.0957
  W  W269  1  0.582330  0.121120  0.694320  1.0  0.2142
  W  W270  1  0.579120  0.127960  0.420790  1.0  0.0908
  W  W271  1  0.594950  0.775730  0.566880  1.0  0.0916
  W  W272  1  0.082330  0.621120  0.694320  1.0  0.2142
  W  W273  1  0.079120  0.627960  0.420790  1.0  0.0908
  W  W274  1  0.094950  0.275730  0.566880  1.0  0.0916
  W  W275  1  0.417670  0.121120  0.805680  1.0  0.2159
  W  W276  1  0.420880  0.127960  0.079210  1.0  0.0883
  W  W277  1  0.405050  0.775730  0.933120  1.0  0.1008
  W  W278  1  0.917670  0.621120  0.805680  1.0  0.2159
  W  W279  1  0.920880  0.627960  0.079210  1.0  0.0883
  W  W280  1  0.905050  0.275730  0.933120  1.0  0.1008
  W  W281  1  0.417670  0.878880  0.305680  1.0  0.2157
  W  W282  1  0.420880  0.872040  0.579210  1.0  0.0879
  W  W283  1  0.405050  0.224270  0.433120  1.0  0.1024
  W  W284  1  0.917670  0.378880  0.305680  1.0  0.2157
  W  W285  1  0.920880  0.372040  0.579210  1.0  0.0879
  W  W286  1  0.905050  0.724270  0.433120  1.0  0.1024
  W  W287  1  0.582330  0.878880  0.194320  1.0  0.214
  W  W288  1  0.579120  0.872040  0.920790  1.0  0.0904
  W  W289  1  0.594950  0.224270  0.066880  1.0  0.0939
  W  W290  1  0.082330  0.378880  0.194320  1.0  0.214
  W  W291  1  0.079120  0.372040  0.920790  1.0  0.0904
  W  W292  1  0.094950  0.724270  0.066880  1.0  0.0939
  C  C293  1  0.573200  0.125100  0.762000  1.0  0.1372
  C  C294  1  0.604700  0.219000  0.727800  1.0  0.1946
  C  C295  1  0.635000  0.094400  0.762500  1.0  0.1812
  C  C296  1  0.553700  0.067700  0.619700  1.0  0.1524
  C  C297  1  0.524400  0.137200  0.668000  1.0  0.127
  C  C298  1  0.577900  0.012800  0.706500  1.0  0.1699
  C  C299  1  0.565700  0.197500  0.632200  1.0  0.0964
  C  C300  1  0.621800  0.099700  0.669500  1.0  0.1679
  C  C301  1  0.592900  0.234000  0.413000  1.0  0.0753
  C  C302  1  0.633400  0.112000  0.430400  1.0  0.1094
  C  C303  1  0.573700  0.131900  0.343100  1.0  0.1593
  C  C304  1  0.547400  0.071100  0.447300  1.0  0.117
  C  C305  1  0.579300  0.019100  0.401000  1.0  0.1776
  C  C306  1  0.522200  0.147000  0.363400  1.0  0.1742
  C  C307  1  0.563200  0.195100  0.463300  1.0  0.0868
  C  C308  1  0.618100  0.101000  0.502400  1.0  0.0924
  C  C309  1  0.600200  0.681000  0.609900  1.0  0.0582
  C  C310  1  0.607400  0.692000  0.529000  1.0  0.0852
  C  C311  1  0.653000  0.761000  0.619000  1.0  -0.0212
  C  C312  1  0.552500  0.858100  0.537800  1.0  0.1279
  C  C313  1  0.583700  0.804500  0.489500  1.0  0.0138
  C  C314  1  0.585500  0.803000  0.631900  1.0  0.0911
  C  C315  1  0.542200  0.723400  0.524100  1.0  0.1594
  C  C316  1  0.621800  0.877100  0.587300  1.0  0.1732
  C  C317  1  0.650300  0.861800  0.395200  1.0  0.1415
  C  C318  1  0.687000  0.848000  0.420800  1.0  -0.0927
  C  C319  1  0.702100  0.792000  0.454600  1.0  0.1232
  C  C320  1  0.677800  0.750000  0.463300  1.0  -0.2203
  C  C321  1  0.641100  0.769000  0.435500  1.0  0.1781
  C  C322  1  0.740600  0.776000  0.483500  1.0  -0.0656
  C  C323  1  0.548100  0.686100  0.369200  1.0  0.1344
  C  C324  1  0.546400  0.615600  0.357300  1.0  -0.1223
  C  C325  1  0.552400  0.592500  0.317600  1.0  0.0884
  C  C326  1  0.551500  0.643100  0.283400  1.0  -0.2064
  C  C327  1  0.554300  0.711800  0.299100  1.0  0.1793
  C  C328  1  0.551400  0.518000  0.306000  1.0  -0.097
  C  C329  1  0.561700  0.322600  0.208000  1.0  0.1778
  C  C330  1  0.559300  0.393700  0.215500  1.0  -0.1672
  C  C331  1  0.556500  0.415700  0.258300  1.0  0.1216
  C  C332  1  0.546800  0.363600  0.282000  1.0  -0.1661
  C  C333  1  0.552500  0.294100  0.275000  1.0  0.1735
  C  C334  1  0.554300  0.492000  0.265000  1.0  -0.1403
  C  C335  1  0.650400  0.783000  0.771000  1.0  0.0475
  C  C336  1  0.688700  0.781000  0.799000  1.0  -0.0984
  C  C337  1  0.688800  0.886000  0.842000  1.0  -0.1268
  C  C338  1  0.650700  0.881000  0.814900  1.0  0.0444
  C  C339  1  0.708600  0.836000  0.831900  1.0  0.2775
  C  C340  1  0.752800  0.843000  0.864000  1.0  -0.0788
  C  C341  1  0.871700  0.844000  0.947800  1.0  0.1587
  C  C342  1  0.833400  0.848000  0.922200  1.0  -0.2079
  C  C343  1  0.813100  0.837000  0.868800  1.0  0.0866
  C  C344  1  0.832700  0.835000  0.842200  1.0  -0.1376
  C  C345  1  0.870900  0.829000  0.870300  1.0  0.1559
  C  C346  1  0.772000  0.839000  0.845000  1.0  -0.0427
  C  C347  1  0.650000  0.871000  0.760000  1.0  0.0648
  C  C348  1  0.688000  0.865000  0.782000  1.0  -0.068
  C  C349  1  0.689200  0.812000  0.855700  1.0  -0.0605
  C  C350  1  0.650900  0.809000  0.827000  1.0  0.079
  C  C351  1  0.073200  0.625100  0.762000  1.0  0.1372
  C  C352  1  0.104700  0.719000  0.727800  1.0  0.1946
  C  C353  1  0.135000  0.594400  0.762500  1.0  0.1812
  C  C354  1  0.053700  0.567700  0.619700  1.0  0.1524
  C  C355  1  0.024400  0.637200  0.668000  1.0  0.127
  C  C356  1  0.077900  0.512800  0.706500  1.0  0.1699
  C  C357  1  0.065700  0.697500  0.632200  1.0  0.0964
  C  C358  1  0.121800  0.599700  0.669500  1.0  0.1679
  C  C359  1  0.092900  0.734000  0.413000  1.0  0.0753
  C  C360  1  0.133400  0.612000  0.430400  1.0  0.1094
  C  C361  1  0.073700  0.631900  0.343100  1.0  0.1593
  C  C362  1  0.047400  0.571100  0.447300  1.0  0.117
  C  C363  1  0.079300  0.519100  0.401000  1.0  0.1776
  C  C364  1  0.022200  0.647000  0.363400  1.0  0.1742
  C  C365  1  0.063200  0.695100  0.463300  1.0  0.0868
  C  C366  1  0.118100  0.601000  0.502400  1.0  0.0925
  C  C367  1  0.100200  0.181000  0.609900  1.0  0.0582
  C  C368  1  0.107400  0.192000  0.529000  1.0  0.0852
  C  C369  1  0.153000  0.261000  0.619000  1.0  -0.0212
  C  C370  1  0.052500  0.358100  0.537800  1.0  0.1279
  C  C371  1  0.083700  0.304500  0.489500  1.0  0.0138
  C  C372  1  0.085500  0.303000  0.631900  1.0  0.0911
  C  C373  1  0.042200  0.223400  0.524100  1.0  0.1594
  C  C374  1  0.121800  0.377100  0.587300  1.0  0.1732
  C  C375  1  0.150300  0.361800  0.395200  1.0  0.1415
  C  C376  1  0.187000  0.348000  0.420800  1.0  -0.0927
  C  C377  1  0.202100  0.292000  0.454600  1.0  0.1232
  C  C378  1  0.177800  0.250000  0.463300  1.0  -0.2203
  C  C379  1  0.141100  0.269000  0.435500  1.0  0.1781
  C  C380  1  0.240600  0.276000  0.483500  1.0  -0.0656
  C  C381  1  0.048100  0.186100  0.369200  1.0  0.1344
  C  C382  1  0.046400  0.115600  0.357300  1.0  -0.1223
  C  C383  1  0.052400  0.092500  0.317600  1.0  0.0884
  C  C384  1  0.051500  0.143100  0.283400  1.0  -0.2064
  C  C385  1  0.054300  0.211800  0.299100  1.0  0.1793
  C  C386  1  0.051400  0.018000  0.306000  1.0  -0.097
  C  C387  1  0.061700  0.822600  0.208000  1.0  0.1778
  C  C388  1  0.059300  0.893700  0.215500  1.0  -0.1672
  C  C389  1  0.056500  0.915700  0.258300  1.0  0.1216
  C  C390  1  0.046800  0.863600  0.282000  1.0  -0.1661
  C  C391  1  0.052500  0.794100  0.275000  1.0  0.1735
  C  C392  1  0.054300  0.992000  0.265000  1.0  -0.1403
  C  C393  1  0.150400  0.283000  0.771000  1.0  0.0475
  C  C394  1  0.188700  0.281000  0.799000  1.0  -0.0984
  C  C395  1  0.188800  0.386000  0.842000  1.0  -0.1268
  C  C396  1  0.150700  0.381000  0.814900  1.0  0.0444
  C  C397  1  0.208600  0.336000  0.831900  1.0  0.2775
  C  C398  1  0.252800  0.343000  0.864000  1.0  -0.0788
  C  C399  1  0.371700  0.344000  0.947800  1.0  0.1587
  C  C400  1  0.333400  0.348000  0.922200  1.0  -0.2079
  C  C401  1  0.313100  0.337000  0.868800  1.0  0.0866
  C  C402  1  0.332700  0.335000  0.842200  1.0  -0.1376
  C  C403  1  0.370900  0.329000  0.870300  1.0  0.1559
  C  C404  1  0.272000  0.339000  0.845000  1.0  -0.0427
  C  C405  1  0.150000  0.371000  0.760000  1.0  0.0648
  C  C406  1  0.188000  0.365000  0.782000  1.0  -0.068
  C  C407  1  0.189200  0.312000  0.855700  1.0  -0.0605
  C  C408  1  0.150900  0.309000  0.827000  1.0  0.079
  C  C409  1  0.426800  0.125100  0.738000  1.0  0.1369
  C  C410  1  0.395300  0.219000  0.772200  1.0  0.1945
  C  C411  1  0.365000  0.094400  0.737500  1.0  0.1796
  C  C412  1  0.446300  0.067700  0.880300  1.0  0.1521
  C  C413  1  0.475600  0.137200  0.832000  1.0  0.1279
  C  C414  1  0.422100  0.012800  0.793500  1.0  0.1709
  C  C415  1  0.434300  0.197500  0.867800  1.0  0.097
  C  C416  1  0.378200  0.099700  0.830500  1.0  0.168
  C  C417  1  0.407100  0.234000  0.087000  1.0  0.0776
  C  C418  1  0.366600  0.112000  0.069600  1.0  0.1125
  C  C419  1  0.426300  0.131900  0.156900  1.0  0.1601
  C  C420  1  0.452600  0.071100  0.052700  1.0  0.1169
  C  C421  1  0.420700  0.019100  0.099000  1.0  0.1774
  C  C422  1  0.477800  0.147000  0.136600  1.0  0.1744
  C  C423  1  0.436800  0.195100  0.036700  1.0  0.0862
  C  C424  1  0.381900  0.101000  0.997600  1.0  0.0916
  C  C425  1  0.399800  0.681000  0.890100  1.0  0.0565
  C  C426  1  0.392600  0.692000  0.971000  1.0  0.0863
  C  C427  1  0.347000  0.761000  0.881000  1.0  -0.0267
  C  C428  1  0.447500  0.858100  0.962200  1.0  0.128
  C  C429  1  0.416300  0.804500  0.010500  1.0  0.0161
  C  C430  1  0.414500  0.803000  0.868100  1.0  0.0921
  C  C431  1  0.457800  0.723400  0.975900  1.0  0.159
  C  C432  1  0.378200  0.877100  0.912700  1.0  0.1711
  C  C433  1  0.349700  0.861800  0.104800  1.0  0.142
  C  C434  1  0.313000  0.848000  0.079200  1.0  -0.0927
  C  C435  1  0.297900  0.792000  0.045400  1.0  0.123
  C  C436  1  0.322200  0.750000  0.036700  1.0  -0.2214
  C  C437  1  0.358900  0.769000  0.064500  1.0  0.1783
  C  C438  1  0.259400  0.776000  0.016500  1.0  -0.0677
  C  C439  1  0.451900  0.686100  0.130800  1.0  0.1351
  C  C440  1  0.453600  0.615600  0.142700  1.0  -0.1235
  C  C441  1  0.447600  0.592500  0.182400  1.0  0.0898
  C  C442  1  0.448500  0.643100  0.216600  1.0  -0.2058
  C  C443  1  0.445700  0.711800  0.200900  1.0  0.1795
  C  C444  1  0.448600  0.518000  0.194000  1.0  -0.0968
  C  C445  1  0.438300  0.322600  0.292000  1.0  0.1782
  C  C446  1  0.440700  0.393700  0.284500  1.0  -0.1697
  C  C447  1  0.443500  0.415700  0.241700  1.0  0.1237
  C  C448  1  0.453200  0.363600  0.218000  1.0  -0.1682
  C  C449  1  0.447500  0.294100  0.225000  1.0  0.1733
  C  C450  1  0.445700  0.492000  0.235000  1.0  -0.1392
  C  C451  1  0.349600  0.783000  0.729000  1.0  0.0503
  C  C452  1  0.311300  0.781000  0.701000  1.0  -0.096
  C  C453  1  0.311200  0.886000  0.658000  1.0  -0.1279
  C  C454  1  0.349300  0.881000  0.685100  1.0  0.046
  C  C455  1  0.291400  0.836000  0.668100  1.0  0.2734
  C  C456  1  0.247200  0.843000  0.636000  1.0  -0.0822
  C  C457  1  0.128300  0.844000  0.552200  1.0  0.1586
  C  C458  1  0.166600  0.848000  0.577800  1.0  -0.2069
  C  C459  1  0.186900  0.837000  0.631200  1.0  0.0871
  C  C460  1  0.167300  0.835000  0.657800  1.0  -0.1404
  C  C461  1  0.129100  0.829000  0.629700  1.0  0.1568
  C  C462  1  0.228000  0.839000  0.655000  1.0  -0.0415
  C  C463  1  0.350000  0.871000  0.740000  1.0  0.0666
  C  C464  1  0.312000  0.865000  0.718000  1.0  -0.0664
  C  C465  1  0.310800  0.812000  0.644300  1.0  -0.0648
  C  C466  1  0.349100  0.809000  0.673000  1.0  0.0776
  C  C467  1  0.926800  0.625100  0.738000  1.0  0.1369
  C  C468  1  0.895300  0.719000  0.772200  1.0  0.1945
  C  C469  1  0.865000  0.594400  0.737500  1.0  0.1796
  C  C470  1  0.946300  0.567700  0.880300  1.0  0.1521
  C  C471  1  0.975600  0.637200  0.832000  1.0  0.1279
  C  C472  1  0.922100  0.512800  0.793500  1.0  0.1709
  C  C473  1  0.934300  0.697500  0.867800  1.0  0.097
  C  C474  1  0.878200  0.599700  0.830500  1.0  0.168
  C  C475  1  0.907100  0.734000  0.087000  1.0  0.0776
  C  C476  1  0.866600  0.612000  0.069600  1.0  0.1125
  C  C477  1  0.926300  0.631900  0.156900  1.0  0.1601
  C  C478  1  0.952600  0.571100  0.052700  1.0  0.1169
  C  C479  1  0.920700  0.519100  0.099000  1.0  0.1774
  C  C480  1  0.977800  0.647000  0.136600  1.0  0.1744
  C  C481  1  0.936800  0.695100  0.036700  1.0  0.0862
  C  C482  1  0.881900  0.601000  0.997600  1.0  0.0916
  C  C483  1  0.899800  0.181000  0.890100  1.0  0.0565
  C  C484  1  0.892600  0.192000  0.971000  1.0  0.0863
  C  C485  1  0.847000  0.261000  0.881000  1.0  -0.0267
  C  C486  1  0.947500  0.358100  0.962200  1.0  0.128
  C  C487  1  0.916300  0.304500  0.010500  1.0  0.0161
  C  C488  1  0.914500  0.303000  0.868100  1.0  0.0921
  C  C489  1  0.957800  0.223400  0.975900  1.0  0.159
  C  C490  1  0.878200  0.377100  0.912700  1.0  0.1711
  C  C491  1  0.849700  0.361800  0.104800  1.0  0.142
  C  C492  1  0.813000  0.348000  0.079200  1.0  -0.0927
  C  C493  1  0.797900  0.292000  0.045400  1.0  0.123
  C  C494  1  0.822200  0.250000  0.036700  1.0  -0.2214
  C  C495  1  0.858900  0.269000  0.064500  1.0  0.1783
  C  C496  1  0.759400  0.276000  0.016500  1.0  -0.0677
  C  C497  1  0.951900  0.186100  0.130800  1.0  0.1351
  C  C498  1  0.953600  0.115600  0.142700  1.0  -0.1235
  C  C499  1  0.947600  0.092500  0.182400  1.0  0.0898
  C  C500  1  0.948500  0.143100  0.216600  1.0  -0.2058
  C  C501  1  0.945700  0.211800  0.200900  1.0  0.1795
  C  C502  1  0.948600  0.018000  0.194000  1.0  -0.0968
  C  C503  1  0.938300  0.822600  0.292000  1.0  0.1782
  C  C504  1  0.940700  0.893700  0.284500  1.0  -0.1697
  C  C505  1  0.943500  0.915700  0.241700  1.0  0.1237
  C  C506  1  0.953200  0.863600  0.218000  1.0  -0.1682
  C  C507  1  0.947500  0.794100  0.225000  1.0  0.1733
  C  C508  1  0.945700  0.992000  0.235000  1.0  -0.1392
  C  C509  1  0.849600  0.283000  0.729000  1.0  0.0503
  C  C510  1  0.811300  0.281000  0.701000  1.0  -0.096
  C  C511  1  0.811200  0.386000  0.658000  1.0  -0.1279
  C  C512  1  0.849300  0.381000  0.685100  1.0  0.046
  C  C513  1  0.791400  0.336000  0.668100  1.0  0.2734
  C  C514  1  0.747200  0.343000  0.636000  1.0  -0.0821
  C  C515  1  0.628300  0.344000  0.552200  1.0  0.1575
  C  C516  1  0.666667  0.348000  0.577800  1.0  -0.2106
  C  C517  1  0.686900  0.337000  0.631200  1.0  0.0897
  C  C518  1  0.667300  0.335000  0.657800  1.0  -0.1353
  C  C519  1  0.629100  0.329000  0.629700  1.0  0.1531
  C  C520  1  0.728000  0.339000  0.655000  1.0  -0.0416
  C  C521  1  0.850000  0.371000  0.740000  1.0  0.0666
  C  C522  1  0.812000  0.365000  0.718000  1.0  -0.0664
  C  C523  1  0.810800  0.312000  0.644300  1.0  -0.0648
  C  C524  1  0.849100  0.309000  0.673000  1.0  0.0776
  C  C525  1  0.426800  0.874900  0.238000  1.0  0.136
  C  C526  1  0.395300  0.781000  0.272200  1.0  0.1945
  C  C527  1  0.365000  0.905600  0.237500  1.0  0.1798
  C  C528  1  0.446300  0.932300  0.380300  1.0  0.1512
  C  C529  1  0.475600  0.862800  0.332000  1.0  0.1275
  C  C530  1  0.422100  0.987200  0.293500  1.0  0.1694
  C  C531  1  0.434300  0.802500  0.367800  1.0  0.0975
  C  C532  1  0.378200  0.900300  0.330500  1.0  0.1682
  C  C533  1  0.407100  0.766000  0.587000  1.0  0.0784
  C  C534  1  0.366600  0.888000  0.569600  1.0  0.1129
  C  C535  1  0.426300  0.868100  0.656900  1.0  0.1606
  C  C536  1  0.452600  0.928900  0.552700  1.0  0.1171
  C  C537  1  0.420700  0.980900  0.599000  1.0  0.176
  C  C538  1  0.477800  0.853000  0.636600  1.0  0.1744
  C  C539  1  0.436800  0.804900  0.536700  1.0  0.086
  C  C540  1  0.381900  0.899000  0.497600  1.0  0.0921
  C  C541  1  0.399800  0.319000  0.390100  1.0  0.0556
  C  C542  1  0.392600  0.308000  0.471000  1.0  0.0878
  C  C543  1  0.347000  0.239000  0.381000  1.0  -0.0266
  C  C544  1  0.447500  0.141900  0.462200  1.0  0.129
  C  C545  1  0.416300  0.195500  0.510500  1.0  0.0165
  C  C546  1  0.414500  0.197000  0.368100  1.0  0.0922
  C  C547  1  0.457800  0.276600  0.475900  1.0  0.1582
  C  C548  1  0.378200  0.122900  0.412700  1.0  0.1707
  C  C549  1  0.349700  0.138200  0.604800  1.0  0.1428
  C  C550  1  0.313000  0.152000  0.579200  1.0  -0.0913
  C  C551  1  0.297900  0.208000  0.545400  1.0  0.1228
  C  C552  1  0.322200  0.250000  0.536700  1.0  -0.2209
  C  C553  1  0.358900  0.231000  0.564500  1.0  0.1785
  C  C554  1  0.259400  0.224000  0.516500  1.0  -0.0667
  C  C555  1  0.451900  0.313900  0.630800  1.0  0.1349
  C  C556  1  0.453600  0.384400  0.642700  1.0  -0.1229
  C  C557  1  0.447600  0.407500  0.682400  1.0  0.0912
  C  C558  1  0.448500  0.356900  0.716600  1.0  -0.2057
  C  C559  1  0.445700  0.288200  0.700900  1.0  0.1796
  C  C560  1  0.448600  0.482000  0.694000  1.0  -0.0973
  C  C561  1  0.438300  0.677400  0.792000  1.0  0.1785
  C  C562  1  0.440700  0.606300  0.784500  1.0  -0.1692
  C  C563  1  0.443500  0.584300  0.741700  1.0  0.1218
  C  C564  1  0.453200  0.636400  0.718000  1.0  -0.1681
  C  C565  1  0.447500  0.705900  0.725000  1.0  0.1736
  C  C566  1  0.445700  0.508000  0.735000  1.0  -0.1388
  C  C567  1  0.349600  0.217000  0.229000  1.0  0.0498
  C  C568  1  0.311300  0.219000  0.201000  1.0  -0.0977
  C  C569  1  0.311200  0.114000  0.158000  1.0  -0.1289
  C  C570  1  0.349300  0.119000  0.185100  1.0  0.0459
  C  C571  1  0.291400  0.164000  0.168100  1.0  0.2725
  C  C572  1  0.247200  0.157000  0.136000  1.0  -0.0827
  C  C573  1  0.128300  0.156000  0.052200  1.0  0.1578
  C  C574  1  0.166600  0.152000  0.077800  1.0  -0.2067
  C  C575  1  0.186900  0.163000  0.131200  1.0  0.0873
  C  C576  1  0.167300  0.165000  0.157800  1.0  -0.1403
  C  C577  1  0.129100  0.171000  0.129700  1.0  0.1573
  C  C578  1  0.228000  0.161000  0.155000  1.0  -0.0414
  C  C579  1  0.350000  0.129000  0.240000  1.0  0.0654
  C  C580  1  0.312000  0.135000  0.218000  1.0  -0.0675
  C  C581  1  0.310800  0.188000  0.144300  1.0  -0.063
  C  C582  1  0.349100  0.191000  0.173000  1.0  0.0788
  C  C583  1  0.926800  0.374900  0.238000  1.0  0.136
  C  C584  1  0.895300  0.281000  0.272200  1.0  0.1945
  C  C585  1  0.865000  0.405600  0.237500  1.0  0.1798
  C  C586  1  0.946300  0.432300  0.380300  1.0  0.1512
  C  C587  1  0.975600  0.362800  0.332000  1.0  0.1275
  C  C588  1  0.922100  0.487200  0.293500  1.0  0.1694
  C  C589  1  0.934300  0.302500  0.367800  1.0  0.0975
  C  C590  1  0.878200  0.400300  0.330500  1.0  0.1682
  C  C591  1  0.907100  0.266000  0.587000  1.0  0.0784
  C  C592  1  0.866600  0.388000  0.569600  1.0  0.1129
  C  C593  1  0.926300  0.368100  0.656900  1.0  0.1606
  C  C594  1  0.952600  0.428900  0.552700  1.0  0.1171
  C  C595  1  0.920700  0.480900  0.599000  1.0  0.176
  C  C596  1  0.977800  0.353000  0.636600  1.0  0.1744
  C  C597  1  0.936800  0.304900  0.536700  1.0  0.086
  C  C598  1  0.881900  0.399000  0.497600  1.0  0.0921
  C  C599  1  0.899800  0.819000  0.390100  1.0  0.0556
  C  C600  1  0.892600  0.808000  0.471000  1.0  0.0878
  C  C601  1  0.847000  0.739000  0.381000  1.0  -0.0266
  C  C602  1  0.947500  0.641900  0.462200  1.0  0.129
  C  C603  1  0.916300  0.695500  0.510500  1.0  0.0165
  C  C604  1  0.914500  0.697000  0.368100  1.0  0.0922
  C  C605  1  0.957800  0.776600  0.475900  1.0  0.1582
  C  C606  1  0.878200  0.622900  0.412700  1.0  0.1707
  C  C607  1  0.849700  0.638200  0.604800  1.0  0.1428
  C  C608  1  0.813000  0.652000  0.579200  1.0  -0.0913
  C  C609  1  0.797900  0.708000  0.545400  1.0  0.1228
  C  C610  1  0.822200  0.750000  0.536700  1.0  -0.2209
  C  C611  1  0.858900  0.731000  0.564500  1.0  0.1785
  C  C612  1  0.759400  0.724000  0.516500  1.0  -0.0667
  C  C613  1  0.951900  0.813900  0.630800  1.0  0.1349
  C  C614  1  0.953600  0.884400  0.642700  1.0  -0.1229
  C  C615  1  0.947600  0.907500  0.682400  1.0  0.0912
  C  C616  1  0.948500  0.856900  0.716600  1.0  -0.2057
  C  C617  1  0.945700  0.788200  0.700900  1.0  0.1796
  C  C618  1  0.948600  0.982000  0.694000  1.0  -0.0973
  C  C619  1  0.938300  0.177400  0.792000  1.0  0.1785
  C  C620  1  0.940700  0.106300  0.784500  1.0  -0.1692
  C  C621  1  0.943500  0.084300  0.741700  1.0  0.1218
  C  C622  1  0.953200  0.136400  0.718000  1.0  -0.1681
  C  C623  1  0.947500  0.205900  0.725000  1.0  0.1736
  C  C624  1  0.945700  0.008000  0.735000  1.0  -0.1388
  C  C625  1  0.849600  0.717000  0.229000  1.0  0.0498
  C  C626  1  0.811300  0.719000  0.201000  1.0  -0.0977
  C  C627  1  0.811200  0.614000  0.158000  1.0  -0.1289
  C  C628  1  0.849300  0.619000  0.185100  1.0  0.0459
  C  C629  1  0.791400  0.664000  0.168100  1.0  0.2725
  C  C630  1  0.747200  0.657000  0.136000  1.0  -0.0827
  C  C631  1  0.628300  0.656000  0.052200  1.0  0.157
  C  C632  1  0.666667  0.652000  0.077800  1.0  -0.2104
  C  C633  1  0.686900  0.663000  0.131200  1.0  0.09
  C  C634  1  0.667300  0.665000  0.157800  1.0  -0.1351
  C  C635  1  0.629100  0.671000  0.129700  1.0  0.1534
  C  C636  1  0.728000  0.661000  0.155000  1.0  -0.0415
  C  C637  1  0.850000  0.629000  0.240000  1.0  0.0654
  C  C638  1  0.812000  0.635000  0.218000  1.0  -0.0675
  C  C639  1  0.810800  0.688000  0.144300  1.0  -0.063
  C  C640  1  0.849100  0.691000  0.173000  1.0  0.0788
  C  C641  1  0.573200  0.874900  0.262000  1.0  0.136
  C  C642  1  0.604700  0.781000  0.227800  1.0  0.1959
  C  C643  1  0.635000  0.905600  0.262500  1.0  0.1811
  C  C644  1  0.553700  0.932300  0.119700  1.0  0.1513
  C  C645  1  0.524400  0.862800  0.168000  1.0  0.1264
  C  C646  1  0.577900  0.987200  0.206500  1.0  0.1688
  C  C647  1  0.565700  0.802500  0.132200  1.0  0.0967
  C  C648  1  0.621800  0.900300  0.169500  1.0  0.1677
  C  C649  1  0.592900  0.766000  0.913000  1.0  0.0768
  C  C650  1  0.633400  0.888000  0.930400  1.0  0.1097
  C  C651  1  0.573700  0.868100  0.843100  1.0  0.1596
  C  C652  1  0.547400  0.928900  0.947300  1.0  0.1168
  C  C653  1  0.579300  0.980900  0.901000  1.0  0.1761
  C  C654  1  0.522200  0.853000  0.863400  1.0  0.1744
  C  C655  1  0.563200  0.804900  0.963300  1.0  0.0869
  C  C656  1  0.618100  0.899000  0.002400  1.0  0.0928
  C  C657  1  0.600200  0.319000  0.109900  1.0  0.0572
  C  C658  1  0.607400  0.308000  0.029000  1.0  0.0876
  C  C659  1  0.653000  0.239000  0.119000  1.0  -0.0211
  C  C660  1  0.552500  0.141900  0.037800  1.0  0.1288
  C  C661  1  0.583700  0.195500  0.989500  1.0  0.0142
  C  C662  1  0.585500  0.197000  0.131900  1.0  0.0918
  C  C663  1  0.542200  0.276600  0.024100  1.0  0.159
  C  C664  1  0.621800  0.122900  0.087300  1.0  0.173
  C  C665  1  0.650300  0.138200  0.895200  1.0  0.1417
  C  C666  1  0.687000  0.152000  0.920800  1.0  -0.0926
  C  C667  1  0.702100  0.208000  0.954600  1.0  0.123
  C  C668  1  0.677800  0.250000  0.963300  1.0  -0.2206
  C  C669  1  0.641100  0.231000  0.935500  1.0  0.1778
  C  C670  1  0.740600  0.224000  0.983500  1.0  -0.065
  C  C671  1  0.548100  0.313900  0.869200  1.0  0.1344
  C  C672  1  0.546400  0.384400  0.857300  1.0  -0.123
  C  C673  1  0.552400  0.407500  0.817600  1.0  0.0892
  C  C674  1  0.551500  0.356900  0.783400  1.0  -0.2062
  C  C675  1  0.554300  0.288200  0.799100  1.0  0.1791
  C  C676  1  0.551400  0.482000  0.806000  1.0  -0.0967
  C  C677  1  0.561700  0.677400  0.708000  1.0  0.178
  C  C678  1  0.559300  0.606300  0.715500  1.0  -0.1679
  C  C679  1  0.556500  0.584300  0.758300  1.0  0.1215
  C  C680  1  0.546800  0.636400  0.782000  1.0  -0.1659
  C  C681  1  0.552500  0.705900  0.775000  1.0  0.1735
  C  C682  1  0.554300  0.508000  0.765000  1.0  -0.1392
  C  C683  1  0.650400  0.217000  0.271000  1.0  0.0458
  C  C684  1  0.688700  0.219000  0.299000  1.0  -0.0981
  C  C685  1  0.688800  0.114000  0.342000  1.0  -0.1278
  C  C686  1  0.650700  0.119000  0.314900  1.0  0.0458
  C  C687  1  0.708600  0.164000  0.331900  1.0  0.2768
  C  C688  1  0.752800  0.157000  0.364000  1.0  -0.0789
  C  C689  1  0.871700  0.156000  0.447800  1.0  0.1588
  C  C690  1  0.833400  0.152000  0.422200  1.0  -0.2076
  C  C691  1  0.813100  0.163000  0.368800  1.0  0.0867
  C  C692  1  0.832700  0.165000  0.342200  1.0  -0.1376
  C  C693  1  0.870900  0.171000  0.370300  1.0  0.1559
  C  C694  1  0.772000  0.161000  0.345000  1.0  -0.0429
  C  C695  1  0.650000  0.129000  0.260000  1.0  0.0639
  C  C696  1  0.688000  0.135000  0.282000  1.0  -0.0688
  C  C697  1  0.689200  0.188000  0.355700  1.0  -0.0603
  C  C698  1  0.650900  0.191000  0.327000  1.0  0.0809
  C  C699  1  0.073200  0.374900  0.262000  1.0  0.136
  C  C700  1  0.104700  0.281000  0.227800  1.0  0.1959
  C  C701  1  0.135000  0.405600  0.262500  1.0  0.1811
  C  C702  1  0.053700  0.432300  0.119700  1.0  0.1513
  C  C703  1  0.024400  0.362800  0.168000  1.0  0.1264
  C  C704  1  0.077900  0.487200  0.206500  1.0  0.1688
  C  C705  1  0.065700  0.302500  0.132200  1.0  0.0967
  C  C706  1  0.121800  0.400300  0.169500  1.0  0.1677
  C  C707  1  0.092900  0.266000  0.913000  1.0  0.0768
  C  C708  1  0.133400  0.388000  0.930400  1.0  0.1097
  C  C709  1  0.073700  0.368100  0.843100  1.0  0.1596
  C  C710  1  0.047400  0.428900  0.947300  1.0  0.1168
  C  C711  1  0.079300  0.480900  0.901000  1.0  0.1761
  C  C712  1  0.022200  0.353000  0.863400  1.0  0.1744
  C  C713  1  0.063200  0.304900  0.963300  1.0  0.0869
  C  C714  1  0.118100  0.399000  0.002400  1.0  0.0929
  C  C715  1  0.100200  0.819000  0.109900  1.0  0.0572
  C  C716  1  0.107400  0.808000  0.029000  1.0  0.0876
  C  C717  1  0.153000  0.739000  0.119000  1.0  -0.0211
  C  C718  1  0.052500  0.641900  0.037800  1.0  0.1288
  C  C719  1  0.083700  0.695500  0.989500  1.0  0.0142
  C  C720  1  0.085500  0.697000  0.131900  1.0  0.0918
  C  C721  1  0.042200  0.776600  0.024100  1.0  0.159
  C  C722  1  0.121800  0.622900  0.087300  1.0  0.173
  C  C723  1  0.150300  0.638200  0.895200  1.0  0.1417
  C  C724  1  0.187000  0.652000  0.920800  1.0  -0.0926
  C  C725  1  0.202100  0.708000  0.954600  1.0  0.123
  C  C726  1  0.177800  0.750000  0.963300  1.0  -0.2206
  C  C727  1  0.141100  0.731000  0.935500  1.0  0.1778
  C  C728  1  0.240600  0.724000  0.983500  1.0  -0.065
  C  C729  1  0.048100  0.813900  0.869200  1.0  0.1344
  C  C730  1  0.046400  0.884400  0.857300  1.0  -0.123
  C  C731  1  0.052400  0.907500  0.817600  1.0  0.0892
  C  C732  1  0.051500  0.856900  0.783400  1.0  -0.2062
  C  C733  1  0.054300  0.788200  0.799100  1.0  0.1791
  C  C734  1  0.051400  0.982000  0.806000  1.0  -0.0967
  C  C735  1  0.061700  0.177400  0.708000  1.0  0.178
  C  C736  1  0.059300  0.106300  0.715500  1.0  -0.1679
  C  C737  1  0.056500  0.084300  0.758300  1.0  0.1215
  C  C738  1  0.046800  0.136400  0.782000  1.0  -0.1659
  C  C739  1  0.052500  0.205900  0.775000  1.0  0.1735
  C  C740  1  0.054300  0.008000  0.765000  1.0  -0.1392
  C  C741  1  0.150400  0.717000  0.271000  1.0  0.0458
  C  C742  1  0.188700  0.719000  0.299000  1.0  -0.0981
  C  C743  1  0.188800  0.614000  0.342000  1.0  -0.1278
  C  C744  1  0.150700  0.619000  0.314900  1.0  0.0458
  C  C745  1  0.208600  0.664000  0.331900  1.0  0.2768
  C  C746  1  0.252800  0.657000  0.364000  1.0  -0.0789
  C  C747  1  0.371700  0.656000  0.447800  1.0  0.1588
  C  C748  1  0.333400  0.652000  0.422200  1.0  -0.2076
  C  C749  1  0.313100  0.663000  0.368800  1.0  0.0867
  C  C750  1  0.332700  0.665000  0.342200  1.0  -0.1376
  C  C751  1  0.370900  0.671000  0.370300  1.0  0.1559
  C  C752  1  0.272000  0.661000  0.345000  1.0  -0.0429
  C  C753  1  0.150000  0.629000  0.260000  1.0  0.0639
  C  C754  1  0.188000  0.635000  0.282000  1.0  -0.0688
  C  C755  1  0.189200  0.688000  0.355700  1.0  -0.0603
  C  C756  1  0.150900  0.691000  0.327000  1.0  0.0809
  N  N757  1  0.567800  0.126300  0.795800  1.0  -0.4138
  N  N758  1  0.616200  0.275000  0.743400  1.0  -0.4129
  N  N759  1  0.663000  0.082700  0.799300  1.0  -0.4333
  N  N760  1  0.538700  0.041900  0.579500  1.0  -0.4056
  N  N761  1  0.494200  0.142300  0.657700  1.0  -0.419
  N  N762  1  0.574800  0.953700  0.715500  1.0  -0.3844
  N  N763  1  0.557400  0.240700  0.597600  1.0  -0.3912
  N  N764  1  0.642500  0.084000  0.655400  1.0  -0.4546
  N  N765  1  0.600700  0.296000  0.410400  1.0  -0.3419
  N  N766  1  0.663800  0.112000  0.437900  1.0  -0.4082
  N  N767  1  0.568300  0.132300  0.300600  1.0  -0.4523
  N  N768  1  0.532700  0.039200  0.465600  1.0  -0.4259
  N  N769  1  0.492000  0.154600  0.330300  1.0  -0.4088
  N  N770  1  0.554000  0.236500  0.485900  1.0  -0.435
  N  N771  1  0.637400  0.080600  0.545900  1.0  -0.4519
  N  N772  1  0.601100  0.626000  0.632800  1.0  -0.3705
  N  N773  1  0.626000  0.662000  0.516000  1.0  -0.3801
  N  N774  1  0.684000  0.764000  0.666000  1.0  -0.3
  N  N775  1  0.531300  0.899300  0.522100  1.0  -0.3897
  N  N776  1  0.576300  0.820000  0.660800  1.0  -0.3977
  N  N777  1  0.513100  0.700100  0.502200  1.0  -0.4808
  N  N778  1  0.636900  0.930700  0.597500  1.0  -0.433
  N  N779  1  0.627600  0.824400  0.405200  1.0  -0.3153
  N  N780  1  0.555100  0.735100  0.342500  1.0  -0.3407
  N  N781  1  0.562700  0.272500  0.240600  1.0  -0.3281
  N  N782  1  0.631100  0.833800  0.777800  1.0  -0.0807
  N  N783  1  0.890900  0.831700  0.923200  1.0  -0.3441
  N  N784  1  0.574600  0.843600  0.450700  1.0  -0.4615
  N  N785  1  0.576600  0.962800  0.388500  1.0  -0.3816
  N  N786  1  0.067800  0.626300  0.795800  1.0  -0.4138
  N  N787  1  0.116200  0.775000  0.743400  1.0  -0.4129
  N  N788  1  0.163000  0.582700  0.799300  1.0  -0.4333
  N  N789  1  0.038700  0.541900  0.579500  1.0  -0.4056
  N  N790  1  0.994200  0.642300  0.657700  1.0  -0.419
  N  N791  1  0.074800  0.453700  0.715500  1.0  -0.3844
  N  N792  1  0.057400  0.740700  0.597600  1.0  -0.3912
  N  N793  1  0.142500  0.584000  0.655400  1.0  -0.4546
  N  N794  1  0.100700  0.796000  0.410400  1.0  -0.3419
  N  N795  1  0.163800  0.612000  0.437900  1.0  -0.4082
  N  N796  1  0.068300  0.632300  0.300600  1.0  -0.4523
  N  N797  1  0.032700  0.539200  0.465600  1.0  -0.4259
  N  N798  1  0.992000  0.654600  0.330300  1.0  -0.4088
  N  N799  1  0.054000  0.736500  0.485900  1.0  -0.435
  N  N800  1  0.137400  0.580600  0.545900  1.0  -0.4519
  N  N801  1  0.101100  0.126000  0.632800  1.0  -0.3705
  N  N802  1  0.126000  0.162000  0.516000  1.0  -0.3801
  N  N803  1  0.184000  0.264000  0.666000  1.0  -0.3
  N  N804  1  0.031300  0.399300  0.522100  1.0  -0.3897
  N  N805  1  0.076300  0.320000  0.660800  1.0  -0.3977
  N  N806  1  0.013100  0.200100  0.502200  1.0  -0.4808
  N  N807  1  0.136900  0.430700  0.597500  1.0  -0.433
  N  N808  1  0.127600  0.324400  0.405200  1.0  -0.3153
  N  N809  1  0.055100  0.235100  0.342500  1.0  -0.3407
  N  N810  1  0.062700  0.772500  0.240600  1.0  -0.3281
  N  N811  1  0.131100  0.333800  0.777800  1.0  -0.0807
  N  N812  1  0.390900  0.331700  0.923200  1.0  -0.3441
  N  N813  1  0.074600  0.343600  0.450700  1.0  -0.4615
  N  N814  1  0.076600  0.462800  0.388500  1.0  -0.3816
  N  N815  1  0.432200  0.126300  0.704200  1.0  -0.4134
  N  N816  1  0.383800  0.275000  0.756600  1.0  -0.4123
  N  N817  1  0.337000  0.082700  0.700700  1.0  -0.4315
  N  N818  1  0.461300  0.041900  0.920500  1.0  -0.4041
  N  N819  1  0.505800  0.142300  0.842300  1.0  -0.4176
  N  N820  1  0.425200  0.953700  0.784500  1.0  -0.3826
  N  N821  1  0.442600  0.240700  0.902400  1.0  -0.3924
  N  N822  1  0.357500  0.084000  0.844600  1.0  -0.4551
  N  N823  1  0.399300  0.296000  0.089600  1.0  -0.3409
  N  N824  1  0.336200  0.112000  0.062100  1.0  -0.4075
  N  N825  1  0.431700  0.132300  0.199400  1.0  -0.4525
  N  N826  1  0.467300  0.039200  0.034400  1.0  -0.4238
  N  N827  1  0.508000  0.154600  0.169700  1.0  -0.4073
  N  N828  1  0.446000  0.236500  0.014100  1.0  -0.4334
  N  N829  1  0.362600  0.080600  0.954100  1.0  -0.4507
  N  N830  1  0.398900  0.626000  0.867200  1.0  -0.3707
  N  N831  1  0.374000  0.662000  0.984000  1.0  -0.3811
  N  N832  1  0.316000  0.764000  0.834000  1.0  -0.3012
  N  N833  1  0.468700  0.899300  0.977900  1.0  -0.3893
  N  N834  1  0.423700  0.820000  0.839200  1.0  -0.3977
  N  N835  1  0.486900  0.700100  0.997800  1.0  -0.4815
  N  N836  1  0.363100  0.930700  0.902500  1.0  -0.432
  N  N837  1  0.372400  0.824400  0.094800  1.0  -0.3171
  N  N838  1  0.444900  0.735100  0.157500  1.0  -0.3413
  N  N839  1  0.437300  0.272500  0.259400  1.0  -0.3281
  N  N840  1  0.368900  0.833800  0.722200  1.0  -0.0717
  N  N841  1  0.109100  0.831700  0.576800  1.0  -0.341
  N  N842  1  0.425400  0.843600  0.049300  1.0  -0.4631
  N  N843  1  0.423400  0.962800  0.111500  1.0  -0.3817
  N  N844  1  0.932200  0.626300  0.704200  1.0  -0.4134
  N  N845  1  0.883800  0.775000  0.756600  1.0  -0.4123
  N  N846  1  0.837000  0.582700  0.700700  1.0  -0.4315
  N  N847  1  0.961300  0.541900  0.920500  1.0  -0.4041
  N  N848  1  0.005800  0.642300  0.842300  1.0  -0.4176
  N  N849  1  0.925200  0.453700  0.784500  1.0  -0.3826
  N  N850  1  0.942600  0.740700  0.902400  1.0  -0.3924
  N  N851  1  0.857500  0.584000  0.844600  1.0  -0.4551
  N  N852  1  0.899300  0.796000  0.089600  1.0  -0.3409
  N  N853  1  0.836200  0.612000  0.062100  1.0  -0.4075
  N  N854  1  0.931700  0.632300  0.199400  1.0  -0.4525
  N  N855  1  0.967300  0.539200  0.034400  1.0  -0.4238
  N  N856  1  0.008000  0.654600  0.169700  1.0  -0.4073
  N  N857  1  0.946000  0.736500  0.014100  1.0  -0.4334
  N  N858  1  0.862600  0.580600  0.954100  1.0  -0.4507
  N  N859  1  0.898900  0.126000  0.867200  1.0  -0.3707
  N  N860  1  0.874000  0.162000  0.984000  1.0  -0.3811
  N  N861  1  0.816000  0.264000  0.834000  1.0  -0.3012
  N  N862  1  0.968700  0.399300  0.977900  1.0  -0.3893
  N  N863  1  0.923700  0.320000  0.839200  1.0  -0.3977
  N  N864  1  0.986900  0.200100  0.997800  1.0  -0.4815
  N  N865  1  0.863100  0.430700  0.902500  1.0  -0.432
  N  N866  1  0.872400  0.324400  0.094800  1.0  -0.3171
  N  N867  1  0.944900  0.235100  0.157500  1.0  -0.3413
  N  N868  1  0.937300  0.772500  0.259400  1.0  -0.3281
  N  N869  1  0.868900  0.333800  0.722200  1.0  -0.0717
  N  N870  1  0.609100  0.331700  0.576800  1.0  -0.341
  N  N871  1  0.925400  0.343600  0.049300  1.0  -0.4631
  N  N872  1  0.923400  0.462800  0.111500  1.0  -0.3817
  N  N873  1  0.432200  0.873700  0.204200  1.0  -0.4141
  N  N874  1  0.383800  0.725000  0.256600  1.0  -0.4107
  N  N875  1  0.337000  0.917300  0.200700  1.0  -0.4315
  N  N876  1  0.461300  0.958100  0.420500  1.0  -0.4053
  N  N877  1  0.505800  0.857700  0.342300  1.0  -0.4178
  N  N878  1  0.425200  0.046300  0.284500  1.0  -0.3834
  N  N879  1  0.442600  0.759300  0.402400  1.0  -0.3923
  N  N880  1  0.357500  0.916000  0.344600  1.0  -0.4555
  N  N881  1  0.399300  0.704000  0.589600  1.0  -0.3422
  N  N882  1  0.336200  0.888000  0.562100  1.0  -0.407
  N  N883  1  0.431700  0.867700  0.699400  1.0  -0.4541
  N  N884  1  0.467300  0.960800  0.534400  1.0  -0.4208
  N  N885  1  0.508000  0.845400  0.669700  1.0  -0.4075
  N  N886  1  0.446000  0.763500  0.514100  1.0  -0.4326
  N  N887  1  0.362600  0.919400  0.454100  1.0  -0.4509
  N  N888  1  0.398900  0.374000  0.367200  1.0  -0.3741
  N  N889  1  0.374000  0.338000  0.484000  1.0  -0.3815
  N  N890  1  0.316000  0.236000  0.334000  1.0  -0.3011
  N  N891  1  0.468700  0.100700  0.477900  1.0  -0.3879
  N  N892  1  0.423700  0.180000  0.339200  1.0  -0.3971
  N  N893  1  0.486900  0.299900  0.497800  1.0  -0.4839
  N  N894  1  0.363100  0.069300  0.402500  1.0  -0.4295
  N  N895  1  0.372400  0.175600  0.594800  1.0  -0.3167
  N  N896  1  0.444900  0.264900  0.657500  1.0  -0.3411
  N  N897  1  0.437300  0.727500  0.759400  1.0  -0.3281
  N  N898  1  0.368900  0.166200  0.222200  1.0  -0.0679
  N  N899  1  0.109100  0.168300  0.076800  1.0  -0.3407
  N  N900  1  0.425400  0.156400  0.549300  1.0  -0.4594
  N  N901  1  0.423400  0.037200  0.611500  1.0  -0.3813
  N  N902  1  0.932200  0.373700  0.204200  1.0  -0.4141
  N  N903  1  0.883800  0.225000  0.256600  1.0  -0.4107
  N  N904  1  0.837000  0.417300  0.200700  1.0  -0.4315
  N  N905  1  0.961300  0.458100  0.420500  1.0  -0.4053
  N  N906  1  0.005800  0.357700  0.342300  1.0  -0.4178
  N  N907  1  0.925200  0.546300  0.284500  1.0  -0.3834
  N  N908  1  0.942600  0.259300  0.402400  1.0  -0.3923
  N  N909  1  0.857500  0.416000  0.344600  1.0  -0.4555
  N  N910  1  0.899300  0.204000  0.589600  1.0  -0.3422
  N  N911  1  0.836200  0.388000  0.562100  1.0  -0.407
  N  N912  1  0.931700  0.367700  0.699400  1.0  -0.4541
  N  N913  1  0.967300  0.460800  0.534400  1.0  -0.4208
  N  N914  1  0.008000  0.345400  0.669700  1.0  -0.4075
  N  N915  1  0.946000  0.263500  0.514100  1.0  -0.4326
  N  N916  1  0.862600  0.419400  0.454100  1.0  -0.4509
  N  N917  1  0.898900  0.874000  0.367200  1.0  -0.3741
  N  N918  1  0.874000  0.838000  0.484000  1.0  -0.3815
  N  N919  1  0.816000  0.736000  0.334000  1.0  -0.3011
  N  N920  1  0.968700  0.600700  0.477900  1.0  -0.3879
  N  N921  1  0.923700  0.680000  0.339200  1.0  -0.3971
  N  N922  1  0.986900  0.799900  0.497800  1.0  -0.4839
  N  N923  1  0.863100  0.569300  0.402500  1.0  -0.4295
  N  N924  1  0.872400  0.675600  0.594800  1.0  -0.3167
  N  N925  1  0.944900  0.764900  0.657500  1.0  -0.3411
  N  N926  1  0.937300  0.227500  0.759400  1.0  -0.3281
  N  N927  1  0.868900  0.666200  0.222200  1.0  -0.0679
  N  N928  1  0.609100  0.668300  0.076800  1.0  -0.3407
  N  N929  1  0.925400  0.656400  0.549300  1.0  -0.4594
  N  N930  1  0.923400  0.537200  0.611500  1.0  -0.3813
  N  N931  1  0.567800  0.873700  0.295800  1.0  -0.4145
  N  N932  1  0.616200  0.725000  0.243400  1.0  -0.41
  N  N933  1  0.663000  0.917300  0.299300  1.0  -0.4333
  N  N934  1  0.538700  0.958100  0.079500  1.0  -0.4067
  N  N935  1  0.494200  0.857700  0.157700  1.0  -0.4195
  N  N936  1  0.574800  0.046300  0.215500  1.0  -0.3852
  N  N937  1  0.557400  0.759300  0.097600  1.0  -0.3889
  N  N938  1  0.642500  0.916000  0.155400  1.0  -0.4551
  N  N939  1  0.600700  0.704000  0.910400  1.0  -0.3418
  N  N940  1  0.663800  0.888000  0.937900  1.0  -0.4074
  N  N941  1  0.568300  0.867700  0.800600  1.0  -0.4528
  N  N942  1  0.532700  0.960800  0.965600  1.0  -0.4232
  N  N943  1  0.492000  0.845400  0.830300  1.0  -0.4085
  N  N944  1  0.554000  0.763500  0.985900  1.0  -0.4335
  N  N945  1  0.637400  0.919400  0.045900  1.0  -0.452
  N  N946  1  0.601100  0.374000  0.132800  1.0  -0.3736
  N  N947  1  0.626000  0.338000  0.016000  1.0  -0.3808
  N  N948  1  0.684000  0.236000  0.166000  1.0  -0.3002
  N  N949  1  0.531300  0.100700  0.022100  1.0  -0.3885
  N  N950  1  0.576300  0.180000  0.160800  1.0  -0.3978
  N  N951  1  0.513100  0.299900  0.002200  1.0  -0.4829
  N  N952  1  0.636900  0.069300  0.097500  1.0  -0.43
  N  N953  1  0.627600  0.175600  0.905200  1.0  -0.3156
  N  N954  1  0.555100  0.264900  0.842500  1.0  -0.3397
  N  N955  1  0.562700  0.727500  0.740600  1.0  -0.3281
  N  N956  1  0.631100  0.166200  0.277800  1.0  -0.0744
  N  N957  1  0.890900  0.168300  0.423200  1.0  -0.3434
  N  N958  1  0.574600  0.156400  0.950700  1.0  -0.4586
  N  N959  1  0.576600  0.037200  0.888500  1.0  -0.3821
  N  N960  1  0.067800  0.373700  0.295800  1.0  -0.4145
  N  N961  1  0.116200  0.225000  0.243400  1.0  -0.41
  N  N962  1  0.163000  0.417300  0.299300  1.0  -0.4333
  N  N963  1  0.038700  0.458100  0.079500  1.0  -0.4067
  N  N964  1  0.994200  0.357700  0.157700  1.0  -0.4195
  N  N965  1  0.074800  0.546300  0.215500  1.0  -0.3852
  N  N966  1  0.057400  0.259300  0.097600  1.0  -0.3889
  N  N967  1  0.142500  0.416000  0.155400  1.0  -0.4551
  N  N968  1  0.100700  0.204000  0.910400  1.0  -0.3418
  N  N969  1  0.163800  0.388000  0.937900  1.0  -0.4074
  N  N970  1  0.068300  0.367700  0.800600  1.0  -0.4528
  N  N971  1  0.032700  0.460800  0.965600  1.0  -0.4232
  N  N972  1  0.992000  0.345400  0.830300  1.0  -0.4085
  N  N973  1  0.054000  0.263500  0.985900  1.0  -0.4335
  N  N974  1  0.137400  0.419400  0.045900  1.0  -0.452
  N  N975  1  0.101100  0.874000  0.132800  1.0  -0.3736
  N  N976  1  0.126000  0.838000  0.016000  1.0  -0.3808
  N  N977  1  0.184000  0.736000  0.166000  1.0  -0.3002
  N  N978  1  0.031300  0.600700  0.022100  1.0  -0.3885
  N  N979  1  0.076300  0.680000  0.160800  1.0  -0.3978
  N  N980  1  0.013100  0.799900  0.002200  1.0  -0.4829
  N  N981  1  0.136900  0.569300  0.097500  1.0  -0.43
  N  N982  1  0.127600  0.675600  0.905200  1.0  -0.3156
  N  N983  1  0.055100  0.764900  0.842500  1.0  -0.3397
  N  N984  1  0.062700  0.227500  0.740600  1.0  -0.3281
  N  N985  1  0.131100  0.666200  0.277800  1.0  -0.0744
  N  N986  1  0.390900  0.668300  0.423200  1.0  -0.3434
  N  N987  1  0.074600  0.656400  0.950700  1.0  -0.4586
  N  N988  1  0.076600  0.537200  0.888500  1.0  -0.3821
