# generated using pymatgen
data_U2H33(C11O2)6
_symmetry_space_group_name_H-M   'P 1'
_cell_length_a   55.05750000
_cell_length_b   55.05750000
_cell_length_c   55.05750000
_cell_angle_alpha   90.00000000
_cell_angle_beta   90.00000000
_cell_angle_gamma   90.00000000
_symmetry_Int_Tables_number   1
_chemical_formula_structural   U2H33(C11O2)6
_chemical_formula_sum   'U32 H528 C1056 O192'
_cell_volume   166897.35822136
_cell_formula_units_Z   16
loop_
 _symmetry_equiv_pos_site_id
 _symmetry_equiv_pos_as_xyz
  1  'x, y, z'
loop_
 _atom_site_type_symbol
 _atom_site_label
 _atom_site_symmetry_multiplicity
 _atom_site_fract_x
 _atom_site_fract_y
 _atom_site_fract_z
 _atom_site_occupancy
 _atom_site_charge
  U  U1  1  0.651500  0.651500  0.348500  1.0  1.8679
  U  U2  1  0.651500  0.151500  0.848500  1.0  1.873
  U  U3  1  0.151500  0.651500  0.848500  1.0  1.873
  U  U4  1  0.151500  0.151500  0.348500  1.0  1.8679
  U  U5  1  0.348500  0.348500  0.348500  1.0  1.8681
  U  U6  1  0.348500  0.848500  0.848500  1.0  1.872
  U  U7  1  0.848500  0.348500  0.848500  1.0  1.872
  U  U8  1  0.848500  0.848500  0.348500  1.0  1.872
  U  U9  1  0.348500  0.651500  0.651500  1.0  1.8681
  U  U10  1  0.348500  0.151500  0.151500  1.0  1.8681
  U  U11  1  0.848500  0.651500  0.151500  1.0  1.8731
  U  U12  1  0.848500  0.151500  0.651500  1.0  1.8731
  U  U13  1  0.651500  0.348500  0.651500  1.0  1.8676
  U  U14  1  0.651500  0.848500  0.151500  1.0  1.8727
  U  U15  1  0.151500  0.348500  0.151500  1.0  1.8676
  U  U16  1  0.151500  0.848500  0.651500  1.0  1.8727
  U  U17  1  0.651500  0.651500  0.651500  1.0  1.8677
  U  U18  1  0.651500  0.151500  0.151500  1.0  1.8677
  U  U19  1  0.151500  0.651500  0.151500  1.0  1.8677
  U  U20  1  0.151500  0.151500  0.651500  1.0  1.8677
  U  U21  1  0.348500  0.348500  0.651500  1.0  1.8681
  U  U22  1  0.348500  0.848500  0.151500  1.0  1.8731
  U  U23  1  0.848500  0.348500  0.151500  1.0  1.8731
  U  U24  1  0.848500  0.848500  0.651500  1.0  1.8719
  U  U25  1  0.651500  0.348500  0.348500  1.0  1.8676
  U  U26  1  0.651500  0.848500  0.848500  1.0  1.8716
  U  U27  1  0.151500  0.348500  0.848500  1.0  1.8727
  U  U28  1  0.151500  0.848500  0.348500  1.0  1.8727
  U  U29  1  0.348500  0.651500  0.348500  1.0  1.8684
  U  U30  1  0.348500  0.151500  0.848500  1.0  1.8734
  U  U31  1  0.848500  0.651500  0.848500  1.0  1.8723
  U  U32  1  0.848500  0.151500  0.348500  1.0  1.8734
  H  H33  1  0.711100  0.660900  0.415700  1.0  0.0971
  H  H34  1  0.728700  0.678300  0.449000  1.0  0.0991
  H  H35  1  0.711100  0.160900  0.915700  1.0  0.0971
  H  H36  1  0.728700  0.178300  0.949000  1.0  0.0991
  H  H37  1  0.211100  0.660900  0.915700  1.0  0.0971
  H  H38  1  0.228700  0.678300  0.949000  1.0  0.0991
  H  H39  1  0.211100  0.160900  0.415700  1.0  0.0971
  H  H40  1  0.228700  0.178300  0.449000  1.0  0.0991
  H  H41  1  0.288900  0.339100  0.415700  1.0  0.0976
  H  H42  1  0.271300  0.321700  0.449000  1.0  0.0993
  H  H43  1  0.288900  0.839100  0.915700  1.0  0.0976
  H  H44  1  0.271300  0.821700  0.949000  1.0  0.0993
  H  H45  1  0.788900  0.339100  0.915700  1.0  0.0976
  H  H46  1  0.771300  0.321700  0.949000  1.0  0.0993
  H  H47  1  0.788900  0.839100  0.415700  1.0  0.0976
  H  H48  1  0.771300  0.821700  0.449000  1.0  0.0993
  H  H49  1  0.288900  0.660900  0.584300  1.0  0.0972
  H  H50  1  0.271300  0.678300  0.551000  1.0  0.101
  H  H51  1  0.288900  0.160900  0.084300  1.0  0.0972
  H  H52  1  0.271300  0.178300  0.051000  1.0  0.101
  H  H53  1  0.788900  0.660900  0.084300  1.0  0.0972
  H  H54  1  0.771300  0.678300  0.051000  1.0  0.101
  H  H55  1  0.788900  0.160900  0.584300  1.0  0.0972
  H  H56  1  0.771300  0.178300  0.551000  1.0  0.101
  H  H57  1  0.711100  0.339100  0.584300  1.0  0.0971
  H  H58  1  0.728700  0.321700  0.551000  1.0  0.1006
  H  H59  1  0.711100  0.839100  0.084300  1.0  0.0971
  H  H60  1  0.728700  0.821700  0.051000  1.0  0.1006
  H  H61  1  0.211100  0.339100  0.084300  1.0  0.0971
  H  H62  1  0.228700  0.321700  0.051000  1.0  0.1006
  H  H63  1  0.211100  0.839100  0.584300  1.0  0.0971
  H  H64  1  0.228700  0.821700  0.551000  1.0  0.1006
  H  H65  1  0.415700  0.711100  0.660900  1.0  0.0968
  H  H66  1  0.449000  0.728700  0.678300  1.0  0.0989
  H  H67  1  0.415700  0.211100  0.160900  1.0  0.0968
  H  H68  1  0.449000  0.228700  0.178300  1.0  0.0989
  H  H69  1  0.915700  0.711100  0.160900  1.0  0.0968
  H  H70  1  0.949000  0.728700  0.178300  1.0  0.0989
  H  H71  1  0.915700  0.211100  0.660900  1.0  0.0968
  H  H72  1  0.949000  0.228700  0.678300  1.0  0.0989
  H  H73  1  0.415700  0.288900  0.339100  1.0  0.0974
  H  H74  1  0.449000  0.271300  0.321700  1.0  0.0991
  H  H75  1  0.415700  0.788900  0.839100  1.0  0.0974
  H  H76  1  0.449000  0.771300  0.821700  1.0  0.0991
  H  H77  1  0.915700  0.288900  0.839100  1.0  0.0974
  H  H78  1  0.949000  0.271300  0.821700  1.0  0.0991
  H  H79  1  0.915700  0.788900  0.339100  1.0  0.0974
  H  H80  1  0.949000  0.771300  0.321700  1.0  0.0991
  H  H81  1  0.584300  0.288900  0.660900  1.0  0.097
  H  H82  1  0.551000  0.271300  0.678300  1.0  0.1007
  H  H83  1  0.584300  0.788900  0.160900  1.0  0.097
  H  H84  1  0.551000  0.771300  0.178300  1.0  0.1007
  H  H85  1  0.084300  0.288900  0.160900  1.0  0.097
  H  H86  1  0.051000  0.271300  0.178300  1.0  0.1007
  H  H87  1  0.084300  0.788900  0.660900  1.0  0.097
  H  H88  1  0.051000  0.771300  0.678300  1.0  0.1007
  H  H89  1  0.584300  0.711100  0.339100  1.0  0.0971
  H  H90  1  0.551000  0.728700  0.321700  1.0  0.1003
  H  H91  1  0.584300  0.211100  0.839100  1.0  0.0971
  H  H92  1  0.551000  0.228700  0.821700  1.0  0.1003
  H  H93  1  0.084300  0.711100  0.839100  1.0  0.0971
  H  H94  1  0.051000  0.728700  0.821700  1.0  0.1003
  H  H95  1  0.084300  0.211100  0.339100  1.0  0.0971
  H  H96  1  0.051000  0.228700  0.321700  1.0  0.1003
  H  H97  1  0.660900  0.415700  0.711100  1.0  0.0972
  H  H98  1  0.678300  0.449000  0.728700  1.0  0.0984
  H  H99  1  0.660900  0.915700  0.211100  1.0  0.0972
  H  H100  1  0.678300  0.949000  0.228700  1.0  0.0984
  H  H101  1  0.160900  0.415700  0.211100  1.0  0.0972
  H  H102  1  0.178300  0.449000  0.228700  1.0  0.0984
  H  H103  1  0.160900  0.915700  0.711100  1.0  0.0972
  H  H104  1  0.178300  0.949000  0.728700  1.0  0.0984
  H  H105  1  0.339100  0.415700  0.288900  1.0  0.0974
  H  H106  1  0.321700  0.449000  0.271300  1.0  0.0995
  H  H107  1  0.339100  0.915700  0.788900  1.0  0.0974
  H  H108  1  0.321700  0.949000  0.771300  1.0  0.0995
  H  H109  1  0.839100  0.415700  0.788900  1.0  0.0974
  H  H110  1  0.821700  0.449000  0.771300  1.0  0.0995
  H  H111  1  0.839100  0.915700  0.288900  1.0  0.0974
  H  H112  1  0.821700  0.949000  0.271300  1.0  0.0995
  H  H113  1  0.660900  0.584300  0.288900  1.0  0.0969
  H  H114  1  0.678300  0.551000  0.271300  1.0  0.0992
  H  H115  1  0.660900  0.084300  0.788900  1.0  0.0969
  H  H116  1  0.678300  0.051000  0.771300  1.0  0.0992
  H  H117  1  0.160900  0.584300  0.788900  1.0  0.0969
  H  H118  1  0.178300  0.551000  0.771300  1.0  0.0992
  H  H119  1  0.160900  0.084300  0.288900  1.0  0.0969
  H  H120  1  0.178300  0.051000  0.271300  1.0  0.0992
  H  H121  1  0.339100  0.584300  0.711100  1.0  0.0974
  H  H122  1  0.321700  0.551000  0.728700  1.0  0.0996
  H  H123  1  0.339100  0.084300  0.211100  1.0  0.0974
  H  H124  1  0.321700  0.051000  0.228700  1.0  0.0996
  H  H125  1  0.839100  0.584300  0.211100  1.0  0.0974
  H  H126  1  0.821700  0.551000  0.228700  1.0  0.0996
  H  H127  1  0.839100  0.084300  0.711100  1.0  0.0974
  H  H128  1  0.821700  0.051000  0.728700  1.0  0.0996
  H  H129  1  0.660900  0.711100  0.584300  1.0  0.0969
  H  H130  1  0.678300  0.728700  0.551000  1.0  0.1008
  H  H131  1  0.660900  0.211100  0.084300  1.0  0.0969
  H  H132  1  0.678300  0.228700  0.051000  1.0  0.1008
  H  H133  1  0.160900  0.711100  0.084300  1.0  0.0969
  H  H134  1  0.178300  0.728700  0.051000  1.0  0.1008
  H  H135  1  0.160900  0.211100  0.584300  1.0  0.0969
  H  H136  1  0.178300  0.228700  0.551000  1.0  0.1008
  H  H137  1  0.339100  0.288900  0.584300  1.0  0.0974
  H  H138  1  0.321700  0.271300  0.551000  1.0  0.1013
  H  H139  1  0.339100  0.788900  0.084300  1.0  0.0974
  H  H140  1  0.321700  0.771300  0.051000  1.0  0.1013
  H  H141  1  0.839100  0.288900  0.084300  1.0  0.0974
  H  H142  1  0.821700  0.271300  0.051000  1.0  0.1013
  H  H143  1  0.839100  0.788900  0.584300  1.0  0.0974
  H  H144  1  0.821700  0.771300  0.551000  1.0  0.1013
  H  H145  1  0.660900  0.288900  0.415700  1.0  0.0968
  H  H146  1  0.678300  0.271300  0.449000  1.0  0.099
  H  H147  1  0.660900  0.788900  0.915700  1.0  0.0968
  H  H148  1  0.678300  0.771300  0.949000  1.0  0.099
  H  H149  1  0.160900  0.288900  0.915700  1.0  0.0968
  H  H150  1  0.178300  0.271300  0.949000  1.0  0.099
  H  H151  1  0.160900  0.788900  0.415700  1.0  0.0968
  H  H152  1  0.178300  0.771300  0.449000  1.0  0.099
  H  H153  1  0.339100  0.711100  0.415700  1.0  0.0975
  H  H154  1  0.321700  0.728700  0.449000  1.0  0.099
  H  H155  1  0.339100  0.211100  0.915700  1.0  0.0975
  H  H156  1  0.321700  0.228700  0.949000  1.0  0.099
  H  H157  1  0.839100  0.711100  0.915700  1.0  0.0975
  H  H158  1  0.821700  0.728700  0.949000  1.0  0.099
  H  H159  1  0.839100  0.211100  0.415700  1.0  0.0975
  H  H160  1  0.821700  0.228700  0.449000  1.0  0.099
  H  H161  1  0.711100  0.415700  0.339100  1.0  0.0968
  H  H162  1  0.728700  0.449000  0.321700  1.0  0.098
  H  H163  1  0.711100  0.915700  0.839100  1.0  0.0968
  H  H164  1  0.728700  0.949000  0.821700  1.0  0.098
  H  H165  1  0.211100  0.415700  0.839100  1.0  0.0968
  H  H166  1  0.228700  0.449000  0.821700  1.0  0.098
  H  H167  1  0.211100  0.915700  0.339100  1.0  0.0968
  H  H168  1  0.228700  0.949000  0.321700  1.0  0.098
  H  H169  1  0.288900  0.415700  0.660900  1.0  0.0971
  H  H170  1  0.271300  0.449000  0.678300  1.0  0.0995
  H  H171  1  0.288900  0.915700  0.160900  1.0  0.0971
  H  H172  1  0.271300  0.949000  0.178300  1.0  0.0995
  H  H173  1  0.788900  0.415700  0.160900  1.0  0.0971
  H  H174  1  0.771300  0.449000  0.178300  1.0  0.0995
  H  H175  1  0.788900  0.915700  0.660900  1.0  0.0971
  H  H176  1  0.771300  0.949000  0.678300  1.0  0.0995
  H  H177  1  0.288900  0.584300  0.339100  1.0  0.0971
  H  H178  1  0.271300  0.551000  0.321700  1.0  0.1011
  H  H179  1  0.288900  0.084300  0.839100  1.0  0.0971
  H  H180  1  0.271300  0.051000  0.821700  1.0  0.1011
  H  H181  1  0.788900  0.584300  0.839100  1.0  0.0971
  H  H182  1  0.771300  0.551000  0.821700  1.0  0.1011
  H  H183  1  0.788900  0.084300  0.339100  1.0  0.0971
  H  H184  1  0.771300  0.051000  0.321700  1.0  0.1011
  H  H185  1  0.711100  0.584300  0.660900  1.0  0.0971
  H  H186  1  0.728700  0.551000  0.678300  1.0  0.101
  H  H187  1  0.711100  0.084300  0.160900  1.0  0.0971
  H  H188  1  0.728700  0.051000  0.178300  1.0  0.101
  H  H189  1  0.211100  0.584300  0.160900  1.0  0.0971
  H  H190  1  0.228700  0.551000  0.178300  1.0  0.101
  H  H191  1  0.211100  0.084300  0.660900  1.0  0.0971
  H  H192  1  0.228700  0.051000  0.678300  1.0  0.101
  H  H193  1  0.415700  0.660900  0.288900  1.0  0.0972
  H  H194  1  0.449000  0.678300  0.271300  1.0  0.0988
  H  H195  1  0.415700  0.160900  0.788900  1.0  0.0972
  H  H196  1  0.449000  0.178300  0.771300  1.0  0.0988
  H  H197  1  0.915700  0.660900  0.788900  1.0  0.0972
  H  H198  1  0.949000  0.678300  0.771300  1.0  0.0988
  H  H199  1  0.915700  0.160900  0.288900  1.0  0.0972
  H  H200  1  0.949000  0.178300  0.271300  1.0  0.0988
  H  H201  1  0.415700  0.339100  0.711100  1.0  0.098
  H  H202  1  0.449000  0.321700  0.728700  1.0  0.0977
  H  H203  1  0.415700  0.839100  0.211100  1.0  0.098
  H  H204  1  0.449000  0.821700  0.228700  1.0  0.0977
  H  H205  1  0.915700  0.339100  0.211100  1.0  0.098
  H  H206  1  0.949000  0.321700  0.228700  1.0  0.0977
  H  H207  1  0.915700  0.839100  0.711100  1.0  0.098
  H  H208  1  0.949000  0.821700  0.728700  1.0  0.0977
  H  H209  1  0.584300  0.660900  0.711100  1.0  0.0976
  H  H210  1  0.551000  0.678300  0.728700  1.0  0.0998
  H  H211  1  0.584300  0.160900  0.211100  1.0  0.0976
  H  H212  1  0.551000  0.178300  0.228700  1.0  0.0998
  H  H213  1  0.084300  0.660900  0.211100  1.0  0.0976
  H  H214  1  0.051000  0.678300  0.228700  1.0  0.0998
  H  H215  1  0.084300  0.160900  0.711100  1.0  0.0976
  H  H216  1  0.051000  0.178300  0.728700  1.0  0.0998
  H  H217  1  0.584300  0.339100  0.288900  1.0  0.0974
  H  H218  1  0.551000  0.321700  0.271300  1.0  0.1003
  H  H219  1  0.584300  0.839100  0.788900  1.0  0.0974
  H  H220  1  0.551000  0.821700  0.771300  1.0  0.1003
  H  H221  1  0.084300  0.339100  0.788900  1.0  0.0974
  H  H222  1  0.051000  0.321700  0.771300  1.0  0.1003
  H  H223  1  0.084300  0.839100  0.288900  1.0  0.0974
  H  H224  1  0.051000  0.821700  0.271300  1.0  0.1003
  H  H225  1  0.288900  0.339100  0.584300  1.0  0.0979
  H  H226  1  0.271300  0.321700  0.551000  1.0  0.1011
  H  H227  1  0.288900  0.839100  0.084300  1.0  0.0979
  H  H228  1  0.271300  0.821700  0.051000  1.0  0.1011
  H  H229  1  0.788900  0.339100  0.084300  1.0  0.0979
  H  H230  1  0.771300  0.321700  0.051000  1.0  0.1011
  H  H231  1  0.788900  0.839100  0.584300  1.0  0.0979
  H  H232  1  0.771300  0.821700  0.551000  1.0  0.1011
  H  H233  1  0.711100  0.660900  0.584300  1.0  0.0972
  H  H234  1  0.728700  0.678300  0.551000  1.0  0.1004
  H  H235  1  0.711100  0.160900  0.084300  1.0  0.0972
  H  H236  1  0.728700  0.178300  0.051000  1.0  0.1004
  H  H237  1  0.211100  0.660900  0.084300  1.0  0.0972
  H  H238  1  0.228700  0.678300  0.051000  1.0  0.1004
  H  H239  1  0.211100  0.160900  0.584300  1.0  0.0972
  H  H240  1  0.228700  0.178300  0.551000  1.0  0.1004
  H  H241  1  0.711100  0.339100  0.415700  1.0  0.0971
  H  H242  1  0.728700  0.321700  0.449000  1.0  0.0992
  H  H243  1  0.711100  0.839100  0.915700  1.0  0.0971
  H  H244  1  0.728700  0.821700  0.949000  1.0  0.0992
  H  H245  1  0.211100  0.339100  0.915700  1.0  0.0971
  H  H246  1  0.228700  0.321700  0.949000  1.0  0.0992
  H  H247  1  0.211100  0.839100  0.415700  1.0  0.0971
  H  H248  1  0.228700  0.821700  0.449000  1.0  0.0992
  H  H249  1  0.288900  0.660900  0.415700  1.0  0.0967
  H  H250  1  0.271300  0.678300  0.449000  1.0  0.0988
  H  H251  1  0.288900  0.160900  0.915700  1.0  0.0967
  H  H252  1  0.271300  0.178300  0.949000  1.0  0.0988
  H  H253  1  0.788900  0.660900  0.915700  1.0  0.0967
  H  H254  1  0.771300  0.678300  0.949000  1.0  0.0988
  H  H255  1  0.788900  0.160900  0.415700  1.0  0.0967
  H  H256  1  0.771300  0.178300  0.449000  1.0  0.0988
  H  H257  1  0.584300  0.288900  0.339100  1.0  0.0973
  H  H258  1  0.551000  0.271300  0.321700  1.0  0.1006
  H  H259  1  0.584300  0.788900  0.839100  1.0  0.0973
  H  H260  1  0.551000  0.771300  0.821700  1.0  0.1006
  H  H261  1  0.084300  0.288900  0.839100  1.0  0.0973
  H  H262  1  0.051000  0.271300  0.821700  1.0  0.1006
  H  H263  1  0.084300  0.788900  0.339100  1.0  0.0973
  H  H264  1  0.051000  0.771300  0.321700  1.0  0.1006
  H  H265  1  0.584300  0.711100  0.660900  1.0  0.0971
  H  H266  1  0.551000  0.728700  0.678300  1.0  0.101
  H  H267  1  0.584300  0.211100  0.160900  1.0  0.0971
  H  H268  1  0.551000  0.228700  0.178300  1.0  0.101
  H  H269  1  0.084300  0.711100  0.160900  1.0  0.0971
  H  H270  1  0.051000  0.728700  0.178300  1.0  0.101
  H  H271  1  0.084300  0.211100  0.660900  1.0  0.0971
  H  H272  1  0.051000  0.228700  0.678300  1.0  0.101
  H  H273  1  0.415700  0.711100  0.339100  1.0  0.097
  H  H274  1  0.449000  0.728700  0.321700  1.0  0.0974
  H  H275  1  0.415700  0.211100  0.839100  1.0  0.097
  H  H276  1  0.449000  0.228700  0.821700  1.0  0.0974
  H  H277  1  0.915700  0.711100  0.839100  1.0  0.097
  H  H278  1  0.949000  0.728700  0.821700  1.0  0.0974
  H  H279  1  0.915700  0.211100  0.339100  1.0  0.097
  H  H280  1  0.949000  0.228700  0.321700  1.0  0.0974
  H  H281  1  0.415700  0.288900  0.660900  1.0  0.0968
  H  H282  1  0.449000  0.271300  0.678300  1.0  0.0991
  H  H283  1  0.415700  0.788900  0.160900  1.0  0.0968
  H  H284  1  0.449000  0.771300  0.178300  1.0  0.0991
  H  H285  1  0.915700  0.288900  0.160900  1.0  0.0968
  H  H286  1  0.949000  0.271300  0.178300  1.0  0.0991
  H  H287  1  0.915700  0.788900  0.660900  1.0  0.0968
  H  H288  1  0.949000  0.771300  0.678300  1.0  0.0991
  H  H289  1  0.339100  0.584300  0.288900  1.0  0.0976
  H  H290  1  0.321700  0.551000  0.271300  1.0  0.1008
  H  H291  1  0.339100  0.084300  0.788900  1.0  0.0976
  H  H292  1  0.321700  0.051000  0.771300  1.0  0.1008
  H  H293  1  0.839100  0.584300  0.788900  1.0  0.0976
  H  H294  1  0.821700  0.551000  0.771300  1.0  0.1008
  H  H295  1  0.839100  0.084300  0.288900  1.0  0.0976
  H  H296  1  0.821700  0.051000  0.271300  1.0  0.1008
  H  H297  1  0.660900  0.584300  0.711100  1.0  0.0969
  H  H298  1  0.678300  0.551000  0.728700  1.0  0.1001
  H  H299  1  0.660900  0.084300  0.211100  1.0  0.0969
  H  H300  1  0.678300  0.051000  0.228700  1.0  0.1001
  H  H301  1  0.160900  0.584300  0.211100  1.0  0.0969
  H  H302  1  0.178300  0.551000  0.228700  1.0  0.1001
  H  H303  1  0.160900  0.084300  0.711100  1.0  0.0969
  H  H304  1  0.178300  0.051000  0.728700  1.0  0.1001
  H  H305  1  0.339100  0.415700  0.711100  1.0  0.0976
  H  H306  1  0.321700  0.449000  0.728700  1.0  0.0977
  H  H307  1  0.339100  0.915700  0.211100  1.0  0.0976
  H  H308  1  0.321700  0.949000  0.228700  1.0  0.0977
  H  H309  1  0.839100  0.415700  0.211100  1.0  0.0976
  H  H310  1  0.821700  0.449000  0.228700  1.0  0.0977
  H  H311  1  0.839100  0.915700  0.711100  1.0  0.0976
  H  H312  1  0.821700  0.949000  0.728700  1.0  0.0977
  H  H313  1  0.660900  0.415700  0.288900  1.0  0.0969
  H  H314  1  0.678300  0.449000  0.271300  1.0  0.0974
  H  H315  1  0.660900  0.915700  0.788900  1.0  0.0969
  H  H316  1  0.678300  0.949000  0.771300  1.0  0.0974
  H  H317  1  0.160900  0.415700  0.788900  1.0  0.0969
  H  H318  1  0.178300  0.449000  0.771300  1.0  0.0974
  H  H319  1  0.160900  0.915700  0.288900  1.0  0.0969
  H  H320  1  0.178300  0.949000  0.271300  1.0  0.0974
  H  H321  1  0.339100  0.288900  0.415700  1.0  0.097
  H  H322  1  0.321700  0.271300  0.449000  1.0  0.0994
  H  H323  1  0.339100  0.788900  0.915700  1.0  0.097
  H  H324  1  0.321700  0.771300  0.949000  1.0  0.0994
  H  H325  1  0.839100  0.288900  0.915700  1.0  0.097
  H  H326  1  0.821700  0.271300  0.949000  1.0  0.0994
  H  H327  1  0.839100  0.788900  0.415700  1.0  0.097
  H  H328  1  0.821700  0.771300  0.449000  1.0  0.0994
  H  H329  1  0.660900  0.711100  0.415700  1.0  0.0969
  H  H330  1  0.678300  0.728700  0.449000  1.0  0.0991
  H  H331  1  0.660900  0.211100  0.915700  1.0  0.0969
  H  H332  1  0.678300  0.228700  0.949000  1.0  0.0991
  H  H333  1  0.160900  0.711100  0.915700  1.0  0.0969
  H  H334  1  0.178300  0.728700  0.949000  1.0  0.0991
  H  H335  1  0.160900  0.211100  0.415700  1.0  0.0969
  H  H336  1  0.178300  0.228700  0.449000  1.0  0.0991
  H  H337  1  0.339100  0.711100  0.584300  1.0  0.0973
  H  H338  1  0.321700  0.728700  0.551000  1.0  0.1009
  H  H339  1  0.339100  0.211100  0.084300  1.0  0.0973
  H  H340  1  0.321700  0.228700  0.051000  1.0  0.1009
  H  H341  1  0.839100  0.711100  0.084300  1.0  0.0973
  H  H342  1  0.821700  0.728700  0.051000  1.0  0.1009
  H  H343  1  0.839100  0.211100  0.584300  1.0  0.0973
  H  H344  1  0.821700  0.228700  0.551000  1.0  0.1009
  H  H345  1  0.660900  0.288900  0.584300  1.0  0.0974
  H  H346  1  0.678300  0.271300  0.551000  1.0  0.0992
  H  H347  1  0.660900  0.788900  0.084300  1.0  0.0974
  H  H348  1  0.678300  0.771300  0.051000  1.0  0.0992
  H  H349  1  0.160900  0.288900  0.084300  1.0  0.0974
  H  H350  1  0.178300  0.271300  0.051000  1.0  0.0992
  H  H351  1  0.160900  0.788900  0.584300  1.0  0.0974
  H  H352  1  0.178300  0.771300  0.551000  1.0  0.0992
  H  H353  1  0.288900  0.584300  0.660900  1.0  0.0968
  H  H354  1  0.271300  0.551000  0.678300  1.0  0.1008
  H  H355  1  0.288900  0.084300  0.160900  1.0  0.0968
  H  H356  1  0.271300  0.051000  0.178300  1.0  0.1008
  H  H357  1  0.788900  0.584300  0.160900  1.0  0.0968
  H  H358  1  0.771300  0.551000  0.178300  1.0  0.1008
  H  H359  1  0.788900  0.084300  0.660900  1.0  0.0968
  H  H360  1  0.771300  0.051000  0.678300  1.0  0.1008
  H  H361  1  0.711100  0.584300  0.339100  1.0  0.0965
  H  H362  1  0.728700  0.551000  0.321700  1.0  0.0999
  H  H363  1  0.711100  0.084300  0.839100  1.0  0.0965
  H  H364  1  0.728700  0.051000  0.821700  1.0  0.0999
  H  H365  1  0.211100  0.584300  0.839100  1.0  0.0965
  H  H366  1  0.228700  0.551000  0.821700  1.0  0.0999
  H  H367  1  0.211100  0.084300  0.339100  1.0  0.0965
  H  H368  1  0.228700  0.051000  0.321700  1.0  0.0999
  H  H369  1  0.711100  0.415700  0.660900  1.0  0.0973
  H  H370  1  0.728700  0.449000  0.678300  1.0  0.0996
  H  H371  1  0.711100  0.915700  0.160900  1.0  0.0973
  H  H372  1  0.728700  0.949000  0.178300  1.0  0.0996
  H  H373  1  0.211100  0.415700  0.160900  1.0  0.0973
  H  H374  1  0.228700  0.449000  0.178300  1.0  0.0996
  H  H375  1  0.211100  0.915700  0.660900  1.0  0.0973
  H  H376  1  0.228700  0.949000  0.678300  1.0  0.0996
  H  H377  1  0.288900  0.415700  0.339100  1.0  0.0976
  H  H378  1  0.271300  0.449000  0.321700  1.0  0.0975
  H  H379  1  0.288900  0.915700  0.839100  1.0  0.0976
  H  H380  1  0.271300  0.949000  0.821700  1.0  0.0975
  H  H381  1  0.788900  0.415700  0.839100  1.0  0.0976
  H  H382  1  0.771300  0.449000  0.821700  1.0  0.0975
  H  H383  1  0.788900  0.915700  0.339100  1.0  0.0976
  H  H384  1  0.771300  0.949000  0.321700  1.0  0.0975
  H  H385  1  0.584300  0.339100  0.711100  1.0  0.0977
  H  H386  1  0.551000  0.321700  0.728700  1.0  0.1
  H  H387  1  0.584300  0.839100  0.211100  1.0  0.0977
  H  H388  1  0.551000  0.821700  0.228700  1.0  0.1
  H  H389  1  0.084300  0.339100  0.211100  1.0  0.0977
  H  H390  1  0.051000  0.321700  0.228700  1.0  0.1
  H  H391  1  0.084300  0.839100  0.711100  1.0  0.0977
  H  H392  1  0.051000  0.821700  0.728700  1.0  0.1
  H  H393  1  0.584300  0.660900  0.288900  1.0  0.0975
  H  H394  1  0.551000  0.678300  0.271300  1.0  0.0998
  H  H395  1  0.584300  0.160900  0.788900  1.0  0.0975
  H  H396  1  0.551000  0.178300  0.771300  1.0  0.0998
  H  H397  1  0.084300  0.660900  0.788900  1.0  0.0975
  H  H398  1  0.051000  0.678300  0.771300  1.0  0.0998
  H  H399  1  0.084300  0.160900  0.288900  1.0  0.0975
  H  H400  1  0.051000  0.178300  0.271300  1.0  0.0998
  H  H401  1  0.415700  0.339100  0.288900  1.0  0.0976
  H  H402  1  0.449000  0.321700  0.271300  1.0  0.0976
  H  H403  1  0.415700  0.839100  0.788900  1.0  0.0976
  H  H404  1  0.449000  0.821700  0.771300  1.0  0.0976
  H  H405  1  0.915700  0.339100  0.788900  1.0  0.0976
  H  H406  1  0.949000  0.321700  0.771300  1.0  0.0976
  H  H407  1  0.915700  0.839100  0.288900  1.0  0.0976
  H  H408  1  0.949000  0.821700  0.271300  1.0  0.0976
  H  H409  1  0.415700  0.660900  0.711100  1.0  0.0975
  H  H410  1  0.449000  0.678300  0.728700  1.0  0.0974
  H  H411  1  0.415700  0.160900  0.211100  1.0  0.0975
  H  H412  1  0.449000  0.178300  0.228700  1.0  0.0974
  H  H413  1  0.915700  0.660900  0.211100  1.0  0.0975
  H  H414  1  0.949000  0.678300  0.228700  1.0  0.0974
  H  H415  1  0.915700  0.160900  0.711100  1.0  0.0975
  H  H416  1  0.949000  0.178300  0.728700  1.0  0.0974
  H  H417  1  0.735400  0.735400  0.439700  1.0  0.0885
  H  H418  1  0.735400  0.235400  0.939700  1.0  0.0885
  H  H419  1  0.235400  0.735400  0.939700  1.0  0.0885
  H  H420  1  0.235400  0.235400  0.439700  1.0  0.0885
  H  H421  1  0.264600  0.264600  0.439700  1.0  0.0885
  H  H422  1  0.264600  0.764600  0.939700  1.0  0.0885
  H  H423  1  0.764600  0.264600  0.939700  1.0  0.0885
  H  H424  1  0.764600  0.764600  0.439700  1.0  0.0885
  H  H425  1  0.264600  0.735400  0.560300  1.0  0.0873
  H  H426  1  0.264600  0.235400  0.060300  1.0  0.0873
  H  H427  1  0.764600  0.735400  0.060300  1.0  0.0873
  H  H428  1  0.764600  0.235400  0.560300  1.0  0.0873
  H  H429  1  0.735400  0.264600  0.560300  1.0  0.0875
  H  H430  1  0.735400  0.764600  0.060300  1.0  0.0875
  H  H431  1  0.235400  0.264600  0.060300  1.0  0.0875
  H  H432  1  0.235400  0.764600  0.560300  1.0  0.0875
  H  H433  1  0.439700  0.735400  0.735400  1.0  0.0866
  H  H434  1  0.439700  0.235400  0.235400  1.0  0.0866
  H  H435  1  0.939700  0.735400  0.235400  1.0  0.0866
  H  H436  1  0.939700  0.235400  0.735400  1.0  0.0866
  H  H437  1  0.439700  0.264600  0.264600  1.0  0.0868
  H  H438  1  0.439700  0.764600  0.764600  1.0  0.0868
  H  H439  1  0.939700  0.264600  0.764600  1.0  0.0868
  H  H440  1  0.939700  0.764600  0.264600  1.0  0.0868
  H  H441  1  0.560300  0.264600  0.735400  1.0  0.0872
  H  H442  1  0.560300  0.764600  0.235400  1.0  0.0872
  H  H443  1  0.060300  0.264600  0.235400  1.0  0.0872
  H  H444  1  0.060300  0.764600  0.735400  1.0  0.0872
  H  H445  1  0.560300  0.735400  0.264600  1.0  0.0871
  H  H446  1  0.560300  0.235400  0.764600  1.0  0.0871
  H  H447  1  0.060300  0.735400  0.764600  1.0  0.0871
  H  H448  1  0.060300  0.235400  0.264600  1.0  0.0871
  H  H449  1  0.735400  0.439700  0.735400  1.0  0.0883
  H  H450  1  0.735400  0.939700  0.235400  1.0  0.0883
  H  H451  1  0.235400  0.439700  0.235400  1.0  0.0883
  H  H452  1  0.235400  0.939700  0.735400  1.0  0.0883
  H  H453  1  0.264600  0.439700  0.264600  1.0  0.0881
  H  H454  1  0.264600  0.939700  0.764600  1.0  0.0881
  H  H455  1  0.764600  0.439700  0.764600  1.0  0.0881
  H  H456  1  0.764600  0.939700  0.264600  1.0  0.0881
  H  H457  1  0.735400  0.560300  0.264600  1.0  0.0874
  H  H458  1  0.735400  0.060300  0.764600  1.0  0.0874
  H  H459  1  0.235400  0.560300  0.764600  1.0  0.0874
  H  H460  1  0.235400  0.060300  0.264600  1.0  0.0874
  H  H461  1  0.264600  0.560300  0.735400  1.0  0.0872
  H  H462  1  0.264600  0.060300  0.235400  1.0  0.0872
  H  H463  1  0.764600  0.560300  0.235400  1.0  0.0872
  H  H464  1  0.764600  0.060300  0.735400  1.0  0.0872
  H  H465  1  0.735400  0.735400  0.560300  1.0  0.0873
  H  H466  1  0.735400  0.235400  0.060300  1.0  0.0873
  H  H467  1  0.235400  0.735400  0.060300  1.0  0.0873
  H  H468  1  0.235400  0.235400  0.560300  1.0  0.0873
  H  H469  1  0.264600  0.264600  0.560300  1.0  0.0874
  H  H470  1  0.264600  0.764600  0.060300  1.0  0.0874
  H  H471  1  0.764600  0.264600  0.060300  1.0  0.0874
  H  H472  1  0.764600  0.764600  0.560300  1.0  0.0874
  H  H473  1  0.735400  0.264600  0.439700  1.0  0.0888
  H  H474  1  0.735400  0.764600  0.939700  1.0  0.0888
  H  H475  1  0.235400  0.264600  0.939700  1.0  0.0888
  H  H476  1  0.235400  0.764600  0.439700  1.0  0.0888
  H  H477  1  0.264600  0.735400  0.439700  1.0  0.0883
  H  H478  1  0.264600  0.235400  0.939700  1.0  0.0883
  H  H479  1  0.764600  0.735400  0.939700  1.0  0.0883
  H  H480  1  0.764600  0.235400  0.439700  1.0  0.0883
  H  H481  1  0.735400  0.439700  0.264600  1.0  0.0882
  H  H482  1  0.735400  0.939700  0.764600  1.0  0.0882
  H  H483  1  0.235400  0.439700  0.764600  1.0  0.0882
  H  H484  1  0.235400  0.939700  0.264600  1.0  0.0882
  H  H485  1  0.264600  0.439700  0.735400  1.0  0.0882
  H  H486  1  0.264600  0.939700  0.235400  1.0  0.0882
  H  H487  1  0.764600  0.439700  0.235400  1.0  0.0882
  H  H488  1  0.764600  0.939700  0.735400  1.0  0.0882
  H  H489  1  0.264600  0.560300  0.264600  1.0  0.0872
  H  H490  1  0.264600  0.060300  0.764600  1.0  0.0872
  H  H491  1  0.764600  0.560300  0.764600  1.0  0.0872
  H  H492  1  0.764600  0.060300  0.264600  1.0  0.0872
  H  H493  1  0.735400  0.560300  0.735400  1.0  0.0874
  H  H494  1  0.735400  0.060300  0.235400  1.0  0.0874
  H  H495  1  0.235400  0.560300  0.235400  1.0  0.0874
  H  H496  1  0.235400  0.060300  0.735400  1.0  0.0874
  H  H497  1  0.439700  0.735400  0.264600  1.0  0.0868
  H  H498  1  0.439700  0.235400  0.764600  1.0  0.0868
  H  H499  1  0.939700  0.735400  0.764600  1.0  0.0868
  H  H500  1  0.939700  0.235400  0.264600  1.0  0.0868
  H  H501  1  0.439700  0.264600  0.735400  1.0  0.0868
  H  H502  1  0.439700  0.764600  0.235400  1.0  0.0868
  H  H503  1  0.939700  0.264600  0.235400  1.0  0.0868
  H  H504  1  0.939700  0.764600  0.735400  1.0  0.0868
  H  H505  1  0.560300  0.735400  0.735400  1.0  0.087
  H  H506  1  0.560300  0.235400  0.235400  1.0  0.087
  H  H507  1  0.060300  0.735400  0.235400  1.0  0.087
  H  H508  1  0.060300  0.235400  0.735400  1.0  0.087
  H  H509  1  0.560300  0.264600  0.264600  1.0  0.0871
  H  H510  1  0.560300  0.764600  0.764600  1.0  0.0871
  H  H511  1  0.060300  0.264600  0.764600  1.0  0.0871
  H  H512  1  0.060300  0.764600  0.264600  1.0  0.0871
  H  H513  1  0.693300  0.693300  0.500000  1.0  0.0896
  H  H514  1  0.693300  0.193300  0.000000  1.0  0.0896
  H  H515  1  0.193300  0.693300  0.000000  1.0  0.0896
  H  H516  1  0.193300  0.193300  0.500000  1.0  0.0896
  H  H517  1  0.306700  0.306700  0.500000  1.0  0.089
  H  H518  1  0.306700  0.806700  0.000000  1.0  0.089
  H  H519  1  0.806700  0.306700  0.000000  1.0  0.089
  H  H520  1  0.806700  0.806700  0.500000  1.0  0.089
  H  H521  1  0.306700  0.693300  0.500000  1.0  0.0894
  H  H522  1  0.306700  0.193300  0.000000  1.0  0.0894
  H  H523  1  0.806700  0.693300  0.000000  1.0  0.0894
  H  H524  1  0.806700  0.193300  0.500000  1.0  0.0894
  H  H525  1  0.693300  0.306700  0.500000  1.0  0.0899
  H  H526  1  0.693300  0.806700  0.000000  1.0  0.0899
  H  H527  1  0.193300  0.306700  0.000000  1.0  0.0899
  H  H528  1  0.193300  0.806700  0.500000  1.0  0.0899
  H  H529  1  0.500000  0.693300  0.693300  1.0  0.0903
  H  H530  1  0.500000  0.193300  0.193300  1.0  0.0903
  H  H531  1  0.000000  0.693300  0.193300  1.0  0.0903
  H  H532  1  0.000000  0.193300  0.693300  1.0  0.0903
  H  H533  1  0.500000  0.306700  0.306700  1.0  0.0904
  H  H534  1  0.500000  0.806700  0.806700  1.0  0.0904
  H  H535  1  0.000000  0.306700  0.806700  1.0  0.0904
  H  H536  1  0.000000  0.806700  0.306700  1.0  0.0904
  H  H537  1  0.500000  0.306700  0.693300  1.0  0.0901
  H  H538  1  0.500000  0.806700  0.193300  1.0  0.0901
  H  H539  1  0.000000  0.306700  0.193300  1.0  0.0901
  H  H540  1  0.000000  0.806700  0.693300  1.0  0.0901
  H  H541  1  0.500000  0.693300  0.306700  1.0  0.0908
  H  H542  1  0.500000  0.193300  0.806700  1.0  0.0908
  H  H543  1  0.000000  0.693300  0.806700  1.0  0.0908
  H  H544  1  0.000000  0.193300  0.306700  1.0  0.0908
  H  H545  1  0.693300  0.500000  0.693300  1.0  0.0895
  H  H546  1  0.693300  0.000000  0.193300  1.0  0.0895
  H  H547  1  0.193300  0.500000  0.193300  1.0  0.0895
  H  H548  1  0.193300  0.000000  0.693300  1.0  0.0895
  H  H549  1  0.306700  0.500000  0.306700  1.0  0.0893
  H  H550  1  0.306700  0.000000  0.806700  1.0  0.0893
  H  H551  1  0.806700  0.500000  0.806700  1.0  0.0893
  H  H552  1  0.806700  0.000000  0.306700  1.0  0.0893
  H  H553  1  0.693300  0.500000  0.306700  1.0  0.0897
  H  H554  1  0.693300  0.000000  0.806700  1.0  0.0897
  H  H555  1  0.193300  0.500000  0.806700  1.0  0.0897
  H  H556  1  0.193300  0.000000  0.306700  1.0  0.0897
  H  H557  1  0.306700  0.500000  0.693300  1.0  0.0892
  H  H558  1  0.306700  0.000000  0.193300  1.0  0.0892
  H  H559  1  0.806700  0.500000  0.193300  1.0  0.0892
  H  H560  1  0.806700  0.000000  0.693300  1.0  0.0892
  C  C561  1  0.703910  0.674760  0.423050  1.0  -0.0858
  C  C562  1  0.713730  0.684530  0.443060  1.0  -0.1869
  C  C563  1  0.703910  0.174760  0.923050  1.0  -0.0858
  C  C564  1  0.713730  0.184530  0.943060  1.0  -0.1869
  C  C565  1  0.203910  0.674760  0.923050  1.0  -0.0858
  C  C566  1  0.213730  0.684530  0.943060  1.0  -0.1869
  C  C567  1  0.203910  0.174760  0.423050  1.0  -0.0858
  C  C568  1  0.213730  0.184530  0.443060  1.0  -0.1869
  C  C569  1  0.296090  0.325240  0.423050  1.0  -0.0884
  C  C570  1  0.286270  0.315470  0.443060  1.0  -0.1882
  C  C571  1  0.296090  0.825240  0.923050  1.0  -0.0884
  C  C572  1  0.286270  0.815470  0.943060  1.0  -0.1882
  C  C573  1  0.796090  0.325240  0.923050  1.0  -0.0884
  C  C574  1  0.786270  0.315470  0.943060  1.0  -0.1882
  C  C575  1  0.796090  0.825240  0.423050  1.0  -0.0884
  C  C576  1  0.786270  0.815470  0.443060  1.0  -0.1882
  C  C577  1  0.296090  0.674760  0.576950  1.0  -0.0866
  C  C578  1  0.286270  0.684530  0.556940  1.0  -0.191
  C  C579  1  0.296090  0.174760  0.076950  1.0  -0.0866
  C  C580  1  0.286270  0.184530  0.056940  1.0  -0.191
  C  C581  1  0.796090  0.674760  0.076950  1.0  -0.0866
  C  C582  1  0.786270  0.684530  0.056940  1.0  -0.191
  C  C583  1  0.796090  0.174760  0.576950  1.0  -0.0866
  C  C584  1  0.786270  0.184530  0.556940  1.0  -0.191
  C  C585  1  0.703910  0.325240  0.576950  1.0  -0.0841
  C  C586  1  0.713730  0.315470  0.556940  1.0  -0.1839
  C  C587  1  0.703910  0.825240  0.076950  1.0  -0.0841
  C  C588  1  0.713730  0.815470  0.056940  1.0  -0.1839
  C  C589  1  0.203910  0.325240  0.076950  1.0  -0.0841
  C  C590  1  0.213730  0.315470  0.056940  1.0  -0.1839
  C  C591  1  0.203910  0.825240  0.576950  1.0  -0.0841
  C  C592  1  0.213730  0.815470  0.556940  1.0  -0.1839
  C  C593  1  0.423050  0.703910  0.674760  1.0  -0.086
  C  C594  1  0.443060  0.713730  0.684530  1.0  -0.1859
  C  C595  1  0.423050  0.203910  0.174760  1.0  -0.086
  C  C596  1  0.443060  0.213730  0.184530  1.0  -0.1859
  C  C597  1  0.923050  0.703910  0.174760  1.0  -0.086
  C  C598  1  0.943060  0.713730  0.184530  1.0  -0.1859
  C  C599  1  0.923050  0.203910  0.674760  1.0  -0.086
  C  C600  1  0.943060  0.213730  0.684530  1.0  -0.1859
  C  C601  1  0.423050  0.296090  0.325240  1.0  -0.0879
  C  C602  1  0.443060  0.286270  0.315470  1.0  -0.1916
  C  C603  1  0.423050  0.796090  0.825240  1.0  -0.0879
  C  C604  1  0.443060  0.786270  0.815470  1.0  -0.1916
  C  C605  1  0.923050  0.296090  0.825240  1.0  -0.0879
  C  C606  1  0.943060  0.286270  0.815470  1.0  -0.1916
  C  C607  1  0.923050  0.796090  0.325240  1.0  -0.0879
  C  C608  1  0.943060  0.786270  0.315470  1.0  -0.1916
  C  C609  1  0.576950  0.296090  0.674760  1.0  -0.088
  C  C610  1  0.556940  0.286270  0.684530  1.0  -0.1937
  C  C611  1  0.576950  0.796090  0.174760  1.0  -0.088
  C  C612  1  0.556940  0.786270  0.184530  1.0  -0.1937
  C  C613  1  0.076950  0.296090  0.174760  1.0  -0.088
  C  C614  1  0.056940  0.286270  0.184530  1.0  -0.1937
  C  C615  1  0.076950  0.796090  0.674760  1.0  -0.088
  C  C616  1  0.056940  0.786270  0.684530  1.0  -0.1937
  C  C617  1  0.576950  0.703910  0.325240  1.0  -0.0915
  C  C618  1  0.556940  0.713730  0.315470  1.0  -0.1941
  C  C619  1  0.576950  0.203910  0.825240  1.0  -0.0915
  C  C620  1  0.556940  0.213730  0.815470  1.0  -0.1941
  C  C621  1  0.076950  0.703910  0.825240  1.0  -0.0915
  C  C622  1  0.056940  0.713730  0.815470  1.0  -0.1941
  C  C623  1  0.076950  0.203910  0.325240  1.0  -0.0915
  C  C624  1  0.056940  0.213730  0.315470  1.0  -0.1941
  C  C625  1  0.674760  0.423050  0.703910  1.0  -0.0862
  C  C626  1  0.684530  0.443060  0.713730  1.0  -0.1884
  C  C627  1  0.674760  0.923050  0.203910  1.0  -0.0862
  C  C628  1  0.684530  0.943060  0.213730  1.0  -0.1884
  C  C629  1  0.174760  0.423050  0.203910  1.0  -0.0862
  C  C630  1  0.184530  0.443060  0.213730  1.0  -0.1884
  C  C631  1  0.174760  0.923050  0.703910  1.0  -0.0862
  C  C632  1  0.184530  0.943060  0.713730  1.0  -0.1884
  C  C633  1  0.325240  0.423050  0.296090  1.0  -0.0856
  C  C634  1  0.315470  0.443060  0.286270  1.0  -0.1887
  C  C635  1  0.325240  0.923050  0.796090  1.0  -0.0856
  C  C636  1  0.315470  0.943060  0.786270  1.0  -0.1887
  C  C637  1  0.825240  0.423050  0.796090  1.0  -0.0856
  C  C638  1  0.815470  0.443060  0.786270  1.0  -0.1887
  C  C639  1  0.825240  0.923050  0.296090  1.0  -0.0856
  C  C640  1  0.815470  0.943060  0.286270  1.0  -0.1887
  C  C641  1  0.674760  0.576950  0.296090  1.0  -0.0852
  C  C642  1  0.684530  0.556940  0.286270  1.0  -0.1896
  C  C643  1  0.674760  0.076950  0.796090  1.0  -0.0852
  C  C644  1  0.684530  0.056940  0.786270  1.0  -0.1896
  C  C645  1  0.174760  0.576950  0.796090  1.0  -0.0852
  C  C646  1  0.184530  0.556940  0.786270  1.0  -0.1896
  C  C647  1  0.174760  0.076950  0.296090  1.0  -0.0852
  C  C648  1  0.184530  0.056940  0.286270  1.0  -0.1896
  C  C649  1  0.325240  0.576950  0.703910  1.0  -0.0867
  C  C650  1  0.315470  0.556940  0.713730  1.0  -0.1888
  C  C651  1  0.325240  0.076950  0.203910  1.0  -0.0867
  C  C652  1  0.315470  0.056940  0.213730  1.0  -0.1888
  C  C653  1  0.825240  0.576950  0.203910  1.0  -0.0867
  C  C654  1  0.815470  0.556940  0.213730  1.0  -0.1888
  C  C655  1  0.825240  0.076950  0.703910  1.0  -0.0867
  C  C656  1  0.815470  0.056940  0.713730  1.0  -0.1888
  C  C657  1  0.674760  0.703910  0.576950  1.0  -0.0891
  C  C658  1  0.684530  0.713730  0.556940  1.0  -0.1848
  C  C659  1  0.674760  0.203910  0.076950  1.0  -0.0891
  C  C660  1  0.684530  0.213730  0.056940  1.0  -0.1848
  C  C661  1  0.174760  0.703910  0.076950  1.0  -0.0891
  C  C662  1  0.184530  0.713730  0.056940  1.0  -0.1848
  C  C663  1  0.174760  0.203910  0.576950  1.0  -0.0891
  C  C664  1  0.184530  0.213730  0.556940  1.0  -0.1848
  C  C665  1  0.325240  0.296090  0.576950  1.0  -0.0868
  C  C666  1  0.315470  0.286270  0.556940  1.0  -0.1895
  C  C667  1  0.325240  0.796090  0.076950  1.0  -0.0868
  C  C668  1  0.315470  0.786270  0.056940  1.0  -0.1895
  C  C669  1  0.825240  0.296090  0.076950  1.0  -0.0868
  C  C670  1  0.815470  0.286270  0.056940  1.0  -0.1895
  C  C671  1  0.825240  0.796090  0.576950  1.0  -0.0868
  C  C672  1  0.815470  0.786270  0.556940  1.0  -0.1895
  C  C673  1  0.674760  0.296090  0.423050  1.0  -0.085
  C  C674  1  0.684530  0.286270  0.443060  1.0  -0.1914
  C  C675  1  0.674760  0.796090  0.923050  1.0  -0.085
  C  C676  1  0.684530  0.786270  0.943060  1.0  -0.1914
  C  C677  1  0.174760  0.296090  0.923050  1.0  -0.085
  C  C678  1  0.184530  0.286270  0.943060  1.0  -0.1914
  C  C679  1  0.174760  0.796090  0.423050  1.0  -0.085
  C  C680  1  0.184530  0.786270  0.443060  1.0  -0.1914
  C  C681  1  0.325240  0.703910  0.423050  1.0  -0.0833
  C  C682  1  0.315470  0.713730  0.443060  1.0  -0.1901
  C  C683  1  0.325240  0.203910  0.923050  1.0  -0.0833
  C  C684  1  0.315470  0.213730  0.943060  1.0  -0.1901
  C  C685  1  0.825240  0.703910  0.923050  1.0  -0.0833
  C  C686  1  0.815470  0.713730  0.943060  1.0  -0.1901
  C  C687  1  0.825240  0.203910  0.423050  1.0  -0.0833
  C  C688  1  0.815470  0.213730  0.443060  1.0  -0.1901
  C  C689  1  0.703910  0.423050  0.325240  1.0  -0.0855
  C  C690  1  0.713730  0.443060  0.315470  1.0  -0.1834
  C  C691  1  0.703910  0.923050  0.825240  1.0  -0.0855
  C  C692  1  0.713730  0.943060  0.815470  1.0  -0.1834
  C  C693  1  0.203910  0.423050  0.825240  1.0  -0.0855
  C  C694  1  0.213730  0.443060  0.815470  1.0  -0.1834
  C  C695  1  0.203910  0.923050  0.325240  1.0  -0.0855
  C  C696  1  0.213730  0.943060  0.315470  1.0  -0.1834
  C  C697  1  0.296090  0.423050  0.674760  1.0  -0.0857
  C  C698  1  0.286270  0.443060  0.684530  1.0  -0.1882
  C  C699  1  0.296090  0.923050  0.174760  1.0  -0.0857
  C  C700  1  0.286270  0.943060  0.184530  1.0  -0.1882
  C  C701  1  0.796090  0.423050  0.174760  1.0  -0.0857
  C  C702  1  0.786270  0.443060  0.184530  1.0  -0.1882
  C  C703  1  0.796090  0.923050  0.674760  1.0  -0.0857
  C  C704  1  0.786270  0.943060  0.684530  1.0  -0.1882
  C  C705  1  0.296090  0.576950  0.325240  1.0  -0.0888
  C  C706  1  0.286270  0.556940  0.315470  1.0  -0.1901
  C  C707  1  0.296090  0.076950  0.825240  1.0  -0.0888
  C  C708  1  0.286270  0.056940  0.815470  1.0  -0.1901
  C  C709  1  0.796090  0.576950  0.825240  1.0  -0.0888
  C  C710  1  0.786270  0.556940  0.815470  1.0  -0.1901
  C  C711  1  0.796090  0.076950  0.325240  1.0  -0.0888
  C  C712  1  0.786270  0.056940  0.315470  1.0  -0.1901
  C  C713  1  0.703910  0.576950  0.674760  1.0  -0.086
  C  C714  1  0.713730  0.556940  0.684530  1.0  -0.1849
  C  C715  1  0.703910  0.076950  0.174760  1.0  -0.086
  C  C716  1  0.713730  0.056940  0.184530  1.0  -0.1849
  C  C717  1  0.203910  0.576950  0.174760  1.0  -0.086
  C  C718  1  0.213730  0.556940  0.184530  1.0  -0.1849
  C  C719  1  0.203910  0.076950  0.674760  1.0  -0.086
  C  C720  1  0.213730  0.056940  0.684530  1.0  -0.1849
  C  C721  1  0.423050  0.674760  0.296090  1.0  -0.0862
  C  C722  1  0.443060  0.684530  0.286270  1.0  -0.1921
  C  C723  1  0.423050  0.174760  0.796090  1.0  -0.0862
  C  C724  1  0.443060  0.184530  0.786270  1.0  -0.1921
  C  C725  1  0.923050  0.674760  0.796090  1.0  -0.0862
  C  C726  1  0.943060  0.684530  0.786270  1.0  -0.1921
  C  C727  1  0.923050  0.174760  0.296090  1.0  -0.0862
  C  C728  1  0.943060  0.184530  0.286270  1.0  -0.1921
  C  C729  1  0.423050  0.325240  0.703910  1.0  -0.0862
  C  C730  1  0.443060  0.315470  0.713730  1.0  -0.1839
  C  C731  1  0.423050  0.825240  0.203910  1.0  -0.0862
  C  C732  1  0.443060  0.815470  0.213730  1.0  -0.1839
  C  C733  1  0.923050  0.325240  0.203910  1.0  -0.0862
  C  C734  1  0.943060  0.315470  0.213730  1.0  -0.1839
  C  C735  1  0.923050  0.825240  0.703910  1.0  -0.0862
  C  C736  1  0.943060  0.815470  0.713730  1.0  -0.1839
  C  C737  1  0.576950  0.674760  0.703910  1.0  -0.0871
  C  C738  1  0.556940  0.684530  0.713730  1.0  -0.1925
  C  C739  1  0.576950  0.174760  0.203910  1.0  -0.0871
  C  C740  1  0.556940  0.184530  0.213730  1.0  -0.1925
  C  C741  1  0.076950  0.674760  0.203910  1.0  -0.0871
  C  C742  1  0.056940  0.684530  0.213730  1.0  -0.1925
  C  C743  1  0.076950  0.174760  0.703910  1.0  -0.0871
  C  C744  1  0.056940  0.184530  0.713730  1.0  -0.1925
  C  C745  1  0.576950  0.325240  0.296090  1.0  -0.0885
  C  C746  1  0.556940  0.315470  0.286270  1.0  -0.1915
  C  C747  1  0.576950  0.825240  0.796090  1.0  -0.0885
  C  C748  1  0.556940  0.815470  0.786270  1.0  -0.1915
  C  C749  1  0.076950  0.325240  0.796090  1.0  -0.0885
  C  C750  1  0.056940  0.315470  0.786270  1.0  -0.1915
  C  C751  1  0.076950  0.825240  0.296090  1.0  -0.0885
  C  C752  1  0.056940  0.815470  0.286270  1.0  -0.1915
  C  C753  1  0.296090  0.325240  0.576950  1.0  -0.0883
  C  C754  1  0.286270  0.315470  0.556940  1.0  -0.1894
  C  C755  1  0.296090  0.825240  0.076950  1.0  -0.0883
  C  C756  1  0.286270  0.815470  0.056940  1.0  -0.1894
  C  C757  1  0.796090  0.325240  0.076950  1.0  -0.0883
  C  C758  1  0.786270  0.315470  0.056940  1.0  -0.1894
  C  C759  1  0.796090  0.825240  0.576950  1.0  -0.0883
  C  C760  1  0.786270  0.815470  0.556940  1.0  -0.1894
  C  C761  1  0.703910  0.674760  0.576950  1.0  -0.086
  C  C762  1  0.713730  0.684530  0.556940  1.0  -0.1849
  C  C763  1  0.703910  0.174760  0.076950  1.0  -0.086
  C  C764  1  0.713730  0.184530  0.056940  1.0  -0.1849
  C  C765  1  0.203910  0.674760  0.076950  1.0  -0.086
  C  C766  1  0.213730  0.684530  0.056940  1.0  -0.1849
  C  C767  1  0.203910  0.174760  0.576950  1.0  -0.086
  C  C768  1  0.213730  0.184530  0.556940  1.0  -0.1849
  C  C769  1  0.703910  0.325240  0.423050  1.0  -0.0839
  C  C770  1  0.713730  0.315470  0.443060  1.0  -0.1868
  C  C771  1  0.703910  0.825240  0.923050  1.0  -0.0839
  C  C772  1  0.713730  0.815470  0.943060  1.0  -0.1868
  C  C773  1  0.203910  0.325240  0.923050  1.0  -0.0839
  C  C774  1  0.213730  0.315470  0.943060  1.0  -0.1868
  C  C775  1  0.203910  0.825240  0.423050  1.0  -0.0839
  C  C776  1  0.213730  0.815470  0.443060  1.0  -0.1868
  C  C777  1  0.296090  0.674760  0.423050  1.0  -0.0867
  C  C778  1  0.286270  0.684530  0.443060  1.0  -0.1905
  C  C779  1  0.296090  0.174760  0.923050  1.0  -0.0867
  C  C780  1  0.286270  0.184530  0.943060  1.0  -0.1905
  C  C781  1  0.796090  0.674760  0.923050  1.0  -0.0867
  C  C782  1  0.786270  0.684530  0.943060  1.0  -0.1905
  C  C783  1  0.796090  0.174760  0.423050  1.0  -0.0867
  C  C784  1  0.786270  0.184530  0.443060  1.0  -0.1905
  C  C785  1  0.576950  0.296090  0.325240  1.0  -0.0885
  C  C786  1  0.556940  0.286270  0.315470  1.0  -0.1941
  C  C787  1  0.576950  0.796090  0.825240  1.0  -0.0885
  C  C788  1  0.556940  0.786270  0.815470  1.0  -0.1941
  C  C789  1  0.076950  0.296090  0.825240  1.0  -0.0885
  C  C790  1  0.056940  0.286270  0.815470  1.0  -0.1941
  C  C791  1  0.076950  0.796090  0.325240  1.0  -0.0885
  C  C792  1  0.056940  0.786270  0.315470  1.0  -0.1941
  C  C793  1  0.576950  0.703910  0.674760  1.0  -0.0892
  C  C794  1  0.556940  0.713730  0.684530  1.0  -0.193
  C  C795  1  0.576950  0.203910  0.174760  1.0  -0.0892
  C  C796  1  0.556940  0.213730  0.184530  1.0  -0.193
  C  C797  1  0.076950  0.703910  0.174760  1.0  -0.0892
  C  C798  1  0.056940  0.713730  0.184530  1.0  -0.193
  C  C799  1  0.076950  0.203910  0.674760  1.0  -0.0892
  C  C800  1  0.056940  0.213730  0.684530  1.0  -0.193
  C  C801  1  0.423050  0.703910  0.325240  1.0  -0.0887
  C  C802  1  0.443060  0.713730  0.315470  1.0  -0.1856
  C  C803  1  0.423050  0.203910  0.825240  1.0  -0.0887
  C  C804  1  0.443060  0.213730  0.815470  1.0  -0.1856
  C  C805  1  0.923050  0.703910  0.825240  1.0  -0.0887
  C  C806  1  0.943060  0.713730  0.815470  1.0  -0.1856
  C  C807  1  0.923050  0.203910  0.325240  1.0  -0.0887
  C  C808  1  0.943060  0.213730  0.315470  1.0  -0.1856
  C  C809  1  0.423050  0.296090  0.674760  1.0  -0.0865
  C  C810  1  0.443060  0.286270  0.684530  1.0  -0.1929
  C  C811  1  0.423050  0.796090  0.174760  1.0  -0.0865
  C  C812  1  0.443060  0.786270  0.184530  1.0  -0.1929
  C  C813  1  0.923050  0.296090  0.174760  1.0  -0.0865
  C  C814  1  0.943060  0.286270  0.184530  1.0  -0.1929
  C  C815  1  0.923050  0.796090  0.674760  1.0  -0.0865
  C  C816  1  0.943060  0.786270  0.684530  1.0  -0.1929
  C  C817  1  0.325240  0.576950  0.296090  1.0  -0.0867
  C  C818  1  0.315470  0.556940  0.286270  1.0  -0.1886
  C  C819  1  0.325240  0.076950  0.796090  1.0  -0.0867
  C  C820  1  0.315470  0.056940  0.786270  1.0  -0.1886
  C  C821  1  0.825240  0.576950  0.796090  1.0  -0.0867
  C  C822  1  0.815470  0.556940  0.786270  1.0  -0.1886
  C  C823  1  0.825240  0.076950  0.296090  1.0  -0.0867
  C  C824  1  0.815470  0.056940  0.286270  1.0  -0.1886
  C  C825  1  0.674760  0.576950  0.703910  1.0  -0.0871
  C  C826  1  0.684530  0.556940  0.713730  1.0  -0.1891
  C  C827  1  0.674760  0.076950  0.203910  1.0  -0.0871
  C  C828  1  0.684530  0.056940  0.213730  1.0  -0.1891
  C  C829  1  0.174760  0.576950  0.203910  1.0  -0.0871
  C  C830  1  0.184530  0.556940  0.213730  1.0  -0.1891
  C  C831  1  0.174760  0.076950  0.703910  1.0  -0.0871
  C  C832  1  0.184530  0.056940  0.713730  1.0  -0.1891
  C  C833  1  0.325240  0.423050  0.703910  1.0  -0.0803
  C  C834  1  0.315470  0.443060  0.713730  1.0  -0.1877
  C  C835  1  0.325240  0.923050  0.203910  1.0  -0.0803
  C  C836  1  0.315470  0.943060  0.213730  1.0  -0.1877
  C  C837  1  0.825240  0.423050  0.203910  1.0  -0.0803
  C  C838  1  0.815470  0.443060  0.213730  1.0  -0.1877
  C  C839  1  0.825240  0.923050  0.703910  1.0  -0.0803
  C  C840  1  0.815470  0.943060  0.713730  1.0  -0.1877
  C  C841  1  0.674760  0.423050  0.296090  1.0  -0.0837
  C  C842  1  0.684530  0.443060  0.286270  1.0  -0.1899
  C  C843  1  0.674760  0.923050  0.796090  1.0  -0.0837
  C  C844  1  0.684530  0.943060  0.786270  1.0  -0.1899
  C  C845  1  0.174760  0.423050  0.796090  1.0  -0.0837
  C  C846  1  0.184530  0.443060  0.786270  1.0  -0.1899
  C  C847  1  0.174760  0.923050  0.296090  1.0  -0.0837
  C  C848  1  0.184530  0.943060  0.286270  1.0  -0.1899
  C  C849  1  0.325240  0.296090  0.423050  1.0  -0.0874
  C  C850  1  0.315470  0.286270  0.443060  1.0  -0.1904
  C  C851  1  0.325240  0.796090  0.923050  1.0  -0.0874
  C  C852  1  0.315470  0.786270  0.943060  1.0  -0.1904
  C  C853  1  0.825240  0.296090  0.923050  1.0  -0.0874
  C  C854  1  0.815470  0.286270  0.943060  1.0  -0.1904
  C  C855  1  0.825240  0.796090  0.423050  1.0  -0.0874
  C  C856  1  0.815470  0.786270  0.443060  1.0  -0.1904
  C  C857  1  0.674760  0.703910  0.423050  1.0  -0.0871
  C  C858  1  0.684530  0.713730  0.443060  1.0  -0.1906
  C  C859  1  0.674760  0.203910  0.923050  1.0  -0.0871
  C  C860  1  0.684530  0.213730  0.943060  1.0  -0.1906
  C  C861  1  0.174760  0.703910  0.923050  1.0  -0.0871
  C  C862  1  0.184530  0.713730  0.943060  1.0  -0.1906
  C  C863  1  0.174760  0.203910  0.423050  1.0  -0.0871
  C  C864  1  0.184530  0.213730  0.443060  1.0  -0.1906
  C  C865  1  0.325240  0.703910  0.576950  1.0  -0.0837
  C  C866  1  0.315470  0.713730  0.556940  1.0  -0.1844
  C  C867  1  0.325240  0.203910  0.076950  1.0  -0.0837
  C  C868  1  0.315470  0.213730  0.056940  1.0  -0.1844
  C  C869  1  0.825240  0.703910  0.076950  1.0  -0.0837
  C  C870  1  0.815470  0.713730  0.056940  1.0  -0.1844
  C  C871  1  0.825240  0.203910  0.576950  1.0  -0.0837
  C  C872  1  0.815470  0.213730  0.556940  1.0  -0.1844
  C  C873  1  0.674760  0.296090  0.576950  1.0  -0.0864
  C  C874  1  0.684530  0.286270  0.556940  1.0  -0.1908
  C  C875  1  0.674760  0.796090  0.076950  1.0  -0.0864
  C  C876  1  0.684530  0.786270  0.056940  1.0  -0.1908
  C  C877  1  0.174760  0.296090  0.076950  1.0  -0.0864
  C  C878  1  0.184530  0.286270  0.056940  1.0  -0.1908
  C  C879  1  0.174760  0.796090  0.576950  1.0  -0.0864
  C  C880  1  0.184530  0.786270  0.556940  1.0  -0.1908
  C  C881  1  0.296090  0.576950  0.674760  1.0  -0.0869
  C  C882  1  0.286270  0.556940  0.684530  1.0  -0.1885
  C  C883  1  0.296090  0.076950  0.174760  1.0  -0.0869
  C  C884  1  0.286270  0.056940  0.184530  1.0  -0.1885
  C  C885  1  0.796090  0.576950  0.174760  1.0  -0.0869
  C  C886  1  0.786270  0.556940  0.184530  1.0  -0.1885
  C  C887  1  0.796090  0.076950  0.674760  1.0  -0.0869
  C  C888  1  0.786270  0.056940  0.684530  1.0  -0.1885
  C  C889  1  0.703910  0.576950  0.325240  1.0  -0.0854
  C  C890  1  0.713730  0.556940  0.315470  1.0  -0.1847
  C  C891  1  0.703910  0.076950  0.825240  1.0  -0.0854
  C  C892  1  0.713730  0.056940  0.815470  1.0  -0.1847
  C  C893  1  0.203910  0.576950  0.825240  1.0  -0.0854
  C  C894  1  0.213730  0.556940  0.815470  1.0  -0.1847
  C  C895  1  0.203910  0.076950  0.325240  1.0  -0.0854
  C  C896  1  0.213730  0.056940  0.315470  1.0  -0.1847
  C  C897  1  0.703910  0.423050  0.674760  1.0  -0.0846
  C  C898  1  0.713730  0.443060  0.684530  1.0  -0.184
  C  C899  1  0.703910  0.923050  0.174760  1.0  -0.0846
  C  C900  1  0.713730  0.943060  0.184530  1.0  -0.184
  C  C901  1  0.203910  0.423050  0.174760  1.0  -0.0846
  C  C902  1  0.213730  0.443060  0.184530  1.0  -0.184
  C  C903  1  0.203910  0.923050  0.674760  1.0  -0.0846
  C  C904  1  0.213730  0.943060  0.684530  1.0  -0.184
  C  C905  1  0.296090  0.423050  0.325240  1.0  -0.0863
  C  C906  1  0.286270  0.443060  0.315470  1.0  -0.1908
  C  C907  1  0.296090  0.923050  0.825240  1.0  -0.0863
  C  C908  1  0.286270  0.943060  0.815470  1.0  -0.1908
  C  C909  1  0.796090  0.423050  0.825240  1.0  -0.0863
  C  C910  1  0.786270  0.443060  0.815470  1.0  -0.1908
  C  C911  1  0.796090  0.923050  0.325240  1.0  -0.0863
  C  C912  1  0.786270  0.943060  0.315470  1.0  -0.1908
  C  C913  1  0.576950  0.325240  0.703910  1.0  -0.0882
  C  C914  1  0.556940  0.315470  0.713730  1.0  -0.1927
  C  C915  1  0.576950  0.825240  0.203910  1.0  -0.0882
  C  C916  1  0.556940  0.815470  0.213730  1.0  -0.1927
  C  C917  1  0.076950  0.325240  0.203910  1.0  -0.0882
  C  C918  1  0.056940  0.315470  0.213730  1.0  -0.1927
  C  C919  1  0.076950  0.825240  0.703910  1.0  -0.0882
  C  C920  1  0.056940  0.815470  0.713730  1.0  -0.1927
  C  C921  1  0.576950  0.674760  0.296090  1.0  -0.0881
  C  C922  1  0.556940  0.684530  0.286270  1.0  -0.1923
  C  C923  1  0.576950  0.174760  0.796090  1.0  -0.0881
  C  C924  1  0.556940  0.184530  0.786270  1.0  -0.1923
  C  C925  1  0.076950  0.674760  0.796090  1.0  -0.0881
  C  C926  1  0.056940  0.684530  0.786270  1.0  -0.1923
  C  C927  1  0.076950  0.174760  0.296090  1.0  -0.0881
  C  C928  1  0.056940  0.184530  0.286270  1.0  -0.1923
  C  C929  1  0.423050  0.325240  0.296090  1.0  -0.0874
  C  C930  1  0.443060  0.315470  0.286270  1.0  -0.1852
  C  C931  1  0.423050  0.825240  0.796090  1.0  -0.0874
  C  C932  1  0.443060  0.815470  0.786270  1.0  -0.1852
  C  C933  1  0.923050  0.325240  0.796090  1.0  -0.0874
  C  C934  1  0.943060  0.315470  0.786270  1.0  -0.1852
  C  C935  1  0.923050  0.825240  0.296090  1.0  -0.0874
  C  C936  1  0.943060  0.815470  0.286270  1.0  -0.1852
  C  C937  1  0.423050  0.674760  0.703910  1.0  -0.0872
  C  C938  1  0.443060  0.684530  0.713730  1.0  -0.1911
  C  C939  1  0.423050  0.174760  0.203910  1.0  -0.0872
  C  C940  1  0.443060  0.184530  0.213730  1.0  -0.1911
  C  C941  1  0.923050  0.674760  0.203910  1.0  -0.0872
  C  C942  1  0.943060  0.684530  0.213730  1.0  -0.1911
  C  C943  1  0.923050  0.174760  0.703910  1.0  -0.0872
  C  C944  1  0.943060  0.184530  0.713730  1.0  -0.1911
  C  C945  1  0.672360  0.672360  0.390580  1.0  0.6038
  C  C946  1  0.684350  0.684350  0.413590  1.0  0.2243
  C  C947  1  0.702850  0.702850  0.454790  1.0  0.107
  C  C948  1  0.713880  0.713880  0.478290  1.0  -0.0445
  C  C949  1  0.731570  0.731570  0.476390  1.0  0.0678
  C  C950  1  0.741310  0.741310  0.454860  1.0  -0.1287
  C  C951  1  0.672360  0.172360  0.890580  1.0  0.6038
  C  C952  1  0.684350  0.184350  0.913590  1.0  0.2243
  C  C953  1  0.702850  0.202850  0.954790  1.0  0.107
  C  C954  1  0.713880  0.213880  0.978290  1.0  -0.0445
  C  C955  1  0.731570  0.231570  0.976390  1.0  0.0678
  C  C956  1  0.741310  0.241310  0.954860  1.0  -0.1287
  C  C957  1  0.172360  0.672360  0.890580  1.0  0.6038
  C  C958  1  0.184350  0.684350  0.913590  1.0  0.2243
  C  C959  1  0.202850  0.702850  0.954790  1.0  0.107
  C  C960  1  0.213880  0.713880  0.978290  1.0  -0.0445
  C  C961  1  0.231570  0.731570  0.976390  1.0  0.0678
  C  C962  1  0.241310  0.741310  0.954860  1.0  -0.1287
  C  C963  1  0.172360  0.172360  0.390580  1.0  0.6038
  C  C964  1  0.184350  0.184350  0.413590  1.0  0.2243
  C  C965  1  0.202850  0.202850  0.454790  1.0  0.107
  C  C966  1  0.213880  0.213880  0.478290  1.0  -0.0445
  C  C967  1  0.231570  0.231570  0.476390  1.0  0.0678
  C  C968  1  0.241310  0.241310  0.454860  1.0  -0.1287
  C  C969  1  0.327640  0.327640  0.390580  1.0  0.6015
  C  C970  1  0.315650  0.315650  0.413590  1.0  0.225
  C  C971  1  0.297150  0.297150  0.454790  1.0  0.1074
  C  C972  1  0.286120  0.286120  0.478290  1.0  -0.0444
  C  C973  1  0.268430  0.268430  0.476390  1.0  0.0697
  C  C974  1  0.258690  0.258690  0.454860  1.0  -0.1289
  C  C975  1  0.327640  0.827640  0.890580  1.0  0.6015
  C  C976  1  0.315650  0.815650  0.913590  1.0  0.225
  C  C977  1  0.297150  0.797150  0.954790  1.0  0.1074
  C  C978  1  0.286120  0.786120  0.978290  1.0  -0.0444
  C  C979  1  0.268430  0.768430  0.976390  1.0  0.0697
  C  C980  1  0.258690  0.758690  0.954860  1.0  -0.1289
  C  C981  1  0.827640  0.327640  0.890580  1.0  0.6015
  C  C982  1  0.815650  0.315650  0.913590  1.0  0.225
  C  C983  1  0.797150  0.297150  0.954790  1.0  0.1074
  C  C984  1  0.786120  0.286120  0.978290  1.0  -0.0444
  C  C985  1  0.768430  0.268430  0.976390  1.0  0.0697
  C  C986  1  0.758690  0.258690  0.954860  1.0  -0.1289
  C  C987  1  0.827640  0.827640  0.390580  1.0  0.6015
  C  C988  1  0.815650  0.815650  0.413590  1.0  0.225
  C  C989  1  0.797150  0.797150  0.454790  1.0  0.1074
  C  C990  1  0.786120  0.786120  0.478290  1.0  -0.0444
  C  C991  1  0.768430  0.768430  0.476390  1.0  0.0697
  C  C992  1  0.758690  0.758690  0.454860  1.0  -0.1289
  C  C993  1  0.327640  0.672360  0.609420  1.0  0.6027
  C  C994  1  0.315650  0.684350  0.586410  1.0  0.2289
  C  C995  1  0.297150  0.702850  0.545210  1.0  0.1091
  C  C996  1  0.286120  0.713880  0.521710  1.0  -0.0427
  C  C997  1  0.268430  0.731570  0.523610  1.0  0.0674
  C  C998  1  0.258690  0.741310  0.545140  1.0  -0.128
  C  C999  1  0.327640  0.172360  0.109420  1.0  0.6027
  C  C1000  1  0.315650  0.184350  0.086410  1.0  0.2289
  C  C1001  1  0.297150  0.202850  0.045210  1.0  0.1091
  C  C1002  1  0.286120  0.213880  0.021710  1.0  -0.0427
  C  C1003  1  0.268430  0.231570  0.023610  1.0  0.0674
  C  C1004  1  0.258690  0.241310  0.045140  1.0  -0.128
  C  C1005  1  0.827640  0.672360  0.109420  1.0  0.6027
  C  C1006  1  0.815650  0.684350  0.086410  1.0  0.2289
  C  C1007  1  0.797150  0.702850  0.045210  1.0  0.1091
  C  C1008  1  0.786120  0.713880  0.021710  1.0  -0.0427
  C  C1009  1  0.768430  0.731570  0.023610  1.0  0.0674
  C  C1010  1  0.758690  0.741310  0.045140  1.0  -0.128
  C  C1011  1  0.827640  0.172360  0.609420  1.0  0.6027
  C  C1012  1  0.815650  0.184350  0.586410  1.0  0.2289
  C  C1013  1  0.797150  0.202850  0.545210  1.0  0.1091
  C  C1014  1  0.786120  0.213880  0.521710  1.0  -0.0427
  C  C1015  1  0.768430  0.231570  0.523610  1.0  0.0674
  C  C1016  1  0.758690  0.241310  0.545140  1.0  -0.128
  C  C1017  1  0.672360  0.327640  0.609420  1.0  0.603
  C  C1018  1  0.684350  0.315650  0.586410  1.0  0.2284
  C  C1019  1  0.702850  0.297150  0.545210  1.0  0.1082
  C  C1020  1  0.713880  0.286120  0.521710  1.0  -0.0436
  C  C1021  1  0.731570  0.268430  0.523610  1.0  0.0674
  C  C1022  1  0.741310  0.258690  0.545140  1.0  -0.1296
  C  C1023  1  0.672360  0.827640  0.109420  1.0  0.603
  C  C1024  1  0.684350  0.815650  0.086410  1.0  0.2284
  C  C1025  1  0.702850  0.797150  0.045210  1.0  0.1082
  C  C1026  1  0.713880  0.786120  0.021710  1.0  -0.0436
  C  C1027  1  0.731570  0.768430  0.023610  1.0  0.0674
  C  C1028  1  0.741310  0.758690  0.045140  1.0  -0.1296
  C  C1029  1  0.172360  0.327640  0.109420  1.0  0.603
  C  C1030  1  0.184350  0.315650  0.086410  1.0  0.2284
  C  C1031  1  0.202850  0.297150  0.045210  1.0  0.1082
  C  C1032  1  0.213880  0.286120  0.021710  1.0  -0.0436
  C  C1033  1  0.231570  0.268430  0.023610  1.0  0.0674
  C  C1034  1  0.241310  0.258690  0.045140  1.0  -0.1296
  C  C1035  1  0.172360  0.827640  0.609420  1.0  0.603
  C  C1036  1  0.184350  0.815650  0.586410  1.0  0.2284
  C  C1037  1  0.202850  0.797150  0.545210  1.0  0.1082
  C  C1038  1  0.213880  0.786120  0.521710  1.0  -0.0436
  C  C1039  1  0.231570  0.768430  0.523610  1.0  0.0674
  C  C1040  1  0.241310  0.758690  0.545140  1.0  -0.1296
  C  C1041  1  0.390580  0.672360  0.672360  1.0  0.6038
  C  C1042  1  0.413590  0.684350  0.684350  1.0  0.2201
  C  C1043  1  0.454790  0.702850  0.702850  1.0  0.1044
  C  C1044  1  0.478290  0.713880  0.713880  1.0  -0.0445
  C  C1045  1  0.476390  0.731570  0.731570  1.0  0.0678
  C  C1046  1  0.454860  0.741310  0.741310  1.0  -0.1266
  C  C1047  1  0.390580  0.172360  0.172360  1.0  0.6038
  C  C1048  1  0.413590  0.184350  0.184350  1.0  0.2201
  C  C1049  1  0.454790  0.202850  0.202850  1.0  0.1044
  C  C1050  1  0.478290  0.213880  0.213880  1.0  -0.0445
  C  C1051  1  0.476390  0.231570  0.231570  1.0  0.0678
  C  C1052  1  0.454860  0.241310  0.241310  1.0  -0.1266
  C  C1053  1  0.890580  0.672360  0.172360  1.0  0.6038
  C  C1054  1  0.913590  0.684350  0.184350  1.0  0.2201
  C  C1055  1  0.954790  0.702850  0.202850  1.0  0.1044
  C  C1056  1  0.978290  0.713880  0.213880  1.0  -0.0445
  C  C1057  1  0.976390  0.731570  0.231570  1.0  0.0678
  C  C1058  1  0.954860  0.741310  0.241310  1.0  -0.1266
  C  C1059  1  0.890580  0.172360  0.672360  1.0  0.6038
  C  C1060  1  0.913590  0.184350  0.684350  1.0  0.2201
  C  C1061  1  0.954790  0.202850  0.702850  1.0  0.1044
  C  C1062  1  0.978290  0.213880  0.713880  1.0  -0.0445
  C  C1063  1  0.976390  0.231570  0.731570  1.0  0.0678
  C  C1064  1  0.954860  0.241310  0.741310  1.0  -0.1266
  C  C1065  1  0.390580  0.327640  0.327640  1.0  0.6025
  C  C1066  1  0.413590  0.315650  0.315650  1.0  0.2219
  C  C1067  1  0.454790  0.297150  0.297150  1.0  0.104
  C  C1068  1  0.478290  0.286120  0.286120  1.0  -0.0448
  C  C1069  1  0.476390  0.268430  0.268430  1.0  0.0701
  C  C1070  1  0.454860  0.258690  0.258690  1.0  -0.1263
  C  C1071  1  0.390580  0.827640  0.827640  1.0  0.6025
  C  C1072  1  0.413590  0.815650  0.815650  1.0  0.2219
  C  C1073  1  0.454790  0.797150  0.797150  1.0  0.104
  C  C1074  1  0.478290  0.786120  0.786120  1.0  -0.0448
  C  C1075  1  0.476390  0.768430  0.768430  1.0  0.0701
  C  C1076  1  0.454860  0.758690  0.758690  1.0  -0.1263
  C  C1077  1  0.890580  0.327640  0.827640  1.0  0.6025
  C  C1078  1  0.913590  0.315650  0.815650  1.0  0.2219
  C  C1079  1  0.954790  0.297150  0.797150  1.0  0.104
  C  C1080  1  0.978290  0.286120  0.786120  1.0  -0.0448
  C  C1081  1  0.976390  0.268430  0.768430  1.0  0.0701
  C  C1082  1  0.954860  0.258690  0.758690  1.0  -0.1263
  C  C1083  1  0.890580  0.827640  0.327640  1.0  0.6025
  C  C1084  1  0.913590  0.815650  0.315650  1.0  0.2219
  C  C1085  1  0.954790  0.797150  0.297150  1.0  0.104
  C  C1086  1  0.978290  0.786120  0.286120  1.0  -0.0448
  C  C1087  1  0.976390  0.768430  0.268430  1.0  0.0701
  C  C1088  1  0.954860  0.758690  0.258690  1.0  -0.1263
  C  C1089  1  0.609420  0.327640  0.672360  1.0  0.6025
  C  C1090  1  0.586410  0.315650  0.684350  1.0  0.221
  C  C1091  1  0.545210  0.297150  0.702850  1.0  0.1076
  C  C1092  1  0.521710  0.286120  0.713880  1.0  -0.0449
  C  C1093  1  0.523610  0.268430  0.731570  1.0  0.0668
  C  C1094  1  0.545140  0.258690  0.741310  1.0  -0.125
  C  C1095  1  0.609420  0.827640  0.172360  1.0  0.6025
  C  C1096  1  0.586410  0.815650  0.184350  1.0  0.221
  C  C1097  1  0.545210  0.797150  0.202850  1.0  0.1076
  C  C1098  1  0.521710  0.786120  0.213880  1.0  -0.0449
  C  C1099  1  0.523610  0.768430  0.231570  1.0  0.0668
  C  C1100  1  0.545140  0.758690  0.241310  1.0  -0.125
  C  C1101  1  0.109420  0.327640  0.172360  1.0  0.6025
  C  C1102  1  0.086410  0.315650  0.184350  1.0  0.221
  C  C1103  1  0.045210  0.297150  0.202850  1.0  0.1076
  C  C1104  1  0.021710  0.286120  0.213880  1.0  -0.0449
  C  C1105  1  0.023610  0.268430  0.231570  1.0  0.0668
  C  C1106  1  0.045140  0.258690  0.241310  1.0  -0.125
  C  C1107  1  0.109420  0.827640  0.672360  1.0  0.6025
  C  C1108  1  0.086410  0.815650  0.684350  1.0  0.221
  C  C1109  1  0.045210  0.797150  0.702850  1.0  0.1076
  C  C1110  1  0.021710  0.786120  0.713880  1.0  -0.0449
  C  C1111  1  0.023610  0.768430  0.731570  1.0  0.0668
  C  C1112  1  0.045140  0.758690  0.741310  1.0  -0.125
  C  C1113  1  0.609420  0.672360  0.327640  1.0  0.6024
  C  C1114  1  0.586410  0.684350  0.315650  1.0  0.2223
  C  C1115  1  0.545210  0.702850  0.297150  1.0  0.1065
  C  C1116  1  0.521710  0.713880  0.286120  1.0  -0.0444
  C  C1117  1  0.523610  0.731570  0.268430  1.0  0.0668
  C  C1118  1  0.545140  0.741310  0.258690  1.0  -0.1242
  C  C1119  1  0.609420  0.172360  0.827640  1.0  0.6024
  C  C1120  1  0.586410  0.184350  0.815650  1.0  0.2223
  C  C1121  1  0.545210  0.202850  0.797150  1.0  0.1065
  C  C1122  1  0.521710  0.213880  0.786120  1.0  -0.0444
  C  C1123  1  0.523610  0.231570  0.768430  1.0  0.0668
  C  C1124  1  0.545140  0.241310  0.758690  1.0  -0.1242
  C  C1125  1  0.109420  0.672360  0.827640  1.0  0.6024
  C  C1126  1  0.086410  0.684350  0.815650  1.0  0.2223
  C  C1127  1  0.045210  0.702850  0.797150  1.0  0.1065
  C  C1128  1  0.021710  0.713880  0.786120  1.0  -0.0444
  C  C1129  1  0.023610  0.731570  0.768430  1.0  0.0668
  C  C1130  1  0.045140  0.741310  0.758690  1.0  -0.1242
  C  C1131  1  0.109420  0.172360  0.327640  1.0  0.6024
  C  C1132  1  0.086410  0.184350  0.315650  1.0  0.2223
  C  C1133  1  0.045210  0.202850  0.297150  1.0  0.1065
  C  C1134  1  0.021710  0.213880  0.286120  1.0  -0.0444
  C  C1135  1  0.023610  0.231570  0.268430  1.0  0.0668
  C  C1136  1  0.045140  0.241310  0.258690  1.0  -0.1242
  C  C1137  1  0.672360  0.390580  0.672360  1.0  0.6034
  C  C1138  1  0.684350  0.413590  0.684350  1.0  0.2244
  C  C1139  1  0.702850  0.454790  0.702850  1.0  0.1084
  C  C1140  1  0.713880  0.478290  0.713880  1.0  -0.0446
  C  C1141  1  0.731570  0.476390  0.731570  1.0  0.0678
  C  C1142  1  0.741310  0.454860  0.741310  1.0  -0.1267
  C  C1143  1  0.672360  0.890580  0.172360  1.0  0.6034
  C  C1144  1  0.684350  0.913590  0.184350  1.0  0.2244
  C  C1145  1  0.702850  0.954790  0.202850  1.0  0.1084
  C  C1146  1  0.713880  0.978290  0.213880  1.0  -0.0446
  C  C1147  1  0.731570  0.976390  0.231570  1.0  0.0678
  C  C1148  1  0.741310  0.954860  0.241310  1.0  -0.1267
  C  C1149  1  0.172360  0.390580  0.172360  1.0  0.6034
  C  C1150  1  0.184350  0.413590  0.184350  1.0  0.2244
  C  C1151  1  0.202850  0.454790  0.202850  1.0  0.1084
  C  C1152  1  0.213880  0.478290  0.213880  1.0  -0.0446
  C  C1153  1  0.231570  0.476390  0.231570  1.0  0.0678
  C  C1154  1  0.241310  0.454860  0.241310  1.0  -0.1267
  C  C1155  1  0.172360  0.890580  0.672360  1.0  0.6034
  C  C1156  1  0.184350  0.913590  0.684350  1.0  0.2244
  C  C1157  1  0.202850  0.954790  0.702850  1.0  0.1084
  C  C1158  1  0.213880  0.978290  0.713880  1.0  -0.0446
  C  C1159  1  0.231570  0.976390  0.731570  1.0  0.0678
  C  C1160  1  0.241310  0.954860  0.741310  1.0  -0.1267
  C  C1161  1  0.327640  0.390580  0.327640  1.0  0.6022
  C  C1162  1  0.315650  0.413590  0.315650  1.0  0.2261
  C  C1163  1  0.297150  0.454790  0.297150  1.0  0.1091
  C  C1164  1  0.286120  0.478290  0.286120  1.0  -0.0441
  C  C1165  1  0.268430  0.476390  0.268430  1.0  0.07
  C  C1166  1  0.258690  0.454860  0.258690  1.0  -0.126
  C  C1167  1  0.327640  0.890580  0.827640  1.0  0.6022
  C  C1168  1  0.315650  0.913590  0.815650  1.0  0.2261
  C  C1169  1  0.297150  0.954790  0.797150  1.0  0.1091
  C  C1170  1  0.286120  0.978290  0.786120  1.0  -0.0441
  C  C1171  1  0.268430  0.976390  0.768430  1.0  0.07
  C  C1172  1  0.258690  0.954860  0.758690  1.0  -0.126
  C  C1173  1  0.827640  0.390580  0.827640  1.0  0.6022
  C  C1174  1  0.815650  0.413590  0.815650  1.0  0.2261
  C  C1175  1  0.797150  0.454790  0.797150  1.0  0.1091
  C  C1176  1  0.786120  0.478290  0.786120  1.0  -0.0441
  C  C1177  1  0.768430  0.476390  0.768430  1.0  0.07
  C  C1178  1  0.758690  0.454860  0.758690  1.0  -0.126
  C  C1179  1  0.827640  0.890580  0.327640  1.0  0.6022
  C  C1180  1  0.815650  0.913590  0.315650  1.0  0.2261
  C  C1181  1  0.797150  0.954790  0.297150  1.0  0.1091
  C  C1182  1  0.786120  0.978290  0.286120  1.0  -0.0441
  C  C1183  1  0.768430  0.976390  0.268430  1.0  0.07
  C  C1184  1  0.758690  0.954860  0.258690  1.0  -0.126
  C  C1185  1  0.672360  0.609420  0.327640  1.0  0.6014
  C  C1186  1  0.684350  0.586410  0.315650  1.0  0.2246
  C  C1187  1  0.702850  0.545210  0.297150  1.0  0.1081
  C  C1188  1  0.713880  0.521710  0.286120  1.0  -0.0447
  C  C1189  1  0.731570  0.523610  0.268430  1.0  0.068
  C  C1190  1  0.741310  0.545140  0.258690  1.0  -0.127
  C  C1191  1  0.672360  0.109420  0.827640  1.0  0.6014
  C  C1192  1  0.684350  0.086410  0.815650  1.0  0.2246
  C  C1193  1  0.702850  0.045210  0.797150  1.0  0.1081
  C  C1194  1  0.713880  0.021710  0.786120  1.0  -0.0447
  C  C1195  1  0.731570  0.023610  0.768430  1.0  0.068
  C  C1196  1  0.741310  0.045140  0.758690  1.0  -0.127
  C  C1197  1  0.172360  0.609420  0.827640  1.0  0.6014
  C  C1198  1  0.184350  0.586410  0.815650  1.0  0.2246
  C  C1199  1  0.202850  0.545210  0.797150  1.0  0.1081
  C  C1200  1  0.213880  0.521710  0.786120  1.0  -0.0447
  C  C1201  1  0.231570  0.523610  0.768430  1.0  0.068
  C  C1202  1  0.241310  0.545140  0.758690  1.0  -0.127
  C  C1203  1  0.172360  0.109420  0.327640  1.0  0.6014
  C  C1204  1  0.184350  0.086410  0.315650  1.0  0.2246
  C  C1205  1  0.202850  0.045210  0.297150  1.0  0.1081
  C  C1206  1  0.213880  0.021710  0.286120  1.0  -0.0447
  C  C1207  1  0.231570  0.023610  0.268430  1.0  0.068
  C  C1208  1  0.241310  0.045140  0.258690  1.0  -0.127
  C  C1209  1  0.327640  0.609420  0.672360  1.0  0.6005
  C  C1210  1  0.315650  0.586410  0.684350  1.0  0.2227
  C  C1211  1  0.297150  0.545210  0.702850  1.0  0.1087
  C  C1212  1  0.286120  0.521710  0.713880  1.0  -0.0441
  C  C1213  1  0.268430  0.523610  0.731570  1.0  0.0687
  C  C1214  1  0.258690  0.545140  0.741310  1.0  -0.1268
  C  C1215  1  0.327640  0.109420  0.172360  1.0  0.6005
  C  C1216  1  0.315650  0.086410  0.184350  1.0  0.2227
  C  C1217  1  0.297150  0.045210  0.202850  1.0  0.1087
  C  C1218  1  0.286120  0.021710  0.213880  1.0  -0.0441
  C  C1219  1  0.268430  0.023610  0.231570  1.0  0.0687
  C  C1220  1  0.258690  0.045140  0.241310  1.0  -0.1268
  C  C1221  1  0.827640  0.609420  0.172360  1.0  0.6005
  C  C1222  1  0.815650  0.586410  0.184350  1.0  0.2227
  C  C1223  1  0.797150  0.545210  0.202850  1.0  0.1087
  C  C1224  1  0.786120  0.521710  0.213880  1.0  -0.0441
  C  C1225  1  0.768430  0.523610  0.231570  1.0  0.0687
  C  C1226  1  0.758690  0.545140  0.241310  1.0  -0.1268
  C  C1227  1  0.827640  0.109420  0.672360  1.0  0.6005
  C  C1228  1  0.815650  0.086410  0.684350  1.0  0.2227
  C  C1229  1  0.797150  0.045210  0.702850  1.0  0.1087
  C  C1230  1  0.786120  0.021710  0.713880  1.0  -0.0441
  C  C1231  1  0.768430  0.023610  0.731570  1.0  0.0687
  C  C1232  1  0.758690  0.045140  0.741310  1.0  -0.1268
  C  C1233  1  0.672360  0.672360  0.609420  1.0  0.6037
  C  C1234  1  0.684350  0.684350  0.586410  1.0  0.2289
  C  C1235  1  0.702850  0.702850  0.545210  1.0  0.1083
  C  C1236  1  0.713880  0.713880  0.521710  1.0  -0.0432
  C  C1237  1  0.731570  0.731570  0.523610  1.0  0.0677
  C  C1238  1  0.741310  0.741310  0.545140  1.0  -0.1294
  C  C1239  1  0.672360  0.172360  0.109420  1.0  0.6037
  C  C1240  1  0.684350  0.184350  0.086410  1.0  0.2289
  C  C1241  1  0.702850  0.202850  0.045210  1.0  0.1083
  C  C1242  1  0.713880  0.213880  0.021710  1.0  -0.0432
  C  C1243  1  0.731570  0.231570  0.023610  1.0  0.0677
  C  C1244  1  0.741310  0.241310  0.045140  1.0  -0.1294
  C  C1245  1  0.172360  0.672360  0.109420  1.0  0.6037
  C  C1246  1  0.184350  0.684350  0.086410  1.0  0.2289
  C  C1247  1  0.202850  0.702850  0.045210  1.0  0.1083
  C  C1248  1  0.213880  0.713880  0.021710  1.0  -0.0432
  C  C1249  1  0.231570  0.731570  0.023610  1.0  0.0677
  C  C1250  1  0.241310  0.741310  0.045140  1.0  -0.1294
  C  C1251  1  0.172360  0.172360  0.609420  1.0  0.6037
  C  C1252  1  0.184350  0.184350  0.586410  1.0  0.2289
  C  C1253  1  0.202850  0.202850  0.545210  1.0  0.1083
  C  C1254  1  0.213880  0.213880  0.521710  1.0  -0.0432
  C  C1255  1  0.231570  0.231570  0.523610  1.0  0.0677
  C  C1256  1  0.241310  0.241310  0.545140  1.0  -0.1294
  C  C1257  1  0.327640  0.327640  0.609420  1.0  0.6019
  C  C1258  1  0.315650  0.315650  0.586410  1.0  0.2276
  C  C1259  1  0.297150  0.297150  0.545210  1.0  0.109
  C  C1260  1  0.286120  0.286120  0.521710  1.0  -0.0431
  C  C1261  1  0.268430  0.268430  0.523610  1.0  0.0691
  C  C1262  1  0.258690  0.258690  0.545140  1.0  -0.1287
  C  C1263  1  0.327640  0.827640  0.109420  1.0  0.6019
  C  C1264  1  0.315650  0.815650  0.086410  1.0  0.2276
  C  C1265  1  0.297150  0.797150  0.045210  1.0  0.109
  C  C1266  1  0.286120  0.786120  0.021710  1.0  -0.0431
  C  C1267  1  0.268430  0.768430  0.023610  1.0  0.0691
  C  C1268  1  0.258690  0.758690  0.045140  1.0  -0.1287
  C  C1269  1  0.827640  0.327640  0.109420  1.0  0.6019
  C  C1270  1  0.815650  0.315650  0.086410  1.0  0.2276
  C  C1271  1  0.797150  0.297150  0.045210  1.0  0.109
  C  C1272  1  0.786120  0.286120  0.021710  1.0  -0.0431
  C  C1273  1  0.768430  0.268430  0.023610  1.0  0.0691
  C  C1274  1  0.758690  0.258690  0.045140  1.0  -0.1287
  C  C1275  1  0.827640  0.827640  0.609420  1.0  0.6019
  C  C1276  1  0.815650  0.815650  0.586410  1.0  0.2276
  C  C1277  1  0.797150  0.797150  0.545210  1.0  0.109
  C  C1278  1  0.786120  0.786120  0.521710  1.0  -0.0431
  C  C1279  1  0.768430  0.768430  0.523610  1.0  0.0691
  C  C1280  1  0.758690  0.758690  0.545140  1.0  -0.1287
  C  C1281  1  0.672360  0.327640  0.390580  1.0  0.6037
  C  C1282  1  0.684350  0.315650  0.413590  1.0  0.2248
  C  C1283  1  0.702850  0.297150  0.454790  1.0  0.1072
  C  C1284  1  0.713880  0.286120  0.478290  1.0  -0.0448
  C  C1285  1  0.731570  0.268430  0.476390  1.0  0.0678
  C  C1286  1  0.741310  0.258690  0.454860  1.0  -0.1287
  C  C1287  1  0.672360  0.827640  0.890580  1.0  0.6037
  C  C1288  1  0.684350  0.815650  0.913590  1.0  0.2248
  C  C1289  1  0.702850  0.797150  0.954790  1.0  0.1072
  C  C1290  1  0.713880  0.786120  0.978290  1.0  -0.0448
  C  C1291  1  0.731570  0.768430  0.976390  1.0  0.0678
  C  C1292  1  0.741310  0.758690  0.954860  1.0  -0.1287
  C  C1293  1  0.172360  0.327640  0.890580  1.0  0.6037
  C  C1294  1  0.184350  0.315650  0.913590  1.0  0.2248
  C  C1295  1  0.202850  0.297150  0.954790  1.0  0.1072
  C  C1296  1  0.213880  0.286120  0.978290  1.0  -0.0448
  C  C1297  1  0.231570  0.268430  0.976390  1.0  0.0678
  C  C1298  1  0.241310  0.258690  0.954860  1.0  -0.1287
  C  C1299  1  0.172360  0.827640  0.390580  1.0  0.6037
  C  C1300  1  0.184350  0.815650  0.413590  1.0  0.2248
  C  C1301  1  0.202850  0.797150  0.454790  1.0  0.1072
  C  C1302  1  0.213880  0.786120  0.478290  1.0  -0.0448
  C  C1303  1  0.231570  0.768430  0.476390  1.0  0.0678
  C  C1304  1  0.241310  0.758690  0.454860  1.0  -0.1287
  C  C1305  1  0.327640  0.672360  0.390580  1.0  0.6017
  C  C1306  1  0.315650  0.684350  0.413590  1.0  0.2255
  C  C1307  1  0.297150  0.702850  0.454790  1.0  0.1073
  C  C1308  1  0.286120  0.713880  0.478290  1.0  -0.044
  C  C1309  1  0.268430  0.731570  0.476390  1.0  0.0697
  C  C1310  1  0.258690  0.741310  0.454860  1.0  -0.1289
  C  C1311  1  0.327640  0.172360  0.890580  1.0  0.6017
  C  C1312  1  0.315650  0.184350  0.913590  1.0  0.2255
  C  C1313  1  0.297150  0.202850  0.954790  1.0  0.1073
  C  C1314  1  0.286120  0.213880  0.978290  1.0  -0.044
  C  C1315  1  0.268430  0.231570  0.976390  1.0  0.0697
  C  C1316  1  0.258690  0.241310  0.954860  1.0  -0.1289
  C  C1317  1  0.827640  0.672360  0.890580  1.0  0.6017
  C  C1318  1  0.815650  0.684350  0.913590  1.0  0.2255
  C  C1319  1  0.797150  0.702850  0.954790  1.0  0.1073
  C  C1320  1  0.786120  0.713880  0.978290  1.0  -0.044
  C  C1321  1  0.768430  0.731570  0.976390  1.0  0.0697
  C  C1322  1  0.758690  0.741310  0.954860  1.0  -0.1289
  C  C1323  1  0.827640  0.172360  0.390580  1.0  0.6017
  C  C1324  1  0.815650  0.184350  0.413590  1.0  0.2255
  C  C1325  1  0.797150  0.202850  0.454790  1.0  0.1073
  C  C1326  1  0.786120  0.213880  0.478290  1.0  -0.044
  C  C1327  1  0.768430  0.231570  0.476390  1.0  0.0697
  C  C1328  1  0.758690  0.241310  0.454860  1.0  -0.1289
  C  C1329  1  0.672360  0.390580  0.327640  1.0  0.6033
  C  C1330  1  0.684350  0.413590  0.315650  1.0  0.2256
  C  C1331  1  0.702850  0.454790  0.297150  1.0  0.1085
  C  C1332  1  0.713880  0.478290  0.286120  1.0  -0.0446
  C  C1333  1  0.731570  0.476390  0.268430  1.0  0.0683
  C  C1334  1  0.741310  0.454860  0.258690  1.0  -0.1262
  C  C1335  1  0.672360  0.890580  0.827640  1.0  0.6033
  C  C1336  1  0.684350  0.913590  0.815650  1.0  0.2256
  C  C1337  1  0.702850  0.954790  0.797150  1.0  0.1085
  C  C1338  1  0.713880  0.978290  0.786120  1.0  -0.0446
  C  C1339  1  0.731570  0.976390  0.768430  1.0  0.0683
  C  C1340  1  0.741310  0.954860  0.758690  1.0  -0.1262
  C  C1341  1  0.172360  0.390580  0.827640  1.0  0.6033
  C  C1342  1  0.184350  0.413590  0.815650  1.0  0.2256
  C  C1343  1  0.202850  0.454790  0.797150  1.0  0.1085
  C  C1344  1  0.213880  0.478290  0.786120  1.0  -0.0446
  C  C1345  1  0.231570  0.476390  0.768430  1.0  0.0683
  C  C1346  1  0.241310  0.454860  0.758690  1.0  -0.1262
  C  C1347  1  0.172360  0.890580  0.327640  1.0  0.6033
  C  C1348  1  0.184350  0.913590  0.315650  1.0  0.2256
  C  C1349  1  0.202850  0.954790  0.297150  1.0  0.1085
  C  C1350  1  0.213880  0.978290  0.286120  1.0  -0.0446
  C  C1351  1  0.231570  0.976390  0.268430  1.0  0.0683
  C  C1352  1  0.241310  0.954860  0.258690  1.0  -0.1262
  C  C1353  1  0.327640  0.390580  0.672360  1.0  0.6014
  C  C1354  1  0.315650  0.413590  0.684350  1.0  0.2257
  C  C1355  1  0.297150  0.454790  0.702850  1.0  0.1092
  C  C1356  1  0.286120  0.478290  0.713880  1.0  -0.044
  C  C1357  1  0.268430  0.476390  0.731570  1.0  0.0697
  C  C1358  1  0.258690  0.454860  0.741310  1.0  -0.1263
  C  C1359  1  0.327640  0.890580  0.172360  1.0  0.6014
  C  C1360  1  0.315650  0.913590  0.184350  1.0  0.2257
  C  C1361  1  0.297150  0.954790  0.202850  1.0  0.1092
  C  C1362  1  0.286120  0.978290  0.213880  1.0  -0.044
  C  C1363  1  0.268430  0.976390  0.231570  1.0  0.0697
  C  C1364  1  0.258690  0.954860  0.241310  1.0  -0.1263
  C  C1365  1  0.827640  0.390580  0.172360  1.0  0.6014
  C  C1366  1  0.815650  0.413590  0.184350  1.0  0.2257
  C  C1367  1  0.797150  0.454790  0.202850  1.0  0.1092
  C  C1368  1  0.786120  0.478290  0.213880  1.0  -0.044
  C  C1369  1  0.768430  0.476390  0.231570  1.0  0.0697
  C  C1370  1  0.758690  0.454860  0.241310  1.0  -0.1263
  C  C1371  1  0.827640  0.890580  0.672360  1.0  0.6014
  C  C1372  1  0.815650  0.913590  0.684350  1.0  0.2257
  C  C1373  1  0.797150  0.954790  0.702850  1.0  0.1092
  C  C1374  1  0.786120  0.978290  0.713880  1.0  -0.044
  C  C1375  1  0.768430  0.976390  0.731570  1.0  0.0697
  C  C1376  1  0.758690  0.954860  0.741310  1.0  -0.1263
  C  C1377  1  0.327640  0.609420  0.327640  1.0  0.6001
  C  C1378  1  0.315650  0.586410  0.315650  1.0  0.2235
  C  C1379  1  0.297150  0.545210  0.297150  1.0  0.109
  C  C1380  1  0.286120  0.521710  0.286120  1.0  -0.0442
  C  C1381  1  0.268430  0.523610  0.268430  1.0  0.0715
  C  C1382  1  0.258690  0.545140  0.258690  1.0  -0.1259
  C  C1383  1  0.327640  0.109420  0.827640  1.0  0.6001
  C  C1384  1  0.315650  0.086410  0.815650  1.0  0.2235
  C  C1385  1  0.297150  0.045210  0.797150  1.0  0.109
  C  C1386  1  0.286120  0.021710  0.786120  1.0  -0.0442
  C  C1387  1  0.268430  0.023610  0.768430  1.0  0.0715
  C  C1388  1  0.258690  0.045140  0.758690  1.0  -0.1259
  C  C1389  1  0.827640  0.609420  0.827640  1.0  0.6001
  C  C1390  1  0.815650  0.586410  0.815650  1.0  0.2235
  C  C1391  1  0.797150  0.545210  0.797150  1.0  0.109
  C  C1392  1  0.786120  0.521710  0.786120  1.0  -0.0442
  C  C1393  1  0.768430  0.523610  0.768430  1.0  0.0715
  C  C1394  1  0.758690  0.545140  0.758690  1.0  -0.1259
  C  C1395  1  0.827640  0.109420  0.327640  1.0  0.6001
  C  C1396  1  0.815650  0.086410  0.315650  1.0  0.2235
  C  C1397  1  0.797150  0.045210  0.297150  1.0  0.109
  C  C1398  1  0.786120  0.021710  0.286120  1.0  -0.0442
  C  C1399  1  0.768430  0.023610  0.268430  1.0  0.0715
  C  C1400  1  0.758690  0.045140  0.258690  1.0  -0.1259
  C  C1401  1  0.672360  0.609420  0.672360  1.0  0.6022
  C  C1402  1  0.684350  0.586410  0.684350  1.0  0.2235
  C  C1403  1  0.702850  0.545210  0.702850  1.0  0.1079
  C  C1404  1  0.713880  0.521710  0.713880  1.0  -0.0446
  C  C1405  1  0.731570  0.523610  0.731570  1.0  0.067
  C  C1406  1  0.741310  0.545140  0.741310  1.0  -0.1278
  C  C1407  1  0.672360  0.109420  0.172360  1.0  0.6022
  C  C1408  1  0.684350  0.086410  0.184350  1.0  0.2235
  C  C1409  1  0.702850  0.045210  0.202850  1.0  0.1079
  C  C1410  1  0.713880  0.021710  0.213880  1.0  -0.0446
  C  C1411  1  0.731570  0.023610  0.231570  1.0  0.067
  C  C1412  1  0.741310  0.045140  0.241310  1.0  -0.1278
  C  C1413  1  0.172360  0.609420  0.172360  1.0  0.6022
  C  C1414  1  0.184350  0.586410  0.184350  1.0  0.2235
  C  C1415  1  0.202850  0.545210  0.202850  1.0  0.1079
  C  C1416  1  0.213880  0.521710  0.213880  1.0  -0.0446
  C  C1417  1  0.231570  0.523610  0.231570  1.0  0.067
  C  C1418  1  0.241310  0.545140  0.241310  1.0  -0.1278
  C  C1419  1  0.172360  0.109420  0.672360  1.0  0.6022
  C  C1420  1  0.184350  0.086410  0.684350  1.0  0.2235
  C  C1421  1  0.202850  0.045210  0.702850  1.0  0.1079
  C  C1422  1  0.213880  0.021710  0.713880  1.0  -0.0446
  C  C1423  1  0.231570  0.023610  0.731570  1.0  0.067
  C  C1424  1  0.241310  0.045140  0.741310  1.0  -0.1278
  C  C1425  1  0.390580  0.672360  0.327640  1.0  0.6037
  C  C1426  1  0.413590  0.684350  0.315650  1.0  0.2219
  C  C1427  1  0.454790  0.702850  0.297150  1.0  0.1038
  C  C1428  1  0.478290  0.713880  0.286120  1.0  -0.0444
  C  C1429  1  0.476390  0.731570  0.268430  1.0  0.0681
  C  C1430  1  0.454860  0.741310  0.258690  1.0  -0.1267
  C  C1431  1  0.390580  0.172360  0.827640  1.0  0.6037
  C  C1432  1  0.413590  0.184350  0.815650  1.0  0.2219
  C  C1433  1  0.454790  0.202850  0.797150  1.0  0.1038
  C  C1434  1  0.478290  0.213880  0.786120  1.0  -0.0444
  C  C1435  1  0.476390  0.231570  0.768430  1.0  0.0681
  C  C1436  1  0.454860  0.241310  0.758690  1.0  -0.1267
  C  C1437  1  0.890580  0.672360  0.827640  1.0  0.6037
  C  C1438  1  0.913590  0.684350  0.815650  1.0  0.2219
  C  C1439  1  0.954790  0.702850  0.797150  1.0  0.1038
  C  C1440  1  0.978290  0.713880  0.786120  1.0  -0.0444
  C  C1441  1  0.976390  0.731570  0.768430  1.0  0.0681
  C  C1442  1  0.954860  0.741310  0.758690  1.0  -0.1267
  C  C1443  1  0.890580  0.172360  0.327640  1.0  0.6037
  C  C1444  1  0.913590  0.184350  0.315650  1.0  0.2219
  C  C1445  1  0.954790  0.202850  0.297150  1.0  0.1038
  C  C1446  1  0.978290  0.213880  0.286120  1.0  -0.0444
  C  C1447  1  0.976390  0.231570  0.268430  1.0  0.0681
  C  C1448  1  0.954860  0.241310  0.258690  1.0  -0.1267
  C  C1449  1  0.390580  0.327640  0.672360  1.0  0.6034
  C  C1450  1  0.413590  0.315650  0.684350  1.0  0.2205
  C  C1451  1  0.454790  0.297150  0.702850  1.0  0.1047
  C  C1452  1  0.478290  0.286120  0.713880  1.0  -0.0448
  C  C1453  1  0.476390  0.268430  0.731570  1.0  0.07
  C  C1454  1  0.454860  0.258690  0.741310  1.0  -0.1261
  C  C1455  1  0.390580  0.827640  0.172360  1.0  0.6034
  C  C1456  1  0.413590  0.815650  0.184350  1.0  0.2205
  C  C1457  1  0.454790  0.797150  0.202850  1.0  0.1047
  C  C1458  1  0.478290  0.786120  0.213880  1.0  -0.0448
  C  C1459  1  0.476390  0.768430  0.231570  1.0  0.07
  C  C1460  1  0.454860  0.758690  0.241310  1.0  -0.1261
  C  C1461  1  0.890580  0.327640  0.172360  1.0  0.6034
  C  C1462  1  0.913590  0.315650  0.184350  1.0  0.2205
  C  C1463  1  0.954790  0.297150  0.202850  1.0  0.1047
  C  C1464  1  0.978290  0.286120  0.213880  1.0  -0.0448
  C  C1465  1  0.976390  0.268430  0.231570  1.0  0.07
  C  C1466  1  0.954860  0.258690  0.241310  1.0  -0.1261
  C  C1467  1  0.890580  0.827640  0.672360  1.0  0.6034
  C  C1468  1  0.913590  0.815650  0.684350  1.0  0.2205
  C  C1469  1  0.954790  0.797150  0.702850  1.0  0.1047
  C  C1470  1  0.978290  0.786120  0.713880  1.0  -0.0448
  C  C1471  1  0.976390  0.768430  0.731570  1.0  0.07
  C  C1472  1  0.954860  0.758690  0.741310  1.0  -0.1261
  C  C1473  1  0.609420  0.672360  0.672360  1.0  0.6022
  C  C1474  1  0.586410  0.684350  0.684350  1.0  0.2221
  C  C1475  1  0.545210  0.702850  0.702850  1.0  0.1069
  C  C1476  1  0.521710  0.713880  0.713880  1.0  -0.0445
  C  C1477  1  0.523610  0.731570  0.731570  1.0  0.0668
  C  C1478  1  0.545140  0.741310  0.741310  1.0  -0.1251
  C  C1479  1  0.609420  0.172360  0.172360  1.0  0.6022
  C  C1480  1  0.586410  0.184350  0.184350  1.0  0.2221
  C  C1481  1  0.545210  0.202850  0.202850  1.0  0.1069
  C  C1482  1  0.521710  0.213880  0.213880  1.0  -0.0445
  C  C1483  1  0.523610  0.231570  0.231570  1.0  0.0668
  C  C1484  1  0.545140  0.241310  0.241310  1.0  -0.1251
  C  C1485  1  0.109420  0.672360  0.172360  1.0  0.6022
  C  C1486  1  0.086410  0.684350  0.184350  1.0  0.2221
  C  C1487  1  0.045210  0.702850  0.202850  1.0  0.1069
  C  C1488  1  0.021710  0.713880  0.213880  1.0  -0.0445
  C  C1489  1  0.023610  0.731570  0.231570  1.0  0.0668
  C  C1490  1  0.045140  0.741310  0.241310  1.0  -0.1251
  C  C1491  1  0.109420  0.172360  0.672360  1.0  0.6022
  C  C1492  1  0.086410  0.184350  0.684350  1.0  0.2221
  C  C1493  1  0.045210  0.202850  0.702850  1.0  0.1069
  C  C1494  1  0.021710  0.213880  0.713880  1.0  -0.0445
  C  C1495  1  0.023610  0.231570  0.731570  1.0  0.0668
  C  C1496  1  0.045140  0.241310  0.741310  1.0  -0.1251
  C  C1497  1  0.609420  0.327640  0.327640  1.0  0.6021
  C  C1498  1  0.586410  0.315650  0.315650  1.0  0.2209
  C  C1499  1  0.545210  0.297150  0.297150  1.0  0.1071
  C  C1500  1  0.521710  0.286120  0.286120  1.0  -0.0448
  C  C1501  1  0.523610  0.268430  0.268430  1.0  0.0692
  C  C1502  1  0.545140  0.258690  0.258690  1.0  -0.1241
  C  C1503  1  0.609420  0.827640  0.827640  1.0  0.6021
  C  C1504  1  0.586410  0.815650  0.815650  1.0  0.2209
  C  C1505  1  0.545210  0.797150  0.797150  1.0  0.1071
  C  C1506  1  0.521710  0.786120  0.786120  1.0  -0.0448
  C  C1507  1  0.523610  0.768430  0.768430  1.0  0.0692
  C  C1508  1  0.545140  0.758690  0.758690  1.0  -0.1241
  C  C1509  1  0.109420  0.327640  0.827640  1.0  0.6021
  C  C1510  1  0.086410  0.315650  0.815650  1.0  0.2209
  C  C1511  1  0.045210  0.297150  0.797150  1.0  0.1071
  C  C1512  1  0.021710  0.286120  0.786120  1.0  -0.0448
  C  C1513  1  0.023610  0.268430  0.768430  1.0  0.0692
  C  C1514  1  0.045140  0.258690  0.758690  1.0  -0.1241
  C  C1515  1  0.109420  0.827640  0.327640  1.0  0.6021
  C  C1516  1  0.086410  0.815650  0.315650  1.0  0.2209
  C  C1517  1  0.045210  0.797150  0.297150  1.0  0.1071
  C  C1518  1  0.021710  0.786120  0.286120  1.0  -0.0448
  C  C1519  1  0.023610  0.768430  0.268430  1.0  0.0692
  C  C1520  1  0.045140  0.758690  0.258690  1.0  -0.1241
  C  C1521  1  0.705500  0.705500  0.500000  1.0  -0.0869
  C  C1522  1  0.740740  0.740740  0.500000  1.0  -0.1082
  C  C1523  1  0.705500  0.205500  0.000000  1.0  -0.0869
  C  C1524  1  0.740740  0.240740  0.000000  1.0  -0.1082
  C  C1525  1  0.205500  0.705500  0.000000  1.0  -0.0869
  C  C1526  1  0.240740  0.740740  0.000000  1.0  -0.1082
  C  C1527  1  0.205500  0.205500  0.500000  1.0  -0.0869
  C  C1528  1  0.240740  0.240740  0.500000  1.0  -0.1082
  C  C1529  1  0.294500  0.294500  0.500000  1.0  -0.0878
  C  C1530  1  0.259260  0.259260  0.500000  1.0  -0.1079
  C  C1531  1  0.294500  0.794500  0.000000  1.0  -0.0878
  C  C1532  1  0.259260  0.759260  0.000000  1.0  -0.1079
  C  C1533  1  0.794500  0.294500  0.000000  1.0  -0.0878
  C  C1534  1  0.759260  0.259260  0.000000  1.0  -0.1079
  C  C1535  1  0.794500  0.794500  0.500000  1.0  -0.0878
  C  C1536  1  0.759260  0.759260  0.500000  1.0  -0.1079
  C  C1537  1  0.294500  0.705500  0.500000  1.0  -0.0877
  C  C1538  1  0.259260  0.740740  0.500000  1.0  -0.108
  C  C1539  1  0.294500  0.205500  0.000000  1.0  -0.0877
  C  C1540  1  0.259260  0.240740  0.000000  1.0  -0.108
  C  C1541  1  0.794500  0.705500  0.000000  1.0  -0.0877
  C  C1542  1  0.759260  0.740740  0.000000  1.0  -0.108
  C  C1543  1  0.794500  0.205500  0.500000  1.0  -0.0877
  C  C1544  1  0.759260  0.240740  0.500000  1.0  -0.108
  C  C1545  1  0.705500  0.294500  0.500000  1.0  -0.0869
  C  C1546  1  0.740740  0.259260  0.500000  1.0  -0.1081
  C  C1547  1  0.705500  0.794500  0.000000  1.0  -0.0869
  C  C1548  1  0.740740  0.759260  0.000000  1.0  -0.1081
  C  C1549  1  0.205500  0.294500  0.000000  1.0  -0.0869
  C  C1550  1  0.240740  0.259260  0.000000  1.0  -0.1081
  C  C1551  1  0.205500  0.794500  0.500000  1.0  -0.0869
  C  C1552  1  0.240740  0.759260  0.500000  1.0  -0.1081
  C  C1553  1  0.500000  0.705500  0.705500  1.0  -0.0853
  C  C1554  1  0.500000  0.740740  0.740740  1.0  -0.108
  C  C1555  1  0.500000  0.205500  0.205500  1.0  -0.0853
  C  C1556  1  0.500000  0.240740  0.240740  1.0  -0.108
  C  C1557  1  0.000000  0.705500  0.205500  1.0  -0.0853
  C  C1558  1  0.000000  0.740740  0.240740  1.0  -0.108
  C  C1559  1  0.000000  0.205500  0.705500  1.0  -0.0853
  C  C1560  1  0.000000  0.240740  0.740740  1.0  -0.108
  C  C1561  1  0.500000  0.294500  0.294500  1.0  -0.0861
  C  C1562  1  0.500000  0.259260  0.259260  1.0  -0.1079
  C  C1563  1  0.500000  0.794500  0.794500  1.0  -0.0861
  C  C1564  1  0.500000  0.759260  0.759260  1.0  -0.1079
  C  C1565  1  0.000000  0.294500  0.794500  1.0  -0.0861
  C  C1566  1  0.000000  0.259260  0.759260  1.0  -0.1079
  C  C1567  1  0.000000  0.794500  0.294500  1.0  -0.0861
  C  C1568  1  0.000000  0.759260  0.259260  1.0  -0.1079
  C  C1569  1  0.500000  0.294500  0.705500  1.0  -0.0849
  C  C1570  1  0.500000  0.259260  0.740740  1.0  -0.108
  C  C1571  1  0.500000  0.794500  0.205500  1.0  -0.0849
  C  C1572  1  0.500000  0.759260  0.240740  1.0  -0.108
  C  C1573  1  0.000000  0.294500  0.205500  1.0  -0.0849
  C  C1574  1  0.000000  0.259260  0.240740  1.0  -0.108
  C  C1575  1  0.000000  0.794500  0.705500  1.0  -0.0849
  C  C1576  1  0.000000  0.759260  0.740740  1.0  -0.108
  C  C1577  1  0.500000  0.705500  0.294500  1.0  -0.0853
  C  C1578  1  0.500000  0.740740  0.259260  1.0  -0.1079
  C  C1579  1  0.500000  0.205500  0.794500  1.0  -0.0853
  C  C1580  1  0.500000  0.240740  0.759260  1.0  -0.1079
  C  C1581  1  0.000000  0.705500  0.794500  1.0  -0.0853
  C  C1582  1  0.000000  0.740740  0.759260  1.0  -0.1079
  C  C1583  1  0.000000  0.205500  0.294500  1.0  -0.0853
  C  C1584  1  0.000000  0.240740  0.259260  1.0  -0.1079
  C  C1585  1  0.705500  0.500000  0.705500  1.0  -0.0869
  C  C1586  1  0.740740  0.500000  0.740740  1.0  -0.1082
  C  C1587  1  0.705500  0.000000  0.205500  1.0  -0.0869
  C  C1588  1  0.740740  0.000000  0.240740  1.0  -0.1082
  C  C1589  1  0.205500  0.500000  0.205500  1.0  -0.0869
  C  C1590  1  0.240740  0.500000  0.240740  1.0  -0.1082
  C  C1591  1  0.205500  0.000000  0.705500  1.0  -0.0869
  C  C1592  1  0.240740  0.000000  0.740740  1.0  -0.1082
  C  C1593  1  0.294500  0.500000  0.294500  1.0  -0.0881
  C  C1594  1  0.259260  0.500000  0.259260  1.0  -0.1079
  C  C1595  1  0.294500  0.000000  0.794500  1.0  -0.0881
  C  C1596  1  0.259260  0.000000  0.759260  1.0  -0.1079
  C  C1597  1  0.794500  0.500000  0.794500  1.0  -0.0881
  C  C1598  1  0.759260  0.500000  0.759260  1.0  -0.1079
  C  C1599  1  0.794500  0.000000  0.294500  1.0  -0.0881
  C  C1600  1  0.759260  0.000000  0.259260  1.0  -0.1079
  C  C1601  1  0.705500  0.500000  0.294500  1.0  -0.0874
  C  C1602  1  0.740740  0.500000  0.259260  1.0  -0.1081
  C  C1603  1  0.705500  0.000000  0.794500  1.0  -0.0874
  C  C1604  1  0.740740  0.000000  0.759260  1.0  -0.1081
  C  C1605  1  0.205500  0.500000  0.794500  1.0  -0.0874
  C  C1606  1  0.240740  0.500000  0.759260  1.0  -0.1081
  C  C1607  1  0.205500  0.000000  0.294500  1.0  -0.0874
  C  C1608  1  0.240740  0.000000  0.259260  1.0  -0.1081
  C  C1609  1  0.294500  0.500000  0.705500  1.0  -0.0875
  C  C1610  1  0.259260  0.500000  0.740740  1.0  -0.108
  C  C1611  1  0.294500  0.000000  0.205500  1.0  -0.0875
  C  C1612  1  0.259260  0.000000  0.240740  1.0  -0.108
  C  C1613  1  0.794500  0.500000  0.205500  1.0  -0.0875
  C  C1614  1  0.759260  0.500000  0.240740  1.0  -0.108
  C  C1615  1  0.794500  0.000000  0.705500  1.0  -0.0875
  C  C1616  1  0.759260  0.000000  0.740740  1.0  -0.108
  O  O1617  1  0.653800  0.681880  0.381570  1.0  -0.6614
  O  O1618  1  0.653800  0.181880  0.881570  1.0  -0.6614
  O  O1619  1  0.153800  0.681880  0.881570  1.0  -0.6614
  O  O1620  1  0.153800  0.181880  0.381570  1.0  -0.6614
  O  O1621  1  0.346200  0.318120  0.381570  1.0  -0.6678
  O  O1622  1  0.346200  0.818120  0.881570  1.0  -0.6678
  O  O1623  1  0.846200  0.318120  0.881570  1.0  -0.6678
  O  O1624  1  0.846200  0.818120  0.381570  1.0  -0.6678
  O  O1625  1  0.346200  0.681880  0.618430  1.0  -0.6633
  O  O1626  1  0.346200  0.181880  0.118430  1.0  -0.6633
  O  O1627  1  0.846200  0.681880  0.118430  1.0  -0.6633
  O  O1628  1  0.846200  0.181880  0.618430  1.0  -0.6633
  O  O1629  1  0.653800  0.318120  0.618430  1.0  -0.6673
  O  O1630  1  0.653800  0.818120  0.118430  1.0  -0.6673
  O  O1631  1  0.153800  0.318120  0.118430  1.0  -0.6673
  O  O1632  1  0.153800  0.818120  0.618430  1.0  -0.6673
  O  O1633  1  0.381570  0.653800  0.681880  1.0  -0.6629
  O  O1634  1  0.381570  0.153800  0.181880  1.0  -0.6629
  O  O1635  1  0.881570  0.653800  0.181880  1.0  -0.6629
  O  O1636  1  0.881570  0.153800  0.681880  1.0  -0.6629
  O  O1637  1  0.381570  0.346200  0.318120  1.0  -0.6675
  O  O1638  1  0.381570  0.846200  0.818120  1.0  -0.6675
  O  O1639  1  0.881570  0.346200  0.818120  1.0  -0.6675
  O  O1640  1  0.881570  0.846200  0.318120  1.0  -0.6675
  O  O1641  1  0.618430  0.346200  0.681880  1.0  -0.6669
  O  O1642  1  0.618430  0.846200  0.181880  1.0  -0.6669
  O  O1643  1  0.118430  0.346200  0.181880  1.0  -0.6669
  O  O1644  1  0.118430  0.846200  0.681880  1.0  -0.6669
  O  O1645  1  0.618430  0.653800  0.318120  1.0  -0.668
  O  O1646  1  0.618430  0.153800  0.818120  1.0  -0.668
  O  O1647  1  0.118430  0.653800  0.818120  1.0  -0.668
  O  O1648  1  0.118430  0.153800  0.318120  1.0  -0.668
  O  O1649  1  0.681880  0.381570  0.653800  1.0  -0.6665
  O  O1650  1  0.681880  0.881570  0.153800  1.0  -0.6665
  O  O1651  1  0.181880  0.381570  0.153800  1.0  -0.6665
  O  O1652  1  0.181880  0.881570  0.653800  1.0  -0.6665
  O  O1653  1  0.318120  0.381570  0.346200  1.0  -0.6683
  O  O1654  1  0.318120  0.881570  0.846200  1.0  -0.6683
  O  O1655  1  0.818120  0.381570  0.846200  1.0  -0.6683
  O  O1656  1  0.818120  0.881570  0.346200  1.0  -0.6683
  O  O1657  1  0.681880  0.618430  0.346200  1.0  -0.6638
  O  O1658  1  0.681880  0.118430  0.846200  1.0  -0.6638
  O  O1659  1  0.181880  0.618430  0.846200  1.0  -0.6638
  O  O1660  1  0.181880  0.118430  0.346200  1.0  -0.6638
  O  O1661  1  0.318120  0.618430  0.653800  1.0  -0.6698
  O  O1662  1  0.318120  0.118430  0.153800  1.0  -0.6698
  O  O1663  1  0.818120  0.618430  0.153800  1.0  -0.6698
  O  O1664  1  0.818120  0.118430  0.653800  1.0  -0.6698
  O  O1665  1  0.681880  0.653800  0.618430  1.0  -0.6644
  O  O1666  1  0.681880  0.153800  0.118430  1.0  -0.6644
  O  O1667  1  0.181880  0.653800  0.118430  1.0  -0.6644
  O  O1668  1  0.181880  0.153800  0.618430  1.0  -0.6644
  O  O1669  1  0.318120  0.346200  0.618430  1.0  -0.6678
  O  O1670  1  0.318120  0.846200  0.118430  1.0  -0.6678
  O  O1671  1  0.818120  0.346200  0.118430  1.0  -0.6678
  O  O1672  1  0.818120  0.846200  0.618430  1.0  -0.6678
  O  O1673  1  0.681880  0.346200  0.381570  1.0  -0.6627
  O  O1674  1  0.681880  0.846200  0.881570  1.0  -0.6627
  O  O1675  1  0.181880  0.346200  0.881570  1.0  -0.6627
  O  O1676  1  0.181880  0.846200  0.381570  1.0  -0.6627
  O  O1677  1  0.318120  0.653800  0.381570  1.0  -0.6672
  O  O1678  1  0.318120  0.153800  0.881570  1.0  -0.6672
  O  O1679  1  0.818120  0.653800  0.881570  1.0  -0.6672
  O  O1680  1  0.818120  0.153800  0.381570  1.0  -0.6672
  O  O1681  1  0.653800  0.381570  0.318120  1.0  -0.6671
  O  O1682  1  0.653800  0.881570  0.818120  1.0  -0.6671
  O  O1683  1  0.153800  0.381570  0.818120  1.0  -0.6671
  O  O1684  1  0.153800  0.881570  0.318120  1.0  -0.6671
  O  O1685  1  0.346200  0.381570  0.681880  1.0  -0.6636
  O  O1686  1  0.346200  0.881570  0.181880  1.0  -0.6636
  O  O1687  1  0.846200  0.381570  0.181880  1.0  -0.6636
  O  O1688  1  0.846200  0.881570  0.681880  1.0  -0.6636
  O  O1689  1  0.346200  0.618430  0.318120  1.0  -0.6662
  O  O1690  1  0.346200  0.118430  0.818120  1.0  -0.6662
  O  O1691  1  0.846200  0.618430  0.818120  1.0  -0.6662
  O  O1692  1  0.846200  0.118430  0.318120  1.0  -0.6662
  O  O1693  1  0.653800  0.618430  0.681880  1.0  -0.666
  O  O1694  1  0.653800  0.118430  0.181880  1.0  -0.666
  O  O1695  1  0.153800  0.618430  0.181880  1.0  -0.666
  O  O1696  1  0.153800  0.118430  0.681880  1.0  -0.666
  O  O1697  1  0.381570  0.681880  0.346200  1.0  -0.6633
  O  O1698  1  0.381570  0.181880  0.846200  1.0  -0.6633
  O  O1699  1  0.881570  0.681880  0.846200  1.0  -0.6633
  O  O1700  1  0.881570  0.181880  0.346200  1.0  -0.6633
  O  O1701  1  0.381570  0.318120  0.653800  1.0  -0.6699
  O  O1702  1  0.381570  0.818120  0.153800  1.0  -0.6699
  O  O1703  1  0.881570  0.318120  0.153800  1.0  -0.6699
  O  O1704  1  0.881570  0.818120  0.653800  1.0  -0.6699
  O  O1705  1  0.618430  0.681880  0.653800  1.0  -0.6679
  O  O1706  1  0.618430  0.181880  0.153800  1.0  -0.6679
  O  O1707  1  0.118430  0.681880  0.153800  1.0  -0.6679
  O  O1708  1  0.118430  0.181880  0.653800  1.0  -0.6679
  O  O1709  1  0.618430  0.318120  0.346200  1.0  -0.6661
  O  O1710  1  0.618430  0.818120  0.846200  1.0  -0.6661
  O  O1711  1  0.118430  0.318120  0.846200  1.0  -0.6661
  O  O1712  1  0.118430  0.818120  0.346200  1.0  -0.6661
  O  O1713  1  0.346200  0.318120  0.618430  1.0  -0.6665
  O  O1714  1  0.346200  0.818120  0.118430  1.0  -0.6665
  O  O1715  1  0.846200  0.318120  0.118430  1.0  -0.6665
  O  O1716  1  0.846200  0.818120  0.618430  1.0  -0.6665
  O  O1717  1  0.653800  0.681880  0.618430  1.0  -0.6635
  O  O1718  1  0.653800  0.181880  0.118430  1.0  -0.6635
  O  O1719  1  0.153800  0.681880  0.118430  1.0  -0.6635
  O  O1720  1  0.153800  0.181880  0.618430  1.0  -0.6635
  O  O1721  1  0.653800  0.318120  0.381570  1.0  -0.6667
  O  O1722  1  0.653800  0.818120  0.881570  1.0  -0.6667
  O  O1723  1  0.153800  0.318120  0.881570  1.0  -0.6667
  O  O1724  1  0.153800  0.818120  0.381570  1.0  -0.6667
  O  O1725  1  0.346200  0.681880  0.381570  1.0  -0.6623
  O  O1726  1  0.346200  0.181880  0.881570  1.0  -0.6623
  O  O1727  1  0.846200  0.681880  0.881570  1.0  -0.6623
  O  O1728  1  0.846200  0.181880  0.381570  1.0  -0.6623
  O  O1729  1  0.618430  0.346200  0.318120  1.0  -0.6664
  O  O1730  1  0.618430  0.846200  0.818120  1.0  -0.6664
  O  O1731  1  0.118430  0.346200  0.818120  1.0  -0.6664
  O  O1732  1  0.118430  0.846200  0.318120  1.0  -0.6664
  O  O1733  1  0.618430  0.653800  0.681880  1.0  -0.6658
  O  O1734  1  0.618430  0.153800  0.181880  1.0  -0.6658
  O  O1735  1  0.118430  0.653800  0.181880  1.0  -0.6658
  O  O1736  1  0.118430  0.153800  0.681880  1.0  -0.6658
  O  O1737  1  0.381570  0.653800  0.318120  1.0  -0.6674
  O  O1738  1  0.381570  0.153800  0.818120  1.0  -0.6674
  O  O1739  1  0.881570  0.653800  0.818120  1.0  -0.6674
  O  O1740  1  0.881570  0.153800  0.318120  1.0  -0.6674
  O  O1741  1  0.381570  0.346200  0.681880  1.0  -0.6644
  O  O1742  1  0.381570  0.846200  0.181880  1.0  -0.6644
  O  O1743  1  0.881570  0.346200  0.181880  1.0  -0.6644
  O  O1744  1  0.881570  0.846200  0.681880  1.0  -0.6644
  O  O1745  1  0.318120  0.618430  0.346200  1.0  -0.6673
  O  O1746  1  0.318120  0.118430  0.846200  1.0  -0.6673
  O  O1747  1  0.818120  0.618430  0.846200  1.0  -0.6673
  O  O1748  1  0.818120  0.118430  0.346200  1.0  -0.6673
  O  O1749  1  0.681880  0.618430  0.653800  1.0  -0.666
  O  O1750  1  0.681880  0.118430  0.153800  1.0  -0.666
  O  O1751  1  0.181880  0.618430  0.153800  1.0  -0.666
  O  O1752  1  0.181880  0.118430  0.653800  1.0  -0.666
  O  O1753  1  0.318120  0.381570  0.653800  1.0  -0.67
  O  O1754  1  0.318120  0.881570  0.153800  1.0  -0.67
  O  O1755  1  0.818120  0.381570  0.153800  1.0  -0.67
  O  O1756  1  0.818120  0.881570  0.653800  1.0  -0.67
  O  O1757  1  0.681880  0.381570  0.346200  1.0  -0.664
  O  O1758  1  0.681880  0.881570  0.846200  1.0  -0.664
  O  O1759  1  0.181880  0.381570  0.846200  1.0  -0.664
  O  O1760  1  0.181880  0.881570  0.346200  1.0  -0.664
  O  O1761  1  0.318120  0.346200  0.381570  1.0  -0.6682
  O  O1762  1  0.318120  0.846200  0.881570  1.0  -0.6682
  O  O1763  1  0.818120  0.346200  0.881570  1.0  -0.6682
  O  O1764  1  0.818120  0.846200  0.381570  1.0  -0.6682
  O  O1765  1  0.681880  0.653800  0.381570  1.0  -0.664
  O  O1766  1  0.681880  0.153800  0.881570  1.0  -0.664
  O  O1767  1  0.181880  0.653800  0.881570  1.0  -0.664
  O  O1768  1  0.181880  0.153800  0.381570  1.0  -0.664
  O  O1769  1  0.318120  0.653800  0.618430  1.0  -0.6679
  O  O1770  1  0.318120  0.153800  0.118430  1.0  -0.6679
  O  O1771  1  0.818120  0.653800  0.118430  1.0  -0.6679
  O  O1772  1  0.818120  0.153800  0.618430  1.0  -0.6679
  O  O1773  1  0.681880  0.346200  0.618430  1.0  -0.664
  O  O1774  1  0.681880  0.846200  0.118430  1.0  -0.664
  O  O1775  1  0.181880  0.346200  0.118430  1.0  -0.664
  O  O1776  1  0.181880  0.846200  0.618430  1.0  -0.664
  O  O1777  1  0.346200  0.618430  0.681880  1.0  -0.667
  O  O1778  1  0.346200  0.118430  0.181880  1.0  -0.667
  O  O1779  1  0.846200  0.618430  0.181880  1.0  -0.667
  O  O1780  1  0.846200  0.118430  0.681880  1.0  -0.667
  O  O1781  1  0.653800  0.618430  0.318120  1.0  -0.6663
  O  O1782  1  0.653800  0.118430  0.818120  1.0  -0.6663
  O  O1783  1  0.153800  0.618430  0.818120  1.0  -0.6663
  O  O1784  1  0.153800  0.118430  0.318120  1.0  -0.6663
  O  O1785  1  0.653800  0.381570  0.681880  1.0  -0.663
  O  O1786  1  0.653800  0.881570  0.181880  1.0  -0.663
  O  O1787  1  0.153800  0.381570  0.181880  1.0  -0.663
  O  O1788  1  0.153800  0.881570  0.681880  1.0  -0.663
  O  O1789  1  0.346200  0.381570  0.318120  1.0  -0.6681
  O  O1790  1  0.346200  0.881570  0.818120  1.0  -0.6681
  O  O1791  1  0.846200  0.381570  0.818120  1.0  -0.6681
  O  O1792  1  0.846200  0.881570  0.318120  1.0  -0.6681
  O  O1793  1  0.618430  0.318120  0.653800  1.0  -0.6702
  O  O1794  1  0.618430  0.818120  0.153800  1.0  -0.6702
  O  O1795  1  0.118430  0.318120  0.153800  1.0  -0.6702
  O  O1796  1  0.118430  0.818120  0.653800  1.0  -0.6702
  O  O1797  1  0.618430  0.681880  0.346200  1.0  -0.6664
  O  O1798  1  0.618430  0.181880  0.846200  1.0  -0.6664
  O  O1799  1  0.118430  0.681880  0.846200  1.0  -0.6664
  O  O1800  1  0.118430  0.181880  0.346200  1.0  -0.6664
  O  O1801  1  0.381570  0.318120  0.346200  1.0  -0.6672
  O  O1802  1  0.381570  0.818120  0.846200  1.0  -0.6672
  O  O1803  1  0.881570  0.318120  0.846200  1.0  -0.6672
  O  O1804  1  0.881570  0.818120  0.346200  1.0  -0.6672
  O  O1805  1  0.381570  0.681880  0.653800  1.0  -0.6649
  O  O1806  1  0.381570  0.181880  0.153800  1.0  -0.6649
  O  O1807  1  0.881570  0.681880  0.153800  1.0  -0.6649
  O  O1808  1  0.881570  0.181880  0.653800  1.0  -0.6649
