# generated using pymatgen
data_ZnH8(C2O)5
_symmetry_space_group_name_H-M   'P 1'
_cell_length_a   27.67650000
_cell_length_b   27.67650000
_cell_length_c   17.93530000
_cell_angle_alpha   90.00000000
_cell_angle_beta   90.00000000
_cell_angle_gamma   120.00000000
_symmetry_Int_Tables_number   1
_chemical_formula_structural   ZnH8(C2O)5
_chemical_formula_sum   'Zn36 H288 C360 O180'
_cell_volume   11897.66161708
_cell_formula_units_Z   36
loop_
 _symmetry_equiv_pos_site_id
 _symmetry_equiv_pos_as_xyz
  1  'x, y, z'
loop_
 _atom_site_type_symbol
 _atom_site_label
 _atom_site_symmetry_multiplicity
 _atom_site_fract_x
 _atom_site_fract_y
 _atom_site_fract_z
 _atom_site_occupancy
 _atom_site_charge
  Zn  Zn1  1  0.333150  0.322550  0.398950  1.0  0.9391
  Zn  Zn2  1  0.309080  0.053950  0.418120  1.0  1.065
  Zn  Zn3  1  0.999820  0.655880  0.732280  1.0  0.9391
  Zn  Zn4  1  0.975750  0.387280  0.751450  1.0  1.0668
  Zn  Zn5  1  0.666480  0.989220  0.065620  1.0  0.9389
  Zn  Zn6  1  0.642410  0.720620  0.084790  1.0  1.0684
  Zn  Zn7  1  0.677450  0.010600  0.398950  1.0  0.9387
  Zn  Zn8  1  0.946050  0.255130  0.418120  1.0  1.067
  Zn  Zn9  1  0.344120  0.343930  0.732280  1.0  0.9387
  Zn  Zn10  1  0.612720  0.588460  0.751450  1.0  1.0671
  Zn  Zn11  1  0.010780  0.677270  0.065620  1.0  0.9387
  Zn  Zn12  1  0.279380  0.921800  0.084790  1.0  1.0645
  Zn  Zn13  1  0.989400  0.666850  0.398950  1.0  0.939
  Zn  Zn14  1  0.744870  0.690920  0.418120  1.0  1.0682
  Zn  Zn15  1  0.656070  0.000180  0.732280  1.0  0.939
  Zn  Zn16  1  0.411540  0.024250  0.751450  1.0  1.0665
  Zn  Zn17  1  0.322730  0.333520  0.065620  1.0  0.9389
  Zn  Zn18  1  0.078200  0.357590  0.084790  1.0  1.0682
  Zn  Zn19  1  0.666850  0.677450  0.601050  1.0  0.9402
  Zn  Zn20  1  0.690920  0.946050  0.581880  1.0  1.0648
  Zn  Zn21  1  0.333520  0.010780  0.934380  1.0  0.9402
  Zn  Zn22  1  0.357590  0.279380  0.915210  1.0  1.0681
  Zn  Zn23  1  0.000180  0.344120  0.267720  1.0  0.9402
  Zn  Zn24  1  0.024250  0.612720  0.248550  1.0  1.0666
  Zn  Zn25  1  0.322550  0.989400  0.601050  1.0  0.939
  Zn  Zn26  1  0.053950  0.744870  0.581880  1.0  1.067
  Zn  Zn27  1  0.989220  0.322730  0.934380  1.0  0.939
  Zn  Zn28  1  0.720620  0.078200  0.915210  1.0  1.0645
  Zn  Zn29  1  0.655880  0.656070  0.267720  1.0  0.939
  Zn  Zn30  1  0.387280  0.411540  0.248550  1.0  1.0671
  Zn  Zn31  1  0.010600  0.333150  0.601050  1.0  0.9394
  Zn  Zn32  1  0.255130  0.309080  0.581880  1.0  1.0674
  Zn  Zn33  1  0.677270  0.666480  0.934380  1.0  0.9394
  Zn  Zn34  1  0.921800  0.642410  0.915210  1.0  1.0675
  Zn  Zn35  1  0.343930  0.999820  0.267720  1.0  0.9394
  Zn  Zn36  1  0.588460  0.975750  0.248550  1.0  1.0657
  H  H37  1  0.276400  0.161800  0.561100  1.0  0.1201
  H  H38  1  0.249100  0.170100  0.782500  1.0  0.1192
  H  H39  1  0.247300  0.033200  0.697900  1.0  0.1219
  H  H40  1  0.190800  0.105900  0.865000  1.0  0.0772
  H  H41  1  0.252000  0.125600  0.897800  1.0  0.1027
  H  H42  1  0.156000  0.017800  0.921500  1.0  0.1255
  H  H43  1  0.185300  0.064600  0.984400  1.0  0.1297
  H  H44  1  0.217100  0.034600  0.950600  1.0  0.1248
  H  H45  1  0.343600  0.200500  0.309500  1.0  0.1205
  H  H46  1  0.428400  0.302400  0.136500  1.0  0.1189
  H  H47  1  0.423200  0.154100  0.160200  1.0  0.1195
  H  H48  1  0.426900  0.164100  0.032900  1.0  0.0759
  H  H49  1  0.490500  0.191400  0.060800  1.0  0.0822
  H  H50  1  0.456800  0.226500  0.930400  1.0  0.1288
  H  H51  1  0.487500  0.190600  0.928700  1.0  0.1326
  H  H52  1  0.520000  0.253600  0.958200  1.0  0.1408
  H  H53  1  0.943070  0.495130  0.894430  1.0  0.1201
  H  H54  1  0.915770  0.503430  0.115830  1.0  0.1192
  H  H55  1  0.913970  0.366530  0.031230  1.0  0.122
  H  H56  1  0.857470  0.439230  0.198330  1.0  0.0772
  H  H57  1  0.918670  0.458930  0.231130  1.0  0.1027
  H  H58  1  0.822670  0.351130  0.254830  1.0  0.1255
  H  H59  1  0.851970  0.397930  0.317730  1.0  0.1297
  H  H60  1  0.883770  0.367930  0.283930  1.0  0.1248
  H  H61  1  0.010270  0.533830  0.642830  1.0  0.1205
  H  H62  1  0.095070  0.635730  0.469830  1.0  0.1188
  H  H63  1  0.089870  0.487430  0.493530  1.0  0.1195
  H  H64  1  0.093570  0.497430  0.366230  1.0  0.0759
  H  H65  1  0.157170  0.524730  0.394130  1.0  0.0868
  H  H66  1  0.123470  0.559830  0.263730  1.0  0.1288
  H  H67  1  0.154170  0.523930  0.262030  1.0  0.1325
  H  H68  1  0.186670  0.586930  0.291530  1.0  0.1408
  H  H69  1  0.609730  0.828470  0.227770  1.0  0.1201
  H  H70  1  0.582430  0.836770  0.449170  1.0  0.1192
  H  H71  1  0.580630  0.699870  0.364570  1.0  0.1219
  H  H72  1  0.524130  0.772570  0.531670  1.0  0.0772
  H  H73  1  0.585330  0.792270  0.564470  1.0  0.1028
  H  H74  1  0.489330  0.684470  0.588170  1.0  0.1262
  H  H75  1  0.518630  0.731270  0.651070  1.0  0.1297
  H  H76  1  0.550430  0.701270  0.617270  1.0  0.1248
  H  H77  1  0.676930  0.867170  0.976170  1.0  0.1205
  H  H78  1  0.761730  0.969070  0.803170  1.0  0.1189
  H  H79  1  0.756530  0.820770  0.826870  1.0  0.1195
  H  H80  1  0.760230  0.830770  0.699570  1.0  0.0759
  H  H81  1  0.823830  0.858070  0.727470  1.0  0.0822
  H  H82  1  0.790130  0.893170  0.597070  1.0  0.1288
  H  H83  1  0.820830  0.857270  0.595370  1.0  0.1326
  H  H84  1  0.853330  0.920270  0.624870  1.0  0.1408
  H  H85  1  0.838200  0.114600  0.561100  1.0  0.1197
  H  H86  1  0.829900  0.079000  0.782500  1.0  0.1196
  H  H87  1  0.966800  0.214100  0.697900  1.0  0.122
  H  H88  1  0.894100  0.084900  0.865000  1.0  0.0759
  H  H89  1  0.874400  0.126400  0.897800  1.0  0.1042
  H  H90  1  0.982200  0.138200  0.921500  1.0  0.125
  H  H91  1  0.935400  0.120700  0.984400  1.0  0.1291
  H  H92  1  0.965400  0.182500  0.950600  1.0  0.1271
  H  H93  1  0.799500  0.143100  0.309500  1.0  0.1208
  H  H94  1  0.697600  0.126000  0.136500  1.0  0.1184
  H  H95  1  0.845900  0.269100  0.160200  1.0  0.1192
  H  H96  1  0.835900  0.262800  0.032900  1.0  0.0746
  H  H97  1  0.808600  0.299100  0.060800  1.0  0.0863
  H  H98  1  0.773500  0.230300  0.930400  1.0  0.1304
  H  H99  1  0.809400  0.296900  0.928700  1.0  0.1321
  H  H100  1  0.746400  0.266400  0.958200  1.0  0.1385
  H  H101  1  0.504870  0.447930  0.894430  1.0  0.1197
  H  H102  1  0.496570  0.412330  0.115830  1.0  0.1196
  H  H103  1  0.633470  0.547430  0.031230  1.0  0.122
  H  H104  1  0.560770  0.418230  0.198330  1.0  0.0758
  H  H105  1  0.541070  0.459730  0.231130  1.0  0.1042
  H  H106  1  0.648870  0.471530  0.254830  1.0  0.125
  H  H107  1  0.602070  0.454030  0.317730  1.0  0.1291
  H  H108  1  0.632070  0.515830  0.283930  1.0  0.1271
  H  H109  1  0.466170  0.476430  0.642830  1.0  0.1208
  H  H110  1  0.364270  0.459330  0.469830  1.0  0.1184
  H  H111  1  0.512570  0.602430  0.493530  1.0  0.1192
  H  H112  1  0.502570  0.596130  0.366230  1.0  0.0745
  H  H113  1  0.475270  0.632430  0.394130  1.0  0.084
  H  H114  1  0.440170  0.563630  0.263730  1.0  0.1304
  H  H115  1  0.476070  0.630230  0.262030  1.0  0.132
  H  H116  1  0.413070  0.599730  0.291530  1.0  0.1385
  H  H117  1  0.171530  0.781270  0.227770  1.0  0.1196
  H  H118  1  0.163230  0.745670  0.449170  1.0  0.1196
  H  H119  1  0.300130  0.880770  0.364570  1.0  0.122
  H  H120  1  0.227430  0.751570  0.531670  1.0  0.0759
  H  H121  1  0.207730  0.793070  0.564470  1.0  0.1042
  H  H122  1  0.315530  0.804870  0.588170  1.0  0.1241
  H  H123  1  0.268730  0.787370  0.651070  1.0  0.1291
  H  H124  1  0.298730  0.849170  0.617270  1.0  0.1271
  H  H125  1  0.132830  0.809770  0.976170  1.0  0.1208
  H  H126  1  0.030930  0.792670  0.803170  1.0  0.1184
  H  H127  1  0.179230  0.935770  0.826870  1.0  0.1192
  H  H128  1  0.169230  0.929470  0.699570  1.0  0.0746
  H  H129  1  0.141930  0.965770  0.727470  1.0  0.0863
  H  H130  1  0.106830  0.896970  0.597070  1.0  0.1304
  H  H131  1  0.142730  0.963570  0.595370  1.0  0.1321
  H  H132  1  0.079730  0.933070  0.624870  1.0  0.1396
  H  H133  1  0.885400  0.723600  0.561100  1.0  0.1189
  H  H134  1  0.921000  0.750900  0.782500  1.0  0.1191
  H  H135  1  0.785900  0.752700  0.697900  1.0  0.1223
  H  H136  1  0.915100  0.809200  0.865000  1.0  0.0778
  H  H137  1  0.873600  0.748000  0.897800  1.0  0.1021
  H  H138  1  0.861800  0.844000  0.921500  1.0  0.1269
  H  H139  1  0.879300  0.814700  0.984400  1.0  0.1292
  H  H140  1  0.817500  0.782900  0.950600  1.0  0.1242
  H  H141  1  0.856900  0.656400  0.309500  1.0  0.1204
  H  H142  1  0.874000  0.571600  0.136500  1.0  0.1175
  H  H143  1  0.730900  0.576800  0.160200  1.0  0.1195
  H  H144  1  0.737200  0.573100  0.032900  1.0  0.0751
  H  H145  1  0.700900  0.509500  0.060800  1.0  0.0834
  H  H146  1  0.769700  0.543200  0.930400  1.0  0.1305
  H  H147  1  0.703100  0.512500  0.928700  1.0  0.1312
  H  H148  1  0.733600  0.480000  0.958200  1.0  0.1379
  H  H149  1  0.552070  0.056930  0.894430  1.0  0.1189
  H  H150  1  0.587670  0.084230  0.115830  1.0  0.1192
  H  H151  1  0.452570  0.086030  0.031230  1.0  0.1224
  H  H152  1  0.581770  0.142530  0.198330  1.0  0.0778
  H  H153  1  0.540270  0.081330  0.231130  1.0  0.1021
  H  H154  1  0.528470  0.177330  0.254830  1.0  0.1269
  H  H155  1  0.545970  0.148030  0.317730  1.0  0.1291
  H  H156  1  0.484170  0.116230  0.283930  1.0  0.1242
  H  H157  1  0.523570  0.989730  0.642830  1.0  0.1205
  H  H158  1  0.540670  0.904930  0.469830  1.0  0.1176
  H  H159  1  0.397570  0.910130  0.493530  1.0  0.1196
  H  H160  1  0.403870  0.906430  0.366230  1.0  0.0751
  H  H161  1  0.367570  0.842830  0.394130  1.0  0.087
  H  H162  1  0.436370  0.876530  0.263730  1.0  0.1305
  H  H163  1  0.369770  0.845830  0.262030  1.0  0.1313
  H  H164  1  0.400270  0.813330  0.291530  1.0  0.1379
  H  H165  1  0.218730  0.390270  0.227770  1.0  0.1189
  H  H166  1  0.254330  0.417570  0.449170  1.0  0.1192
  H  H167  1  0.119230  0.419370  0.364570  1.0  0.1223
  H  H168  1  0.248430  0.475870  0.531670  1.0  0.0776
  H  H169  1  0.206930  0.414670  0.564470  1.0  0.1021
  H  H170  1  0.195130  0.510670  0.588170  1.0  0.1275
  H  H171  1  0.212630  0.481370  0.651070  1.0  0.1292
  H  H172  1  0.150830  0.449570  0.617270  1.0  0.1242
  H  H173  1  0.190230  0.323070  0.976170  1.0  0.1204
  H  H174  1  0.207330  0.238270  0.803170  1.0  0.1175
  H  H175  1  0.064230  0.243470  0.826870  1.0  0.1195
  H  H176  1  0.070530  0.239770  0.699570  1.0  0.0751
  H  H177  1  0.034230  0.176170  0.727470  1.0  0.0834
  H  H178  1  0.103030  0.209870  0.597070  1.0  0.1305
  H  H179  1  0.036430  0.179170  0.595370  1.0  0.1312
  H  H180  1  0.066930  0.146670  0.624870  1.0  0.1383
  H  H181  1  0.723600  0.838200  0.438900  1.0  0.1193
  H  H182  1  0.750900  0.829900  0.217500  1.0  0.1197
  H  H183  1  0.752700  0.966800  0.302100  1.0  0.1216
  H  H184  1  0.809200  0.894100  0.135000  1.0  0.077
  H  H185  1  0.748000  0.874400  0.102200  1.0  0.1034
  H  H186  1  0.844000  0.982200  0.078500  1.0  0.1252
  H  H187  1  0.814700  0.935400  0.015600  1.0  0.1303
  H  H188  1  0.782900  0.965400  0.049400  1.0  0.1238
  H  H189  1  0.656400  0.799500  0.690500  1.0  0.1214
  H  H190  1  0.571600  0.697600  0.863500  1.0  0.119
  H  H191  1  0.576800  0.845900  0.839800  1.0  0.1197
  H  H192  1  0.573100  0.835900  0.967100  1.0  0.0761
  H  H193  1  0.509500  0.808600  0.939200  1.0  0.0807
  H  H194  1  0.543200  0.773500  0.069600  1.0  0.1285
  H  H195  1  0.512500  0.809400  0.071300  1.0  0.1326
  H  H196  1  0.480000  0.746400  0.041800  1.0  0.1378
  H  H197  1  0.390270  0.171530  0.772230  1.0  0.1193
  H  H198  1  0.417570  0.163230  0.550830  1.0  0.1198
  H  H199  1  0.419370  0.300130  0.635430  1.0  0.1216
  H  H200  1  0.475870  0.227430  0.468330  1.0  0.077
  H  H201  1  0.414670  0.207730  0.435530  1.0  0.1034
  H  H202  1  0.510670  0.315530  0.411830  1.0  0.1257
  H  H203  1  0.481370  0.268730  0.348930  1.0  0.1303
  H  H204  1  0.449570  0.298730  0.382730  1.0  0.1238
  H  H205  1  0.323070  0.132830  0.023830  1.0  0.1214
  H  H206  1  0.238270  0.030930  0.196830  1.0  0.119
  H  H207  1  0.243470  0.179230  0.173130  1.0  0.1197
  H  H208  1  0.239770  0.169230  0.300430  1.0  0.0761
  H  H209  1  0.176170  0.141930  0.272530  1.0  0.0807
  H  H210  1  0.209870  0.106830  0.402930  1.0  0.1285
  H  H211  1  0.179170  0.142730  0.404630  1.0  0.1326
  H  H212  1  0.146670  0.079730  0.375130  1.0  0.1378
  H  H213  1  0.056930  0.504870  0.105570  1.0  0.1193
  H  H214  1  0.084230  0.496570  0.884170  1.0  0.1197
  H  H215  1  0.086030  0.633470  0.968770  1.0  0.1216
  H  H216  1  0.142530  0.560770  0.801670  1.0  0.077
  H  H217  1  0.081330  0.541070  0.768870  1.0  0.1034
  H  H218  1  0.177330  0.648870  0.745170  1.0  0.1252
  H  H219  1  0.148030  0.602070  0.682270  1.0  0.1303
  H  H220  1  0.116230  0.632070  0.716070  1.0  0.1238
  H  H221  1  0.989730  0.466170  0.357170  1.0  0.1215
  H  H222  1  0.904930  0.364270  0.530170  1.0  0.119
  H  H223  1  0.910130  0.512570  0.506470  1.0  0.1196
  H  H224  1  0.906430  0.502570  0.633770  1.0  0.0761
  H  H225  1  0.842830  0.475270  0.605870  1.0  0.0845
  H  H226  1  0.876530  0.440170  0.736270  1.0  0.1285
  H  H227  1  0.845830  0.476070  0.737970  1.0  0.1325
  H  H228  1  0.813330  0.413070  0.708470  1.0  0.1377
  H  H229  1  0.161800  0.885400  0.438900  1.0  0.1189
  H  H230  1  0.170100  0.921000  0.217500  1.0  0.1193
  H  H231  1  0.033200  0.785900  0.302100  1.0  0.1217
  H  H232  1  0.105900  0.915100  0.135000  1.0  0.0765
  H  H233  1  0.125600  0.873600  0.102200  1.0  0.0981
  H  H234  1  0.017800  0.861800  0.078500  1.0  0.1261
  H  H235  1  0.064600  0.879300  0.015600  1.0  0.1294
  H  H236  1  0.034600  0.817500  0.049400  1.0  0.1241
  H  H237  1  0.200500  0.856900  0.690500  1.0  0.1218
  H  H238  1  0.302400  0.874000  0.863500  1.0  0.1182
  H  H239  1  0.154100  0.730900  0.839800  1.0  0.1197
  H  H240  1  0.164100  0.737200  0.967100  1.0  0.0698
  H  H241  1  0.191400  0.700900  0.939200  1.0  0.0859
  H  H242  1  0.226500  0.769700  0.069600  1.0  0.1311
  H  H243  1  0.190600  0.703100  0.071300  1.0  0.1334
  H  H244  1  0.253600  0.733600  0.041800  1.0  0.1373
  H  H245  1  0.828470  0.218730  0.772230  1.0  0.1189
  H  H246  1  0.836770  0.254330  0.550830  1.0  0.1193
  H  H247  1  0.699870  0.119230  0.635430  1.0  0.1217
  H  H248  1  0.772570  0.248430  0.468330  1.0  0.0765
  H  H249  1  0.792270  0.206930  0.435530  1.0  0.0981
  H  H250  1  0.684470  0.195130  0.411830  1.0  0.1251
  H  H251  1  0.731270  0.212630  0.348930  1.0  0.1294
  H  H252  1  0.701270  0.150830  0.382730  1.0  0.1241
  H  H253  1  0.867170  0.190230  0.023830  1.0  0.1218
  H  H254  1  0.969070  0.207330  0.196830  1.0  0.1182
  H  H255  1  0.820770  0.064230  0.173130  1.0  0.1197
  H  H256  1  0.830770  0.070530  0.300430  1.0  0.0698
  H  H257  1  0.858070  0.034230  0.272530  1.0  0.0859
  H  H258  1  0.893170  0.103030  0.402930  1.0  0.1311
  H  H259  1  0.857270  0.036430  0.404630  1.0  0.1334
  H  H260  1  0.920270  0.066930  0.375130  1.0  0.1371
  H  H261  1  0.495130  0.552070  0.105570  1.0  0.119
  H  H262  1  0.503430  0.587670  0.884170  1.0  0.1193
  H  H263  1  0.366530  0.452570  0.968770  1.0  0.1217
  H  H264  1  0.439230  0.581770  0.801670  1.0  0.0765
  H  H265  1  0.458930  0.540270  0.768870  1.0  0.0981
  H  H266  1  0.351130  0.528470  0.745170  1.0  0.1261
  H  H267  1  0.397930  0.545970  0.682270  1.0  0.1294
  H  H268  1  0.367930  0.484170  0.716070  1.0  0.1241
  H  H269  1  0.533830  0.523570  0.357170  1.0  0.1217
  H  H270  1  0.635730  0.540670  0.530170  1.0  0.1182
  H  H271  1  0.487430  0.397570  0.506470  1.0  0.1197
  H  H272  1  0.497430  0.403870  0.633770  1.0  0.0698
  H  H273  1  0.524730  0.367570  0.605870  1.0  0.0831
  H  H274  1  0.559830  0.436370  0.736270  1.0  0.1311
  H  H275  1  0.523930  0.369770  0.737970  1.0  0.1334
  H  H276  1  0.586930  0.400270  0.708470  1.0  0.1372
  H  H277  1  0.114600  0.276400  0.438900  1.0  0.119
  H  H278  1  0.079000  0.249100  0.217500  1.0  0.1191
  H  H279  1  0.214100  0.247300  0.302100  1.0  0.1224
  H  H280  1  0.084900  0.190800  0.135000  1.0  0.0792
  H  H281  1  0.126400  0.252000  0.102200  1.0  0.1019
  H  H282  1  0.138200  0.156000  0.078500  1.0  0.1265
  H  H283  1  0.120700  0.185300  0.015600  1.0  0.1299
  H  H284  1  0.182500  0.217100  0.049400  1.0  0.1251
  H  H285  1  0.143100  0.343600  0.690500  1.0  0.1214
  H  H286  1  0.126000  0.428400  0.863500  1.0  0.1178
  H  H287  1  0.269100  0.423200  0.839800  1.0  0.1198
  H  H288  1  0.262800  0.426900  0.967100  1.0  0.0743
  H  H289  1  0.299100  0.490500  0.939200  1.0  0.0822
  H  H290  1  0.230300  0.456800  0.069600  1.0  0.1321
  H  H291  1  0.296900  0.487500  0.071300  1.0  0.1304
  H  H292  1  0.266400  0.520000  0.041800  1.0  0.1394
  H  H293  1  0.781270  0.609730  0.772230  1.0  0.119
  H  H294  1  0.745670  0.582430  0.550830  1.0  0.1191
  H  H295  1  0.880770  0.580630  0.635430  1.0  0.1225
  H  H296  1  0.751570  0.524130  0.468330  1.0  0.0791
  H  H297  1  0.793070  0.585330  0.435530  1.0  0.1019
  H  H298  1  0.804870  0.489330  0.411830  1.0  0.1275
  H  H299  1  0.787370  0.518630  0.348930  1.0  0.1299
  H  H300  1  0.849170  0.550430  0.382730  1.0  0.1249
  H  H301  1  0.809770  0.676930  0.023830  1.0  0.1214
  H  H302  1  0.792670  0.761730  0.196830  1.0  0.1178
  H  H303  1  0.935770  0.756530  0.173130  1.0  0.1198
  H  H304  1  0.929470  0.760230  0.300430  1.0  0.0743
  H  H305  1  0.965770  0.823830  0.272530  1.0  0.0822
  H  H306  1  0.896970  0.790130  0.402930  1.0  0.1321
  H  H307  1  0.963570  0.820830  0.404630  1.0  0.1305
  H  H308  1  0.933070  0.853330  0.375130  1.0  0.1396
  H  H309  1  0.447930  0.943070  0.105570  1.0  0.1189
  H  H310  1  0.412330  0.915770  0.884170  1.0  0.1191
  H  H311  1  0.547430  0.913970  0.968770  1.0  0.1225
  H  H312  1  0.418230  0.857470  0.801670  1.0  0.0792
  H  H313  1  0.459730  0.918670  0.768870  1.0  0.1019
  H  H314  1  0.471530  0.822670  0.745170  1.0  0.1265
  H  H315  1  0.454030  0.851970  0.682270  1.0  0.1299
  H  H316  1  0.515830  0.883770  0.716070  1.0  0.1251
  H  H317  1  0.476430  0.010270  0.357170  1.0  0.1214
  H  H318  1  0.459330  0.095070  0.530170  1.0  0.1178
  H  H319  1  0.602430  0.089870  0.506470  1.0  0.1198
  H  H320  1  0.596130  0.093570  0.633770  1.0  0.0743
  H  H321  1  0.632430  0.157170  0.605870  1.0  0.0852
  H  H322  1  0.563630  0.123470  0.736270  1.0  0.1321
  H  H323  1  0.630230  0.154170  0.737970  1.0  0.1305
  H  H324  1  0.599730  0.186670  0.708470  1.0  0.1394
  C  C325  1  0.275790  0.065330  0.557690  1.0  0.6807
  C  C326  1  0.264390  0.093710  0.620740  1.0  -0.1138
  C  C327  1  0.269380  0.145780  0.609500  1.0  -0.0307
  C  C328  1  0.263930  0.173980  0.669760  1.0  -0.1244
  C  C329  1  0.273520  0.231820  0.660090  1.0  0.6951
  C  C330  1  0.251650  0.150120  0.741150  1.0  -0.2283
  C  C331  1  0.243350  0.096670  0.750210  1.0  0.2495
  C  C332  1  0.251100  0.068970  0.690700  1.0  -0.1329
  C  C333  1  0.217130  0.093080  0.879460  1.0  0.1255
  C  C334  1  0.191660  0.048590  0.939270  1.0  -0.3986
  C  C335  1  0.359550  0.115540  0.281130  1.0  0.6858
  C  C336  1  0.380360  0.169820  0.240680  1.0  -0.1266
  C  C337  1  0.365600  0.207940  0.265810  1.0  -0.0578
  C  C338  1  0.383380  0.257310  0.226280  1.0  -0.1427
  C  C339  1  0.367480  0.299020  0.251660  1.0  0.6848
  C  C340  1  0.415710  0.268310  0.162560  1.0  -0.1347
  C  C341  1  0.429430  0.229080  0.136970  1.0  0.2593
  C  C342  1  0.412720  0.180230  0.176520  1.0  -0.1661
  C  C343  1  0.463540  0.198910  0.034250  1.0  0.1443
  C  C344  1  0.483740  0.219160  0.956010  1.0  -0.3807
  C  C345  1  0.942460  0.398660  0.891020  1.0  0.6799
  C  C346  1  0.931060  0.427040  0.954070  1.0  -0.1139
  C  C347  1  0.936050  0.479110  0.942830  1.0  -0.0308
  C  C348  1  0.930600  0.507310  0.003090  1.0  -0.1244
  C  C349  1  0.940190  0.565150  0.993420  1.0  0.6949
  C  C350  1  0.918320  0.483450  0.074480  1.0  -0.2285
  C  C351  1  0.910020  0.430000  0.083540  1.0  0.2495
  C  C352  1  0.917770  0.402300  0.024030  1.0  -0.1329
  C  C353  1  0.883800  0.426410  0.212790  1.0  0.1255
  C  C354  1  0.858330  0.381920  0.272600  1.0  -0.3986
  C  C355  1  0.026220  0.448870  0.614460  1.0  0.6857
  C  C356  1  0.047030  0.503150  0.574010  1.0  -0.1266
  C  C357  1  0.032270  0.541270  0.599140  1.0  -0.0579
  C  C358  1  0.050050  0.590640  0.559610  1.0  -0.1427
  C  C359  1  0.034150  0.632350  0.584990  1.0  0.6848
  C  C360  1  0.082380  0.601640  0.495890  1.0  -0.1347
  C  C361  1  0.096100  0.562410  0.470300  1.0  0.2592
  C  C362  1  0.079390  0.513560  0.509850  1.0  -0.1661
  C  C363  1  0.130210  0.532240  0.367580  1.0  0.1445
  C  C364  1  0.150410  0.552490  0.289340  1.0  -0.3807
  C  C365  1  0.609120  0.732000  0.224360  1.0  0.6807
  C  C366  1  0.597720  0.760380  0.287410  1.0  -0.1138
  C  C367  1  0.602710  0.812450  0.276170  1.0  -0.0308
  C  C368  1  0.597260  0.840650  0.336430  1.0  -0.1244
  C  C369  1  0.606850  0.898490  0.326760  1.0  0.695
  C  C370  1  0.584980  0.816790  0.407820  1.0  -0.2286
  C  C371  1  0.576680  0.763340  0.416880  1.0  0.2495
  C  C372  1  0.584430  0.735640  0.357370  1.0  -0.1328
  C  C373  1  0.550460  0.759750  0.546130  1.0  0.1254
  C  C374  1  0.524990  0.715260  0.605940  1.0  -0.3988
  C  C375  1  0.692880  0.782210  0.947800  1.0  0.6857
  C  C376  1  0.713690  0.836490  0.907350  1.0  -0.1266
  C  C377  1  0.698930  0.874610  0.932480  1.0  -0.0578
  C  C378  1  0.716710  0.923980  0.892950  1.0  -0.1428
  C  C379  1  0.700810  0.965690  0.918330  1.0  0.6848
  C  C380  1  0.749040  0.934980  0.829230  1.0  -0.1347
  C  C381  1  0.762760  0.895750  0.803640  1.0  0.2593
  C  C382  1  0.746050  0.846900  0.843190  1.0  -0.1661
  C  C383  1  0.796870  0.865580  0.700920  1.0  0.1443
  C  C384  1  0.817070  0.885830  0.622680  1.0  -0.3807
  C  C385  1  0.934670  0.210460  0.557690  1.0  0.6823
  C  C386  1  0.906290  0.170680  0.620740  1.0  -0.1133
  C  C387  1  0.854220  0.123600  0.609500  1.0  -0.0343
  C  C388  1  0.826020  0.089950  0.669760  1.0  -0.1245
  C  C389  1  0.768180  0.041700  0.660090  1.0  0.6938
  C  C390  1  0.849880  0.101530  0.741150  1.0  -0.2281
  C  C391  1  0.903330  0.146680  0.750210  1.0  0.2496
  C  C392  1  0.931030  0.182130  0.690700  1.0  -0.1308
  C  C393  1  0.906920  0.124050  0.879460  1.0  0.1261
  C  C394  1  0.951410  0.143070  0.939270  1.0  -0.3996
  C  C395  1  0.884460  0.244010  0.281130  1.0  0.6852
  C  C396  1  0.830180  0.210540  0.240680  1.0  -0.1252
  C  C397  1  0.792060  0.157660  0.265810  1.0  -0.0584
  C  C398  1  0.742690  0.126070  0.226280  1.0  -0.1449
  C  C399  1  0.700980  0.068460  0.251660  1.0  0.6874
  C  C400  1  0.731690  0.147400  0.162560  1.0  -0.1334
  C  C401  1  0.770920  0.200350  0.136970  1.0  0.2583
  C  C402  1  0.819770  0.232490  0.176520  1.0  -0.1661
  C  C403  1  0.801090  0.264630  0.034250  1.0  0.1462
  C  C404  1  0.780840  0.264580  0.956010  1.0  -0.3832
  C  C405  1  0.601340  0.543790  0.891020  1.0  0.6819
  C  C406  1  0.572960  0.504010  0.954070  1.0  -0.1133
  C  C407  1  0.520890  0.456930  0.942830  1.0  -0.0342
  C  C408  1  0.492690  0.423280  0.003090  1.0  -0.1245
  C  C409  1  0.434850  0.375030  0.993420  1.0  0.694
  C  C410  1  0.516550  0.434860  0.074480  1.0  -0.2279
  C  C411  1  0.570000  0.480010  0.083540  1.0  0.2496
  C  C412  1  0.597700  0.515460  0.024030  1.0  -0.1306
  C  C413  1  0.573590  0.457380  0.212790  1.0  0.1262
  C  C414  1  0.618080  0.476400  0.272600  1.0  -0.3998
  C  C415  1  0.551130  0.577340  0.614460  1.0  0.6852
  C  C416  1  0.496850  0.543870  0.574010  1.0  -0.1252
  C  C417  1  0.458730  0.490990  0.599140  1.0  -0.0584
  C  C418  1  0.409360  0.459400  0.559610  1.0  -0.1455
  C  C419  1  0.367650  0.401790  0.584990  1.0  0.6874
  C  C420  1  0.398360  0.480730  0.495890  1.0  -0.1334
  C  C421  1  0.437590  0.533680  0.470300  1.0  0.2583
  C  C422  1  0.486440  0.565820  0.509850  1.0  -0.1661
  C  C423  1  0.467760  0.597960  0.367580  1.0  0.1465
  C  C424  1  0.447510  0.597910  0.289340  1.0  -0.3834
  C  C425  1  0.268000  0.877130  0.224360  1.0  0.6823
  C  C426  1  0.239620  0.837350  0.287410  1.0  -0.1133
  C  C427  1  0.187550  0.790270  0.276170  1.0  -0.0343
  C  C428  1  0.159350  0.756620  0.336430  1.0  -0.1245
  C  C429  1  0.101510  0.708370  0.326760  1.0  0.6938
  C  C430  1  0.183210  0.768200  0.407820  1.0  -0.2281
  C  C431  1  0.236660  0.813350  0.416880  1.0  0.2496
  C  C432  1  0.264360  0.848800  0.357370  1.0  -0.1306
  C  C433  1  0.240250  0.790720  0.546130  1.0  0.1261
  C  C434  1  0.284740  0.809740  0.605940  1.0  -0.3996
  C  C435  1  0.217790  0.910680  0.947800  1.0  0.6852
  C  C436  1  0.163510  0.877210  0.907350  1.0  -0.1252
  C  C437  1  0.125390  0.824330  0.932480  1.0  -0.0584
  C  C438  1  0.076020  0.792740  0.892950  1.0  -0.1448
  C  C439  1  0.034310  0.735130  0.918330  1.0  0.6874
  C  C440  1  0.065020  0.814070  0.829230  1.0  -0.1334
  C  C441  1  0.104250  0.867020  0.803640  1.0  0.2583
  C  C442  1  0.153100  0.899160  0.843190  1.0  -0.1661
  C  C443  1  0.134420  0.931300  0.700920  1.0  0.1462
  C  C444  1  0.114170  0.931250  0.622680  1.0  -0.3832
  C  C445  1  0.789540  0.724210  0.557690  1.0  0.6818
  C  C446  1  0.829320  0.735610  0.620740  1.0  -0.1095
  C  C447  1  0.876400  0.730620  0.609500  1.0  -0.0352
  C  C448  1  0.910050  0.736070  0.669760  1.0  -0.1263
  C  C449  1  0.958300  0.726480  0.660090  1.0  0.6928
  C  C450  1  0.898470  0.748350  0.741150  1.0  -0.2264
  C  C451  1  0.853320  0.756650  0.750210  1.0  0.2505
  C  C452  1  0.817870  0.748900  0.690700  1.0  -0.1328
  C  C453  1  0.875950  0.782870  0.879460  1.0  0.1257
  C  C454  1  0.856930  0.808340  0.939270  1.0  -0.4027
  C  C455  1  0.755990  0.640450  0.281130  1.0  0.6829
  C  C456  1  0.789460  0.619640  0.240680  1.0  -0.1247
  C  C457  1  0.842340  0.634400  0.265810  1.0  -0.0569
  C  C458  1  0.873930  0.616620  0.226280  1.0  -0.1456
  C  C459  1  0.931540  0.632520  0.251660  1.0  0.684
  C  C460  1  0.852600  0.584290  0.162560  1.0  -0.1346
  C  C461  1  0.799650  0.570570  0.136970  1.0  0.2588
  C  C462  1  0.767510  0.587280  0.176520  1.0  -0.166
  C  C463  1  0.735370  0.536460  0.034250  1.0  0.1442
  C  C464  1  0.735420  0.516260  0.956010  1.0  -0.3835
  C  C465  1  0.456210  0.057540  0.891020  1.0  0.6818
  C  C466  1  0.495990  0.068940  0.954070  1.0  -0.1095
  C  C467  1  0.543070  0.063950  0.942830  1.0  -0.0354
  C  C468  1  0.576720  0.069400  0.003090  1.0  -0.1263
  C  C469  1  0.624970  0.059810  0.993420  1.0  0.6928
  C  C470  1  0.565140  0.081680  0.074480  1.0  -0.2263
  C  C471  1  0.519990  0.089980  0.083540  1.0  0.2505
  C  C472  1  0.484540  0.082230  0.024030  1.0  -0.1327
  C  C473  1  0.542620  0.116200  0.212790  1.0  0.1257
  C  C474  1  0.523600  0.141670  0.272600  1.0  -0.4026
  C  C475  1  0.422660  0.973780  0.614460  1.0  0.6829
  C  C476  1  0.456130  0.952970  0.574010  1.0  -0.1246
  C  C477  1  0.509010  0.967730  0.599140  1.0  -0.0569
  C  C478  1  0.540600  0.949950  0.559610  1.0  -0.1451
  C  C479  1  0.598210  0.965850  0.584990  1.0  0.684
  C  C480  1  0.519270  0.917620  0.495890  1.0  -0.1346
  C  C481  1  0.466320  0.903900  0.470300  1.0  0.2588
  C  C482  1  0.434180  0.920610  0.509850  1.0  -0.166
  C  C483  1  0.402040  0.869790  0.367580  1.0  0.1441
  C  C484  1  0.402090  0.849590  0.289340  1.0  -0.3836
  C  C485  1  0.122870  0.390880  0.224360  1.0  0.6818
  C  C486  1  0.162650  0.402280  0.287410  1.0  -0.1095
  C  C487  1  0.209730  0.397290  0.276170  1.0  -0.0353
  C  C488  1  0.243380  0.402740  0.336430  1.0  -0.1263
  C  C489  1  0.291630  0.393150  0.326760  1.0  0.6928
  C  C490  1  0.231800  0.415020  0.407820  1.0  -0.2263
  C  C491  1  0.186650  0.423320  0.416880  1.0  0.2505
  C  C492  1  0.151200  0.415570  0.357370  1.0  -0.1329
  C  C493  1  0.209280  0.449540  0.546130  1.0  0.1257
  C  C494  1  0.190260  0.475010  0.605940  1.0  -0.4026
  C  C495  1  0.089320  0.307120  0.947800  1.0  0.6829
  C  C496  1  0.122790  0.286310  0.907350  1.0  -0.1247
  C  C497  1  0.175670  0.301070  0.932480  1.0  -0.0569
  C  C498  1  0.207260  0.283290  0.892950  1.0  -0.1451
  C  C499  1  0.264870  0.299190  0.918330  1.0  0.684
  C  C500  1  0.185930  0.250960  0.829230  1.0  -0.1346
  C  C501  1  0.132980  0.237240  0.803640  1.0  0.2588
  C  C502  1  0.100840  0.253950  0.843190  1.0  -0.166
  C  C503  1  0.068700  0.203130  0.700920  1.0  0.1442
  C  C504  1  0.068750  0.182930  0.622680  1.0  -0.3835
  C  C505  1  0.724210  0.934670  0.442310  1.0  0.6809
  C  C506  1  0.735610  0.906290  0.379260  1.0  -0.1138
  C  C507  1  0.730620  0.854220  0.390500  1.0  -0.0332
  C  C508  1  0.736070  0.826020  0.330240  1.0  -0.1251
  C  C509  1  0.726480  0.768180  0.339910  1.0  0.6944
  C  C510  1  0.748350  0.849880  0.258850  1.0  -0.2276
  C  C511  1  0.756650  0.903330  0.249790  1.0  0.2499
  C  C512  1  0.748900  0.931030  0.309300  1.0  -0.1331
  C  C513  1  0.782870  0.906920  0.120540  1.0  0.1239
  C  C514  1  0.808340  0.951410  0.060730  1.0  -0.4009
  C  C515  1  0.640450  0.884460  0.718870  1.0  0.6858
  C  C516  1  0.619640  0.830180  0.759320  1.0  -0.1259
  C  C517  1  0.634400  0.792060  0.734190  1.0  -0.0583
  C  C518  1  0.616620  0.742690  0.773720  1.0  -0.1436
  C  C519  1  0.632520  0.700980  0.748340  1.0  0.6848
  C  C520  1  0.584290  0.731690  0.837440  1.0  -0.1329
  C  C521  1  0.570570  0.770920  0.863030  1.0  0.2574
  C  C522  1  0.587280  0.819770  0.823480  1.0  -0.1657
  C  C523  1  0.536460  0.801090  0.965750  1.0  0.147
  C  C524  1  0.516260  0.780840  0.043990  1.0  -0.3807
  C  C525  1  0.390880  0.268000  0.775640  1.0  0.6809
  C  C526  1  0.402280  0.239620  0.712590  1.0  -0.1138
  C  C527  1  0.397290  0.187550  0.723830  1.0  -0.0333
  C  C528  1  0.402740  0.159350  0.663570  1.0  -0.1251
  C  C529  1  0.393150  0.101510  0.673240  1.0  0.6942
  C  C530  1  0.415020  0.183210  0.592180  1.0  -0.2279
  C  C531  1  0.423320  0.236660  0.583120  1.0  0.2499
  C  C532  1  0.415570  0.264360  0.642630  1.0  -0.133
  C  C533  1  0.449540  0.240250  0.453870  1.0  0.1239
  C  C534  1  0.475010  0.284740  0.394060  1.0  -0.4011
  C  C535  1  0.307120  0.217790  0.052200  1.0  0.6857
  C  C536  1  0.286310  0.163510  0.092650  1.0  -0.1259
  C  C537  1  0.301070  0.125390  0.067520  1.0  -0.0583
  C  C538  1  0.283290  0.076020  0.107050  1.0  -0.1433
  C  C539  1  0.299190  0.034310  0.081670  1.0  0.6848
  C  C540  1  0.250960  0.065020  0.170770  1.0  -0.1329
  C  C541  1  0.237240  0.104250  0.196360  1.0  0.2574
  C  C542  1  0.253950  0.153100  0.156810  1.0  -0.1657
  C  C543  1  0.203130  0.134420  0.299080  1.0  0.147
  C  C544  1  0.182930  0.114170  0.377320  1.0  -0.3807
  C  C545  1  0.057540  0.601340  0.108980  1.0  0.6801
  C  C546  1  0.068940  0.572960  0.045930  1.0  -0.1139
  C  C547  1  0.063950  0.520890  0.057170  1.0  -0.0333
  C  C548  1  0.069400  0.492690  0.996910  1.0  -0.1251
  C  C549  1  0.059810  0.434850  0.006580  1.0  0.694
  C  C550  1  0.081680  0.516550  0.925520  1.0  -0.2277
  C  C551  1  0.089980  0.570000  0.916460  1.0  0.2499
  C  C552  1  0.082230  0.597700  0.975970  1.0  -0.1331
  C  C553  1  0.116200  0.573590  0.787210  1.0  0.1239
  C  C554  1  0.141670  0.618080  0.727400  1.0  -0.4009
  C  C555  1  0.973780  0.551130  0.385540  1.0  0.6858
  C  C556  1  0.952970  0.496850  0.425990  1.0  -0.126
  C  C557  1  0.967730  0.458730  0.400860  1.0  -0.0584
  C  C558  1  0.949950  0.409360  0.440390  1.0  -0.1434
  C  C559  1  0.965850  0.367650  0.415010  1.0  0.6848
  C  C560  1  0.917620  0.398360  0.504110  1.0  -0.1329
  C  C561  1  0.903900  0.437590  0.529700  1.0  0.2573
  C  C562  1  0.920610  0.486440  0.490150  1.0  -0.1657
  C  C563  1  0.869790  0.467760  0.632420  1.0  0.1472
  C  C564  1  0.849590  0.447510  0.710660  1.0  -0.3807
  C  C565  1  0.065330  0.789540  0.442310  1.0  0.6811
  C  C566  1  0.093710  0.829320  0.379260  1.0  -0.1127
  C  C567  1  0.145780  0.876400  0.390500  1.0  -0.0357
  C  C568  1  0.173980  0.910050  0.330240  1.0  -0.1238
  C  C569  1  0.231820  0.958300  0.339910  1.0  0.6932
  C  C570  1  0.150120  0.898470  0.258850  1.0  -0.2266
  C  C571  1  0.096670  0.853320  0.249790  1.0  0.2482
  C  C572  1  0.068970  0.817870  0.309300  1.0  -0.1324
  C  C573  1  0.093080  0.875950  0.120540  1.0  0.1268
  C  C574  1  0.048590  0.856930  0.060730  1.0  -0.399
  C  C575  1  0.115540  0.755990  0.718870  1.0  0.6863
  C  C576  1  0.169820  0.789460  0.759320  1.0  -0.1255
  C  C577  1  0.207940  0.842340  0.734190  1.0  -0.0589
  C  C578  1  0.257310  0.873930  0.773720  1.0  -0.1444
  C  C579  1  0.299020  0.931540  0.748340  1.0  0.688
  C  C580  1  0.268310  0.852600  0.837440  1.0  -0.134
  C  C581  1  0.229080  0.799650  0.863030  1.0  0.2587
  C  C582  1  0.180230  0.767510  0.823480  1.0  -0.1655
  C  C583  1  0.198910  0.735370  0.965750  1.0  0.1459
  C  C584  1  0.219160  0.735420  0.043990  1.0  -0.3824
  C  C585  1  0.732000  0.122870  0.775640  1.0  0.6811
  C  C586  1  0.760380  0.162650  0.712590  1.0  -0.1127
  C  C587  1  0.812450  0.209730  0.723830  1.0  -0.0357
  C  C588  1  0.840650  0.243380  0.663570  1.0  -0.1238
  C  C589  1  0.898490  0.291630  0.673240  1.0  0.6932
  C  C590  1  0.816790  0.231800  0.592180  1.0  -0.2266
  C  C591  1  0.763340  0.186650  0.583120  1.0  0.2482
  C  C592  1  0.735640  0.151200  0.642630  1.0  -0.1323
  C  C593  1  0.759750  0.209280  0.453870  1.0  0.1268
  C  C594  1  0.715260  0.190260  0.394060  1.0  -0.399
  C  C595  1  0.782210  0.089320  0.052200  1.0  0.6863
  C  C596  1  0.836490  0.122790  0.092650  1.0  -0.1255
  C  C597  1  0.874610  0.175670  0.067520  1.0  -0.0589
  C  C598  1  0.923980  0.207260  0.107050  1.0  -0.1444
  C  C599  1  0.965690  0.264870  0.081670  1.0  0.6879
  C  C600  1  0.934980  0.185930  0.170770  1.0  -0.134
  C  C601  1  0.895750  0.132980  0.196360  1.0  0.2587
  C  C602  1  0.846900  0.100840  0.156810  1.0  -0.1655
  C  C603  1  0.865580  0.068700  0.299080  1.0  0.1459
  C  C604  1  0.885830  0.068750  0.377320  1.0  -0.3824
  C  C605  1  0.398660  0.456210  0.108980  1.0  0.6808
  C  C606  1  0.427040  0.495990  0.045930  1.0  -0.1127
  C  C607  1  0.479110  0.543070  0.057170  1.0  -0.0356
  C  C608  1  0.507310  0.576720  0.996910  1.0  -0.1238
  C  C609  1  0.565150  0.624970  0.006580  1.0  0.6935
  C  C610  1  0.483450  0.565140  0.925520  1.0  -0.2265
  C  C611  1  0.430000  0.519990  0.916460  1.0  0.2482
  C  C612  1  0.402300  0.484540  0.975970  1.0  -0.1323
  C  C613  1  0.426410  0.542620  0.787210  1.0  0.1269
  C  C614  1  0.381920  0.523600  0.727400  1.0  -0.3992
  C  C615  1  0.448870  0.422660  0.385540  1.0  0.6863
  C  C616  1  0.503150  0.456130  0.425990  1.0  -0.1254
  C  C617  1  0.541270  0.509010  0.400860  1.0  -0.0589
  C  C618  1  0.590640  0.540600  0.440390  1.0  -0.145
  C  C619  1  0.632350  0.598210  0.415010  1.0  0.6879
  C  C620  1  0.601640  0.519270  0.504110  1.0  -0.134
  C  C621  1  0.562410  0.466320  0.529700  1.0  0.2587
  C  C622  1  0.513560  0.434180  0.490150  1.0  -0.1655
  C  C623  1  0.532240  0.402040  0.632420  1.0  0.1462
  C  C624  1  0.552490  0.402090  0.710660  1.0  -0.3825
  C  C625  1  0.210460  0.275790  0.442310  1.0  0.6825
  C  C626  1  0.170680  0.264390  0.379260  1.0  -0.1091
  C  C627  1  0.123600  0.269380  0.390500  1.0  -0.0365
  C  C628  1  0.089950  0.263930  0.330240  1.0  -0.1257
  C  C629  1  0.041700  0.273520  0.339910  1.0  0.6915
  C  C630  1  0.101530  0.251650  0.258850  1.0  -0.2295
  C  C631  1  0.146680  0.243350  0.249790  1.0  0.2501
  C  C632  1  0.182130  0.251100  0.309300  1.0  -0.1324
  C  C633  1  0.124050  0.217130  0.120540  1.0  0.1228
  C  C634  1  0.143070  0.191660  0.060730  1.0  -0.4018
  C  C635  1  0.244010  0.359550  0.718870  1.0  0.6846
  C  C636  1  0.210540  0.380360  0.759320  1.0  -0.1248
  C  C637  1  0.157660  0.365600  0.734190  1.0  -0.0584
  C  C638  1  0.126070  0.383380  0.773720  1.0  -0.1456
  C  C639  1  0.068460  0.367480  0.748340  1.0  0.6833
  C  C640  1  0.147400  0.415710  0.837440  1.0  -0.1358
  C  C641  1  0.200350  0.429430  0.863030  1.0  0.2583
  C  C642  1  0.232490  0.412720  0.823480  1.0  -0.1666
  C  C643  1  0.264630  0.463540  0.965750  1.0  0.1451
  C  C644  1  0.264580  0.483740  0.043990  1.0  -0.3828
  C  C645  1  0.877130  0.609120  0.775640  1.0  0.6825
  C  C646  1  0.837350  0.597720  0.712590  1.0  -0.1091
  C  C647  1  0.790270  0.602710  0.723830  1.0  -0.0366
  C  C648  1  0.756620  0.597260  0.663570  1.0  -0.1257
  C  C649  1  0.708370  0.606850  0.673240  1.0  0.6915
  C  C650  1  0.768200  0.584980  0.592180  1.0  -0.2294
  C  C651  1  0.813350  0.576680  0.583120  1.0  0.2501
  C  C652  1  0.848800  0.584430  0.642630  1.0  -0.1324
  C  C653  1  0.790720  0.550460  0.453870  1.0  0.1228
  C  C654  1  0.809740  0.524990  0.394060  1.0  -0.4017
  C  C655  1  0.910680  0.692880  0.052200  1.0  0.6846
  C  C656  1  0.877210  0.713690  0.092650  1.0  -0.1248
  C  C657  1  0.824330  0.698930  0.067520  1.0  -0.0584
  C  C658  1  0.792740  0.716710  0.107050  1.0  -0.145
  C  C659  1  0.735130  0.700810  0.081670  1.0  0.6833
  C  C660  1  0.814070  0.749040  0.170770  1.0  -0.1358
  C  C661  1  0.867020  0.762760  0.196360  1.0  0.2583
  C  C662  1  0.899160  0.746050  0.156810  1.0  -0.1666
  C  C663  1  0.931300  0.796870  0.299080  1.0  0.1451
  C  C664  1  0.931250  0.817070  0.377320  1.0  -0.3828
  C  C665  1  0.543790  0.942460  0.108980  1.0  0.6825
  C  C666  1  0.504010  0.931060  0.045930  1.0  -0.1092
  C  C667  1  0.456930  0.936050  0.057170  1.0  -0.0366
  C  C668  1  0.423280  0.930600  0.996910  1.0  -0.1257
  C  C669  1  0.375030  0.940190  0.006580  1.0  0.6914
  C  C670  1  0.434860  0.918320  0.925520  1.0  -0.2294
  C  C671  1  0.480010  0.910020  0.916460  1.0  0.2501
  C  C672  1  0.515460  0.917770  0.975970  1.0  -0.1324
  C  C673  1  0.457380  0.883800  0.787210  1.0  0.1228
  C  C674  1  0.476400  0.858330  0.727400  1.0  -0.4018
  C  C675  1  0.577340  0.026220  0.385540  1.0  0.6846
  C  C676  1  0.543870  0.047030  0.425990  1.0  -0.1248
  C  C677  1  0.490990  0.032270  0.400860  1.0  -0.0584
  C  C678  1  0.459400  0.050050  0.440390  1.0  -0.1451
  C  C679  1  0.401790  0.034150  0.415010  1.0  0.6833
  C  C680  1  0.480730  0.082380  0.504110  1.0  -0.1358
  C  C681  1  0.533680  0.096100  0.529700  1.0  0.2583
  C  C682  1  0.565820  0.079390  0.490150  1.0  -0.1667
  C  C683  1  0.597960  0.130210  0.632420  1.0  0.1448
  C  C684  1  0.597910  0.150410  0.710660  1.0  -0.3828
  O  O685  1  0.289530  0.090530  0.495870  1.0  -0.5828
  O  O686  1  0.271220  0.018300  0.568950  1.0  -0.6289
  O  O687  1  0.269340  0.246860  0.594220  1.0  -0.5956
  O  O688  1  0.284980  0.262290  0.716370  1.0  -0.5865
  O  O689  1  0.228610  0.067760  0.816580  1.0  -0.2596
  O  O690  1  0.330640  0.108380  0.338690  1.0  -0.5961
  O  O691  1  0.372610  0.081340  0.254680  1.0  -0.5986
  O  O692  1  0.332730  0.285100  0.304610  1.0  -0.6078
  O  O693  1  0.389300  0.345090  0.218000  1.0  -0.5898
  O  O694  1  0.458710  0.242470  0.071380  1.0  -0.28
  O  O695  1  0.956200  0.423860  0.829200  1.0  -0.5829
  O  O696  1  0.937890  0.351630  0.902280  1.0  -0.6289
  O  O697  1  0.936010  0.580190  0.927550  1.0  -0.5956
  O  O698  1  0.951650  0.595620  0.049700  1.0  -0.5864
  O  O699  1  0.895280  0.401090  0.149910  1.0  -0.2596
  O  O700  1  0.997310  0.441710  0.672020  1.0  -0.5961
  O  O701  1  0.039280  0.414670  0.588010  1.0  -0.5986
  O  O702  1  0.999400  0.618430  0.637940  1.0  -0.6078
  O  O703  1  0.055970  0.678420  0.551330  1.0  -0.5898
  O  O704  1  0.125380  0.575800  0.404710  1.0  -0.2799
  O  O705  1  0.622860  0.757200  0.162540  1.0  -0.5829
  O  O706  1  0.604550  0.684970  0.235620  1.0  -0.6289
  O  O707  1  0.602670  0.913530  0.260890  1.0  -0.5956
  O  O708  1  0.618310  0.928960  0.383040  1.0  -0.5865
  O  O709  1  0.561940  0.734430  0.483250  1.0  -0.2596
  O  O710  1  0.663970  0.775050  0.005360  1.0  -0.5961
  O  O711  1  0.705940  0.748010  0.921350  1.0  -0.5985
  O  O712  1  0.666060  0.951770  0.971280  1.0  -0.6078
  O  O713  1  0.722630  0.011760  0.884670  1.0  -0.5897
  O  O714  1  0.792040  0.909140  0.738050  1.0  -0.28
  O  O715  1  0.909470  0.199000  0.495870  1.0  -0.5835
  O  O716  1  0.981700  0.252920  0.568950  1.0  -0.6269
  O  O717  1  0.753140  0.022480  0.594220  1.0  -0.5965
  O  O718  1  0.737710  0.022690  0.716370  1.0  -0.5866
  O  O719  1  0.932240  0.160850  0.816580  1.0  -0.2585
  O  O720  1  0.891620  0.222260  0.338690  1.0  -0.5979
  O  O721  1  0.918660  0.291270  0.254680  1.0  -0.5979
  O  O722  1  0.714900  0.047630  0.304610  1.0  -0.6089
  O  O723  1  0.654910  0.044210  0.218000  1.0  -0.5898
  O  O724  1  0.757530  0.216240  0.071380  1.0  -0.2798
  O  O725  1  0.576140  0.532330  0.829200  1.0  -0.5836
  O  O726  1  0.648370  0.586250  0.902280  1.0  -0.6269
  O  O727  1  0.419810  0.355810  0.927550  1.0  -0.5965
  O  O728  1  0.404380  0.356020  0.049700  1.0  -0.5866
  O  O729  1  0.598910  0.494180  0.149910  1.0  -0.2585
  O  O730  1  0.558290  0.555590  0.672020  1.0  -0.5979
  O  O731  1  0.585330  0.624600  0.588010  1.0  -0.5979
  O  O732  1  0.381570  0.380960  0.637940  1.0  -0.6089
  O  O733  1  0.321580  0.377540  0.551330  1.0  -0.5898
  O  O734  1  0.424200  0.549570  0.404710  1.0  -0.2799
  O  O735  1  0.242800  0.865670  0.162540  1.0  -0.5835
  O  O736  1  0.315030  0.919590  0.235620  1.0  -0.6269
  O  O737  1  0.086470  0.689150  0.260890  1.0  -0.5965
  O  O738  1  0.071040  0.689360  0.383040  1.0  -0.5866
  O  O739  1  0.265570  0.827520  0.483250  1.0  -0.2585
  O  O740  1  0.224950  0.888930  0.005360  1.0  -0.5979
  O  O741  1  0.251990  0.957940  0.921350  1.0  -0.5979
  O  O742  1  0.048230  0.714300  0.971280  1.0  -0.6089
  O  O743  1  0.988240  0.710880  0.884670  1.0  -0.5898
  O  O744  1  0.090860  0.882910  0.738050  1.0  -0.2798
  O  O745  1  0.801000  0.710470  0.495870  1.0  -0.5815
  O  O746  1  0.747080  0.728780  0.568950  1.0  -0.6267
  O  O747  1  0.977520  0.730660  0.594220  1.0  -0.5957
  O  O748  1  0.977310  0.715020  0.716370  1.0  -0.5869
  O  O749  1  0.839150  0.771390  0.816580  1.0  -0.2597
  O  O750  1  0.777740  0.669360  0.338690  1.0  -0.5984
  O  O751  1  0.708730  0.627390  0.254680  1.0  -0.5985
  O  O752  1  0.952370  0.667270  0.304610  1.0  -0.6091
  O  O753  1  0.955790  0.610700  0.218000  1.0  -0.5891
  O  O754  1  0.783760  0.541290  0.071380  1.0  -0.2774
  O  O755  1  0.467670  0.043800  0.829200  1.0  -0.5814
  O  O756  1  0.413750  0.062110  0.902280  1.0  -0.6267
  O  O757  1  0.644190  0.063990  0.927550  1.0  -0.5957
  O  O758  1  0.643980  0.048350  0.049700  1.0  -0.5871
  O  O759  1  0.505820  0.104720  0.149910  1.0  -0.2597
  O  O760  1  0.444410  0.002690  0.672020  1.0  -0.5984
  O  O761  1  0.375400  0.960720  0.588010  1.0  -0.5985
  O  O762  1  0.619040  0.000600  0.637940  1.0  -0.6091
  O  O763  1  0.622460  0.944030  0.551330  1.0  -0.5891
  O  O764  1  0.450430  0.874620  0.404710  1.0  -0.2774
  O  O765  1  0.134330  0.377140  0.162540  1.0  -0.5815
  O  O766  1  0.080410  0.395450  0.235620  1.0  -0.6267
  O  O767  1  0.310850  0.397330  0.260890  1.0  -0.5957
  O  O768  1  0.310640  0.381690  0.383040  1.0  -0.587
  O  O769  1  0.172480  0.438060  0.483250  1.0  -0.2598
  O  O770  1  0.111070  0.336030  0.005360  1.0  -0.5984
  O  O771  1  0.042060  0.294060  0.921350  1.0  -0.5986
  O  O772  1  0.285700  0.333940  0.971280  1.0  -0.6091
  O  O773  1  0.289120  0.277370  0.884670  1.0  -0.5895
  O  O774  1  0.117090  0.207960  0.738050  1.0  -0.2774
  O  O775  1  0.710470  0.909470  0.504130  1.0  -0.5837
  O  O776  1  0.728780  0.981700  0.431050  1.0  -0.6297
  O  O777  1  0.730660  0.753140  0.405780  1.0  -0.595
  O  O778  1  0.715020  0.737710  0.283630  1.0  -0.5874
  O  O779  1  0.771390  0.932240  0.183420  1.0  -0.2589
  O  O780  1  0.669360  0.891620  0.661310  1.0  -0.596
  O  O781  1  0.627390  0.918660  0.745320  1.0  -0.5997
  O  O782  1  0.667270  0.714900  0.695390  1.0  -0.6089
  O  O783  1  0.610700  0.654910  0.782000  1.0  -0.5895
  O  O784  1  0.541290  0.757530  0.928620  1.0  -0.2786
  O  O785  1  0.377140  0.242800  0.837460  1.0  -0.5838
  O  O786  1  0.395450  0.315030  0.764380  1.0  -0.6297
  O  O787  1  0.397330  0.086470  0.739110  1.0  -0.595
  O  O788  1  0.381690  0.071040  0.616960  1.0  -0.5875
  O  O789  1  0.438060  0.265570  0.516750  1.0  -0.2589
  O  O790  1  0.336030  0.224950  0.994640  1.0  -0.596
  O  O791  1  0.294060  0.251990  0.078650  1.0  -0.5997
  O  O792  1  0.333940  0.048230  0.028720  1.0  -0.6089
  O  O793  1  0.277370  0.988240  0.115330  1.0  -0.5895
  O  O794  1  0.207960  0.090860  0.261950  1.0  -0.2786
  O  O795  1  0.043800  0.576140  0.170800  1.0  -0.5838
  O  O796  1  0.062110  0.648370  0.097720  1.0  -0.6297
  O  O797  1  0.063990  0.419810  0.072450  1.0  -0.5951
  O  O798  1  0.048350  0.404380  0.950300  1.0  -0.5873
  O  O799  1  0.104720  0.598910  0.850090  1.0  -0.2589
  O  O800  1  0.002690  0.558290  0.327980  1.0  -0.596
  O  O801  1  0.960720  0.585330  0.411990  1.0  -0.5997
  O  O802  1  0.000600  0.381570  0.362060  1.0  -0.6089
  O  O803  1  0.944030  0.321580  0.448670  1.0  -0.5895
  O  O804  1  0.874620  0.424200  0.595290  1.0  -0.2786
  O  O805  1  0.090530  0.801000  0.504130  1.0  -0.5842
  O  O806  1  0.018300  0.747080  0.431050  1.0  -0.6267
  O  O807  1  0.246860  0.977520  0.405780  1.0  -0.5957
  O  O808  1  0.262290  0.977310  0.283630  1.0  -0.5875
  O  O809  1  0.067760  0.839150  0.183420  1.0  -0.2602
  O  O810  1  0.108380  0.777740  0.661310  1.0  -0.5976
  O  O811  1  0.081340  0.708730  0.745320  1.0  -0.5987
  O  O812  1  0.285100  0.952370  0.695390  1.0  -0.6091
  O  O813  1  0.345090  0.955790  0.782000  1.0  -0.5897
  O  O814  1  0.242470  0.783760  0.928620  1.0  -0.2777
  O  O815  1  0.757200  0.134330  0.837460  1.0  -0.5842
  O  O816  1  0.684970  0.080410  0.764380  1.0  -0.6268
  O  O817  1  0.913530  0.310850  0.739110  1.0  -0.5957
  O  O818  1  0.928960  0.310640  0.616960  1.0  -0.5875
  O  O819  1  0.734430  0.172480  0.516750  1.0  -0.2602
  O  O820  1  0.775050  0.111070  0.994640  1.0  -0.5976
  O  O821  1  0.748010  0.042060  0.078650  1.0  -0.5987
  O  O822  1  0.951770  0.285700  0.028720  1.0  -0.6091
  O  O823  1  0.011760  0.289120  0.115330  1.0  -0.5897
  O  O824  1  0.909140  0.117090  0.261950  1.0  -0.2777
  O  O825  1  0.423860  0.467670  0.170800  1.0  -0.5843
  O  O826  1  0.351630  0.413750  0.097720  1.0  -0.6267
  O  O827  1  0.580190  0.644190  0.072450  1.0  -0.5957
  O  O828  1  0.595620  0.643980  0.950300  1.0  -0.5875
  O  O829  1  0.401090  0.505820  0.850090  1.0  -0.2602
  O  O830  1  0.441710  0.444410  0.327980  1.0  -0.5976
  O  O831  1  0.414670  0.375400  0.411990  1.0  -0.5985
  O  O832  1  0.618430  0.619040  0.362060  1.0  -0.609
  O  O833  1  0.678420  0.622460  0.448670  1.0  -0.5897
  O  O834  1  0.575800  0.450430  0.595290  1.0  -0.2778
  O  O835  1  0.199000  0.289530  0.504130  1.0  -0.5824
  O  O836  1  0.252920  0.271220  0.431050  1.0  -0.6283
  O  O837  1  0.022480  0.269340  0.405780  1.0  -0.594
  O  O838  1  0.022690  0.284980  0.283630  1.0  -0.5868
  O  O839  1  0.160850  0.228610  0.183420  1.0  -0.2606
  O  O840  1  0.222260  0.330640  0.661310  1.0  -0.5968
  O  O841  1  0.291270  0.372610  0.745320  1.0  -0.598
  O  O842  1  0.047630  0.332730  0.695390  1.0  -0.61
  O  O843  1  0.044210  0.389300  0.782000  1.0  -0.5896
  O  O844  1  0.216240  0.458710  0.928620  1.0  -0.2804
  O  O845  1  0.865670  0.622860  0.837460  1.0  -0.5824
  O  O846  1  0.919590  0.604550  0.764380  1.0  -0.6283
  O  O847  1  0.689150  0.602670  0.739110  1.0  -0.594
  O  O848  1  0.689360  0.618310  0.616960  1.0  -0.5868
  O  O849  1  0.827520  0.561940  0.516750  1.0  -0.2607
  O  O850  1  0.888930  0.663970  0.994640  1.0  -0.5968
  O  O851  1  0.957940  0.705940  0.078650  1.0  -0.598
  O  O852  1  0.714300  0.666060  0.028720  1.0  -0.61
  O  O853  1  0.710880  0.722630  0.115330  1.0  -0.5901
  O  O854  1  0.882910  0.792040  0.261950  1.0  -0.2804
  O  O855  1  0.532330  0.956200  0.170800  1.0  -0.5823
  O  O856  1  0.586250  0.937890  0.097720  1.0  -0.6283
  O  O857  1  0.355810  0.936010  0.072450  1.0  -0.594
  O  O858  1  0.356020  0.951650  0.950300  1.0  -0.5869
  O  O859  1  0.494180  0.895280  0.850090  1.0  -0.2606
  O  O860  1  0.555590  0.997310  0.327980  1.0  -0.5968
  O  O861  1  0.624600  0.039280  0.411990  1.0  -0.598
  O  O862  1  0.380960  0.999400  0.362060  1.0  -0.61
  O  O863  1  0.377540  0.055970  0.448670  1.0  -0.5896
  O  O864  1  0.549570  0.125380  0.595290  1.0  -0.2803
