# generated using pymatgen
data_Zn2H8(C5O2)5
_symmetry_space_group_name_H-M   'P 1'
_cell_length_a   27.63800000
_cell_length_b   27.63800000
_cell_length_c   17.94900000
_cell_angle_alpha   90.00000000
_cell_angle_beta   90.00000000
_cell_angle_gamma   120.00000000
_symmetry_Int_Tables_number   1
_chemical_formula_structural   Zn2H8(C5O2)5
_chemical_formula_sum   'Zn36 H144 C450 O180'
_cell_volume   11873.64647807
_cell_formula_units_Z   18
loop_
 _symmetry_equiv_pos_site_id
 _symmetry_equiv_pos_as_xyz
  1  'x, y, z'
loop_
 _atom_site_type_symbol
 _atom_site_label
 _atom_site_symmetry_multiplicity
 _atom_site_fract_x
 _atom_site_fract_y
 _atom_site_fract_z
 _atom_site_occupancy
 _atom_site_charge
  Zn  Zn1  1  0.309210  0.053490  0.919820  1.0  1.0812
  Zn  Zn2  1  0.344120  0.999750  0.769620  1.0  0.959
  Zn  Zn3  1  0.975880  0.386820  0.253150  1.0  1.0812
  Zn  Zn4  1  0.010790  0.333080  0.102950  1.0  0.9592
  Zn  Zn5  1  0.642540  0.720160  0.586490  1.0  1.0812
  Zn  Zn6  1  0.677450  0.666420  0.436290  1.0  0.9591
  Zn  Zn7  1  0.946510  0.255720  0.919820  1.0  1.0818
  Zn  Zn8  1  0.000250  0.344370  0.769620  1.0  0.9589
  Zn  Zn9  1  0.613180  0.589050  0.253150  1.0  1.0819
  Zn  Zn10  1  0.666920  0.677700  0.102950  1.0  0.959
  Zn  Zn11  1  0.279840  0.922390  0.586490  1.0  1.0818
  Zn  Zn12  1  0.333580  0.011040  0.436290  1.0  0.9589
  Zn  Zn13  1  0.744280  0.690790  0.919820  1.0  1.0821
  Zn  Zn14  1  0.655630  0.655880  0.769620  1.0  0.9592
  Zn  Zn15  1  0.410950  0.024120  0.253150  1.0  1.0821
  Zn  Zn16  1  0.322300  0.989210  0.102950  1.0  0.9591
  Zn  Zn17  1  0.077610  0.357460  0.586490  1.0  1.0823
  Zn  Zn18  1  0.988960  0.322550  0.436290  1.0  0.9591
  Zn  Zn19  1  0.690790  0.946510  0.080180  1.0  1.081
  Zn  Zn20  1  0.655880  0.000250  0.230380  1.0  0.9574
  Zn  Zn21  1  0.357460  0.279840  0.413510  1.0  1.081
  Zn  Zn22  1  0.322550  0.333580  0.563710  1.0  0.9574
  Zn  Zn23  1  0.024120  0.613180  0.746850  1.0  1.081
  Zn  Zn24  1  0.989210  0.666920  0.897050  1.0  0.9588
  Zn  Zn25  1  0.053490  0.744280  0.080180  1.0  1.0812
  Zn  Zn26  1  0.999750  0.655630  0.230380  1.0  0.9563
  Zn  Zn27  1  0.720160  0.077610  0.413510  1.0  1.0812
  Zn  Zn28  1  0.666420  0.988960  0.563710  1.0  0.9563
  Zn  Zn29  1  0.386820  0.410950  0.746850  1.0  1.0813
  Zn  Zn30  1  0.333080  0.322300  0.897050  1.0  0.9579
  Zn  Zn31  1  0.255720  0.309210  0.080180  1.0  1.082
  Zn  Zn32  1  0.344370  0.344120  0.230380  1.0  0.9579
  Zn  Zn33  1  0.922390  0.642540  0.413510  1.0  1.0821
  Zn  Zn34  1  0.011040  0.677450  0.563710  1.0  0.9579
  Zn  Zn35  1  0.589050  0.975880  0.746850  1.0  1.0819
  Zn  Zn36  1  0.677700  0.010790  0.897050  1.0  0.9575
  H  H37  1  0.473600  0.005900  0.860100  1.0  0.123
  H  H38  1  0.604000  0.091500  0.001200  1.0  0.1195
  H  H39  1  0.462400  0.099100  0.026600  1.0  0.1223
  H  H40  1  0.276000  0.161000  0.061600  1.0  0.1224
  H  H41  1  0.249700  0.171100  0.282400  1.0  0.1221
  H  H42  1  0.246100  0.032900  0.200400  1.0  0.1265
  H  H43  1  0.191500  0.108100  0.365000  1.0  0.0897
  H  H44  1  0.251300  0.125300  0.400700  1.0  0.0958
  H  H45  1  0.140270  0.339230  0.193430  1.0  0.123
  H  H46  1  0.270670  0.424830  0.334530  1.0  0.1195
  H  H47  1  0.129070  0.432430  0.359930  1.0  0.1223
  H  H48  1  0.942670  0.494330  0.394930  1.0  0.1224
  H  H49  1  0.916370  0.504430  0.615730  1.0  0.1221
  H  H50  1  0.912770  0.366230  0.533730  1.0  0.1265
  H  H51  1  0.858170  0.441430  0.698330  1.0  0.0898
  H  H52  1  0.917970  0.458630  0.734030  1.0  0.0958
  H  H53  1  0.806930  0.672570  0.526770  1.0  0.123
  H  H54  1  0.937330  0.758170  0.667870  1.0  0.1195
  H  H55  1  0.795730  0.765770  0.693270  1.0  0.1223
  H  H56  1  0.609330  0.827670  0.728270  1.0  0.1224
  H  H57  1  0.583030  0.837770  0.949070  1.0  0.1221
  H  H58  1  0.579430  0.699570  0.867070  1.0  0.1265
  H  H59  1  0.524830  0.774770  0.031670  1.0  0.0897
  H  H60  1  0.584630  0.791970  0.067370  1.0  0.0958
  H  H61  1  0.994100  0.467700  0.860100  1.0  0.1229
  H  H62  1  0.908500  0.512500  0.001200  1.0  0.1182
  H  H63  1  0.900900  0.363300  0.026600  1.0  0.123
  H  H64  1  0.839000  0.115000  0.061600  1.0  0.1222
  H  H65  1  0.828900  0.078600  0.282400  1.0  0.1221
  H  H66  1  0.967100  0.213200  0.200400  1.0  0.1251
  H  H67  1  0.891900  0.083400  0.365000  1.0  0.0846
  H  H68  1  0.874700  0.126000  0.400700  1.0  0.0969
  H  H69  1  0.660770  0.801030  0.193430  1.0  0.1229
  H  H70  1  0.575170  0.845830  0.334530  1.0  0.1182
  H  H71  1  0.567570  0.696630  0.359930  1.0  0.123
  H  H72  1  0.505670  0.448330  0.394930  1.0  0.1222
  H  H73  1  0.495570  0.411930  0.615730  1.0  0.1221
  H  H74  1  0.633770  0.546530  0.533730  1.0  0.1251
  H  H75  1  0.558570  0.416730  0.698330  1.0  0.0846
  H  H76  1  0.541370  0.459330  0.734030  1.0  0.0969
  H  H77  1  0.327430  0.134370  0.526770  1.0  0.1229
  H  H78  1  0.241830  0.179170  0.667870  1.0  0.1182
  H  H79  1  0.234230  0.029970  0.693270  1.0  0.123
  H  H80  1  0.172330  0.781670  0.728270  1.0  0.1222
  H  H81  1  0.162230  0.745270  0.949070  1.0  0.1221
  H  H82  1  0.300430  0.879870  0.867070  1.0  0.1251
  H  H83  1  0.225230  0.750070  0.031670  1.0  0.0846
  H  H84  1  0.208030  0.792670  0.067370  1.0  0.0969
  H  H85  1  0.532300  0.526400  0.860100  1.0  0.1234
  H  H86  1  0.487500  0.396000  0.001200  1.0  0.1181
  H  H87  1  0.636700  0.537600  0.026600  1.0  0.1226
  H  H88  1  0.885000  0.724000  0.061600  1.0  0.1213
  H  H89  1  0.921400  0.750300  0.282400  1.0  0.1223
  H  H90  1  0.786800  0.753900  0.200400  1.0  0.1254
  H  H91  1  0.916600  0.808500  0.365000  1.0  0.0875
  H  H92  1  0.874000  0.748700  0.400700  1.0  0.095
  H  H93  1  0.198970  0.859730  0.193430  1.0  0.1234
  H  H94  1  0.154170  0.729330  0.334530  1.0  0.1181
  H  H95  1  0.303370  0.870930  0.359930  1.0  0.1226
  H  H96  1  0.551670  0.057330  0.394930  1.0  0.1213
  H  H97  1  0.588070  0.083630  0.615730  1.0  0.1223
  H  H98  1  0.453470  0.087230  0.533730  1.0  0.1254
  H  H99  1  0.583270  0.141830  0.698330  1.0  0.0875
  H  H100  1  0.540670  0.082030  0.734030  1.0  0.095
  H  H101  1  0.865630  0.193070  0.526770  1.0  0.1234
  H  H102  1  0.820830  0.062670  0.667870  1.0  0.1181
  H  H103  1  0.970030  0.204270  0.693270  1.0  0.1226
  H  H104  1  0.218330  0.390670  0.728270  1.0  0.1213
  H  H105  1  0.254730  0.416970  0.949070  1.0  0.1223
  H  H106  1  0.120130  0.420570  0.867070  1.0  0.1254
  H  H107  1  0.249930  0.475170  0.031670  1.0  0.0875
  H  H108  1  0.207330  0.415370  0.067370  1.0  0.095
  H  H109  1  0.526400  0.994100  0.139900  1.0  0.1234
  H  H110  1  0.396000  0.908500  0.998800  1.0  0.1186
  H  H111  1  0.537600  0.900900  0.973400  1.0  0.1224
  H  H112  1  0.724000  0.839000  0.938400  1.0  0.1211
  H  H113  1  0.750300  0.828900  0.717600  1.0  0.122
  H  H114  1  0.753900  0.967100  0.799600  1.0  0.1266
  H  H115  1  0.808500  0.891900  0.635000  1.0  0.0879
  H  H116  1  0.748700  0.874700  0.599300  1.0  0.0973
  H  H117  1  0.193070  0.327430  0.473230  1.0  0.1234
  H  H118  1  0.062670  0.241830  0.332130  1.0  0.1186
  H  H119  1  0.204270  0.234230  0.306730  1.0  0.1224
  H  H120  1  0.390670  0.172330  0.271730  1.0  0.1211
  H  H121  1  0.416970  0.162230  0.050930  1.0  0.122
  H  H122  1  0.420570  0.300430  0.132930  1.0  0.1266
  H  H123  1  0.475170  0.225230  0.968330  1.0  0.0879
  H  H124  1  0.415370  0.208030  0.932630  1.0  0.0973
  H  H125  1  0.859730  0.660770  0.806570  1.0  0.1234
  H  H126  1  0.729330  0.575170  0.665470  1.0  0.1186
  H  H127  1  0.870930  0.567570  0.640070  1.0  0.1224
  H  H128  1  0.057330  0.505670  0.605070  1.0  0.1211
  H  H129  1  0.083630  0.495570  0.384270  1.0  0.122
  H  H130  1  0.087230  0.633770  0.466270  1.0  0.1266
  H  H131  1  0.141830  0.558570  0.301670  1.0  0.088
  H  H132  1  0.082030  0.541370  0.265970  1.0  0.0973
  H  H133  1  0.005900  0.532300  0.139900  1.0  0.1235
  H  H134  1  0.091500  0.487500  0.998800  1.0  0.1182
  H  H135  1  0.099100  0.636700  0.973400  1.0  0.1231
  H  H136  1  0.161000  0.885000  0.938400  1.0  0.1212
  H  H137  1  0.171100  0.921400  0.717600  1.0  0.1224
  H  H138  1  0.032900  0.786800  0.799600  1.0  0.1254
  H  H139  1  0.108100  0.916600  0.635000  1.0  0.0873
  H  H140  1  0.125300  0.874000  0.599300  1.0  0.0953
  H  H141  1  0.672570  0.865630  0.473230  1.0  0.1235
  H  H142  1  0.758170  0.820830  0.332130  1.0  0.1182
  H  H143  1  0.765770  0.970030  0.306730  1.0  0.1231
  H  H144  1  0.827670  0.218330  0.271730  1.0  0.1212
  H  H145  1  0.837770  0.254730  0.050930  1.0  0.1224
  H  H146  1  0.699570  0.120130  0.132930  1.0  0.1254
  H  H147  1  0.774770  0.249930  0.968330  1.0  0.0873
  H  H148  1  0.791970  0.207330  0.932630  1.0  0.0953
  H  H149  1  0.339230  0.198970  0.806570  1.0  0.1235
  H  H150  1  0.424830  0.154170  0.665470  1.0  0.1182
  H  H151  1  0.432430  0.303370  0.640070  1.0  0.1231
  H  H152  1  0.494330  0.551670  0.605070  1.0  0.1212
  H  H153  1  0.504430  0.588070  0.384270  1.0  0.1224
  H  H154  1  0.366230  0.453470  0.466270  1.0  0.1254
  H  H155  1  0.441430  0.583270  0.301670  1.0  0.0873
  H  H156  1  0.458630  0.540670  0.265970  1.0  0.0953
  H  H157  1  0.467700  0.473600  0.139900  1.0  0.1235
  H  H158  1  0.512500  0.604000  0.998800  1.0  0.1183
  H  H159  1  0.363300  0.462400  0.973400  1.0  0.1229
  H  H160  1  0.115000  0.276000  0.938400  1.0  0.1206
  H  H161  1  0.078600  0.249700  0.717600  1.0  0.1222
  H  H162  1  0.213200  0.246100  0.799600  1.0  0.1265
  H  H163  1  0.083400  0.191500  0.635000  1.0  0.0895
  H  H164  1  0.126000  0.251300  0.599300  1.0  0.0943
  H  H165  1  0.134370  0.806930  0.473230  1.0  0.1235
  H  H166  1  0.179170  0.937330  0.332130  1.0  0.1183
  H  H167  1  0.029970  0.795730  0.306730  1.0  0.1229
  H  H168  1  0.781670  0.609330  0.271730  1.0  0.1206
  H  H169  1  0.745270  0.583030  0.050930  1.0  0.1222
  H  H170  1  0.879870  0.579430  0.132930  1.0  0.1265
  H  H171  1  0.750070  0.524830  0.968330  1.0  0.0895
  H  H172  1  0.792670  0.584630  0.932630  1.0  0.0943
  H  H173  1  0.801030  0.140270  0.806570  1.0  0.1235
  H  H174  1  0.845830  0.270670  0.665470  1.0  0.1183
  H  H175  1  0.696630  0.129070  0.640070  1.0  0.1229
  H  H176  1  0.448330  0.942670  0.605070  1.0  0.1206
  H  H177  1  0.411930  0.916370  0.384270  1.0  0.1222
  H  H178  1  0.546530  0.912770  0.466270  1.0  0.1265
  H  H179  1  0.416730  0.858170  0.301670  1.0  0.0894
  H  H180  1  0.459330  0.917970  0.265970  1.0  0.0943
  C  C181  1  0.402090  0.034250  0.916000  1.0  0.6938
  C  C182  1  0.459950  0.050290  0.940000  1.0  -0.1311
  C  C183  1  0.489850  0.030210  0.901500  1.0  -0.0363
  C  C184  1  0.543800  0.046140  0.924400  1.0  -0.1307
  C  C185  1  0.576650  0.024880  0.883600  1.0  0.6961
  C  C186  1  0.567300  0.081200  0.985400  1.0  -0.085
  C  C187  1  0.537200  0.101200  0.023100  1.0  0.1649
  C  C188  1  0.483200  0.085600  0.000600  1.0  -0.1029
  C  C189  1  0.536200  0.151000  0.130700  1.0  0.0271
  C  C190  1  0.577500  0.183500  0.200700  1.0  0.2406
  C  C191  1  0.585400  0.142700  0.238200  1.0  0.1485
  C  C192  1  0.275390  0.064640  0.059300  1.0  0.6894
  C  C193  1  0.263450  0.092870  0.122300  1.0  -0.1287
  C  C194  1  0.268740  0.145240  0.110200  1.0  -0.0236
  C  C195  1  0.263310  0.173940  0.169900  1.0  -0.1374
  C  C196  1  0.273180  0.231550  0.159500  1.0  0.6802
  C  C197  1  0.251580  0.150520  0.241200  1.0  -0.1707
  C  C198  1  0.242680  0.096910  0.251400  1.0  0.2633
  C  C199  1  0.250130  0.068680  0.192600  1.0  -0.1357
  C  C200  1  0.216400  0.093800  0.380500  1.0  -0.035
  C  C201  1  0.187700  0.048100  0.439700  1.0  0.0617
  C  C202  1  0.128900  0.014000  0.420800  1.0  -0.075
  C  C203  1  0.604500  0.141300  0.122500  1.0  0.0103
  C  C204  1  0.614200  0.177300  0.192100  1.0  0.2866
  C  C205  1  0.161000  0.060500  0.497400  1.0  -0.0893
  C  C206  1  0.068760  0.367580  0.249330  1.0  0.6938
  C  C207  1  0.126620  0.383620  0.273330  1.0  -0.1312
  C  C208  1  0.156520  0.363540  0.234830  1.0  -0.0363
  C  C209  1  0.210470  0.379470  0.257730  1.0  -0.1307
  C  C210  1  0.243320  0.358210  0.216930  1.0  0.6961
  C  C211  1  0.233970  0.414530  0.318730  1.0  -0.085
  C  C212  1  0.203870  0.434530  0.356430  1.0  0.1649
  C  C213  1  0.149870  0.418930  0.333930  1.0  -0.103
  C  C214  1  0.202870  0.484330  0.464030  1.0  0.0271
  C  C215  1  0.244170  0.516830  0.534030  1.0  0.2423
  C  C216  1  0.252070  0.476030  0.571530  1.0  0.1485
  C  C217  1  0.942060  0.397970  0.392630  1.0  0.6892
  C  C218  1  0.930120  0.426200  0.455630  1.0  -0.1286
  C  C219  1  0.935410  0.478570  0.443530  1.0  -0.0236
  C  C220  1  0.929980  0.507270  0.503230  1.0  -0.1372
  C  C221  1  0.939850  0.564880  0.492830  1.0  0.6802
  C  C222  1  0.918250  0.483850  0.574530  1.0  -0.1707
  C  C223  1  0.909350  0.430240  0.584730  1.0  0.2633
  C  C224  1  0.916800  0.402010  0.525930  1.0  -0.1358
  C  C225  1  0.883070  0.427130  0.713830  1.0  -0.035
  C  C226  1  0.854370  0.381430  0.773030  1.0  0.0617
  C  C227  1  0.795570  0.347330  0.754130  1.0  -0.068
  C  C228  1  0.271170  0.474630  0.455830  1.0  0.0103
  C  C229  1  0.280870  0.510630  0.525430  1.0  0.2866
  C  C230  1  0.827670  0.393830  0.830730  1.0  -0.0893
  C  C231  1  0.735420  0.700920  0.582670  1.0  0.6938
  C  C232  1  0.793280  0.716960  0.606670  1.0  -0.1311
  C  C233  1  0.823180  0.696880  0.568170  1.0  -0.0363
  C  C234  1  0.877130  0.712810  0.591070  1.0  -0.1308
  C  C235  1  0.909980  0.691550  0.550270  1.0  0.6961
  C  C236  1  0.900630  0.747870  0.652070  1.0  -0.085
  C  C237  1  0.870530  0.767870  0.689770  1.0  0.1649
  C  C238  1  0.816530  0.752270  0.667270  1.0  -0.1029
  C  C239  1  0.869530  0.817670  0.797370  1.0  0.0271
  C  C240  1  0.910830  0.850170  0.867370  1.0  0.2423
  C  C241  1  0.918730  0.809370  0.904870  1.0  0.1485
  C  C242  1  0.608720  0.731310  0.725970  1.0  0.6894
  C  C243  1  0.596780  0.759540  0.788970  1.0  -0.1283
  C  C244  1  0.602070  0.811910  0.776870  1.0  -0.0236
  C  C245  1  0.596640  0.840610  0.836570  1.0  -0.1374
  C  C246  1  0.606510  0.898220  0.826170  1.0  0.6802
  C  C247  1  0.584910  0.817190  0.907870  1.0  -0.1707
  C  C248  1  0.576010  0.763580  0.918070  1.0  0.2633
  C  C249  1  0.583460  0.735350  0.859270  1.0  -0.1357
  C  C250  1  0.549730  0.760470  0.047170  1.0  -0.035
  C  C251  1  0.521030  0.714770  0.106370  1.0  0.0617
  C  C252  1  0.462230  0.680670  0.087470  1.0  -0.075
  C  C253  1  0.937830  0.807970  0.789170  1.0  0.0103
  C  C254  1  0.947530  0.843970  0.858770  1.0  0.2866
  C  C255  1  0.494330  0.727170  0.164070  1.0  -0.0893
  C  C256  1  0.965750  0.367840  0.916000  1.0  0.6955
  C  C257  1  0.949710  0.409660  0.940000  1.0  -0.1289
  C  C258  1  0.969790  0.459640  0.901500  1.0  -0.0361
  C  C259  1  0.953860  0.497660  0.924400  1.0  -0.1326
  C  C260  1  0.975120  0.551770  0.883600  1.0  0.6975
  C  C261  1  0.918800  0.486100  0.985400  1.0  -0.0827
  C  C262  1  0.898800  0.436000  0.023100  1.0  0.1644
  C  C263  1  0.914400  0.397600  0.000600  1.0  -0.0997
  C  C264  1  0.849000  0.385200  0.130700  1.0  0.0253
  C  C265  1  0.816500  0.394000  0.200700  1.0  0.2448
  C  C266  1  0.857300  0.442700  0.238200  1.0  0.1481
  C  C267  1  0.935360  0.210750  0.059300  1.0  0.6896
  C  C268  1  0.907130  0.170580  0.122300  1.0  -0.1271
  C  C269  1  0.854760  0.123500  0.110200  1.0  -0.0252
  C  C270  1  0.826060  0.089370  0.169900  1.0  -0.1373
  C  C271  1  0.768450  0.041630  0.159500  1.0  0.6784
  C  C272  1  0.849480  0.101060  0.241200  1.0  -0.1697
  C  C273  1  0.903090  0.145770  0.251400  1.0  0.2634
  C  C274  1  0.931320  0.181450  0.192600  1.0  -0.1332
  C  C275  1  0.906200  0.122600  0.380500  1.0  -0.0299
  C  C276  1  0.951900  0.139600  0.439700  1.0  0.0577
  C  C277  1  0.986000  0.114900  0.420800  1.0  -0.0647
  C  C278  1  0.858700  0.463200  0.122500  1.0  0.0048
  C  C279  1  0.822700  0.436900  0.192100  1.0  0.2871
  C  C280  1  0.939500  0.100500  0.497400  1.0  -0.0911
  C  C281  1  0.632420  0.701170  0.249330  1.0  0.6955
  C  C282  1  0.616380  0.742990  0.273330  1.0  -0.1288
  C  C283  1  0.636460  0.792970  0.234830  1.0  -0.0361
  C  C284  1  0.620530  0.830990  0.257730  1.0  -0.1327
  C  C285  1  0.641790  0.885100  0.216930  1.0  0.6975
  C  C286  1  0.585470  0.819430  0.318730  1.0  -0.0827
  C  C287  1  0.565470  0.769330  0.356430  1.0  0.1644
  C  C288  1  0.581070  0.730930  0.333930  1.0  -0.0997
  C  C289  1  0.515670  0.718530  0.464030  1.0  0.0253
  C  C290  1  0.483170  0.727330  0.534030  1.0  0.2449
  C  C291  1  0.523970  0.776030  0.571530  1.0  0.1481
  C  C292  1  0.602030  0.544080  0.392630  1.0  0.6896
  C  C293  1  0.573800  0.503910  0.455630  1.0  -0.1267
  C  C294  1  0.521430  0.456830  0.443530  1.0  -0.0252
  C  C295  1  0.492730  0.422700  0.503230  1.0  -0.1374
  C  C296  1  0.435120  0.374960  0.492830  1.0  0.6784
  C  C297  1  0.516150  0.434390  0.574530  1.0  -0.1697
  C  C298  1  0.569760  0.479100  0.584730  1.0  0.2634
  C  C299  1  0.597990  0.514780  0.525930  1.0  -0.1332
  C  C300  1  0.572870  0.455930  0.713830  1.0  -0.0299
  C  C301  1  0.618570  0.472930  0.773030  1.0  0.0577
  C  C302  1  0.652670  0.448230  0.754130  1.0  -0.0721
  C  C303  1  0.525370  0.796530  0.455830  1.0  0.0048
  C  C304  1  0.489370  0.770230  0.525430  1.0  0.2866
  C  C305  1  0.606170  0.433830  0.830730  1.0  -0.0911
  C  C306  1  0.299080  0.034510  0.582670  1.0  0.6955
  C  C307  1  0.283040  0.076330  0.606670  1.0  -0.1289
  C  C308  1  0.303120  0.126310  0.568170  1.0  -0.0361
  C  C309  1  0.287190  0.164330  0.591070  1.0  -0.1326
  C  C310  1  0.308450  0.218440  0.550270  1.0  0.6975
  C  C311  1  0.252130  0.152770  0.652070  1.0  -0.0827
  C  C312  1  0.232130  0.102670  0.689770  1.0  0.1644
  C  C313  1  0.247730  0.064270  0.667270  1.0  -0.0997
  C  C314  1  0.182330  0.051870  0.797370  1.0  0.0253
  C  C315  1  0.149830  0.060670  0.867370  1.0  0.2429
  C  C316  1  0.190630  0.109370  0.904870  1.0  0.1481
  C  C317  1  0.268690  0.877420  0.725970  1.0  0.6896
  C  C318  1  0.240460  0.837250  0.788970  1.0  -0.1271
  C  C319  1  0.188090  0.790170  0.776870  1.0  -0.0252
  C  C320  1  0.159390  0.756040  0.836570  1.0  -0.1373
  C  C321  1  0.101780  0.708300  0.826170  1.0  0.6784
  C  C322  1  0.182810  0.767730  0.907870  1.0  -0.1697
  C  C323  1  0.236420  0.812440  0.918070  1.0  0.2634
  C  C324  1  0.264650  0.848120  0.859270  1.0  -0.1332
  C  C325  1  0.239530  0.789270  0.047170  1.0  -0.0299
  C  C326  1  0.285230  0.806270  0.106370  1.0  0.0577
  C  C327  1  0.319330  0.781570  0.087470  1.0  -0.0646
  C  C328  1  0.192030  0.129870  0.789170  1.0  0.0048
  C  C329  1  0.156030  0.103570  0.858770  1.0  0.2871
  C  C330  1  0.272830  0.767170  0.164070  1.0  -0.0909
  C  C331  1  0.632160  0.597910  0.916000  1.0  0.697
  C  C332  1  0.590340  0.540050  0.940000  1.0  -0.1301
  C  C333  1  0.540360  0.510150  0.901500  1.0  -0.0372
  C  C334  1  0.502340  0.456200  0.924400  1.0  -0.1317
  C  C335  1  0.448230  0.423350  0.883600  1.0  0.6974
  C  C336  1  0.513900  0.432700  0.985400  1.0  -0.0845
  C  C337  1  0.564000  0.462800  0.023100  1.0  0.1651
  C  C338  1  0.602400  0.516800  0.000600  1.0  -0.1002
  C  C339  1  0.614800  0.463800  0.130700  1.0  0.0251
  C  C340  1  0.606000  0.422500  0.200700  1.0  0.2456
  C  C341  1  0.557300  0.414600  0.238200  1.0  0.1475
  C  C342  1  0.789250  0.724610  0.059300  1.0  0.689
  C  C343  1  0.829420  0.736550  0.122300  1.0  -0.1241
  C  C344  1  0.876500  0.731260  0.110200  1.0  -0.0255
  C  C345  1  0.910630  0.736690  0.169900  1.0  -0.1363
  C  C346  1  0.958370  0.726820  0.159500  1.0  0.6777
  C  C347  1  0.898940  0.748420  0.241200  1.0  -0.1686
  C  C348  1  0.854230  0.757320  0.251400  1.0  0.2625
  C  C349  1  0.818550  0.749870  0.192600  1.0  -0.1337
  C  C350  1  0.877400  0.783600  0.380500  1.0  -0.0376
  C  C351  1  0.860400  0.812300  0.439700  1.0  0.0623
  C  C352  1  0.885100  0.871100  0.420800  1.0  -0.068
  C  C353  1  0.536800  0.395500  0.122500  1.0  0.0076
  C  C354  1  0.563100  0.385800  0.192100  1.0  0.2918
  C  C355  1  0.899500  0.839000  0.497400  1.0  -0.0899
  C  C356  1  0.298830  0.931240  0.249330  1.0  0.697
  C  C357  1  0.257010  0.873380  0.273330  1.0  -0.1302
  C  C358  1  0.207030  0.843480  0.234830  1.0  -0.0372
  C  C359  1  0.169010  0.789530  0.257730  1.0  -0.1316
  C  C360  1  0.114900  0.756680  0.216930  1.0  0.6974
  C  C361  1  0.180570  0.766030  0.318730  1.0  -0.0845
  C  C362  1  0.230670  0.796130  0.356430  1.0  0.1651
  C  C363  1  0.269070  0.850130  0.333930  1.0  -0.1001
  C  C364  1  0.281470  0.797130  0.464030  1.0  0.025
  C  C365  1  0.272670  0.755830  0.534030  1.0  0.2442
  C  C366  1  0.223970  0.747930  0.571530  1.0  0.1475
  C  C367  1  0.455920  0.057940  0.392630  1.0  0.689
  C  C368  1  0.496090  0.069880  0.455630  1.0  -0.1241
  C  C369  1  0.543170  0.064590  0.443530  1.0  -0.0255
  C  C370  1  0.577300  0.070020  0.503230  1.0  -0.1363
  C  C371  1  0.625040  0.060150  0.492830  1.0  0.6777
  C  C372  1  0.565610  0.081750  0.574530  1.0  -0.1686
  C  C373  1  0.520900  0.090650  0.584730  1.0  0.2625
  C  C374  1  0.485220  0.083200  0.525930  1.0  -0.134
  C  C375  1  0.544070  0.116930  0.713830  1.0  -0.0376
  C  C376  1  0.527070  0.145630  0.773030  1.0  0.0623
  C  C377  1  0.551770  0.204430  0.754130  1.0  -0.0682
  C  C378  1  0.203470  0.728830  0.455830  1.0  0.0076
  C  C379  1  0.229770  0.719130  0.525430  1.0  0.2923
  C  C380  1  0.566170  0.172330  0.830730  1.0  -0.0899
  C  C381  1  0.965490  0.264580  0.582670  1.0  0.697
  C  C382  1  0.923670  0.206720  0.606670  1.0  -0.1301
  C  C383  1  0.873690  0.176820  0.568170  1.0  -0.0372
  C  C384  1  0.835670  0.122870  0.591070  1.0  -0.1317
  C  C385  1  0.781560  0.090020  0.550270  1.0  0.6974
  C  C386  1  0.847230  0.099370  0.652070  1.0  -0.0845
  C  C387  1  0.897330  0.129470  0.689770  1.0  0.1651
  C  C388  1  0.935730  0.183470  0.667270  1.0  -0.1002
  C  C389  1  0.948130  0.130470  0.797370  1.0  0.0251
  C  C390  1  0.939330  0.089170  0.867370  1.0  0.2465
  C  C391  1  0.890630  0.081270  0.904870  1.0  0.1475
  C  C392  1  0.122580  0.391280  0.725970  1.0  0.689
  C  C393  1  0.162750  0.403220  0.788970  1.0  -0.1237
  C  C394  1  0.209830  0.397930  0.776870  1.0  -0.0255
  C  C395  1  0.243960  0.403360  0.836570  1.0  -0.1363
  C  C396  1  0.291700  0.393490  0.826170  1.0  0.6777
  C  C397  1  0.232270  0.415090  0.907870  1.0  -0.1686
  C  C398  1  0.187560  0.423990  0.918070  1.0  0.2625
  C  C399  1  0.151880  0.416540  0.859270  1.0  -0.1337
  C  C400  1  0.210730  0.450270  0.047170  1.0  -0.0376
  C  C401  1  0.193730  0.478970  0.106370  1.0  0.0623
  C  C402  1  0.218430  0.537770  0.087470  1.0  -0.0681
  C  C403  1  0.870130  0.062170  0.789170  1.0  0.0076
  C  C404  1  0.896430  0.052470  0.858770  1.0  0.2918
  C  C405  1  0.232830  0.505670  0.164070  1.0  -0.0899
  C  C406  1  0.597910  0.965750  0.084000  1.0  0.6944
  C  C407  1  0.540050  0.949710  0.060000  1.0  -0.1296
  C  C408  1  0.510150  0.969790  0.098500  1.0  -0.038
  C  C409  1  0.456200  0.953860  0.075600  1.0  -0.1301
  C  C410  1  0.423350  0.975120  0.116400  1.0  0.6949
  C  C411  1  0.432700  0.918800  0.014600  1.0  -0.0829
  C  C412  1  0.462800  0.898800  0.976900  1.0  0.1658
  C  C413  1  0.516800  0.914400  0.999400  1.0  -0.1019
  C  C414  1  0.463800  0.849000  0.869300  1.0  0.0278
  C  C415  1  0.422500  0.816500  0.799300  1.0  0.2452
  C  C416  1  0.414600  0.857300  0.761800  1.0  0.154
  C  C417  1  0.724610  0.935360  0.940700  1.0  0.6889
  C  C418  1  0.736550  0.907130  0.877700  1.0  -0.1285
  C  C419  1  0.731260  0.854760  0.889800  1.0  -0.0258
  C  C420  1  0.736690  0.826060  0.830100  1.0  -0.1364
  C  C421  1  0.726820  0.768450  0.840500  1.0  0.6799
  C  C422  1  0.748420  0.849480  0.758800  1.0  -0.1718
  C  C423  1  0.757320  0.903090  0.748600  1.0  0.2656
  C  C424  1  0.749870  0.931320  0.807400  1.0  -0.1349
  C  C425  1  0.783600  0.906200  0.619500  1.0  -0.0323
  C  C426  1  0.812300  0.951900  0.560300  1.0  0.0616
  C  C427  1  0.871100  0.986000  0.579200  1.0  -0.0752
  C  C428  1  0.395500  0.858700  0.877500  1.0  0.0069
  C  C429  1  0.385800  0.822700  0.807900  1.0  0.291
  C  C430  1  0.839000  0.939500  0.502600  1.0  -0.0816
  C  C431  1  0.264580  0.299080  0.417330  1.0  0.6944
  C  C432  1  0.206720  0.283040  0.393330  1.0  -0.1296
  C  C433  1  0.176820  0.303120  0.431830  1.0  -0.038
  C  C434  1  0.122870  0.287190  0.408930  1.0  -0.1302
  C  C435  1  0.090020  0.308450  0.449730  1.0  0.695
  C  C436  1  0.099370  0.252130  0.347930  1.0  -0.0829
  C  C437  1  0.129470  0.232130  0.310230  1.0  0.1658
  C  C438  1  0.183470  0.247730  0.332730  1.0  -0.1019
  C  C439  1  0.130470  0.182330  0.202630  1.0  0.0278
  C  C440  1  0.089170  0.149830  0.132630  1.0  0.2465
  C  C441  1  0.081270  0.190630  0.095130  1.0  0.154
  C  C442  1  0.391280  0.268690  0.274030  1.0  0.6889
  C  C443  1  0.403220  0.240460  0.211030  1.0  -0.128
  C  C444  1  0.397930  0.188090  0.223130  1.0  -0.0258
  C  C445  1  0.403360  0.159390  0.163430  1.0  -0.1364
  C  C446  1  0.393490  0.101780  0.173830  1.0  0.6799
  C  C447  1  0.415090  0.182810  0.092130  1.0  -0.1718
  C  C448  1  0.423990  0.236420  0.081930  1.0  0.2656
  C  C449  1  0.416540  0.264650  0.140730  1.0  -0.1349
  C  C450  1  0.450270  0.239530  0.952830  1.0  -0.0323
  C  C451  1  0.478970  0.285230  0.893630  1.0  0.0616
  C  C452  1  0.537770  0.319330  0.912530  1.0  -0.0752
  C  C453  1  0.062170  0.192030  0.210830  1.0  0.0069
  C  C454  1  0.052470  0.156030  0.141230  1.0  0.291
  C  C455  1  0.505670  0.272830  0.835930  1.0  -0.0816
  C  C456  1  0.931240  0.632420  0.750670  1.0  0.6944
  C  C457  1  0.873380  0.616380  0.726670  1.0  -0.1296
  C  C458  1  0.843480  0.636460  0.765170  1.0  -0.038
  C  C459  1  0.789530  0.620530  0.742270  1.0  -0.1301
  C  C460  1  0.756680  0.641790  0.783070  1.0  0.6949
  C  C461  1  0.766030  0.585470  0.681270  1.0  -0.0829
  C  C462  1  0.796130  0.565470  0.643570  1.0  0.1658
  C  C463  1  0.850130  0.581070  0.666070  1.0  -0.102
  C  C464  1  0.797130  0.515670  0.535970  1.0  0.0279
  C  C465  1  0.755830  0.483170  0.465970  1.0  0.2465
  C  C466  1  0.747930  0.523970  0.428470  1.0  0.154
  C  C467  1  0.057940  0.602030  0.607370  1.0  0.6887
  C  C468  1  0.069880  0.573800  0.544370  1.0  -0.1284
  C  C469  1  0.064590  0.521430  0.556470  1.0  -0.0258
  C  C470  1  0.070020  0.492730  0.496770  1.0  -0.1363
  C  C471  1  0.060150  0.435120  0.507170  1.0  0.6799
  C  C472  1  0.081750  0.516150  0.425470  1.0  -0.1718
  C  C473  1  0.090650  0.569760  0.415270  1.0  0.2656
  C  C474  1  0.083200  0.597990  0.474070  1.0  -0.135
  C  C475  1  0.116930  0.572870  0.286170  1.0  -0.0323
  C  C476  1  0.145630  0.618570  0.226970  1.0  0.0616
  C  C477  1  0.204430  0.652670  0.245870  1.0  -0.0683
  C  C478  1  0.728830  0.525370  0.544170  1.0  0.0069
  C  C479  1  0.719130  0.489370  0.474570  1.0  0.291
  C  C480  1  0.172330  0.606170  0.169270  1.0  -0.0816
  C  C481  1  0.034250  0.632160  0.084000  1.0  0.6962
  C  C482  1  0.050290  0.590340  0.060000  1.0  -0.1276
  C  C483  1  0.030210  0.540360  0.098500  1.0  -0.037
  C  C484  1  0.046140  0.502340  0.075600  1.0  -0.1318
  C  C485  1  0.024880  0.448230  0.116400  1.0  0.6965
  C  C486  1  0.081200  0.513900  0.014600  1.0  -0.0842
  C  C487  1  0.101200  0.564000  0.976900  1.0  0.1641
  C  C488  1  0.085600  0.602400  0.999400  1.0  -0.1
  C  C489  1  0.151000  0.614800  0.869300  1.0  0.0239
  C  C490  1  0.183500  0.606000  0.799300  1.0  0.2419
  C  C491  1  0.142700  0.557300  0.761800  1.0  0.1518
  C  C492  1  0.064640  0.789250  0.940700  1.0  0.6884
  C  C493  1  0.092870  0.829420  0.877700  1.0  -0.1284
  C  C494  1  0.145240  0.876500  0.889800  1.0  -0.027
  C  C495  1  0.173940  0.910630  0.830100  1.0  -0.1361
  C  C496  1  0.231550  0.958370  0.840500  1.0  0.6791
  C  C497  1  0.150520  0.898940  0.758800  1.0  -0.1689
  C  C498  1  0.096910  0.854230  0.748600  1.0  0.2633
  C  C499  1  0.068680  0.818550  0.807400  1.0  -0.1316
  C  C500  1  0.093800  0.877400  0.619500  1.0  -0.0333
  C  C501  1  0.048100  0.860400  0.560300  1.0  0.0559
  C  C502  1  0.014000  0.885100  0.579200  1.0  -0.0677
  C  C503  1  0.141300  0.536800  0.877500  1.0  0.0016
  C  C504  1  0.177300  0.563100  0.807900  1.0  0.2909
  C  C505  1  0.060500  0.899500  0.502600  1.0  -0.0842
  C  C506  1  0.700920  0.965490  0.417330  1.0  0.6962
  C  C507  1  0.716960  0.923670  0.393330  1.0  -0.1276
  C  C508  1  0.696880  0.873690  0.431830  1.0  -0.037
  C  C509  1  0.712810  0.835670  0.408930  1.0  -0.1318
  C  C510  1  0.691550  0.781560  0.449730  1.0  0.6965
  C  C511  1  0.747870  0.847230  0.347930  1.0  -0.0842
  C  C512  1  0.767870  0.897330  0.310230  1.0  0.1641
  C  C513  1  0.752270  0.935730  0.332730  1.0  -0.1
  C  C514  1  0.817670  0.948130  0.202630  1.0  0.0239
  C  C515  1  0.850170  0.939330  0.132630  1.0  0.2401
  C  C516  1  0.809370  0.890630  0.095130  1.0  0.1518
  C  C517  1  0.731310  0.122580  0.274030  1.0  0.6884
  C  C518  1  0.759540  0.162750  0.211030  1.0  -0.1284
  C  C519  1  0.811910  0.209830  0.223130  1.0  -0.027
  C  C520  1  0.840610  0.243960  0.163430  1.0  -0.1361
  C  C521  1  0.898220  0.291700  0.173830  1.0  0.6791
  C  C522  1  0.817190  0.232270  0.092130  1.0  -0.1689
  C  C523  1  0.763580  0.187560  0.081930  1.0  0.2633
  C  C524  1  0.735350  0.151880  0.140730  1.0  -0.1316
  C  C525  1  0.760470  0.210730  0.952830  1.0  -0.0333
  C  C526  1  0.714770  0.193730  0.893630  1.0  0.0561
  C  C527  1  0.680670  0.218430  0.912530  1.0  -0.0676
  C  C528  1  0.807970  0.870130  0.210830  1.0  0.0016
  C  C529  1  0.843970  0.896430  0.141230  1.0  0.2909
  C  C530  1  0.727170  0.232830  0.835930  1.0  -0.084
  C  C531  1  0.367580  0.298830  0.750670  1.0  0.6962
  C  C532  1  0.383620  0.257010  0.726670  1.0  -0.1275
  C  C533  1  0.363540  0.207030  0.765170  1.0  -0.037
  C  C534  1  0.379470  0.169010  0.742270  1.0  -0.1319
  C  C535  1  0.358210  0.114900  0.783070  1.0  0.6965
  C  C536  1  0.414530  0.180570  0.681270  1.0  -0.0843
  C  C537  1  0.434530  0.230670  0.643570  1.0  0.1641
  C  C538  1  0.418930  0.269070  0.666070  1.0  -0.0998
  C  C539  1  0.484330  0.281470  0.535970  1.0  0.0238
  C  C540  1  0.516830  0.272670  0.465970  1.0  0.2429
  C  C541  1  0.476030  0.223970  0.428470  1.0  0.1518
  C  C542  1  0.397970  0.455920  0.607370  1.0  0.6884
  C  C543  1  0.426200  0.496090  0.544370  1.0  -0.128
  C  C544  1  0.478570  0.543170  0.556470  1.0  -0.0269
  C  C545  1  0.507270  0.577300  0.496770  1.0  -0.1361
  C  C546  1  0.564880  0.625040  0.507170  1.0  0.6791
  C  C547  1  0.483850  0.565610  0.425470  1.0  -0.1689
  C  C548  1  0.430240  0.520900  0.415270  1.0  0.2633
  C  C549  1  0.402010  0.485220  0.474070  1.0  -0.1316
  C  C550  1  0.427130  0.544070  0.286170  1.0  -0.0333
  C  C551  1  0.381430  0.527070  0.226970  1.0  0.0559
  C  C552  1  0.347330  0.551770  0.245870  1.0  -0.0738
  C  C553  1  0.474630  0.203470  0.544170  1.0  0.0016
  C  C554  1  0.510630  0.229770  0.474570  1.0  0.2905
  C  C555  1  0.393830  0.566170  0.169270  1.0  -0.0842
  C  C556  1  0.367840  0.402090  0.084000  1.0  0.6979
  C  C557  1  0.409660  0.459950  0.060000  1.0  -0.13
  C  C558  1  0.459640  0.489850  0.098500  1.0  -0.0389
  C  C559  1  0.497660  0.543800  0.075600  1.0  -0.1314
  C  C560  1  0.551770  0.576650  0.116400  1.0  0.6956
  C  C561  1  0.486100  0.567300  0.014600  1.0  -0.0848
  C  C562  1  0.436000  0.537200  0.976900  1.0  0.1652
  C  C563  1  0.397600  0.483200  0.999400  1.0  -0.0996
  C  C564  1  0.385200  0.536200  0.869300  1.0  0.0282
  C  C565  1  0.394000  0.577500  0.799300  1.0  0.2421
  C  C566  1  0.442700  0.585400  0.761800  1.0  0.1499
  C  C567  1  0.210750  0.275390  0.940700  1.0  0.6867
  C  C568  1  0.170580  0.263450  0.877700  1.0  -0.1254
  C  C569  1  0.123500  0.268740  0.889800  1.0  -0.0283
  C  C570  1  0.089370  0.263310  0.830100  1.0  -0.1351
  C  C571  1  0.041630  0.273180  0.840500  1.0  0.6775
  C  C572  1  0.101060  0.251580  0.758800  1.0  -0.1697
  C  C573  1  0.145770  0.242680  0.748600  1.0  0.2629
  C  C574  1  0.181450  0.250130  0.807400  1.0  -0.1352
  C  C575  1  0.122600  0.216400  0.619500  1.0  -0.0376
  C  C576  1  0.139600  0.187700  0.560300  1.0  0.0641
  C  C577  1  0.114900  0.128900  0.579200  1.0  -0.067
  C  C578  1  0.463200  0.604500  0.877500  1.0  0.0111
  C  C579  1  0.436900  0.614200  0.807900  1.0  0.2797
  C  C580  1  0.100500  0.161000  0.502600  1.0  -0.0833
  C  C581  1  0.034510  0.735420  0.417330  1.0  0.6979
  C  C582  1  0.076330  0.793280  0.393330  1.0  -0.13
  C  C583  1  0.126310  0.823180  0.431830  1.0  -0.0388
  C  C584  1  0.164330  0.877130  0.408930  1.0  -0.1314
  C  C585  1  0.218440  0.909980  0.449730  1.0  0.6957
  C  C586  1  0.152770  0.900630  0.347930  1.0  -0.0848
  C  C587  1  0.102670  0.870530  0.310230  1.0  0.1652
  C  C588  1  0.064270  0.816530  0.332730  1.0  -0.0996
  C  C589  1  0.051870  0.869530  0.202630  1.0  0.0282
  C  C590  1  0.060670  0.910830  0.132630  1.0  0.2415
  C  C591  1  0.109370  0.918730  0.095130  1.0  0.1499
  C  C592  1  0.877420  0.608720  0.274030  1.0  0.6867
  C  C593  1  0.837250  0.596780  0.211030  1.0  -0.1251
  C  C594  1  0.790170  0.602070  0.223130  1.0  -0.0283
  C  C595  1  0.756040  0.596640  0.163430  1.0  -0.1351
  C  C596  1  0.708300  0.606510  0.173830  1.0  0.6775
  C  C597  1  0.767730  0.584910  0.092130  1.0  -0.1697
  C  C598  1  0.812440  0.576010  0.081930  1.0  0.2629
  C  C599  1  0.848120  0.583460  0.140730  1.0  -0.1352
  C  C600  1  0.789270  0.549730  0.952830  1.0  -0.0376
  C  C601  1  0.806270  0.521030  0.893630  1.0  0.0641
  C  C602  1  0.781570  0.462230  0.912530  1.0  -0.0671
  C  C603  1  0.129870  0.937830  0.210830  1.0  0.0111
  C  C604  1  0.103570  0.947530  0.141230  1.0  0.2797
  C  C605  1  0.767170  0.494330  0.835930  1.0  -0.0833
  C  C606  1  0.701170  0.068760  0.750670  1.0  0.6979
  C  C607  1  0.742990  0.126620  0.726670  1.0  -0.1298
  C  C608  1  0.792970  0.156520  0.765170  1.0  -0.0388
  C  C609  1  0.830990  0.210470  0.742270  1.0  -0.1314
  C  C610  1  0.885100  0.243320  0.783070  1.0  0.6957
  C  C611  1  0.819430  0.233970  0.681270  1.0  -0.0848
  C  C612  1  0.769330  0.203870  0.643570  1.0  0.1653
  C  C613  1  0.730930  0.149870  0.666070  1.0  -0.0995
  C  C614  1  0.718530  0.202870  0.535970  1.0  0.0282
  C  C615  1  0.727330  0.244170  0.465970  1.0  0.2396
  C  C616  1  0.776030  0.252070  0.428470  1.0  0.1499
  C  C617  1  0.544080  0.942060  0.607370  1.0  0.6867
  C  C618  1  0.503910  0.930120  0.544370  1.0  -0.1254
  C  C619  1  0.456830  0.935410  0.556470  1.0  -0.0284
  C  C620  1  0.422700  0.929980  0.496770  1.0  -0.1354
  C  C621  1  0.374960  0.939850  0.507170  1.0  0.6775
  C  C622  1  0.434390  0.918250  0.425470  1.0  -0.1697
  C  C623  1  0.479100  0.909350  0.415270  1.0  0.2629
  C  C624  1  0.514780  0.916800  0.474070  1.0  -0.1352
  C  C625  1  0.455930  0.883070  0.286170  1.0  -0.0376
  C  C626  1  0.472930  0.854370  0.226970  1.0  0.0641
  C  C627  1  0.448230  0.795570  0.245870  1.0  -0.0672
  C  C628  1  0.796530  0.271170  0.544170  1.0  0.0111
  C  C629  1  0.770230  0.280870  0.474570  1.0  0.2802
  C  C630  1  0.433830  0.827670  0.169270  1.0  -0.0833
  O  O631  1  0.378640  0.057210  0.949060  1.0  -0.5754
  O  O632  1  0.379790  0.998330  0.864560  1.0  -0.6027
  O  O633  1  0.554250  0.994850  0.827050  1.0  -0.5991
  O  O634  1  0.624750  0.039210  0.908200  1.0  -0.617
  O  O635  1  0.560300  0.135500  0.082700  1.0  -0.5958
  O  O636  1  0.270750  0.017630  0.070990  1.0  -0.6276
  O  O637  1  0.289400  0.089930  0.998230  1.0  -0.5822
  O  O638  1  0.269060  0.246400  0.093670  1.0  -0.6002
  O  O639  1  0.284810  0.262570  0.215660  1.0  -0.5855
  O  O640  1  0.228470  0.068780  0.318110  1.0  -0.2725
  O  O641  1  0.045310  0.390540  0.282390  1.0  -0.5754
  O  O642  1  0.046460  0.331660  0.197890  1.0  -0.6027
  O  O643  1  0.220920  0.328180  0.160380  1.0  -0.5991
  O  O644  1  0.291420  0.372540  0.241530  1.0  -0.617
  O  O645  1  0.226970  0.468830  0.416030  1.0  -0.5957
  O  O646  1  0.937420  0.350960  0.404320  1.0  -0.6279
  O  O647  1  0.956070  0.423260  0.331560  1.0  -0.5822
  O  O648  1  0.935730  0.579730  0.427000  1.0  -0.6002
  O  O649  1  0.951480  0.595900  0.548990  1.0  -0.5855
  O  O650  1  0.895140  0.402110  0.651440  1.0  -0.2725
  O  O651  1  0.711970  0.723880  0.615730  1.0  -0.5754
  O  O652  1  0.713120  0.665000  0.531230  1.0  -0.6027
  O  O653  1  0.887580  0.661520  0.493720  1.0  -0.5991
  O  O654  1  0.958080  0.705880  0.574870  1.0  -0.6169
  O  O655  1  0.893630  0.802170  0.749370  1.0  -0.5958
  O  O656  1  0.604080  0.684300  0.737660  1.0  -0.6276
  O  O657  1  0.622730  0.756600  0.664900  1.0  -0.5819
  O  O658  1  0.602390  0.913070  0.760340  1.0  -0.6002
  O  O659  1  0.618140  0.929240  0.882330  1.0  -0.5855
  O  O660  1  0.561800  0.735450  0.984780  1.0  -0.2725
  O  O661  1  0.942790  0.321430  0.949060  1.0  -0.5735
  O  O662  1  0.001670  0.381460  0.864560  1.0  -0.6045
  O  O663  1  0.005150  0.559400  0.827050  1.0  -0.5987
  O  O664  1  0.960790  0.585540  0.908200  1.0  -0.6166
  O  O665  1  0.864500  0.424800  0.082700  1.0  -0.5908
  O  O666  1  0.982370  0.253120  0.070990  1.0  -0.6269
  O  O667  1  0.910070  0.199470  0.998230  1.0  -0.5826
  O  O668  1  0.753600  0.022660  0.093670  1.0  -0.6015
  O  O669  1  0.737430  0.022240  0.215660  1.0  -0.5856
  O  O670  1  0.931220  0.159690  0.318110  1.0  -0.2719
  O  O671  1  0.609460  0.654760  0.282390  1.0  -0.5735
  O  O672  1  0.668340  0.714790  0.197890  1.0  -0.6046
  O  O673  1  0.671820  0.892730  0.160380  1.0  -0.5987
  O  O674  1  0.627460  0.918870  0.241530  1.0  -0.6166
  O  O675  1  0.531170  0.758130  0.416030  1.0  -0.5909
  O  O676  1  0.649040  0.586450  0.404320  1.0  -0.6269
  O  O677  1  0.576740  0.532800  0.331560  1.0  -0.5826
  O  O678  1  0.420270  0.355990  0.427000  1.0  -0.6016
  O  O679  1  0.404100  0.355570  0.548990  1.0  -0.5856
  O  O680  1  0.597890  0.493020  0.651440  1.0  -0.2719
  O  O681  1  0.276120  0.988100  0.615730  1.0  -0.5735
  O  O682  1  0.335000  0.048130  0.531230  1.0  -0.6046
  O  O683  1  0.338480  0.226070  0.493720  1.0  -0.5987
  O  O684  1  0.294120  0.252210  0.574870  1.0  -0.6162
  O  O685  1  0.197830  0.091470  0.749370  1.0  -0.5908
  O  O686  1  0.315700  0.919790  0.737660  1.0  -0.6269
  O  O687  1  0.243400  0.866140  0.664900  1.0  -0.5826
  O  O688  1  0.086930  0.689330  0.760340  1.0  -0.6015
  O  O689  1  0.070760  0.688910  0.882330  1.0  -0.5856
  O  O690  1  0.264550  0.826360  0.984780  1.0  -0.272
  O  O691  1  0.678570  0.621360  0.949060  1.0  -0.5744
  O  O692  1  0.618540  0.620210  0.864560  1.0  -0.6037
  O  O693  1  0.440600  0.445750  0.827050  1.0  -0.5985
  O  O694  1  0.414460  0.375250  0.908200  1.0  -0.6196
  O  O695  1  0.575200  0.439700  0.082700  1.0  -0.5895
  O  O696  1  0.746880  0.729250  0.070990  1.0  -0.6263
  O  O697  1  0.800530  0.710600  0.998230  1.0  -0.5817
  O  O698  1  0.977340  0.730940  0.093670  1.0  -0.6007
  O  O699  1  0.977760  0.715190  0.215660  1.0  -0.5859
  O  O700  1  0.840310  0.771530  0.318110  1.0  -0.2716
  O  O701  1  0.345240  0.954690  0.282390  1.0  -0.5744
  O  O702  1  0.285210  0.953540  0.197890  1.0  -0.6037
  O  O703  1  0.107270  0.779080  0.160380  1.0  -0.5985
  O  O704  1  0.081130  0.708580  0.241530  1.0  -0.6197
  O  O705  1  0.241870  0.773030  0.416030  1.0  -0.5896
  O  O706  1  0.413550  0.062580  0.404320  1.0  -0.6263
  O  O707  1  0.467200  0.043930  0.331560  1.0  -0.5817
  O  O708  1  0.644010  0.064270  0.427000  1.0  -0.6007
  O  O709  1  0.644430  0.048520  0.548990  1.0  -0.5859
  O  O710  1  0.506980  0.104860  0.651440  1.0  -0.2716
  O  O711  1  0.011900  0.288030  0.615730  1.0  -0.5744
  O  O712  1  0.951870  0.286880  0.531230  1.0  -0.6037
  O  O713  1  0.773930  0.112420  0.493720  1.0  -0.5986
  O  O714  1  0.747790  0.041920  0.574870  1.0  -0.6201
  O  O715  1  0.908530  0.106370  0.749370  1.0  -0.5895
  O  O716  1  0.080210  0.395920  0.737660  1.0  -0.6263
  O  O717  1  0.133860  0.377270  0.664900  1.0  -0.5816
  O  O718  1  0.310670  0.397610  0.760340  1.0  -0.6007
  O  O719  1  0.311090  0.381860  0.882330  1.0  -0.5859
  O  O720  1  0.173640  0.438200  0.984780  1.0  -0.2717
  O  O721  1  0.621360  0.942790  0.050940  1.0  -0.5748
  O  O722  1  0.620210  0.001670  0.135440  1.0  -0.6018
  O  O723  1  0.445750  0.005150  0.172950  1.0  -0.5978
  O  O724  1  0.375250  0.960790  0.091800  1.0  -0.6168
  O  O725  1  0.439700  0.864500  0.917300  1.0  -0.5962
  O  O726  1  0.729250  0.982370  0.929010  1.0  -0.6274
  O  O727  1  0.710600  0.910070  0.001770  1.0  -0.5819
  O  O728  1  0.730940  0.753600  0.906330  1.0  -0.6019
  O  O729  1  0.715190  0.737430  0.784340  1.0  -0.5856
  O  O730  1  0.771530  0.931220  0.681890  1.0  -0.2712
  O  O731  1  0.288030  0.276120  0.384270  1.0  -0.5748
  O  O732  1  0.286880  0.335000  0.468770  1.0  -0.6018
  O  O733  1  0.112420  0.338480  0.506280  1.0  -0.5978
  O  O734  1  0.041920  0.294120  0.425130  1.0  -0.6167
  O  O735  1  0.106370  0.197830  0.250630  1.0  -0.5962
  O  O736  1  0.395920  0.315700  0.262340  1.0  -0.6274
  O  O737  1  0.377270  0.243400  0.335100  1.0  -0.5816
  O  O738  1  0.397610  0.086930  0.239660  1.0  -0.6019
  O  O739  1  0.381860  0.070760  0.117670  1.0  -0.5856
  O  O740  1  0.438200  0.264550  0.015220  1.0  -0.2712
  O  O741  1  0.954690  0.609460  0.717610  1.0  -0.5748
  O  O742  1  0.953540  0.668340  0.802110  1.0  -0.6018
  O  O743  1  0.779080  0.671820  0.839620  1.0  -0.5977
  O  O744  1  0.708580  0.627460  0.758470  1.0  -0.6169
  O  O745  1  0.773030  0.531170  0.583970  1.0  -0.5961
  O  O746  1  0.062580  0.649040  0.595680  1.0  -0.6276
  O  O747  1  0.043930  0.576740  0.668440  1.0  -0.5819
  O  O748  1  0.064270  0.420270  0.573000  1.0  -0.6019
  O  O749  1  0.048520  0.404100  0.451010  1.0  -0.5856
  O  O750  1  0.104860  0.597890  0.348560  1.0  -0.2713
  O  O751  1  0.057210  0.678570  0.050940  1.0  -0.5748
  O  O752  1  0.998330  0.618540  0.135440  1.0  -0.6027
  O  O753  1  0.994850  0.440600  0.172950  1.0  -0.5972
  O  O754  1  0.039210  0.414460  0.091800  1.0  -0.6163
  O  O755  1  0.135500  0.575200  0.917300  1.0  -0.5905
  O  O756  1  0.017630  0.746880  0.929010  1.0  -0.6274
  O  O757  1  0.089930  0.800530  0.001770  1.0  -0.5813
  O  O758  1  0.246400  0.977340  0.906330  1.0  -0.6033
  O  O759  1  0.262570  0.977760  0.784340  1.0  -0.586
  O  O760  1  0.068780  0.840310  0.681890  1.0  -0.2735
  O  O761  1  0.723880  0.011900  0.384270  1.0  -0.5748
  O  O762  1  0.665000  0.951870  0.468770  1.0  -0.6028
  O  O763  1  0.661520  0.773930  0.506280  1.0  -0.5972
  O  O764  1  0.705880  0.747790  0.425130  1.0  -0.6159
  O  O765  1  0.802170  0.908530  0.250630  1.0  -0.5905
  O  O766  1  0.684300  0.080210  0.262340  1.0  -0.6274
  O  O767  1  0.756600  0.133860  0.335100  1.0  -0.5813
  O  O768  1  0.913070  0.310670  0.239660  1.0  -0.6034
  O  O769  1  0.929240  0.311090  0.117670  1.0  -0.586
  O  O770  1  0.735450  0.173640  0.015220  1.0  -0.2735
  O  O771  1  0.390540  0.345240  0.717610  1.0  -0.5748
  O  O772  1  0.331660  0.285210  0.802110  1.0  -0.6027
  O  O773  1  0.328180  0.107270  0.839620  1.0  -0.5972
  O  O774  1  0.372540  0.081130  0.758470  1.0  -0.6163
  O  O775  1  0.468830  0.241870  0.583970  1.0  -0.5907
  O  O776  1  0.350960  0.413550  0.595680  1.0  -0.6274
  O  O777  1  0.423260  0.467200  0.668440  1.0  -0.5813
  O  O778  1  0.579730  0.644010  0.573000  1.0  -0.6034
  O  O779  1  0.595900  0.644430  0.451010  1.0  -0.586
  O  O780  1  0.402110  0.506980  0.348560  1.0  -0.2735
  O  O781  1  0.321430  0.378640  0.050940  1.0  -0.5745
  O  O782  1  0.381460  0.379790  0.135440  1.0  -0.6036
  O  O783  1  0.559400  0.554250  0.172950  1.0  -0.5983
  O  O784  1  0.585540  0.624750  0.091800  1.0  -0.617
  O  O785  1  0.424800  0.560300  0.917300  1.0  -0.591
  O  O786  1  0.253120  0.270750  0.929010  1.0  -0.6276
  O  O787  1  0.199470  0.289400  0.001770  1.0  -0.5806
  O  O788  1  0.022660  0.269060  0.906330  1.0  -0.6001
  O  O789  1  0.022240  0.284810  0.784340  1.0  -0.5855
  O  O790  1  0.159690  0.228470  0.681890  1.0  -0.2739
  O  O791  1  0.988100  0.711970  0.384270  1.0  -0.5745
  O  O792  1  0.048130  0.713120  0.468770  1.0  -0.6036
  O  O793  1  0.226070  0.887580  0.506280  1.0  -0.5983
  O  O794  1  0.252210  0.958080  0.425130  1.0  -0.6176
  O  O795  1  0.091470  0.893630  0.250630  1.0  -0.591
  O  O796  1  0.919790  0.604080  0.262340  1.0  -0.6276
  O  O797  1  0.866140  0.622730  0.335100  1.0  -0.5804
  O  O798  1  0.689330  0.602390  0.239660  1.0  -0.6001
  O  O799  1  0.688910  0.618140  0.117670  1.0  -0.5855
  O  O800  1  0.826360  0.561800  0.015220  1.0  -0.274
  O  O801  1  0.654760  0.045310  0.717610  1.0  -0.5745
  O  O802  1  0.714790  0.046460  0.802110  1.0  -0.6036
  O  O803  1  0.892730  0.220920  0.839620  1.0  -0.5983
  O  O804  1  0.918870  0.291420  0.758470  1.0  -0.6171
  O  O805  1  0.758130  0.226970  0.583970  1.0  -0.5911
  O  O806  1  0.586450  0.937420  0.595680  1.0  -0.6276
  O  O807  1  0.532800  0.956070  0.668440  1.0  -0.5806
  O  O808  1  0.355990  0.935730  0.573000  1.0  -0.6001
  O  O809  1  0.355570  0.951480  0.451010  1.0  -0.5855
  O  O810  1  0.493020  0.895140  0.348560  1.0  -0.2739
