# generated using pymatgen
data_CoH4C6(N3O2)2
_symmetry_space_group_name_H-M   'P 1'
_cell_length_a   29.03020000
_cell_length_b   29.03020000
_cell_length_c   29.03020000
_cell_angle_alpha   90.00000000
_cell_angle_beta   90.00000000
_cell_angle_gamma   90.00000000
_symmetry_Int_Tables_number   1
_chemical_formula_structural   CoH4C6(N3O2)2
_chemical_formula_sum   'Co48 H192 C288 N288 O192'
_cell_volume   24465.27397502
_cell_formula_units_Z   48
loop_
 _symmetry_equiv_pos_site_id
 _symmetry_equiv_pos_as_xyz
  1  'x, y, z'
loop_
 _atom_site_type_symbol
 _atom_site_label
 _atom_site_symmetry_multiplicity
 _atom_site_fract_x
 _atom_site_fract_y
 _atom_site_fract_z
 _atom_site_occupancy
 _atom_site_charge
  Co  Co1  1  0.605000  0.895000  0.250000  1.0  0.8585
  Co  Co2  1  0.395000  0.105000  0.250000  1.0  0.8604
  Co  Co3  1  0.395000  0.895000  0.750000  1.0  0.8607
  Co  Co4  1  0.605000  0.105000  0.750000  1.0  0.8586
  Co  Co5  1  0.250000  0.605000  0.895000  1.0  0.8608
  Co  Co6  1  0.250000  0.395000  0.105000  1.0  0.861
  Co  Co7  1  0.750000  0.395000  0.895000  1.0  0.8611
  Co  Co8  1  0.750000  0.605000  0.105000  1.0  0.8606
  Co  Co9  1  0.895000  0.250000  0.605000  1.0  0.8608
  Co  Co10  1  0.105000  0.250000  0.395000  1.0  0.859
  Co  Co11  1  0.895000  0.750000  0.395000  1.0  0.8609
  Co  Co12  1  0.105000  0.750000  0.605000  1.0  0.8589
  Co  Co13  1  0.895000  0.605000  0.750000  1.0  0.8604
  Co  Co14  1  0.105000  0.395000  0.750000  1.0  0.8585
  Co  Co15  1  0.895000  0.395000  0.250000  1.0  0.8607
  Co  Co16  1  0.105000  0.605000  0.250000  1.0  0.8586
  Co  Co17  1  0.605000  0.250000  0.105000  1.0  0.8589
  Co  Co18  1  0.395000  0.250000  0.895000  1.0  0.8609
  Co  Co19  1  0.395000  0.750000  0.105000  1.0  0.8608
  Co  Co20  1  0.605000  0.750000  0.895000  1.0  0.859
  Co  Co21  1  0.250000  0.895000  0.395000  1.0  0.8611
  Co  Co22  1  0.250000  0.105000  0.605000  1.0  0.8606
  Co  Co23  1  0.750000  0.895000  0.605000  1.0  0.861
  Co  Co24  1  0.750000  0.105000  0.395000  1.0  0.8608
  Co  Co25  1  0.395000  0.105000  0.750000  1.0  0.8611
  Co  Co26  1  0.605000  0.895000  0.750000  1.0  0.8593
  Co  Co27  1  0.605000  0.105000  0.250000  1.0  0.8594
  Co  Co28  1  0.395000  0.895000  0.250000  1.0  0.8614
  Co  Co29  1  0.750000  0.395000  0.105000  1.0  0.8619
  Co  Co30  1  0.750000  0.605000  0.895000  1.0  0.8616
  Co  Co31  1  0.250000  0.605000  0.105000  1.0  0.8615
  Co  Co32  1  0.250000  0.395000  0.895000  1.0  0.8619
  Co  Co33  1  0.105000  0.750000  0.395000  1.0  0.8598
  Co  Co34  1  0.895000  0.750000  0.605000  1.0  0.8616
  Co  Co35  1  0.105000  0.250000  0.605000  1.0  0.8598
  Co  Co36  1  0.895000  0.250000  0.395000  1.0  0.8616
  Co  Co37  1  0.105000  0.395000  0.250000  1.0  0.8593
  Co  Co38  1  0.895000  0.605000  0.250000  1.0  0.8611
  Co  Co39  1  0.105000  0.605000  0.750000  1.0  0.8594
  Co  Co40  1  0.895000  0.395000  0.750000  1.0  0.8614
  Co  Co41  1  0.395000  0.750000  0.895000  1.0  0.8616
  Co  Co42  1  0.605000  0.750000  0.105000  1.0  0.8598
  Co  Co43  1  0.605000  0.250000  0.895000  1.0  0.8598
  Co  Co44  1  0.395000  0.250000  0.105000  1.0  0.8616
  Co  Co45  1  0.750000  0.105000  0.605000  1.0  0.8615
  Co  Co46  1  0.750000  0.895000  0.395000  1.0  0.8619
  Co  Co47  1  0.250000  0.105000  0.395000  1.0  0.8616
  Co  Co48  1  0.250000  0.895000  0.605000  1.0  0.8619
  H  H49  1  0.605300  0.954600  0.154500  1.0  0.1412
  H  H50  1  0.676000  0.901700  0.159300  1.0  0.1347
  H  H51  1  0.105300  0.454600  0.654500  1.0  0.1412
  H  H52  1  0.176000  0.401700  0.659300  1.0  0.1347
  H  H53  1  0.394700  0.045400  0.154500  1.0  0.1411
  H  H54  1  0.324000  0.098300  0.159300  1.0  0.133
  H  H55  1  0.894700  0.545400  0.654500  1.0  0.1411
  H  H56  1  0.824000  0.598300  0.659300  1.0  0.133
  H  H57  1  0.394700  0.954600  0.845500  1.0  0.1412
  H  H58  1  0.324000  0.901700  0.840700  1.0  0.1337
  H  H59  1  0.894700  0.454600  0.345500  1.0  0.1412
  H  H60  1  0.824000  0.401700  0.340700  1.0  0.1337
  H  H61  1  0.605300  0.045400  0.845500  1.0  0.1417
  H  H62  1  0.676000  0.098300  0.840700  1.0  0.1334
  H  H63  1  0.105300  0.545400  0.345500  1.0  0.1417
  H  H64  1  0.176000  0.598300  0.340700  1.0  0.1334
  H  H65  1  0.154500  0.605300  0.954600  1.0  0.141
  H  H66  1  0.159300  0.676000  0.901700  1.0  0.1351
  H  H67  1  0.654500  0.105300  0.454600  1.0  0.141
  H  H68  1  0.659300  0.176000  0.401700  1.0  0.1351
  H  H69  1  0.154500  0.394700  0.045400  1.0  0.1407
  H  H70  1  0.159300  0.324000  0.098300  1.0  0.1349
  H  H71  1  0.654500  0.894700  0.545400  1.0  0.1407
  H  H72  1  0.659300  0.824000  0.598300  1.0  0.1349
  H  H73  1  0.845500  0.394700  0.954600  1.0  0.14
  H  H74  1  0.840700  0.324000  0.901700  1.0  0.1353
  H  H75  1  0.345500  0.894700  0.454600  1.0  0.14
  H  H76  1  0.340700  0.824000  0.401700  1.0  0.1353
  H  H77  1  0.845500  0.605300  0.045400  1.0  0.1402
  H  H78  1  0.840700  0.676000  0.098300  1.0  0.1355
  H  H79  1  0.345500  0.105300  0.545400  1.0  0.1402
  H  H80  1  0.340700  0.176000  0.598300  1.0  0.1355
  H  H81  1  0.954600  0.154500  0.605300  1.0  0.1421
  H  H82  1  0.901700  0.159300  0.676000  1.0  0.1343
  H  H83  1  0.454600  0.654500  0.105300  1.0  0.1421
  H  H84  1  0.401700  0.659300  0.176000  1.0  0.1343
  H  H85  1  0.045400  0.154500  0.394700  1.0  0.1416
  H  H86  1  0.098300  0.159300  0.324000  1.0  0.1333
  H  H87  1  0.545400  0.654500  0.894700  1.0  0.1416
  H  H88  1  0.598300  0.659300  0.824000  1.0  0.1333
  H  H89  1  0.954600  0.845500  0.394700  1.0  0.1426
  H  H90  1  0.901700  0.840700  0.324000  1.0  0.1332
  H  H91  1  0.454600  0.345500  0.894700  1.0  0.1426
  H  H92  1  0.401700  0.340700  0.824000  1.0  0.1332
  H  H93  1  0.045400  0.845500  0.605300  1.0  0.1418
  H  H94  1  0.098300  0.840700  0.676000  1.0  0.1343
  H  H95  1  0.545400  0.345500  0.105300  1.0  0.1418
  H  H96  1  0.598300  0.340700  0.176000  1.0  0.1343
  H  H97  1  0.954600  0.605300  0.845500  1.0  0.1411
  H  H98  1  0.901700  0.676000  0.840700  1.0  0.1344
  H  H99  1  0.454600  0.105300  0.345500  1.0  0.1411
  H  H100  1  0.401700  0.176000  0.340700  1.0  0.1344
  H  H101  1  0.045400  0.394700  0.845500  1.0  0.1403
  H  H102  1  0.098300  0.324000  0.840700  1.0  0.135
  H  H103  1  0.545400  0.894700  0.345500  1.0  0.1403
  H  H104  1  0.598300  0.824000  0.340700  1.0  0.135
  H  H105  1  0.954600  0.394700  0.154500  1.0  0.1407
  H  H106  1  0.901700  0.324000  0.159300  1.0  0.1345
  H  H107  1  0.454600  0.894700  0.654500  1.0  0.1407
  H  H108  1  0.401700  0.824000  0.659300  1.0  0.1345
  H  H109  1  0.045400  0.605300  0.154500  1.0  0.1405
  H  H110  1  0.098300  0.676000  0.159300  1.0  0.1359
  H  H111  1  0.545400  0.105300  0.654500  1.0  0.1405
  H  H112  1  0.598300  0.176000  0.659300  1.0  0.1359
  H  H113  1  0.605300  0.154500  0.045400  1.0  0.1419
  H  H114  1  0.676000  0.159300  0.098300  1.0  0.134
  H  H115  1  0.105300  0.654500  0.545400  1.0  0.1419
  H  H116  1  0.176000  0.659300  0.598300  1.0  0.134
  H  H117  1  0.394700  0.154500  0.954600  1.0  0.1415
  H  H118  1  0.324000  0.159300  0.901700  1.0  0.1338
  H  H119  1  0.894700  0.654500  0.454600  1.0  0.1415
  H  H120  1  0.824000  0.659300  0.401700  1.0  0.1338
  H  H121  1  0.394700  0.845500  0.045400  1.0  0.1416
  H  H122  1  0.324000  0.840700  0.098300  1.0  0.1337
  H  H123  1  0.894700  0.345500  0.545400  1.0  0.1416
  H  H124  1  0.824000  0.340700  0.598300  1.0  0.1337
  H  H125  1  0.605300  0.845500  0.954600  1.0  0.1424
  H  H126  1  0.676000  0.840700  0.901700  1.0  0.1339
  H  H127  1  0.105300  0.345500  0.454600  1.0  0.1424
  H  H128  1  0.176000  0.340700  0.401700  1.0  0.1339
  H  H129  1  0.154500  0.954600  0.394700  1.0  0.1417
  H  H130  1  0.159300  0.901700  0.324000  1.0  0.1332
  H  H131  1  0.654500  0.454600  0.894700  1.0  0.1417
  H  H132  1  0.659300  0.401700  0.824000  1.0  0.1332
  H  H133  1  0.154500  0.045400  0.605300  1.0  0.1419
  H  H134  1  0.159300  0.098300  0.676000  1.0  0.1339
  H  H135  1  0.654500  0.545400  0.105300  1.0  0.1419
  H  H136  1  0.659300  0.598300  0.176000  1.0  0.1339
  H  H137  1  0.845500  0.954600  0.605300  1.0  0.1408
  H  H138  1  0.840700  0.901700  0.676000  1.0  0.1337
  H  H139  1  0.345500  0.454600  0.105300  1.0  0.1408
  H  H140  1  0.340700  0.401700  0.176000  1.0  0.1337
  H  H141  1  0.845500  0.045400  0.394700  1.0  0.141
  H  H142  1  0.840700  0.098300  0.324000  1.0  0.1327
  H  H143  1  0.345500  0.545400  0.894700  1.0  0.141
  H  H144  1  0.340700  0.598300  0.824000  1.0  0.1327
  H  H145  1  0.394700  0.045400  0.845500  1.0  0.1415
  H  H146  1  0.324000  0.098300  0.840700  1.0  0.1306
  H  H147  1  0.894700  0.545400  0.345500  1.0  0.1415
  H  H148  1  0.824000  0.598300  0.340700  1.0  0.1306
  H  H149  1  0.605300  0.954600  0.845500  1.0  0.1413
  H  H150  1  0.676000  0.901700  0.840700  1.0  0.1319
  H  H151  1  0.105300  0.454600  0.345500  1.0  0.1413
  H  H152  1  0.176000  0.401700  0.340700  1.0  0.1319
  H  H153  1  0.605300  0.045400  0.154500  1.0  0.1415
  H  H154  1  0.676000  0.098300  0.159300  1.0  0.1316
  H  H155  1  0.105300  0.545400  0.654500  1.0  0.1415
  H  H156  1  0.176000  0.598300  0.659300  1.0  0.1316
  H  H157  1  0.394700  0.954600  0.154500  1.0  0.1408
  H  H158  1  0.324000  0.901700  0.159300  1.0  0.1322
  H  H159  1  0.894700  0.454600  0.654500  1.0  0.1408
  H  H160  1  0.824000  0.401700  0.659300  1.0  0.1322
  H  H161  1  0.845500  0.394700  0.045400  1.0  0.14
  H  H162  1  0.840700  0.324000  0.098300  1.0  0.133
  H  H163  1  0.345500  0.894700  0.545400  1.0  0.14
  H  H164  1  0.340700  0.824000  0.598300  1.0  0.133
  H  H165  1  0.845500  0.605300  0.954600  1.0  0.14
  H  H166  1  0.840700  0.676000  0.901700  1.0  0.1332
  H  H167  1  0.345500  0.105300  0.454600  1.0  0.14
  H  H168  1  0.340700  0.176000  0.401700  1.0  0.1332
  H  H169  1  0.154500  0.605300  0.045400  1.0  0.1408
  H  H170  1  0.159300  0.676000  0.098300  1.0  0.1331
  H  H171  1  0.654500  0.105300  0.545400  1.0  0.1408
  H  H172  1  0.659300  0.176000  0.598300  1.0  0.1331
  H  H173  1  0.154500  0.394700  0.954600  1.0  0.1411
  H  H174  1  0.159300  0.324000  0.901700  1.0  0.1335
  H  H175  1  0.654500  0.894700  0.454600  1.0  0.1411
  H  H176  1  0.659300  0.824000  0.401700  1.0  0.1335
  H  H177  1  0.045400  0.845500  0.394700  1.0  0.1419
  H  H178  1  0.098300  0.840700  0.324000  1.0  0.1316
  H  H179  1  0.545400  0.345500  0.894700  1.0  0.1419
  H  H180  1  0.598300  0.340700  0.824000  1.0  0.1316
  H  H181  1  0.954600  0.845500  0.605300  1.0  0.1426
  H  H182  1  0.901700  0.840700  0.676000  1.0  0.1321
  H  H183  1  0.454600  0.345500  0.105300  1.0  0.1426
  H  H184  1  0.401700  0.340700  0.176000  1.0  0.1321
  H  H185  1  0.045400  0.154500  0.605300  1.0  0.1414
  H  H186  1  0.098300  0.159300  0.676000  1.0  0.1325
  H  H187  1  0.545400  0.654500  0.105300  1.0  0.1414
  H  H188  1  0.598300  0.659300  0.176000  1.0  0.1325
  H  H189  1  0.954600  0.154500  0.394700  1.0  0.1424
  H  H190  1  0.901700  0.159300  0.324000  1.0  0.1308
  H  H191  1  0.454600  0.654500  0.894700  1.0  0.1424
  H  H192  1  0.401700  0.659300  0.824000  1.0  0.1308
  H  H193  1  0.045400  0.394700  0.154500  1.0  0.1403
  H  H194  1  0.098300  0.324000  0.159300  1.0  0.133
  H  H195  1  0.545400  0.894700  0.654500  1.0  0.1403
  H  H196  1  0.598300  0.824000  0.659300  1.0  0.133
  H  H197  1  0.954600  0.605300  0.154500  1.0  0.1408
  H  H198  1  0.901700  0.676000  0.159300  1.0  0.1333
  H  H199  1  0.454600  0.105300  0.654500  1.0  0.1408
  H  H200  1  0.401700  0.176000  0.659300  1.0  0.1333
  H  H201  1  0.045400  0.605300  0.845500  1.0  0.1406
  H  H202  1  0.098300  0.676000  0.840700  1.0  0.133
  H  H203  1  0.545400  0.105300  0.345500  1.0  0.1406
  H  H204  1  0.598300  0.176000  0.340700  1.0  0.133
  H  H205  1  0.954600  0.394700  0.845500  1.0  0.1408
  H  H206  1  0.901700  0.324000  0.840700  1.0  0.1323
  H  H207  1  0.454600  0.894700  0.345500  1.0  0.1408
  H  H208  1  0.401700  0.824000  0.340700  1.0  0.1323
  H  H209  1  0.394700  0.845500  0.954600  1.0  0.1418
  H  H210  1  0.324000  0.840700  0.901700  1.0  0.1319
  H  H211  1  0.894700  0.345500  0.454600  1.0  0.1418
  H  H212  1  0.824000  0.340700  0.401700  1.0  0.1319
  H  H213  1  0.605300  0.845500  0.045400  1.0  0.142
  H  H214  1  0.676000  0.840700  0.098300  1.0  0.1324
  H  H215  1  0.105300  0.345500  0.545400  1.0  0.142
  H  H216  1  0.176000  0.340700  0.598300  1.0  0.1324
  H  H217  1  0.605300  0.154500  0.954600  1.0  0.1417
  H  H218  1  0.676000  0.159300  0.901700  1.0  0.1317
  H  H219  1  0.105300  0.654500  0.454600  1.0  0.1417
  H  H220  1  0.176000  0.659300  0.401700  1.0  0.1317
  H  H221  1  0.394700  0.154500  0.045400  1.0  0.1417
  H  H222  1  0.324000  0.159300  0.098300  1.0  0.1314
  H  H223  1  0.894700  0.654500  0.545400  1.0  0.1417
  H  H224  1  0.824000  0.659300  0.598300  1.0  0.1314
  H  H225  1  0.845500  0.045400  0.605300  1.0  0.1411
  H  H226  1  0.840700  0.098300  0.676000  1.0  0.1314
  H  H227  1  0.345500  0.545400  0.105300  1.0  0.1411
  H  H228  1  0.340700  0.598300  0.176000  1.0  0.1314
  H  H229  1  0.845500  0.954600  0.394700  1.0  0.1408
  H  H230  1  0.840700  0.901700  0.324000  1.0  0.1317
  H  H231  1  0.345500  0.454600  0.894700  1.0  0.1408
  H  H232  1  0.340700  0.401700  0.824000  1.0  0.1317
  H  H233  1  0.154500  0.045400  0.394700  1.0  0.1419
  H  H234  1  0.159300  0.098300  0.324000  1.0  0.1303
  H  H235  1  0.654500  0.545400  0.894700  1.0  0.1419
  H  H236  1  0.659300  0.598300  0.824000  1.0  0.1303
  H  H237  1  0.154500  0.954600  0.605300  1.0  0.1416
  H  H238  1  0.159300  0.901700  0.676000  1.0  0.132
  H  H239  1  0.654500  0.454600  0.105300  1.0  0.1416
  H  H240  1  0.659300  0.401700  0.176000  1.0  0.132
  C  C241  1  0.605600  0.974000  0.179900  1.0  0.0672
  C  C242  1  0.659500  0.874300  0.160200  1.0  0.022
  C  C243  1  0.105600  0.474000  0.679900  1.0  0.0672
  C  C244  1  0.159500  0.374300  0.660200  1.0  0.022
  C  C245  1  0.394400  0.026000  0.179900  1.0  0.0683
  C  C246  1  0.340500  0.125700  0.160200  1.0  0.0204
  C  C247  1  0.894400  0.526000  0.679900  1.0  0.0683
  C  C248  1  0.840500  0.625700  0.660200  1.0  0.0204
  C  C249  1  0.394400  0.974000  0.820100  1.0  0.0659
  C  C250  1  0.340500  0.874300  0.839800  1.0  0.0225
  C  C251  1  0.894400  0.474000  0.320100  1.0  0.0659
  C  C252  1  0.840500  0.374300  0.339800  1.0  0.0225
  C  C253  1  0.605600  0.026000  0.820100  1.0  0.066
  C  C254  1  0.659500  0.125700  0.839800  1.0  0.0214
  C  C255  1  0.105600  0.526000  0.320100  1.0  0.066
  C  C256  1  0.159500  0.625700  0.339800  1.0  0.0214
  C  C257  1  0.179900  0.605600  0.974000  1.0  0.0655
  C  C258  1  0.160200  0.659500  0.874300  1.0  0.021
  C  C259  1  0.679900  0.105600  0.474000  1.0  0.0655
  C  C260  1  0.660200  0.159500  0.374300  1.0  0.021
  C  C261  1  0.179900  0.394400  0.026000  1.0  0.0661
  C  C262  1  0.160200  0.340500  0.125700  1.0  0.021
  C  C263  1  0.679900  0.894400  0.526000  1.0  0.0661
  C  C264  1  0.660200  0.840500  0.625700  1.0  0.021
  C  C265  1  0.820100  0.394400  0.974000  1.0  0.0683
  C  C266  1  0.839800  0.340500  0.874300  1.0  0.0209
  C  C267  1  0.320100  0.894400  0.474000  1.0  0.0683
  C  C268  1  0.339800  0.840500  0.374300  1.0  0.0209
  C  C269  1  0.820100  0.605600  0.026000  1.0  0.0694
  C  C270  1  0.839800  0.659500  0.125700  1.0  0.0209
  C  C271  1  0.320100  0.105600  0.526000  1.0  0.0694
  C  C272  1  0.339800  0.159500  0.625700  1.0  0.0209
  C  C273  1  0.974000  0.179900  0.605600  1.0  0.0664
  C  C274  1  0.874300  0.160200  0.659500  1.0  0.022
  C  C275  1  0.474000  0.679900  0.105600  1.0  0.0664
  C  C276  1  0.374300  0.660200  0.159500  1.0  0.022
  C  C277  1  0.026000  0.179900  0.394400  1.0  0.0682
  C  C278  1  0.125700  0.160200  0.340500  1.0  0.0238
  C  C279  1  0.526000  0.679900  0.894400  1.0  0.0682
  C  C280  1  0.625700  0.660200  0.840500  1.0  0.0238
  C  C281  1  0.974000  0.820100  0.394400  1.0  0.0657
  C  C282  1  0.874300  0.839800  0.340500  1.0  0.0221
  C  C283  1  0.474000  0.320100  0.894400  1.0  0.0657
  C  C284  1  0.374300  0.339800  0.840500  1.0  0.0221
  C  C285  1  0.026000  0.820100  0.605600  1.0  0.0677
  C  C286  1  0.125700  0.839800  0.659500  1.0  0.0217
  C  C287  1  0.526000  0.320100  0.105600  1.0  0.0677
  C  C288  1  0.625700  0.339800  0.159500  1.0  0.0217
  C  C289  1  0.974000  0.605600  0.820100  1.0  0.0671
  C  C290  1  0.874300  0.659500  0.839800  1.0  0.02
  C  C291  1  0.474000  0.105600  0.320100  1.0  0.0671
  C  C292  1  0.374300  0.159500  0.339800  1.0  0.02
  C  C293  1  0.026000  0.394400  0.820100  1.0  0.0694
  C  C294  1  0.125700  0.340500  0.839800  1.0  0.0217
  C  C295  1  0.526000  0.894400  0.320100  1.0  0.0694
  C  C296  1  0.625700  0.840500  0.339800  1.0  0.0217
  C  C297  1  0.974000  0.394400  0.179900  1.0  0.0678
  C  C298  1  0.874300  0.340500  0.160200  1.0  0.0194
  C  C299  1  0.474000  0.894400  0.679900  1.0  0.0678
  C  C300  1  0.374300  0.840500  0.660200  1.0  0.0194
  C  C301  1  0.026000  0.605600  0.179900  1.0  0.0702
  C  C302  1  0.125700  0.659500  0.160200  1.0  0.022
  C  C303  1  0.526000  0.105600  0.679900  1.0  0.0702
  C  C304  1  0.625700  0.159500  0.660200  1.0  0.022
  C  C305  1  0.605600  0.179900  0.026000  1.0  0.0671
  C  C306  1  0.659500  0.160200  0.125700  1.0  0.0219
  C  C307  1  0.105600  0.679900  0.526000  1.0  0.0671
  C  C308  1  0.159500  0.660200  0.625700  1.0  0.0219
  C  C309  1  0.394400  0.179900  0.974000  1.0  0.0686
  C  C310  1  0.340500  0.160200  0.874300  1.0  0.0232
  C  C311  1  0.894400  0.679900  0.474000  1.0  0.0686
  C  C312  1  0.840500  0.660200  0.374300  1.0  0.0232
  C  C313  1  0.394400  0.820100  0.026000  1.0  0.0667
  C  C314  1  0.340500  0.839800  0.125700  1.0  0.0216
  C  C315  1  0.894400  0.320100  0.526000  1.0  0.0667
  C  C316  1  0.840500  0.339800  0.625700  1.0  0.0216
  C  C317  1  0.605600  0.820100  0.974000  1.0  0.0674
  C  C318  1  0.659500  0.839800  0.874300  1.0  0.0232
  C  C319  1  0.105600  0.320100  0.474000  1.0  0.0674
  C  C320  1  0.159500  0.339800  0.374300  1.0  0.0232
  C  C321  1  0.179900  0.974000  0.394400  1.0  0.0632
  C  C322  1  0.160200  0.874300  0.340500  1.0  0.0243
  C  C323  1  0.679900  0.474000  0.894400  1.0  0.0632
  C  C324  1  0.660200  0.374300  0.840500  1.0  0.0243
  C  C325  1  0.179900  0.026000  0.605600  1.0  0.0639
  C  C326  1  0.160200  0.125700  0.659500  1.0  0.0216
  C  C327  1  0.679900  0.526000  0.105600  1.0  0.0639
  C  C328  1  0.660200  0.625700  0.159500  1.0  0.0216
  C  C329  1  0.820100  0.974000  0.605600  1.0  0.0669
  C  C330  1  0.839800  0.874300  0.659500  1.0  0.0222
  C  C331  1  0.320100  0.474000  0.105600  1.0  0.0669
  C  C332  1  0.339800  0.374300  0.159500  1.0  0.0222
  C  C333  1  0.820100  0.026000  0.394400  1.0  0.0672
  C  C334  1  0.839800  0.125700  0.340500  1.0  0.0229
  C  C335  1  0.320100  0.526000  0.894400  1.0  0.0672
  C  C336  1  0.339800  0.625700  0.840500  1.0  0.0229
  C  C337  1  0.394400  0.026000  0.820100  1.0  0.066
  C  C338  1  0.340500  0.125700  0.839800  1.0  0.0208
  C  C339  1  0.894400  0.526000  0.320100  1.0  0.066
  C  C340  1  0.840500  0.625700  0.339800  1.0  0.0208
  C  C341  1  0.605600  0.974000  0.820100  1.0  0.0654
  C  C342  1  0.659500  0.874300  0.839800  1.0  0.0227
  C  C343  1  0.105600  0.474000  0.320100  1.0  0.0654
  C  C344  1  0.159500  0.374300  0.339800  1.0  0.0227
  C  C345  1  0.605600  0.026000  0.179900  1.0  0.0682
  C  C346  1  0.659500  0.125700  0.160200  1.0  0.0208
  C  C347  1  0.105600  0.526000  0.679900  1.0  0.0682
  C  C348  1  0.159500  0.625700  0.660200  1.0  0.0208
  C  C349  1  0.394400  0.974000  0.179900  1.0  0.0678
  C  C350  1  0.340500  0.874300  0.160200  1.0  0.0221
  C  C351  1  0.894400  0.474000  0.679900  1.0  0.0678
  C  C352  1  0.840500  0.374300  0.660200  1.0  0.0221
  C  C353  1  0.820100  0.394400  0.026000  1.0  0.0693
  C  C354  1  0.839800  0.340500  0.125700  1.0  0.0209
  C  C355  1  0.320100  0.894400  0.526000  1.0  0.0693
  C  C356  1  0.339800  0.840500  0.625700  1.0  0.0209
  C  C357  1  0.820100  0.605600  0.974000  1.0  0.0685
  C  C358  1  0.839800  0.659500  0.874300  1.0  0.0208
  C  C359  1  0.320100  0.105600  0.474000  1.0  0.0685
  C  C360  1  0.339800  0.159500  0.374300  1.0  0.0208
  C  C361  1  0.179900  0.605600  0.026000  1.0  0.0659
  C  C362  1  0.160200  0.659500  0.125700  1.0  0.0213
  C  C363  1  0.679900  0.105600  0.526000  1.0  0.0659
  C  C364  1  0.660200  0.159500  0.625700  1.0  0.0213
  C  C365  1  0.179900  0.394400  0.974000  1.0  0.0655
  C  C366  1  0.160200  0.340500  0.874300  1.0  0.0209
  C  C367  1  0.679900  0.894400  0.474000  1.0  0.0655
  C  C368  1  0.660200  0.840500  0.374300  1.0  0.0209
  C  C369  1  0.026000  0.820100  0.394400  1.0  0.0676
  C  C370  1  0.125700  0.839800  0.340500  1.0  0.0237
  C  C371  1  0.526000  0.320100  0.894400  1.0  0.0676
  C  C372  1  0.625700  0.339800  0.840500  1.0  0.0237
  C  C373  1  0.974000  0.820100  0.605600  1.0  0.0658
  C  C374  1  0.874300  0.839800  0.659500  1.0  0.0215
  C  C375  1  0.474000  0.320100  0.105600  1.0  0.0658
  C  C376  1  0.374300  0.339800  0.159500  1.0  0.0215
  C  C377  1  0.026000  0.179900  0.605600  1.0  0.0682
  C  C378  1  0.125700  0.160200  0.659500  1.0  0.0223
  C  C379  1  0.526000  0.679900  0.105600  1.0  0.0682
  C  C380  1  0.625700  0.660200  0.159500  1.0  0.0223
  C  C381  1  0.974000  0.179900  0.394400  1.0  0.0665
  C  C382  1  0.874300  0.160200  0.340500  1.0  0.0219
  C  C383  1  0.474000  0.679900  0.894400  1.0  0.0665
  C  C384  1  0.374300  0.660200  0.840500  1.0  0.0219
  C  C385  1  0.026000  0.394400  0.179900  1.0  0.0701
  C  C386  1  0.125700  0.340500  0.160200  1.0  0.0211
  C  C387  1  0.526000  0.894400  0.679900  1.0  0.0701
  C  C388  1  0.625700  0.840500  0.660200  1.0  0.0211
  C  C389  1  0.974000  0.605600  0.179900  1.0  0.0679
  C  C390  1  0.874300  0.659500  0.160200  1.0  0.0203
  C  C391  1  0.474000  0.105600  0.679900  1.0  0.0679
  C  C392  1  0.374300  0.159500  0.660200  1.0  0.0203
  C  C393  1  0.026000  0.605600  0.820100  1.0  0.0695
  C  C394  1  0.125700  0.659500  0.839800  1.0  0.0218
  C  C395  1  0.526000  0.105600  0.320100  1.0  0.0695
  C  C396  1  0.625700  0.159500  0.339800  1.0  0.0218
  C  C397  1  0.974000  0.394400  0.820100  1.0  0.0671
  C  C398  1  0.874300  0.340500  0.839800  1.0  0.0203
  C  C399  1  0.474000  0.894400  0.320100  1.0  0.0671
  C  C400  1  0.374300  0.840500  0.339800  1.0  0.0203
  C  C401  1  0.394400  0.820100  0.974000  1.0  0.0676
  C  C402  1  0.340500  0.839800  0.874300  1.0  0.0228
  C  C403  1  0.894400  0.320100  0.474000  1.0  0.0676
  C  C404  1  0.840500  0.339800  0.374300  1.0  0.0228
  C  C405  1  0.605600  0.820100  0.026000  1.0  0.0665
  C  C406  1  0.659500  0.839800  0.125700  1.0  0.0217
  C  C407  1  0.105600  0.320100  0.526000  1.0  0.0665
  C  C408  1  0.159500  0.339800  0.625700  1.0  0.0217
  C  C409  1  0.605600  0.179900  0.974000  1.0  0.0679
  C  C410  1  0.659500  0.160200  0.874300  1.0  0.0237
  C  C411  1  0.105600  0.679900  0.474000  1.0  0.0679
  C  C412  1  0.159500  0.660200  0.374300  1.0  0.0237
  C  C413  1  0.394400  0.179900  0.026000  1.0  0.0678
  C  C414  1  0.340500  0.160200  0.125700  1.0  0.0213
  C  C415  1  0.894400  0.679900  0.526000  1.0  0.0678
  C  C416  1  0.840500  0.660200  0.625700  1.0  0.0213
  C  C417  1  0.820100  0.026000  0.605600  1.0  0.067
  C  C418  1  0.839800  0.125700  0.659500  1.0  0.0213
  C  C419  1  0.320100  0.526000  0.105600  1.0  0.067
  C  C420  1  0.339800  0.625700  0.159500  1.0  0.0213
  C  C421  1  0.820100  0.974000  0.394400  1.0  0.0671
  C  C422  1  0.839800  0.874300  0.340500  1.0  0.0246
  C  C423  1  0.320100  0.474000  0.894400  1.0  0.0671
  C  C424  1  0.339800  0.374300  0.840500  1.0  0.0246
  C  C425  1  0.179900  0.026000  0.394400  1.0  0.064
  C  C426  1  0.160200  0.125700  0.340500  1.0  0.023
  C  C427  1  0.679900  0.526000  0.894400  1.0  0.064
  C  C428  1  0.660200  0.625700  0.840500  1.0  0.023
  C  C429  1  0.179900  0.974000  0.605600  1.0  0.0632
  C  C430  1  0.160200  0.874300  0.659500  1.0  0.0219
  C  C431  1  0.679900  0.474000  0.105600  1.0  0.0632
  C  C432  1  0.660200  0.374300  0.159500  1.0  0.0219
  C  C433  1  0.615600  0.818700  0.181300  1.0  0.1938
  C  C434  1  0.115600  0.318700  0.681300  1.0  0.1938
  C  C435  1  0.384400  0.181300  0.181300  1.0  0.1941
  C  C436  1  0.884400  0.681300  0.681300  1.0  0.1941
  C  C437  1  0.384400  0.818700  0.818700  1.0  0.1947
  C  C438  1  0.884400  0.318700  0.318700  1.0  0.1947
  C  C439  1  0.615600  0.181300  0.818700  1.0  0.1941
  C  C440  1  0.115600  0.681300  0.318700  1.0  0.1941
  C  C441  1  0.181300  0.615600  0.818700  1.0  0.1937
  C  C442  1  0.681300  0.115600  0.318700  1.0  0.1937
  C  C443  1  0.181300  0.384400  0.181300  1.0  0.193
  C  C444  1  0.681300  0.884400  0.681300  1.0  0.193
  C  C445  1  0.818700  0.384400  0.818700  1.0  0.1941
  C  C446  1  0.318700  0.884400  0.318700  1.0  0.1941
  C  C447  1  0.818700  0.615600  0.181300  1.0  0.1943
  C  C448  1  0.318700  0.115600  0.681300  1.0  0.1943
  C  C449  1  0.818700  0.181300  0.615600  1.0  0.1953
  C  C450  1  0.318700  0.681300  0.115600  1.0  0.1953
  C  C451  1  0.181300  0.181300  0.384400  1.0  0.1943
  C  C452  1  0.681300  0.681300  0.884400  1.0  0.1943
  C  C453  1  0.818700  0.818700  0.384400  1.0  0.1958
  C  C454  1  0.318700  0.318700  0.884400  1.0  0.1958
  C  C455  1  0.181300  0.818700  0.615600  1.0  0.1945
  C  C456  1  0.681300  0.318700  0.115600  1.0  0.1945
  C  C457  1  0.818700  0.615600  0.818700  1.0  0.1945
  C  C458  1  0.318700  0.115600  0.318700  1.0  0.1945
  C  C459  1  0.181300  0.384400  0.818700  1.0  0.1934
  C  C460  1  0.681300  0.884400  0.318700  1.0  0.1934
  C  C461  1  0.818700  0.384400  0.181300  1.0  0.1943
  C  C462  1  0.318700  0.884400  0.681300  1.0  0.1943
  C  C463  1  0.181300  0.615600  0.181300  1.0  0.1928
  C  C464  1  0.681300  0.115600  0.681300  1.0  0.1928
  C  C465  1  0.615600  0.181300  0.181300  1.0  0.1931
  C  C466  1  0.115600  0.681300  0.681300  1.0  0.1931
  C  C467  1  0.384400  0.181300  0.818700  1.0  0.1952
  C  C468  1  0.884400  0.681300  0.318700  1.0  0.1952
  C  C469  1  0.384400  0.818700  0.181300  1.0  0.195
  C  C470  1  0.884400  0.318700  0.681300  1.0  0.195
  C  C471  1  0.615600  0.818700  0.818700  1.0  0.1934
  C  C472  1  0.115600  0.318700  0.318700  1.0  0.1934
  C  C473  1  0.181300  0.818700  0.384400  1.0  0.1946
  C  C474  1  0.681300  0.318700  0.884400  1.0  0.1946
  C  C475  1  0.181300  0.181300  0.615600  1.0  0.194
  C  C476  1  0.681300  0.681300  0.115600  1.0  0.194
  C  C477  1  0.818700  0.818700  0.615600  1.0  0.1955
  C  C478  1  0.318700  0.318700  0.115600  1.0  0.1955
  C  C479  1  0.818700  0.181300  0.384400  1.0  0.1956
  C  C480  1  0.318700  0.681300  0.884400  1.0  0.1956
  C  C481  1  0.606900  0.000000  0.250000  1.0  0.4545
  C  C482  1  0.106900  0.500000  0.750000  1.0  0.4545
  C  C483  1  0.393100  0.000000  0.250000  1.0  0.454
  C  C484  1  0.893100  0.500000  0.750000  1.0  0.454
  C  C485  1  0.393100  0.000000  0.750000  1.0  0.4536
  C  C486  1  0.893100  0.500000  0.250000  1.0  0.4536
  C  C487  1  0.606900  0.000000  0.750000  1.0  0.454
  C  C488  1  0.106900  0.500000  0.250000  1.0  0.454
  C  C489  1  0.250000  0.606900  0.000000  1.0  0.4537
  C  C490  1  0.750000  0.106900  0.500000  1.0  0.4537
  C  C491  1  0.250000  0.393100  0.000000  1.0  0.4539
  C  C492  1  0.750000  0.893100  0.500000  1.0  0.4539
  C  C493  1  0.750000  0.393100  0.000000  1.0  0.4534
  C  C494  1  0.250000  0.893100  0.500000  1.0  0.4534
  C  C495  1  0.750000  0.606900  0.000000  1.0  0.4532
  C  C496  1  0.250000  0.106900  0.500000  1.0  0.4532
  C  C497  1  0.000000  0.250000  0.606900  1.0  0.4537
  C  C498  1  0.500000  0.750000  0.106900  1.0  0.4537
  C  C499  1  0.000000  0.250000  0.393100  1.0  0.4534
  C  C500  1  0.500000  0.750000  0.893100  1.0  0.4534
  C  C501  1  0.000000  0.750000  0.393100  1.0  0.4533
  C  C502  1  0.500000  0.250000  0.893100  1.0  0.4533
  C  C503  1  0.000000  0.750000  0.606900  1.0  0.4535
  C  C504  1  0.500000  0.250000  0.106900  1.0  0.4535
  C  C505  1  0.000000  0.606900  0.750000  1.0  0.454
  C  C506  1  0.500000  0.106900  0.250000  1.0  0.454
  C  C507  1  0.000000  0.393100  0.750000  1.0  0.4541
  C  C508  1  0.500000  0.893100  0.250000  1.0  0.4541
  C  C509  1  0.000000  0.393100  0.250000  1.0  0.4546
  C  C510  1  0.500000  0.893100  0.750000  1.0  0.4546
  C  C511  1  0.000000  0.606900  0.250000  1.0  0.4544
  C  C512  1  0.500000  0.106900  0.750000  1.0  0.4544
  C  C513  1  0.606900  0.250000  0.000000  1.0  0.4533
  C  C514  1  0.106900  0.750000  0.500000  1.0  0.4533
  C  C515  1  0.393100  0.250000  0.000000  1.0  0.4529
  C  C516  1  0.893100  0.750000  0.500000  1.0  0.4529
  C  C517  1  0.393100  0.750000  0.000000  1.0  0.4526
  C  C518  1  0.893100  0.250000  0.500000  1.0  0.4526
  C  C519  1  0.606900  0.750000  0.000000  1.0  0.4531
  C  C520  1  0.106900  0.250000  0.500000  1.0  0.4531
  C  C521  1  0.250000  0.000000  0.393100  1.0  0.454
  C  C522  1  0.750000  0.500000  0.893100  1.0  0.454
  C  C523  1  0.250000  0.000000  0.606900  1.0  0.4542
  C  C524  1  0.750000  0.500000  0.106900  1.0  0.4542
  C  C525  1  0.750000  0.000000  0.606900  1.0  0.4536
  C  C526  1  0.250000  0.500000  0.106900  1.0  0.4536
  C  C527  1  0.750000  0.000000  0.393100  1.0  0.4535
  C  C528  1  0.250000  0.500000  0.893100  1.0  0.4535
  N  N529  1  0.606000  0.962400  0.222500  1.0  -0.2622
  N  N530  1  0.631600  0.860600  0.194600  1.0  -0.3945
  N  N531  1  0.106000  0.462400  0.722500  1.0  -0.2622
  N  N532  1  0.131600  0.360600  0.694600  1.0  -0.3945
  N  N533  1  0.394000  0.037600  0.222500  1.0  -0.2628
  N  N534  1  0.368400  0.139400  0.194600  1.0  -0.3956
  N  N535  1  0.894000  0.537600  0.722500  1.0  -0.2628
  N  N536  1  0.868400  0.639400  0.694600  1.0  -0.3956
  N  N537  1  0.394000  0.962400  0.777500  1.0  -0.2615
  N  N538  1  0.368400  0.860600  0.805400  1.0  -0.3949
  N  N539  1  0.894000  0.462400  0.277500  1.0  -0.2615
  N  N540  1  0.868400  0.360600  0.305400  1.0  -0.3949
  N  N541  1  0.606000  0.037600  0.777500  1.0  -0.2619
  N  N542  1  0.631600  0.139400  0.805400  1.0  -0.3959
  N  N543  1  0.106000  0.537600  0.277500  1.0  -0.2619
  N  N544  1  0.131600  0.639400  0.305400  1.0  -0.3959
  N  N545  1  0.222500  0.606000  0.962400  1.0  -0.2607
  N  N546  1  0.194600  0.631600  0.860600  1.0  -0.3962
  N  N547  1  0.722500  0.106000  0.462400  1.0  -0.2607
  N  N548  1  0.694600  0.131600  0.360600  1.0  -0.3962
  N  N549  1  0.222500  0.394000  0.037600  1.0  -0.2613
  N  N550  1  0.194600  0.368400  0.139400  1.0  -0.3955
  N  N551  1  0.722500  0.894000  0.537600  1.0  -0.2613
  N  N552  1  0.694600  0.868400  0.639400  1.0  -0.3955
  N  N553  1  0.777500  0.394000  0.962400  1.0  -0.2601
  N  N554  1  0.805400  0.368400  0.860600  1.0  -0.3945
  N  N555  1  0.277500  0.894000  0.462400  1.0  -0.2601
  N  N556  1  0.305400  0.868400  0.360600  1.0  -0.3945
  N  N557  1  0.777500  0.606000  0.037600  1.0  -0.2618
  N  N558  1  0.805400  0.631600  0.139400  1.0  -0.3952
  N  N559  1  0.277500  0.106000  0.537600  1.0  -0.2618
  N  N560  1  0.305400  0.131600  0.639400  1.0  -0.3952
  N  N561  1  0.962400  0.222500  0.606000  1.0  -0.2626
  N  N562  1  0.860600  0.194600  0.631600  1.0  -0.3974
  N  N563  1  0.462400  0.722500  0.106000  1.0  -0.2626
  N  N564  1  0.360600  0.694600  0.131600  1.0  -0.3974
  N  N565  1  0.037600  0.222500  0.394000  1.0  -0.2621
  N  N566  1  0.139400  0.194600  0.368400  1.0  -0.3959
  N  N567  1  0.537600  0.722500  0.894000  1.0  -0.2621
  N  N568  1  0.639400  0.694600  0.868400  1.0  -0.3959
  N  N569  1  0.962400  0.777500  0.394000  1.0  -0.264
  N  N570  1  0.860600  0.805400  0.368400  1.0  -0.3962
  N  N571  1  0.462400  0.277500  0.894000  1.0  -0.264
  N  N572  1  0.360600  0.305400  0.868400  1.0  -0.3962
  N  N573  1  0.037600  0.777500  0.606000  1.0  -0.2633
  N  N574  1  0.139400  0.805400  0.631600  1.0  -0.3977
  N  N575  1  0.537600  0.277500  0.106000  1.0  -0.2633
  N  N576  1  0.639400  0.305400  0.131600  1.0  -0.3977
  N  N577  1  0.962400  0.606000  0.777500  1.0  -0.2626
  N  N578  1  0.860600  0.631600  0.805400  1.0  -0.3969
  N  N579  1  0.462400  0.106000  0.277500  1.0  -0.2626
  N  N580  1  0.360600  0.131600  0.305400  1.0  -0.3969
  N  N581  1  0.037600  0.394000  0.777500  1.0  -0.2625
  N  N582  1  0.139400  0.368400  0.805400  1.0  -0.3965
  N  N583  1  0.537600  0.894000  0.277500  1.0  -0.2625
  N  N584  1  0.639400  0.868400  0.305400  1.0  -0.3965
  N  N585  1  0.962400  0.394000  0.222500  1.0  -0.2635
  N  N586  1  0.860600  0.368400  0.194600  1.0  -0.3955
  N  N587  1  0.462400  0.894000  0.722500  1.0  -0.2635
  N  N588  1  0.360600  0.868400  0.694600  1.0  -0.3955
  N  N589  1  0.037600  0.606000  0.222500  1.0  -0.2628
  N  N590  1  0.139400  0.631600  0.194600  1.0  -0.3962
  N  N591  1  0.537600  0.106000  0.722500  1.0  -0.2628
  N  N592  1  0.639400  0.131600  0.694600  1.0  -0.3962
  N  N593  1  0.606000  0.222500  0.037600  1.0  -0.2606
  N  N594  1  0.631600  0.194600  0.139400  1.0  -0.3959
  N  N595  1  0.106000  0.722500  0.537600  1.0  -0.2606
  N  N596  1  0.131600  0.694600  0.639400  1.0  -0.3959
  N  N597  1  0.394000  0.222500  0.962400  1.0  -0.2591
  N  N598  1  0.368400  0.194600  0.860600  1.0  -0.3959
  N  N599  1  0.894000  0.722500  0.462400  1.0  -0.2591
  N  N600  1  0.868400  0.694600  0.360600  1.0  -0.3959
  N  N601  1  0.394000  0.777500  0.037600  1.0  -0.2624
  N  N602  1  0.368400  0.805400  0.139400  1.0  -0.3963
  N  N603  1  0.894000  0.277500  0.537600  1.0  -0.2624
  N  N604  1  0.868400  0.305400  0.639400  1.0  -0.3963
  N  N605  1  0.606000  0.777500  0.962400  1.0  -0.2597
  N  N606  1  0.631600  0.805400  0.860600  1.0  -0.3964
  N  N607  1  0.106000  0.277500  0.462400  1.0  -0.2597
  N  N608  1  0.131600  0.305400  0.360600  1.0  -0.3964
  N  N609  1  0.222500  0.962400  0.394000  1.0  -0.262
  N  N610  1  0.194600  0.860600  0.368400  1.0  -0.3955
  N  N611  1  0.722500  0.462400  0.894000  1.0  -0.262
  N  N612  1  0.694600  0.360600  0.868400  1.0  -0.3955
  N  N613  1  0.222500  0.037600  0.606000  1.0  -0.2632
  N  N614  1  0.194600  0.139400  0.631600  1.0  -0.3971
  N  N615  1  0.722500  0.537600  0.106000  1.0  -0.2632
  N  N616  1  0.694600  0.639400  0.131600  1.0  -0.3971
  N  N617  1  0.777500  0.962400  0.606000  1.0  -0.2627
  N  N618  1  0.805400  0.860600  0.631600  1.0  -0.3956
  N  N619  1  0.277500  0.462400  0.106000  1.0  -0.2627
  N  N620  1  0.305400  0.360600  0.131600  1.0  -0.3956
  N  N621  1  0.777500  0.037600  0.394000  1.0  -0.2627
  N  N622  1  0.805400  0.139400  0.368400  1.0  -0.3945
  N  N623  1  0.277500  0.537600  0.894000  1.0  -0.2627
  N  N624  1  0.305400  0.639400  0.868400  1.0  -0.3945
  N  N625  1  0.394000  0.037600  0.777500  1.0  -0.2622
  N  N626  1  0.368400  0.139400  0.805400  1.0  -0.3959
  N  N627  1  0.894000  0.537600  0.277500  1.0  -0.2622
  N  N628  1  0.868400  0.639400  0.305400  1.0  -0.3959
  N  N629  1  0.606000  0.962400  0.777500  1.0  -0.2613
  N  N630  1  0.631600  0.860600  0.805400  1.0  -0.3953
  N  N631  1  0.106000  0.462400  0.277500  1.0  -0.2613
  N  N632  1  0.131600  0.360600  0.305400  1.0  -0.3953
  N  N633  1  0.606000  0.037600  0.222500  1.0  -0.2628
  N  N634  1  0.631600  0.139400  0.194600  1.0  -0.3954
  N  N635  1  0.106000  0.537600  0.722500  1.0  -0.2628
  N  N636  1  0.131600  0.639400  0.694600  1.0  -0.3954
  N  N637  1  0.394000  0.962400  0.222500  1.0  -0.2625
  N  N638  1  0.368400  0.860600  0.194600  1.0  -0.3952
  N  N639  1  0.894000  0.462400  0.722500  1.0  -0.2625
  N  N640  1  0.868400  0.360600  0.694600  1.0  -0.3952
  N  N641  1  0.777500  0.394000  0.037600  1.0  -0.2619
  N  N642  1  0.805400  0.368400  0.139400  1.0  -0.3949
  N  N643  1  0.277500  0.894000  0.537600  1.0  -0.2619
  N  N644  1  0.305400  0.868400  0.639400  1.0  -0.3949
  N  N645  1  0.777500  0.606000  0.962400  1.0  -0.2601
  N  N646  1  0.805400  0.631600  0.860600  1.0  -0.3948
  N  N647  1  0.277500  0.106000  0.462400  1.0  -0.2601
  N  N648  1  0.305400  0.131600  0.360600  1.0  -0.3948
  N  N649  1  0.222500  0.606000  0.037600  1.0  -0.2609
  N  N650  1  0.194600  0.631600  0.139400  1.0  -0.3969
  N  N651  1  0.722500  0.106000  0.537600  1.0  -0.2609
  N  N652  1  0.694600  0.131600  0.639400  1.0  -0.3969
  N  N653  1  0.222500  0.394000  0.962400  1.0  -0.2607
  N  N654  1  0.194600  0.368400  0.860600  1.0  -0.3953
  N  N655  1  0.722500  0.894000  0.462400  1.0  -0.2607
  N  N656  1  0.694600  0.868400  0.360600  1.0  -0.3953
  N  N657  1  0.037600  0.777500  0.394000  1.0  -0.2629
  N  N658  1  0.139400  0.805400  0.368400  1.0  -0.3961
  N  N659  1  0.537600  0.277500  0.894000  1.0  -0.2629
  N  N660  1  0.639400  0.305400  0.868400  1.0  -0.3961
  N  N661  1  0.962400  0.777500  0.606000  1.0  -0.2637
  N  N662  1  0.860600  0.805400  0.631600  1.0  -0.3981
  N  N663  1  0.462400  0.277500  0.106000  1.0  -0.2637
  N  N664  1  0.360600  0.305400  0.131600  1.0  -0.3981
  N  N665  1  0.037600  0.222500  0.606000  1.0  -0.2619
  N  N666  1  0.139400  0.194600  0.631600  1.0  -0.3969
  N  N667  1  0.537600  0.722500  0.106000  1.0  -0.2619
  N  N668  1  0.639400  0.694600  0.131600  1.0  -0.3969
  N  N669  1  0.962400  0.222500  0.394000  1.0  -0.2625
  N  N670  1  0.860600  0.194600  0.368400  1.0  -0.3964
  N  N671  1  0.462400  0.722500  0.894000  1.0  -0.2625
  N  N672  1  0.360600  0.694600  0.868400  1.0  -0.3964
  N  N673  1  0.037600  0.394000  0.222500  1.0  -0.2629
  N  N674  1  0.139400  0.368400  0.194600  1.0  -0.3952
  N  N675  1  0.537600  0.894000  0.722500  1.0  -0.2629
  N  N676  1  0.639400  0.868400  0.694600  1.0  -0.3952
  N  N677  1  0.962400  0.606000  0.222500  1.0  -0.2633
  N  N678  1  0.860600  0.631600  0.194600  1.0  -0.3969
  N  N679  1  0.462400  0.106000  0.722500  1.0  -0.2633
  N  N680  1  0.360600  0.131600  0.694600  1.0  -0.3969
  N  N681  1  0.037600  0.606000  0.777500  1.0  -0.2623
  N  N682  1  0.139400  0.631600  0.805400  1.0  -0.3965
  N  N683  1  0.537600  0.106000  0.277500  1.0  -0.2623
  N  N684  1  0.639400  0.131600  0.305400  1.0  -0.3965
  N  N685  1  0.962400  0.394000  0.777500  1.0  -0.2627
  N  N686  1  0.860600  0.368400  0.805400  1.0  -0.3966
  N  N687  1  0.462400  0.894000  0.277500  1.0  -0.2627
  N  N688  1  0.360600  0.868400  0.305400  1.0  -0.3966
  N  N689  1  0.394000  0.777500  0.962400  1.0  -0.26
  N  N690  1  0.368400  0.805400  0.860600  1.0  -0.3958
  N  N691  1  0.894000  0.277500  0.462400  1.0  -0.26
  N  N692  1  0.868400  0.305400  0.360600  1.0  -0.3958
  N  N693  1  0.606000  0.777500  0.037600  1.0  -0.2622
  N  N694  1  0.631600  0.805400  0.139400  1.0  -0.3968
  N  N695  1  0.106000  0.277500  0.537600  1.0  -0.2622
  N  N696  1  0.131600  0.305400  0.639400  1.0  -0.3968
  N  N697  1  0.606000  0.222500  0.962400  1.0  -0.259
  N  N698  1  0.631600  0.194600  0.860600  1.0  -0.3957
  N  N699  1  0.106000  0.722500  0.462400  1.0  -0.259
  N  N700  1  0.131600  0.694600  0.360600  1.0  -0.3957
  N  N701  1  0.394000  0.222500  0.037600  1.0  -0.2604
  N  N702  1  0.368400  0.194600  0.139400  1.0  -0.3963
  N  N703  1  0.894000  0.722500  0.537600  1.0  -0.2604
  N  N704  1  0.868400  0.694600  0.639400  1.0  -0.3963
  N  N705  1  0.777500  0.037600  0.606000  1.0  -0.2627
  N  N706  1  0.805400  0.139400  0.631600  1.0  -0.396
  N  N707  1  0.277500  0.537600  0.106000  1.0  -0.2627
  N  N708  1  0.305400  0.639400  0.131600  1.0  -0.396
  N  N709  1  0.777500  0.962400  0.394000  1.0  -0.2626
  N  N710  1  0.805400  0.860600  0.368400  1.0  -0.3944
  N  N711  1  0.277500  0.462400  0.894000  1.0  -0.2626
  N  N712  1  0.305400  0.360600  0.868400  1.0  -0.3944
  N  N713  1  0.222500  0.037600  0.394000  1.0  -0.2631
  N  N714  1  0.194600  0.139400  0.368400  1.0  -0.3959
  N  N715  1  0.722500  0.537600  0.894000  1.0  -0.2631
  N  N716  1  0.694600  0.639400  0.868400  1.0  -0.3959
  N  N717  1  0.222500  0.962400  0.606000  1.0  -0.2617
  N  N718  1  0.194600  0.860600  0.631600  1.0  -0.397
  N  N719  1  0.722500  0.462400  0.106000  1.0  -0.2617
  N  N720  1  0.694600  0.360600  0.131600  1.0  -0.397
  N  N721  1  0.586500  0.791000  0.209000  1.0  0.6566
  N  N722  1  0.086500  0.291000  0.709000  1.0  0.6566
  N  N723  1  0.413500  0.209000  0.209000  1.0  0.6582
  N  N724  1  0.913500  0.709000  0.709000  1.0  0.6582
  N  N725  1  0.413500  0.791000  0.791000  1.0  0.6535
  N  N726  1  0.913500  0.291000  0.291000  1.0  0.6535
  N  N727  1  0.586500  0.209000  0.791000  1.0  0.6572
  N  N728  1  0.086500  0.709000  0.291000  1.0  0.6572
  N  N729  1  0.209000  0.586500  0.791000  1.0  0.6564
  N  N730  1  0.709000  0.086500  0.291000  1.0  0.6564
  N  N731  1  0.209000  0.413500  0.209000  1.0  0.6612
  N  N732  1  0.709000  0.913500  0.709000  1.0  0.6612
  N  N733  1  0.791000  0.413500  0.791000  1.0  0.6573
  N  N734  1  0.291000  0.913500  0.291000  1.0  0.6573
  N  N735  1  0.791000  0.586500  0.209000  1.0  0.6585
  N  N736  1  0.291000  0.086500  0.709000  1.0  0.6585
  N  N737  1  0.791000  0.209000  0.586500  1.0  0.6571
  N  N738  1  0.291000  0.709000  0.086500  1.0  0.6571
  N  N739  1  0.209000  0.209000  0.413500  1.0  0.6575
  N  N740  1  0.709000  0.709000  0.913500  1.0  0.6575
  N  N741  1  0.791000  0.791000  0.413500  1.0  0.6541
  N  N742  1  0.291000  0.291000  0.913500  1.0  0.6541
  N  N743  1  0.209000  0.791000  0.586500  1.0  0.6543
  N  N744  1  0.709000  0.291000  0.086500  1.0  0.6543
  N  N745  1  0.791000  0.586500  0.791000  1.0  0.6571
  N  N746  1  0.291000  0.086500  0.291000  1.0  0.6571
  N  N747  1  0.209000  0.413500  0.791000  1.0  0.657
  N  N748  1  0.709000  0.913500  0.291000  1.0  0.657
  N  N749  1  0.791000  0.413500  0.209000  1.0  0.6597
  N  N750  1  0.291000  0.913500  0.709000  1.0  0.6597
  N  N751  1  0.209000  0.586500  0.209000  1.0  0.6598
  N  N752  1  0.709000  0.086500  0.709000  1.0  0.6598
  N  N753  1  0.586500  0.209000  0.209000  1.0  0.6581
  N  N754  1  0.086500  0.709000  0.709000  1.0  0.6581
  N  N755  1  0.413500  0.209000  0.791000  1.0  0.6562
  N  N756  1  0.913500  0.709000  0.291000  1.0  0.6562
  N  N757  1  0.413500  0.791000  0.209000  1.0  0.6562
  N  N758  1  0.913500  0.291000  0.709000  1.0  0.6562
  N  N759  1  0.586500  0.791000  0.791000  1.0  0.6551
  N  N760  1  0.086500  0.291000  0.291000  1.0  0.6551
  N  N761  1  0.209000  0.791000  0.413500  1.0  0.6562
  N  N762  1  0.709000  0.291000  0.913500  1.0  0.6562
  N  N763  1  0.209000  0.209000  0.586500  1.0  0.6562
  N  N764  1  0.709000  0.709000  0.086500  1.0  0.6562
  N  N765  1  0.791000  0.791000  0.586500  1.0  0.6539
  N  N766  1  0.291000  0.291000  0.086500  1.0  0.6539
  N  N767  1  0.791000  0.209000  0.413500  1.0  0.6567
  N  N768  1  0.291000  0.709000  0.913500  1.0  0.6567
  N  N769  1  0.607700  0.000000  0.295400  1.0  0.6745
  N  N770  1  0.107700  0.500000  0.795400  1.0  0.6745
  N  N771  1  0.392300  0.000000  0.295400  1.0  0.6752
  N  N772  1  0.892300  0.500000  0.795400  1.0  0.6752
  N  N773  1  0.392300  0.000000  0.704600  1.0  0.6746
  N  N774  1  0.892300  0.500000  0.204600  1.0  0.6746
  N  N775  1  0.607700  0.000000  0.704600  1.0  0.6747
  N  N776  1  0.107700  0.500000  0.204600  1.0  0.6747
  N  N777  1  0.295400  0.607700  0.000000  1.0  0.6723
  N  N778  1  0.795400  0.107700  0.500000  1.0  0.6723
  N  N779  1  0.295400  0.392300  0.000000  1.0  0.6723
  N  N780  1  0.795400  0.892300  0.500000  1.0  0.6723
  N  N781  1  0.704600  0.392300  0.000000  1.0  0.6718
  N  N782  1  0.204600  0.892300  0.500000  1.0  0.6718
  N  N783  1  0.704600  0.607700  0.000000  1.0  0.6714
  N  N784  1  0.204600  0.107700  0.500000  1.0  0.6714
  N  N785  1  0.000000  0.295400  0.607700  1.0  0.6706
  N  N786  1  0.500000  0.795400  0.107700  1.0  0.6706
  N  N787  1  0.000000  0.295400  0.392300  1.0  0.671
  N  N788  1  0.500000  0.795400  0.892300  1.0  0.671
  N  N789  1  0.000000  0.704600  0.392300  1.0  0.6707
  N  N790  1  0.500000  0.204600  0.892300  1.0  0.6707
  N  N791  1  0.000000  0.704600  0.607700  1.0  0.67
  N  N792  1  0.500000  0.204600  0.107700  1.0  0.67
  N  N793  1  0.000000  0.607700  0.704600  1.0  0.674
  N  N794  1  0.500000  0.107700  0.204600  1.0  0.674
  N  N795  1  0.000000  0.392300  0.704600  1.0  0.6743
  N  N796  1  0.500000  0.892300  0.204600  1.0  0.6743
  N  N797  1  0.000000  0.392300  0.295400  1.0  0.6749
  N  N798  1  0.500000  0.892300  0.795400  1.0  0.6749
  N  N799  1  0.000000  0.607700  0.295400  1.0  0.6745
  N  N800  1  0.500000  0.107700  0.795400  1.0  0.6745
  N  N801  1  0.607700  0.295400  0.000000  1.0  0.6709
  N  N802  1  0.107700  0.795400  0.500000  1.0  0.6709
  N  N803  1  0.392300  0.295400  0.000000  1.0  0.6712
  N  N804  1  0.892300  0.795400  0.500000  1.0  0.6712
  N  N805  1  0.392300  0.704600  0.000000  1.0  0.6707
  N  N806  1  0.892300  0.204600  0.500000  1.0  0.6707
  N  N807  1  0.607700  0.704600  0.000000  1.0  0.6707
  N  N808  1  0.107700  0.204600  0.500000  1.0  0.6707
  N  N809  1  0.295400  0.000000  0.392300  1.0  0.6725
  N  N810  1  0.795400  0.500000  0.892300  1.0  0.6725
  N  N811  1  0.295400  0.000000  0.607700  1.0  0.6719
  N  N812  1  0.795400  0.500000  0.107700  1.0  0.6719
  N  N813  1  0.704600  0.000000  0.607700  1.0  0.6713
  N  N814  1  0.204600  0.500000  0.107700  1.0  0.6713
  N  N815  1  0.704600  0.000000  0.392300  1.0  0.6716
  N  N816  1  0.204600  0.500000  0.892300  1.0  0.6716
  O  O817  1  0.605200  0.963500  0.317400  1.0  -0.5682
  O  O818  1  0.574100  0.753800  0.193500  1.0  -0.5537
  O  O819  1  0.105200  0.463500  0.817400  1.0  -0.5682
  O  O820  1  0.074100  0.253800  0.693500  1.0  -0.5537
  O  O821  1  0.394800  0.036500  0.317400  1.0  -0.5692
  O  O822  1  0.425900  0.246200  0.193500  1.0  -0.5535
  O  O823  1  0.894800  0.536500  0.817400  1.0  -0.5692
  O  O824  1  0.925900  0.746200  0.693500  1.0  -0.5535
  O  O825  1  0.394800  0.963500  0.682600  1.0  -0.571
  O  O826  1  0.425900  0.753800  0.806500  1.0  -0.5544
  O  O827  1  0.894800  0.463500  0.182600  1.0  -0.571
  O  O828  1  0.925900  0.253800  0.306500  1.0  -0.5544
  O  O829  1  0.605200  0.036500  0.682600  1.0  -0.5719
  O  O830  1  0.574100  0.246200  0.806500  1.0  -0.5547
  O  O831  1  0.105200  0.536500  0.182600  1.0  -0.5719
  O  O832  1  0.074100  0.746200  0.306500  1.0  -0.5547
  O  O833  1  0.317400  0.605200  0.963500  1.0  -0.565
  O  O834  1  0.193500  0.574100  0.753800  1.0  -0.5628
  O  O835  1  0.817400  0.105200  0.463500  1.0  -0.565
  O  O836  1  0.693500  0.074100  0.253800  1.0  -0.5628
  O  O837  1  0.317400  0.394800  0.036500  1.0  -0.5658
  O  O838  1  0.193500  0.425900  0.246200  1.0  -0.5611
  O  O839  1  0.817400  0.894800  0.536500  1.0  -0.5658
  O  O840  1  0.693500  0.925900  0.746200  1.0  -0.5611
  O  O841  1  0.682600  0.394800  0.963500  1.0  -0.5649
  O  O842  1  0.806500  0.425900  0.753800  1.0  -0.5608
  O  O843  1  0.182600  0.894800  0.463500  1.0  -0.5649
  O  O844  1  0.306500  0.925900  0.253800  1.0  -0.5608
  O  O845  1  0.682600  0.605200  0.036500  1.0  -0.5649
  O  O846  1  0.806500  0.574100  0.246200  1.0  -0.5609
  O  O847  1  0.182600  0.105200  0.536500  1.0  -0.5649
  O  O848  1  0.306500  0.074100  0.746200  1.0  -0.5609
  O  O849  1  0.963500  0.317400  0.605200  1.0  -0.5627
  O  O850  1  0.753800  0.193500  0.574100  1.0  -0.5582
  O  O851  1  0.463500  0.817400  0.105200  1.0  -0.5627
  O  O852  1  0.253800  0.693500  0.074100  1.0  -0.5582
  O  O853  1  0.036500  0.317400  0.394800  1.0  -0.5638
  O  O854  1  0.246200  0.193500  0.425900  1.0  -0.5574
  O  O855  1  0.536500  0.817400  0.894800  1.0  -0.5638
  O  O856  1  0.746200  0.693500  0.925900  1.0  -0.5574
  O  O857  1  0.963500  0.682600  0.394800  1.0  -0.5625
  O  O858  1  0.753800  0.806500  0.425900  1.0  -0.5574
  O  O859  1  0.463500  0.182600  0.894800  1.0  -0.5625
  O  O860  1  0.253800  0.306500  0.925900  1.0  -0.5574
  O  O861  1  0.036500  0.682600  0.605200  1.0  -0.5643
  O  O862  1  0.246200  0.806500  0.574100  1.0  -0.558
  O  O863  1  0.536500  0.182600  0.105200  1.0  -0.5643
  O  O864  1  0.746200  0.306500  0.074100  1.0  -0.558
  O  O865  1  0.963500  0.605200  0.682600  1.0  -0.569
  O  O866  1  0.753800  0.574100  0.806500  1.0  -0.5607
  O  O867  1  0.463500  0.105200  0.182600  1.0  -0.569
  O  O868  1  0.253800  0.074100  0.306500  1.0  -0.5607
  O  O869  1  0.036500  0.394800  0.682600  1.0  -0.57
  O  O870  1  0.246200  0.425900  0.806500  1.0  -0.5599
  O  O871  1  0.536500  0.894800  0.182600  1.0  -0.57
  O  O872  1  0.746200  0.925900  0.306500  1.0  -0.5599
  O  O873  1  0.963500  0.394800  0.317400  1.0  -0.5667
  O  O874  1  0.753800  0.425900  0.193500  1.0  -0.56
  O  O875  1  0.463500  0.894800  0.817400  1.0  -0.5667
  O  O876  1  0.253800  0.925900  0.693500  1.0  -0.56
  O  O877  1  0.036500  0.605200  0.317400  1.0  -0.5674
  O  O878  1  0.246200  0.574100  0.193500  1.0  -0.5606
  O  O879  1  0.536500  0.105200  0.817400  1.0  -0.5674
  O  O880  1  0.746200  0.074100  0.693500  1.0  -0.5606
  O  O881  1  0.605200  0.317400  0.036500  1.0  -0.5637
  O  O882  1  0.574100  0.193500  0.246200  1.0  -0.5574
  O  O883  1  0.105200  0.817400  0.536500  1.0  -0.5637
  O  O884  1  0.074100  0.693500  0.746200  1.0  -0.5574
  O  O885  1  0.394800  0.317400  0.963500  1.0  -0.563
  O  O886  1  0.425900  0.193500  0.753800  1.0  -0.559
  O  O887  1  0.894800  0.817400  0.463500  1.0  -0.563
  O  O888  1  0.925900  0.693500  0.253800  1.0  -0.559
  O  O889  1  0.394800  0.682600  0.036500  1.0  -0.5643
  O  O890  1  0.425900  0.806500  0.246200  1.0  -0.5585
  O  O891  1  0.894800  0.182600  0.536500  1.0  -0.5643
  O  O892  1  0.925900  0.306500  0.746200  1.0  -0.5585
  O  O893  1  0.605200  0.682600  0.963500  1.0  -0.5633
  O  O894  1  0.574100  0.806500  0.753800  1.0  -0.5587
  O  O895  1  0.105200  0.182600  0.463500  1.0  -0.5633
  O  O896  1  0.074100  0.306500  0.253800  1.0  -0.5587
  O  O897  1  0.317400  0.963500  0.394800  1.0  -0.5662
  O  O898  1  0.193500  0.753800  0.425900  1.0  -0.5569
  O  O899  1  0.817400  0.463500  0.894800  1.0  -0.5662
  O  O900  1  0.693500  0.253800  0.925900  1.0  -0.5569
  O  O901  1  0.317400  0.036500  0.605200  1.0  -0.5677
  O  O902  1  0.193500  0.246200  0.574100  1.0  -0.5556
  O  O903  1  0.817400  0.536500  0.105200  1.0  -0.5677
  O  O904  1  0.693500  0.746200  0.074100  1.0  -0.5556
  O  O905  1  0.682600  0.963500  0.605200  1.0  -0.5662
  O  O906  1  0.806500  0.753800  0.574100  1.0  -0.5556
  O  O907  1  0.182600  0.463500  0.105200  1.0  -0.5662
  O  O908  1  0.306500  0.253800  0.074100  1.0  -0.5556
  O  O909  1  0.682600  0.036500  0.394800  1.0  -0.5673
  O  O910  1  0.806500  0.246200  0.425900  1.0  -0.5564
  O  O911  1  0.182600  0.536500  0.894800  1.0  -0.5673
  O  O912  1  0.306500  0.746200  0.925900  1.0  -0.5564
  O  O913  1  0.394800  0.036500  0.682600  1.0  -0.5715
  O  O914  1  0.425900  0.246200  0.806500  1.0  -0.5548
  O  O915  1  0.894800  0.536500  0.182600  1.0  -0.5715
  O  O916  1  0.925900  0.746200  0.306500  1.0  -0.5548
  O  O917  1  0.605200  0.963500  0.682600  1.0  -0.5705
  O  O918  1  0.574100  0.753800  0.806500  1.0  -0.5548
  O  O919  1  0.105200  0.463500  0.182600  1.0  -0.5705
  O  O920  1  0.074100  0.253800  0.306500  1.0  -0.5548
  O  O921  1  0.605200  0.036500  0.317400  1.0  -0.57
  O  O922  1  0.574100  0.246200  0.193500  1.0  -0.554
  O  O923  1  0.105200  0.536500  0.817400  1.0  -0.57
  O  O924  1  0.074100  0.746200  0.693500  1.0  -0.554
  O  O925  1  0.394800  0.963500  0.317400  1.0  -0.5682
  O  O926  1  0.425900  0.753800  0.193500  1.0  -0.5533
  O  O927  1  0.894800  0.463500  0.817400  1.0  -0.5682
  O  O928  1  0.925900  0.253800  0.693500  1.0  -0.5533
  O  O929  1  0.682600  0.394800  0.036500  1.0  -0.5657
  O  O930  1  0.806500  0.425900  0.246200  1.0  -0.5604
  O  O931  1  0.182600  0.894800  0.536500  1.0  -0.5657
  O  O932  1  0.306500  0.925900  0.746200  1.0  -0.5604
  O  O933  1  0.682600  0.605200  0.963500  1.0  -0.5641
  O  O934  1  0.806500  0.574100  0.753800  1.0  -0.5625
  O  O935  1  0.182600  0.105200  0.463500  1.0  -0.5641
  O  O936  1  0.306500  0.074100  0.253800  1.0  -0.5625
  O  O937  1  0.317400  0.605200  0.036500  1.0  -0.5653
  O  O938  1  0.193500  0.574100  0.246200  1.0  -0.5615
  O  O939  1  0.817400  0.105200  0.536500  1.0  -0.5653
  O  O940  1  0.693500  0.074100  0.746200  1.0  -0.5615
  O  O941  1  0.317400  0.394800  0.963500  1.0  -0.5654
  O  O942  1  0.193500  0.425900  0.753800  1.0  -0.5618
  O  O943  1  0.817400  0.894800  0.463500  1.0  -0.5654
  O  O944  1  0.693500  0.925900  0.253800  1.0  -0.5618
  O  O945  1  0.036500  0.682600  0.394800  1.0  -0.5636
  O  O946  1  0.246200  0.806500  0.425900  1.0  -0.5588
  O  O947  1  0.536500  0.182600  0.894800  1.0  -0.5636
  O  O948  1  0.746200  0.306500  0.925900  1.0  -0.5588
  O  O949  1  0.963500  0.682600  0.605200  1.0  -0.5637
  O  O950  1  0.753800  0.806500  0.574100  1.0  -0.5575
  O  O951  1  0.463500  0.182600  0.105200  1.0  -0.5637
  O  O952  1  0.253800  0.306500  0.074100  1.0  -0.5575
  O  O953  1  0.036500  0.317400  0.605200  1.0  -0.5638
  O  O954  1  0.246200  0.193500  0.574100  1.0  -0.5573
  O  O955  1  0.536500  0.817400  0.105200  1.0  -0.5638
  O  O956  1  0.746200  0.693500  0.074100  1.0  -0.5573
  O  O957  1  0.963500  0.317400  0.394800  1.0  -0.5621
  O  O958  1  0.753800  0.193500  0.425900  1.0  -0.5582
  O  O959  1  0.463500  0.817400  0.894800  1.0  -0.5621
  O  O960  1  0.253800  0.693500  0.925900  1.0  -0.5582
  O  O961  1  0.036500  0.394800  0.317400  1.0  -0.5684
  O  O962  1  0.246200  0.425900  0.193500  1.0  -0.5602
  O  O963  1  0.536500  0.894800  0.817400  1.0  -0.5684
  O  O964  1  0.746200  0.925900  0.693500  1.0  -0.5602
  O  O965  1  0.963500  0.605200  0.317400  1.0  -0.5657
  O  O966  1  0.753800  0.574100  0.193500  1.0  -0.5605
  O  O967  1  0.463500  0.105200  0.817400  1.0  -0.5657
  O  O968  1  0.253800  0.074100  0.693500  1.0  -0.5605
  O  O969  1  0.036500  0.605200  0.682600  1.0  -0.5696
  O  O970  1  0.246200  0.574100  0.806500  1.0  -0.5604
  O  O971  1  0.536500  0.105200  0.182600  1.0  -0.5696
  O  O972  1  0.746200  0.074100  0.306500  1.0  -0.5604
  O  O973  1  0.963500  0.394800  0.682600  1.0  -0.5694
  O  O974  1  0.753800  0.425900  0.806500  1.0  -0.56
  O  O975  1  0.463500  0.894800  0.182600  1.0  -0.5694
  O  O976  1  0.253800  0.925900  0.306500  1.0  -0.56
  O  O977  1  0.394800  0.682600  0.963500  1.0  -0.5635
  O  O978  1  0.425900  0.806500  0.753800  1.0  -0.5589
  O  O979  1  0.894800  0.182600  0.463500  1.0  -0.5635
  O  O980  1  0.925900  0.306500  0.253800  1.0  -0.5589
  O  O981  1  0.605200  0.682600  0.036500  1.0  -0.5642
  O  O982  1  0.574100  0.806500  0.246200  1.0  -0.5581
  O  O983  1  0.105200  0.182600  0.536500  1.0  -0.5642
  O  O984  1  0.074100  0.306500  0.746200  1.0  -0.5581
  O  O985  1  0.605200  0.317400  0.963500  1.0  -0.5634
  O  O986  1  0.574100  0.193500  0.753800  1.0  -0.559
  O  O987  1  0.105200  0.817400  0.463500  1.0  -0.5634
  O  O988  1  0.074100  0.693500  0.253800  1.0  -0.559
  O  O989  1  0.394800  0.317400  0.036500  1.0  -0.5637
  O  O990  1  0.425900  0.193500  0.246200  1.0  -0.5573
  O  O991  1  0.894800  0.817400  0.536500  1.0  -0.5637
  O  O992  1  0.925900  0.693500  0.746200  1.0  -0.5573
  O  O993  1  0.682600  0.036500  0.605200  1.0  -0.5679
  O  O994  1  0.806500  0.246200  0.574100  1.0  -0.5562
  O  O995  1  0.182600  0.536500  0.105200  1.0  -0.5679
  O  O996  1  0.306500  0.746200  0.074100  1.0  -0.5562
  O  O997  1  0.682600  0.963500  0.394800  1.0  -0.5652
  O  O998  1  0.806500  0.753800  0.425900  1.0  -0.5543
  O  O999  1  0.182600  0.463500  0.894800  1.0  -0.5652
  O  O1000  1  0.306500  0.253800  0.925900  1.0  -0.5543
  O  O1001  1  0.317400  0.036500  0.394800  1.0  -0.5677
  O  O1002  1  0.193500  0.246200  0.425900  1.0  -0.5561
  O  O1003  1  0.817400  0.536500  0.894800  1.0  -0.5677
  O  O1004  1  0.693500  0.746200  0.925900  1.0  -0.5561
  O  O1005  1  0.317400  0.963500  0.605200  1.0  -0.5665
  O  O1006  1  0.193500  0.753800  0.574100  1.0  -0.5575
  O  O1007  1  0.817400  0.463500  0.105200  1.0  -0.5665
  O  O1008  1  0.693500  0.253800  0.074100  1.0  -0.5575
