# generated using pymatgen
data_CdH18C25N4
_symmetry_space_group_name_H-M   'P 1'
_cell_length_a   26.28000000
_cell_length_b   47.80000000
_cell_length_c   9.58500000
_cell_angle_alpha   90.00000000
_cell_angle_beta   90.00000000
_cell_angle_gamma   90.00000000
_symmetry_Int_Tables_number   1
_chemical_formula_structural   CdH18C25N4
_chemical_formula_sum   'Cd16 H288 C400 N64'
_cell_volume   12040.52364000
_cell_formula_units_Z   16
loop_
 _symmetry_equiv_pos_site_id
 _symmetry_equiv_pos_as_xyz
  1  'x, y, z'
loop_
 _atom_site_type_symbol
 _atom_site_label
 _atom_site_symmetry_multiplicity
 _atom_site_fract_x
 _atom_site_fract_y
 _atom_site_fract_z
 _atom_site_occupancy
 _atom_site_charge
  Cd  Cd1  1  0.135380  0.188270  0.800900  1.0  0.6782
  Cd  Cd2  1  0.135380  0.688270  0.300900  1.0  0.6782
  Cd  Cd3  1  0.635380  0.188270  0.300900  1.0  0.6782
  Cd  Cd4  1  0.635380  0.688270  0.800900  1.0  0.6782
  Cd  Cd5  1  0.114620  0.438270  0.050900  1.0  0.6783
  Cd  Cd6  1  0.114620  0.938270  0.550900  1.0  0.6783
  Cd  Cd7  1  0.614620  0.438270  0.550900  1.0  0.6783
  Cd  Cd8  1  0.614620  0.938270  0.050900  1.0  0.6783
  Cd  Cd9  1  0.864620  0.811730  0.800900  1.0  0.6784
  Cd  Cd10  1  0.864620  0.311730  0.300900  1.0  0.6784
  Cd  Cd11  1  0.364620  0.811730  0.300900  1.0  0.6784
  Cd  Cd12  1  0.364620  0.311730  0.800900  1.0  0.6784
  Cd  Cd13  1  0.385380  0.061730  0.050900  1.0  0.6782
  Cd  Cd14  1  0.385380  0.561730  0.550900  1.0  0.6782
  Cd  Cd15  1  0.885380  0.061730  0.550900  1.0  0.6782
  Cd  Cd16  1  0.885380  0.561730  0.050900  1.0  0.6782
  H  H17  1  0.079700  0.248800  0.799500  1.0  0.0587
  H  H18  1  0.080100  0.291500  0.684800  1.0  0.0691
  H  H19  1  0.202900  0.267400  0.465700  1.0  0.0708
  H  H20  1  0.202500  0.224700  0.580300  1.0  0.0616
  H  H21  1  0.199900  0.345200  0.231800  1.0  0.0695
  H  H22  1  0.190200  0.384500  0.092900  1.0  0.053
  H  H23  1  0.069200  0.407900  0.321200  1.0  0.0592
  H  H24  1  0.078900  0.368500  0.460100  1.0  0.0814
  H  H25  1  0.370600  0.213300  0.102200  1.0  0.1306
  H  H26  1  0.214200  0.225500  0.973900  1.0  0.0594
  H  H27  1  0.296700  0.226300  0.060100  1.0  0.0796
  H  H28  1  0.329100  0.156600  0.843300  1.0  0.0624
  H  H29  1  0.246600  0.155800  0.757100  1.0  0.0564
  H  H30  1  0.406600  0.169800  0.961200  1.0  0.0416
  H  H31  1  0.436700  0.208500  0.256100  1.0  0.0684
  H  H32  1  0.517700  0.210500  0.352300  1.0  0.0559
  H  H33  1  0.570200  0.161000  0.045600  1.0  0.0613
  H  H34  1  0.489300  0.159000  0.949400  1.0  0.074
  H  H35  1  0.079700  0.748800  0.299500  1.0  0.0587
  H  H36  1  0.080100  0.791500  0.184800  1.0  0.0691
  H  H37  1  0.202900  0.767400  0.965700  1.0  0.0708
  H  H38  1  0.202500  0.724700  0.080300  1.0  0.0616
  H  H39  1  0.199900  0.845200  0.731800  1.0  0.0695
  H  H40  1  0.190200  0.884500  0.592900  1.0  0.053
  H  H41  1  0.069200  0.907900  0.821200  1.0  0.0592
  H  H42  1  0.078900  0.868500  0.960100  1.0  0.0814
  H  H43  1  0.370600  0.713300  0.602200  1.0  0.1306
  H  H44  1  0.214200  0.725500  0.473900  1.0  0.0594
  H  H45  1  0.296700  0.726300  0.560100  1.0  0.0796
  H  H46  1  0.329100  0.656600  0.343300  1.0  0.0624
  H  H47  1  0.246600  0.655800  0.257100  1.0  0.0564
  H  H48  1  0.406600  0.669800  0.461200  1.0  0.0416
  H  H49  1  0.436700  0.708500  0.756100  1.0  0.0684
  H  H50  1  0.517700  0.710500  0.852300  1.0  0.0559
  H  H51  1  0.570200  0.661000  0.545600  1.0  0.0613
  H  H52  1  0.489300  0.659000  0.449400  1.0  0.074
  H  H53  1  0.579700  0.248800  0.299500  1.0  0.0587
  H  H54  1  0.580100  0.291500  0.184800  1.0  0.0691
  H  H55  1  0.702900  0.267400  0.965700  1.0  0.0708
  H  H56  1  0.702500  0.224700  0.080300  1.0  0.0616
  H  H57  1  0.699900  0.345200  0.731800  1.0  0.0695
  H  H58  1  0.690200  0.384500  0.592900  1.0  0.053
  H  H59  1  0.569200  0.407900  0.821200  1.0  0.0592
  H  H60  1  0.578900  0.368500  0.960100  1.0  0.0814
  H  H61  1  0.870600  0.213300  0.602200  1.0  0.1306
  H  H62  1  0.714200  0.225500  0.473900  1.0  0.0594
  H  H63  1  0.796700  0.226300  0.560100  1.0  0.0796
  H  H64  1  0.829100  0.156600  0.343300  1.0  0.0624
  H  H65  1  0.746600  0.155800  0.257100  1.0  0.0564
  H  H66  1  0.906600  0.169800  0.461200  1.0  0.0416
  H  H67  1  0.936700  0.208500  0.756100  1.0  0.0684
  H  H68  1  0.017700  0.210500  0.852300  1.0  0.0561
  H  H69  1  0.070200  0.161000  0.545600  1.0  0.0613
  H  H70  1  0.989300  0.159000  0.449400  1.0  0.074
  H  H71  1  0.579700  0.748800  0.799500  1.0  0.0587
  H  H72  1  0.580100  0.791500  0.684800  1.0  0.0691
  H  H73  1  0.702900  0.767400  0.465700  1.0  0.0708
  H  H74  1  0.702500  0.724700  0.580300  1.0  0.0616
  H  H75  1  0.699900  0.845200  0.231800  1.0  0.0695
  H  H76  1  0.690200  0.884500  0.092900  1.0  0.053
  H  H77  1  0.569200  0.907900  0.321200  1.0  0.0592
  H  H78  1  0.578900  0.868500  0.460100  1.0  0.0814
  H  H79  1  0.870600  0.713300  0.102200  1.0  0.1306
  H  H80  1  0.714200  0.725500  0.973900  1.0  0.0594
  H  H81  1  0.796700  0.726300  0.060100  1.0  0.0796
  H  H82  1  0.829100  0.656600  0.843300  1.0  0.0624
  H  H83  1  0.746600  0.655800  0.757100  1.0  0.0564
  H  H84  1  0.906600  0.669800  0.961200  1.0  0.0416
  H  H85  1  0.936700  0.708500  0.256100  1.0  0.0684
  H  H86  1  0.017700  0.710500  0.352300  1.0  0.0561
  H  H87  1  0.070200  0.661000  0.045600  1.0  0.0613
  H  H88  1  0.989300  0.659000  0.949400  1.0  0.074
  H  H89  1  0.170300  0.498800  0.049500  1.0  0.0592
  H  H90  1  0.169900  0.541500  0.934800  1.0  0.0692
  H  H91  1  0.047100  0.517400  0.715700  1.0  0.0709
  H  H92  1  0.047500  0.474700  0.830300  1.0  0.0614
  H  H93  1  0.050100  0.595200  0.481800  1.0  0.0693
  H  H94  1  0.059800  0.634500  0.342900  1.0  0.053
  H  H95  1  0.180800  0.657900  0.571200  1.0  0.0601
  H  H96  1  0.171100  0.618500  0.710100  1.0  0.0814
  H  H97  1  0.879400  0.463300  0.352200  1.0  0.1311
  H  H98  1  0.035800  0.475500  0.223900  1.0  0.0594
  H  H99  1  0.953300  0.476300  0.310100  1.0  0.0797
  H  H100  1  0.920900  0.406600  0.093300  1.0  0.062
  H  H101  1  0.003400  0.405800  0.007100  1.0  0.0567
  H  H102  1  0.843400  0.419800  0.211200  1.0  0.0405
  H  H103  1  0.813300  0.458500  0.506100  1.0  0.0679
  H  H104  1  0.732300  0.460500  0.602300  1.0  0.056
  H  H105  1  0.679800  0.411000  0.295600  1.0  0.0615
  H  H106  1  0.760700  0.409000  0.199400  1.0  0.074
  H  H107  1  0.170300  0.998800  0.549500  1.0  0.0592
  H  H108  1  0.169900  0.041500  0.434800  1.0  0.0692
  H  H109  1  0.047100  0.017400  0.215700  1.0  0.0709
  H  H110  1  0.047500  0.974700  0.330300  1.0  0.0614
  H  H111  1  0.050100  0.095200  0.981800  1.0  0.0693
  H  H112  1  0.059800  0.134500  0.842900  1.0  0.053
  H  H113  1  0.180800  0.157900  0.071200  1.0  0.0601
  H  H114  1  0.171100  0.118500  0.210100  1.0  0.0814
  H  H115  1  0.879400  0.963300  0.852200  1.0  0.1311
  H  H116  1  0.035800  0.975500  0.723900  1.0  0.0594
  H  H117  1  0.953300  0.976300  0.810100  1.0  0.0797
  H  H118  1  0.920900  0.906600  0.593300  1.0  0.062
  H  H119  1  0.003400  0.905800  0.507100  1.0  0.0567
  H  H120  1  0.843400  0.919800  0.711200  1.0  0.0405
  H  H121  1  0.813300  0.958500  0.006100  1.0  0.0679
  H  H122  1  0.732300  0.960500  0.102300  1.0  0.056
  H  H123  1  0.679800  0.911000  0.795600  1.0  0.0615
  H  H124  1  0.760700  0.909000  0.699400  1.0  0.074
  H  H125  1  0.670300  0.498800  0.549500  1.0  0.0592
  H  H126  1  0.669900  0.541500  0.434800  1.0  0.0692
  H  H127  1  0.547100  0.517400  0.215700  1.0  0.0709
  H  H128  1  0.547500  0.474700  0.330300  1.0  0.0614
  H  H129  1  0.550100  0.595200  0.981800  1.0  0.0693
  H  H130  1  0.559800  0.634500  0.842900  1.0  0.053
  H  H131  1  0.680800  0.657900  0.071200  1.0  0.0601
  H  H132  1  0.671100  0.618500  0.210100  1.0  0.0814
  H  H133  1  0.379400  0.463300  0.852200  1.0  0.1311
  H  H134  1  0.535800  0.475500  0.723900  1.0  0.0594
  H  H135  1  0.453300  0.476300  0.810100  1.0  0.0797
  H  H136  1  0.420900  0.406600  0.593300  1.0  0.062
  H  H137  1  0.503400  0.405800  0.507100  1.0  0.0567
  H  H138  1  0.343400  0.419800  0.711200  1.0  0.0405
  H  H139  1  0.313300  0.458500  0.006100  1.0  0.0679
  H  H140  1  0.232300  0.460500  0.102300  1.0  0.0562
  H  H141  1  0.179800  0.411000  0.795600  1.0  0.0615
  H  H142  1  0.260700  0.409000  0.699400  1.0  0.074
  H  H143  1  0.670300  0.998800  0.049500  1.0  0.0592
  H  H144  1  0.669900  0.041500  0.934800  1.0  0.0692
  H  H145  1  0.547100  0.017400  0.715700  1.0  0.0709
  H  H146  1  0.547500  0.974700  0.830300  1.0  0.0614
  H  H147  1  0.550100  0.095200  0.481800  1.0  0.0693
  H  H148  1  0.559800  0.134500  0.342900  1.0  0.053
  H  H149  1  0.680800  0.157900  0.571200  1.0  0.0601
  H  H150  1  0.671100  0.118500  0.710100  1.0  0.0814
  H  H151  1  0.379400  0.963300  0.352200  1.0  0.1311
  H  H152  1  0.535800  0.975500  0.223900  1.0  0.0594
  H  H153  1  0.453300  0.976300  0.310100  1.0  0.0797
  H  H154  1  0.420900  0.906600  0.093300  1.0  0.062
  H  H155  1  0.503400  0.905800  0.007100  1.0  0.0567
  H  H156  1  0.343400  0.919800  0.211200  1.0  0.0405
  H  H157  1  0.313300  0.958500  0.506100  1.0  0.0679
  H  H158  1  0.232300  0.960500  0.602300  1.0  0.0562
  H  H159  1  0.179800  0.911000  0.295600  1.0  0.0615
  H  H160  1  0.260700  0.909000  0.199400  1.0  0.074
  H  H161  1  0.920300  0.751200  0.799500  1.0  0.059
  H  H162  1  0.919900  0.708500  0.684800  1.0  0.0692
  H  H163  1  0.797100  0.732600  0.465700  1.0  0.0706
  H  H164  1  0.797500  0.775300  0.580300  1.0  0.062
  H  H165  1  0.800100  0.654800  0.231800  1.0  0.0697
  H  H166  1  0.809800  0.615500  0.092900  1.0  0.0529
  H  H167  1  0.930800  0.592100  0.321200  1.0  0.0604
  H  H168  1  0.921100  0.631500  0.460100  1.0  0.0815
  H  H169  1  0.629400  0.786700  0.102200  1.0  0.1312
  H  H170  1  0.785800  0.774500  0.973900  1.0  0.0597
  H  H171  1  0.703300  0.773700  0.060100  1.0  0.0804
  H  H172  1  0.670900  0.843400  0.843300  1.0  0.0629
  H  H173  1  0.753400  0.844200  0.757100  1.0  0.0567
  H  H174  1  0.593400  0.830200  0.961200  1.0  0.0414
  H  H175  1  0.563300  0.791500  0.256100  1.0  0.0685
  H  H176  1  0.482300  0.789500  0.352300  1.0  0.0561
  H  H177  1  0.429800  0.839000  0.045600  1.0  0.0613
  H  H178  1  0.510700  0.841000  0.949400  1.0  0.0738
  H  H179  1  0.920300  0.251200  0.299500  1.0  0.059
  H  H180  1  0.919900  0.208500  0.184800  1.0  0.0692
  H  H181  1  0.797100  0.232600  0.965700  1.0  0.0706
  H  H182  1  0.797500  0.275300  0.080300  1.0  0.062
  H  H183  1  0.800100  0.154800  0.731800  1.0  0.0697
  H  H184  1  0.809800  0.115500  0.592900  1.0  0.0529
  H  H185  1  0.930800  0.092100  0.821200  1.0  0.0604
  H  H186  1  0.921100  0.131500  0.960100  1.0  0.0815
  H  H187  1  0.629400  0.286700  0.602200  1.0  0.1312
  H  H188  1  0.785800  0.274500  0.473900  1.0  0.0597
  H  H189  1  0.703300  0.273700  0.560100  1.0  0.0804
  H  H190  1  0.670900  0.343400  0.343300  1.0  0.0629
  H  H191  1  0.753400  0.344200  0.257100  1.0  0.0567
  H  H192  1  0.593400  0.330200  0.461200  1.0  0.0414
  H  H193  1  0.563300  0.291500  0.756100  1.0  0.0685
  H  H194  1  0.482300  0.289500  0.852300  1.0  0.0561
  H  H195  1  0.429800  0.339000  0.545600  1.0  0.0613
  H  H196  1  0.510700  0.341000  0.449400  1.0  0.0738
  H  H197  1  0.420300  0.751200  0.299500  1.0  0.059
  H  H198  1  0.419900  0.708500  0.184800  1.0  0.0692
  H  H199  1  0.297100  0.732600  0.965700  1.0  0.0706
  H  H200  1  0.297500  0.775300  0.080300  1.0  0.062
  H  H201  1  0.300100  0.654800  0.731800  1.0  0.0697
  H  H202  1  0.309800  0.615500  0.592900  1.0  0.0529
  H  H203  1  0.430800  0.592100  0.821200  1.0  0.0604
  H  H204  1  0.421100  0.631500  0.960100  1.0  0.0815
  H  H205  1  0.129400  0.786700  0.602200  1.0  0.1312
  H  H206  1  0.285800  0.774500  0.473900  1.0  0.0597
  H  H207  1  0.203300  0.773700  0.560100  1.0  0.0804
  H  H208  1  0.170900  0.843400  0.343300  1.0  0.0629
  H  H209  1  0.253400  0.844200  0.257100  1.0  0.0567
  H  H210  1  0.093400  0.830200  0.461200  1.0  0.0414
  H  H211  1  0.063300  0.791500  0.756100  1.0  0.0685
  H  H212  1  0.982300  0.789500  0.852300  1.0  0.0562
  H  H213  1  0.929800  0.839000  0.545600  1.0  0.0613
  H  H214  1  0.010700  0.841000  0.449400  1.0  0.0738
  H  H215  1  0.420300  0.251200  0.799500  1.0  0.059
  H  H216  1  0.419900  0.208500  0.684800  1.0  0.0692
  H  H217  1  0.297100  0.232600  0.465700  1.0  0.0706
  H  H218  1  0.297500  0.275300  0.580300  1.0  0.062
  H  H219  1  0.300100  0.154800  0.231800  1.0  0.0697
  H  H220  1  0.309800  0.115500  0.092900  1.0  0.0529
  H  H221  1  0.430800  0.092100  0.321200  1.0  0.0604
  H  H222  1  0.421100  0.131500  0.460100  1.0  0.0815
  H  H223  1  0.129400  0.286700  0.102200  1.0  0.1312
  H  H224  1  0.285800  0.274500  0.973900  1.0  0.0597
  H  H225  1  0.203300  0.273700  0.060100  1.0  0.0804
  H  H226  1  0.170900  0.343400  0.843300  1.0  0.0629
  H  H227  1  0.253400  0.344200  0.757100  1.0  0.0567
  H  H228  1  0.093400  0.330200  0.961200  1.0  0.0414
  H  H229  1  0.063300  0.291500  0.256100  1.0  0.0685
  H  H230  1  0.982300  0.289500  0.352300  1.0  0.0562
  H  H231  1  0.929800  0.339000  0.045600  1.0  0.0613
  H  H232  1  0.010700  0.341000  0.949400  1.0  0.0738
  H  H233  1  0.329700  0.001200  0.049500  1.0  0.0586
  H  H234  1  0.330100  0.958500  0.934800  1.0  0.0692
  H  H235  1  0.452900  0.982600  0.715700  1.0  0.0707
  H  H236  1  0.452500  0.025300  0.830300  1.0  0.0621
  H  H237  1  0.449900  0.904800  0.481800  1.0  0.0694
  H  H238  1  0.440200  0.865500  0.342900  1.0  0.0533
  H  H239  1  0.319200  0.842100  0.571200  1.0  0.059
  H  H240  1  0.328900  0.881500  0.710100  1.0  0.0815
  H  H241  1  0.620600  0.036700  0.352200  1.0  0.1308
  H  H242  1  0.464200  0.024500  0.223900  1.0  0.0591
  H  H243  1  0.546700  0.023700  0.310100  1.0  0.0803
  H  H244  1  0.579100  0.093400  0.093300  1.0  0.0625
  H  H245  1  0.496600  0.094200  0.007100  1.0  0.0566
  H  H246  1  0.656600  0.080200  0.211200  1.0  0.0419
  H  H247  1  0.686700  0.041500  0.506100  1.0  0.0685
  H  H248  1  0.767700  0.039500  0.602300  1.0  0.0559
  H  H249  1  0.820200  0.089000  0.295600  1.0  0.061
  H  H250  1  0.739300  0.091000  0.199400  1.0  0.0739
  H  H251  1  0.329700  0.501200  0.549500  1.0  0.0586
  H  H252  1  0.330100  0.458500  0.434800  1.0  0.0692
  H  H253  1  0.452900  0.482600  0.215700  1.0  0.0707
  H  H254  1  0.452500  0.525300  0.330300  1.0  0.0621
  H  H255  1  0.449900  0.404800  0.981800  1.0  0.0694
  H  H256  1  0.440200  0.365500  0.842900  1.0  0.0533
  H  H257  1  0.319200  0.342100  0.071200  1.0  0.059
  H  H258  1  0.328900  0.381500  0.210100  1.0  0.0815
  H  H259  1  0.620600  0.536700  0.852200  1.0  0.1308
  H  H260  1  0.464200  0.524500  0.723900  1.0  0.0591
  H  H261  1  0.546700  0.523700  0.810100  1.0  0.0803
  H  H262  1  0.579100  0.593400  0.593300  1.0  0.0625
  H  H263  1  0.496600  0.594200  0.507100  1.0  0.0566
  H  H264  1  0.656600  0.580200  0.711200  1.0  0.0419
  H  H265  1  0.686700  0.541500  0.006100  1.0  0.0685
  H  H266  1  0.767700  0.539500  0.102300  1.0  0.0559
  H  H267  1  0.820200  0.589000  0.795600  1.0  0.061
  H  H268  1  0.739300  0.591000  0.699400  1.0  0.0739
  H  H269  1  0.829700  0.001200  0.549500  1.0  0.0586
  H  H270  1  0.830100  0.958500  0.434800  1.0  0.0692
  H  H271  1  0.952900  0.982600  0.215700  1.0  0.0707
  H  H272  1  0.952500  0.025300  0.330300  1.0  0.0621
  H  H273  1  0.949900  0.904800  0.981800  1.0  0.0694
  H  H274  1  0.940200  0.865500  0.842900  1.0  0.0533
  H  H275  1  0.819200  0.842100  0.071200  1.0  0.059
  H  H276  1  0.828900  0.881500  0.210100  1.0  0.0815
  H  H277  1  0.120600  0.036700  0.852200  1.0  0.1308
  H  H278  1  0.964200  0.024500  0.723900  1.0  0.0591
  H  H279  1  0.046700  0.023700  0.810100  1.0  0.0803
  H  H280  1  0.079100  0.093400  0.593300  1.0  0.0625
  H  H281  1  0.996600  0.094200  0.507100  1.0  0.0566
  H  H282  1  0.156600  0.080200  0.711200  1.0  0.0419
  H  H283  1  0.186700  0.041500  0.006100  1.0  0.0685
  H  H284  1  0.267700  0.039500  0.102300  1.0  0.0561
  H  H285  1  0.320200  0.089000  0.795600  1.0  0.061
  H  H286  1  0.239300  0.091000  0.699400  1.0  0.0739
  H  H287  1  0.829700  0.501200  0.049500  1.0  0.0586
  H  H288  1  0.830100  0.458500  0.934800  1.0  0.0692
  H  H289  1  0.952900  0.482600  0.715700  1.0  0.0707
  H  H290  1  0.952500  0.525300  0.830300  1.0  0.0621
  H  H291  1  0.949900  0.404800  0.481800  1.0  0.0694
  H  H292  1  0.940200  0.365500  0.342900  1.0  0.0533
  H  H293  1  0.819200  0.342100  0.571200  1.0  0.059
  H  H294  1  0.828900  0.381500  0.710100  1.0  0.0815
  H  H295  1  0.120600  0.536700  0.352200  1.0  0.1308
  H  H296  1  0.964200  0.524500  0.223900  1.0  0.0591
  H  H297  1  0.046700  0.523700  0.310100  1.0  0.0803
  H  H298  1  0.079100  0.593400  0.093300  1.0  0.0625
  H  H299  1  0.996600  0.594200  0.007100  1.0  0.0566
  H  H300  1  0.156600  0.580200  0.211200  1.0  0.0419
  H  H301  1  0.186700  0.541500  0.506100  1.0  0.0685
  H  H302  1  0.267700  0.539500  0.602300  1.0  0.0561
  H  H303  1  0.320200  0.589000  0.295600  1.0  0.061
  H  H304  1  0.239300  0.591000  0.199400  1.0  0.0739
  C  C305  1  0.104400  0.252500  0.732600  1.0  0.1174
  C  C306  1  0.104700  0.278110  0.663900  1.0  -0.1034
  C  C307  1  0.141600  0.283710  0.563900  1.0  -0.0864
  C  C308  1  0.178200  0.263700  0.532600  1.0  -0.1801
  C  C309  1  0.177900  0.238090  0.601300  1.0  0.1148
  C  C310  1  0.146400  0.310100  0.473000  1.0  0.3496
  C  C311  1  0.173000  0.329400  0.423000  1.0  0.1266
  C  C312  1  0.140400  0.352900  0.359700  1.0  0.0176
  C  C313  1  0.173700  0.357700  0.249700  1.0  -0.1859
  C  C314  1  0.167900  0.381300  0.166500  1.0  0.1149
  C  C315  1  0.095400  0.395300  0.303300  1.0  0.12
  C  C316  1  0.101200  0.371700  0.386500  1.0  -0.1432
  C  C317  1  0.370200  0.198000  0.042000  1.0  -0.2459
  C  C318  1  0.237200  0.211660  0.947700  1.0  0.1122
  C  C319  1  0.286700  0.212150  0.999400  1.0  -0.2311
  C  C320  1  0.321100  0.191500  0.960200  1.0  -0.0944
  C  C321  1  0.306100  0.170400  0.869500  1.0  -0.1056
  C  C322  1  0.256700  0.169890  0.817800  1.0  0.1033
  C  C323  1  0.409500  0.183600  0.029000  1.0  -0.1207
  C  C324  1  0.455000  0.183500  0.093200  1.0  0.1119
  C  C325  1  0.463500  0.199000  0.213900  1.0  -0.2337
  C  C326  1  0.512000  0.200200  0.271500  1.0  0.1081
  C  C327  1  0.543500  0.170500  0.087800  1.0  0.0962
  C  C328  1  0.495000  0.169300  0.030200  1.0  -0.2152
  C  C329  1  0.119300  0.331500  0.465000  1.0  0.1613
  C  C330  1  0.104400  0.752500  0.232600  1.0  0.1174
  C  C331  1  0.104700  0.778110  0.163900  1.0  -0.1034
  C  C332  1  0.141600  0.783710  0.063900  1.0  -0.0864
  C  C333  1  0.178200  0.763700  0.032600  1.0  -0.1801
  C  C334  1  0.177900  0.738090  0.101300  1.0  0.1148
  C  C335  1  0.146400  0.810100  0.973000  1.0  0.3496
  C  C336  1  0.173000  0.829400  0.923000  1.0  0.1266
  C  C337  1  0.140400  0.852900  0.859700  1.0  0.0176
  C  C338  1  0.173700  0.857700  0.749700  1.0  -0.1859
  C  C339  1  0.167900  0.881300  0.666500  1.0  0.1149
  C  C340  1  0.095400  0.895300  0.803300  1.0  0.12
  C  C341  1  0.101200  0.871700  0.886500  1.0  -0.1432
  C  C342  1  0.370200  0.698000  0.542000  1.0  -0.2459
  C  C343  1  0.237200  0.711660  0.447700  1.0  0.1122
  C  C344  1  0.286700  0.712150  0.499400  1.0  -0.2311
  C  C345  1  0.321100  0.691500  0.460200  1.0  -0.0944
  C  C346  1  0.306100  0.670400  0.369500  1.0  -0.1056
  C  C347  1  0.256700  0.669890  0.317800  1.0  0.1033
  C  C348  1  0.409500  0.683600  0.529000  1.0  -0.1207
  C  C349  1  0.455000  0.683500  0.593200  1.0  0.1119
  C  C350  1  0.463500  0.699000  0.713900  1.0  -0.2337
  C  C351  1  0.512000  0.700200  0.771500  1.0  0.1081
  C  C352  1  0.543500  0.670500  0.587800  1.0  0.0962
  C  C353  1  0.495000  0.669300  0.530200  1.0  -0.2152
  C  C354  1  0.119300  0.831500  0.965000  1.0  0.1613
  C  C355  1  0.604400  0.252500  0.232600  1.0  0.1174
  C  C356  1  0.604700  0.278110  0.163900  1.0  -0.1034
  C  C357  1  0.641600  0.283710  0.063900  1.0  -0.0864
  C  C358  1  0.678200  0.263700  0.032600  1.0  -0.1801
  C  C359  1  0.677900  0.238090  0.101300  1.0  0.1148
  C  C360  1  0.646400  0.310100  0.973000  1.0  0.3496
  C  C361  1  0.673000  0.329400  0.923000  1.0  0.1266
  C  C362  1  0.640400  0.352900  0.859700  1.0  0.0176
  C  C363  1  0.673700  0.357700  0.749700  1.0  -0.1859
  C  C364  1  0.667900  0.381300  0.666500  1.0  0.1149
  C  C365  1  0.595400  0.395300  0.803300  1.0  0.12
  C  C366  1  0.601200  0.371700  0.886500  1.0  -0.1432
  C  C367  1  0.870200  0.198000  0.542000  1.0  -0.2459
  C  C368  1  0.737200  0.211660  0.447700  1.0  0.1122
  C  C369  1  0.786700  0.212150  0.499400  1.0  -0.2311
  C  C370  1  0.821100  0.191500  0.460200  1.0  -0.0944
  C  C371  1  0.806100  0.170400  0.369500  1.0  -0.1056
  C  C372  1  0.756700  0.169890  0.317800  1.0  0.1033
  C  C373  1  0.909500  0.183600  0.529000  1.0  -0.1207
  C  C374  1  0.955000  0.183500  0.593200  1.0  0.1119
  C  C375  1  0.963500  0.199000  0.713900  1.0  -0.2337
  C  C376  1  0.012000  0.200200  0.771500  1.0  0.1099
  C  C377  1  0.043500  0.170500  0.587800  1.0  0.0962
  C  C378  1  0.995000  0.169300  0.530200  1.0  -0.2152
  C  C379  1  0.619300  0.331500  0.965000  1.0  0.1613
  C  C380  1  0.604400  0.752500  0.732600  1.0  0.1174
  C  C381  1  0.604700  0.778110  0.663900  1.0  -0.1034
  C  C382  1  0.641600  0.783710  0.563900  1.0  -0.0864
  C  C383  1  0.678200  0.763700  0.532600  1.0  -0.1801
  C  C384  1  0.677900  0.738090  0.601300  1.0  0.1148
  C  C385  1  0.646400  0.810100  0.473000  1.0  0.3496
  C  C386  1  0.673000  0.829400  0.423000  1.0  0.1266
  C  C387  1  0.640400  0.852900  0.359700  1.0  0.0176
  C  C388  1  0.673700  0.857700  0.249700  1.0  -0.1859
  C  C389  1  0.667900  0.881300  0.166500  1.0  0.1149
  C  C390  1  0.595400  0.895300  0.303300  1.0  0.12
  C  C391  1  0.601200  0.871700  0.386500  1.0  -0.1432
  C  C392  1  0.870200  0.698000  0.042000  1.0  -0.2459
  C  C393  1  0.737200  0.711660  0.947700  1.0  0.1122
  C  C394  1  0.786700  0.712150  0.999400  1.0  -0.2311
  C  C395  1  0.821100  0.691500  0.960200  1.0  -0.0944
  C  C396  1  0.806100  0.670400  0.869500  1.0  -0.1056
  C  C397  1  0.756700  0.669890  0.817800  1.0  0.1033
  C  C398  1  0.909500  0.683600  0.029000  1.0  -0.1207
  C  C399  1  0.955000  0.683500  0.093200  1.0  0.1119
  C  C400  1  0.963500  0.699000  0.213900  1.0  -0.2337
  C  C401  1  0.012000  0.700200  0.271500  1.0  0.1099
  C  C402  1  0.043500  0.670500  0.087800  1.0  0.0962
  C  C403  1  0.995000  0.669300  0.030200  1.0  -0.2152
  C  C404  1  0.619300  0.831500  0.465000  1.0  0.1613
  C  C405  1  0.145600  0.502500  0.982600  1.0  0.1171
  C  C406  1  0.145300  0.528110  0.913900  1.0  -0.1012
  C  C407  1  0.108400  0.533710  0.813900  1.0  -0.087
  C  C408  1  0.071800  0.513700  0.782600  1.0  -0.18
  C  C409  1  0.072100  0.488090  0.851300  1.0  0.1148
  C  C410  1  0.103600  0.560100  0.723000  1.0  0.3494
  C  C411  1  0.077000  0.579400  0.673000  1.0  0.1197
  C  C412  1  0.109600  0.602900  0.609700  1.0  0.017
  C  C413  1  0.076300  0.607700  0.499700  1.0  -0.1866
  C  C414  1  0.082100  0.631300  0.416500  1.0  0.1145
  C  C415  1  0.154600  0.645300  0.553300  1.0  0.1202
  C  C416  1  0.148800  0.621700  0.636500  1.0  -0.1436
  C  C417  1  0.879800  0.448000  0.292000  1.0  -0.2475
  C  C418  1  0.012800  0.461660  0.197700  1.0  0.1131
  C  C419  1  0.963300  0.462150  0.249400  1.0  -0.2317
  C  C420  1  0.928900  0.441500  0.210200  1.0  -0.0933
  C  C421  1  0.943900  0.420400  0.119500  1.0  -0.1045
  C  C422  1  0.993300  0.419890  0.067800  1.0  0.102
  C  C423  1  0.840500  0.433600  0.279000  1.0  -0.1213
  C  C424  1  0.795000  0.433500  0.343200  1.0  0.1118
  C  C425  1  0.786500  0.449000  0.463900  1.0  -0.2328
  C  C426  1  0.738000  0.450200  0.521500  1.0  0.1086
  C  C427  1  0.706500  0.420500  0.337800  1.0  0.0957
  C  C428  1  0.755000  0.419300  0.280200  1.0  -0.2145
  C  C429  1  0.130700  0.581500  0.715000  1.0  0.1616
  C  C430  1  0.145600  0.002500  0.482600  1.0  0.1171
  C  C431  1  0.145300  0.028110  0.413900  1.0  -0.1012
  C  C432  1  0.108400  0.033710  0.313900  1.0  -0.087
  C  C433  1  0.071800  0.013700  0.282600  1.0  -0.18
  C  C434  1  0.072100  0.988090  0.351300  1.0  0.1148
  C  C435  1  0.103600  0.060100  0.223000  1.0  0.3494
  C  C436  1  0.077000  0.079400  0.173000  1.0  0.1197
  C  C437  1  0.109600  0.102900  0.109700  1.0  0.017
  C  C438  1  0.076300  0.107700  0.999700  1.0  -0.1866
  C  C439  1  0.082100  0.131300  0.916500  1.0  0.1145
  C  C440  1  0.154600  0.145300  0.053300  1.0  0.1202
  C  C441  1  0.148800  0.121700  0.136500  1.0  -0.1436
  C  C442  1  0.879800  0.948000  0.792000  1.0  -0.2475
  C  C443  1  0.012800  0.961660  0.697700  1.0  0.1131
  C  C444  1  0.963300  0.962150  0.749400  1.0  -0.2317
  C  C445  1  0.928900  0.941500  0.710200  1.0  -0.0933
  C  C446  1  0.943900  0.920400  0.619500  1.0  -0.1045
  C  C447  1  0.993300  0.919890  0.567800  1.0  0.102
  C  C448  1  0.840500  0.933600  0.779000  1.0  -0.1213
  C  C449  1  0.795000  0.933500  0.843200  1.0  0.1118
  C  C450  1  0.786500  0.949000  0.963900  1.0  -0.2328
  C  C451  1  0.738000  0.950200  0.021500  1.0  0.1086
  C  C452  1  0.706500  0.920500  0.837800  1.0  0.0957
  C  C453  1  0.755000  0.919300  0.780200  1.0  -0.2145
  C  C454  1  0.130700  0.081500  0.215000  1.0  0.1616
  C  C455  1  0.645600  0.502500  0.482600  1.0  0.1171
  C  C456  1  0.645300  0.528110  0.413900  1.0  -0.1012
  C  C457  1  0.608400  0.533710  0.313900  1.0  -0.087
  C  C458  1  0.571800  0.513700  0.282600  1.0  -0.18
  C  C459  1  0.572100  0.488090  0.351300  1.0  0.1148
  C  C460  1  0.603600  0.560100  0.223000  1.0  0.3494
  C  C461  1  0.577000  0.579400  0.173000  1.0  0.1197
  C  C462  1  0.609600  0.602900  0.109700  1.0  0.017
  C  C463  1  0.576300  0.607700  0.999700  1.0  -0.1866
  C  C464  1  0.582100  0.631300  0.916500  1.0  0.1145
  C  C465  1  0.654600  0.645300  0.053300  1.0  0.1202
  C  C466  1  0.648800  0.621700  0.136500  1.0  -0.1436
  C  C467  1  0.379800  0.448000  0.792000  1.0  -0.2475
  C  C468  1  0.512800  0.461660  0.697700  1.0  0.1131
  C  C469  1  0.463300  0.462150  0.749400  1.0  -0.2317
  C  C470  1  0.428900  0.441500  0.710200  1.0  -0.0933
  C  C471  1  0.443900  0.420400  0.619500  1.0  -0.1045
  C  C472  1  0.493300  0.419890  0.567800  1.0  0.102
  C  C473  1  0.340500  0.433600  0.779000  1.0  -0.1213
  C  C474  1  0.295000  0.433500  0.843200  1.0  0.1118
  C  C475  1  0.286500  0.449000  0.963900  1.0  -0.2328
  C  C476  1  0.238000  0.450200  0.021500  1.0  0.1104
  C  C477  1  0.206500  0.420500  0.837800  1.0  0.0957
  C  C478  1  0.255000  0.419300  0.780200  1.0  -0.2145
  C  C479  1  0.630700  0.581500  0.215000  1.0  0.1616
  C  C480  1  0.645600  0.002500  0.982600  1.0  0.1171
  C  C481  1  0.645300  0.028110  0.913900  1.0  -0.1012
  C  C482  1  0.608400  0.033710  0.813900  1.0  -0.087
  C  C483  1  0.571800  0.013700  0.782600  1.0  -0.18
  C  C484  1  0.572100  0.988090  0.851300  1.0  0.1148
  C  C485  1  0.603600  0.060100  0.723000  1.0  0.3494
  C  C486  1  0.577000  0.079400  0.673000  1.0  0.1197
  C  C487  1  0.609600  0.102900  0.609700  1.0  0.017
  C  C488  1  0.576300  0.107700  0.499700  1.0  -0.1866
  C  C489  1  0.582100  0.131300  0.416500  1.0  0.1145
  C  C490  1  0.654600  0.145300  0.553300  1.0  0.1202
  C  C491  1  0.648800  0.121700  0.636500  1.0  -0.1436
  C  C492  1  0.379800  0.948000  0.292000  1.0  -0.2475
  C  C493  1  0.512800  0.961660  0.197700  1.0  0.1131
  C  C494  1  0.463300  0.962150  0.249400  1.0  -0.2317
  C  C495  1  0.428900  0.941500  0.210200  1.0  -0.0933
  C  C496  1  0.443900  0.920400  0.119500  1.0  -0.1045
  C  C497  1  0.493300  0.919890  0.067800  1.0  0.102
  C  C498  1  0.340500  0.933600  0.279000  1.0  -0.1213
  C  C499  1  0.295000  0.933500  0.343200  1.0  0.1118
  C  C500  1  0.286500  0.949000  0.463900  1.0  -0.2328
  C  C501  1  0.238000  0.950200  0.521500  1.0  0.1104
  C  C502  1  0.206500  0.920500  0.337800  1.0  0.0957
  C  C503  1  0.255000  0.919300  0.280200  1.0  -0.2145
  C  C504  1  0.630700  0.081500  0.715000  1.0  0.1616
  C  C505  1  0.895600  0.747500  0.732600  1.0  0.1165
  C  C506  1  0.895300  0.721890  0.663900  1.0  -0.1016
  C  C507  1  0.858400  0.716290  0.563900  1.0  -0.0866
  C  C508  1  0.821800  0.736300  0.532600  1.0  -0.1797
  C  C509  1  0.822100  0.761910  0.601300  1.0  0.1152
  C  C510  1  0.853600  0.689900  0.473000  1.0  0.3496
  C  C511  1  0.827000  0.670600  0.423000  1.0  0.119
  C  C512  1  0.859600  0.647100  0.359700  1.0  0.0183
  C  C513  1  0.826300  0.642300  0.249700  1.0  -0.1869
  C  C514  1  0.832100  0.618700  0.166500  1.0  0.1145
  C  C515  1  0.904600  0.604700  0.303300  1.0  0.1195
  C  C516  1  0.898800  0.628300  0.386500  1.0  -0.1442
  C  C517  1  0.629800  0.802000  0.042000  1.0  -0.2471
  C  C518  1  0.762800  0.788340  0.947700  1.0  0.1142
  C  C519  1  0.713300  0.787850  0.999400  1.0  -0.232
  C  C520  1  0.678900  0.808500  0.960200  1.0  -0.0933
  C  C521  1  0.693900  0.829600  0.869500  1.0  -0.1046
  C  C522  1  0.743300  0.830110  0.817800  1.0  0.1021
  C  C523  1  0.590500  0.816400  0.029000  1.0  -0.1214
  C  C524  1  0.545000  0.816500  0.093200  1.0  0.1116
  C  C525  1  0.536500  0.801000  0.213900  1.0  -0.233
  C  C526  1  0.488000  0.799800  0.271500  1.0  0.1086
  C  C527  1  0.456500  0.829500  0.087800  1.0  0.0956
  C  C528  1  0.505000  0.830700  0.030200  1.0  -0.2136
  C  C529  1  0.880700  0.668500  0.465000  1.0  0.1624
  C  C530  1  0.895600  0.247500  0.232600  1.0  0.1165
  C  C531  1  0.895300  0.221890  0.163900  1.0  -0.1016
  C  C532  1  0.858400  0.216290  0.063900  1.0  -0.0866
  C  C533  1  0.821800  0.236300  0.032600  1.0  -0.1797
  C  C534  1  0.822100  0.261910  0.101300  1.0  0.1152
  C  C535  1  0.853600  0.189900  0.973000  1.0  0.3496
  C  C536  1  0.827000  0.170600  0.923000  1.0  0.119
  C  C537  1  0.859600  0.147100  0.859700  1.0  0.0183
  C  C538  1  0.826300  0.142300  0.749700  1.0  -0.1869
  C  C539  1  0.832100  0.118700  0.666500  1.0  0.1145
  C  C540  1  0.904600  0.104700  0.803300  1.0  0.1195
  C  C541  1  0.898800  0.128300  0.886500  1.0  -0.1442
  C  C542  1  0.629800  0.302000  0.542000  1.0  -0.2471
  C  C543  1  0.762800  0.288340  0.447700  1.0  0.1142
  C  C544  1  0.713300  0.287850  0.499400  1.0  -0.232
  C  C545  1  0.678900  0.308500  0.460200  1.0  -0.0933
  C  C546  1  0.693900  0.329600  0.369500  1.0  -0.1046
  C  C547  1  0.743300  0.330110  0.317800  1.0  0.1021
  C  C548  1  0.590500  0.316400  0.529000  1.0  -0.1214
  C  C549  1  0.545000  0.316500  0.593200  1.0  0.1116
  C  C550  1  0.536500  0.301000  0.713900  1.0  -0.233
  C  C551  1  0.488000  0.299800  0.771500  1.0  0.1086
  C  C552  1  0.456500  0.329500  0.587800  1.0  0.0956
  C  C553  1  0.505000  0.330700  0.530200  1.0  -0.2136
  C  C554  1  0.880700  0.168500  0.965000  1.0  0.1624
  C  C555  1  0.395600  0.747500  0.232600  1.0  0.1165
  C  C556  1  0.395300  0.721890  0.163900  1.0  -0.1016
  C  C557  1  0.358400  0.716290  0.063900  1.0  -0.0866
  C  C558  1  0.321800  0.736300  0.032600  1.0  -0.1797
  C  C559  1  0.322100  0.761910  0.101300  1.0  0.1152
  C  C560  1  0.353600  0.689900  0.973000  1.0  0.3496
  C  C561  1  0.327000  0.670600  0.923000  1.0  0.119
  C  C562  1  0.359600  0.647100  0.859700  1.0  0.0183
  C  C563  1  0.326300  0.642300  0.749700  1.0  -0.1869
  C  C564  1  0.332100  0.618700  0.666500  1.0  0.1145
  C  C565  1  0.404600  0.604700  0.803300  1.0  0.1195
  C  C566  1  0.398800  0.628300  0.886500  1.0  -0.1442
  C  C567  1  0.129800  0.802000  0.542000  1.0  -0.2471
  C  C568  1  0.262800  0.788340  0.447700  1.0  0.1142
  C  C569  1  0.213300  0.787850  0.499400  1.0  -0.232
  C  C570  1  0.178900  0.808500  0.460200  1.0  -0.0933
  C  C571  1  0.193900  0.829600  0.369500  1.0  -0.1046
  C  C572  1  0.243300  0.830110  0.317800  1.0  0.1021
  C  C573  1  0.090500  0.816400  0.529000  1.0  -0.1214
  C  C574  1  0.045000  0.816500  0.593200  1.0  0.1116
  C  C575  1  0.036500  0.801000  0.713900  1.0  -0.233
  C  C576  1  0.988000  0.799800  0.771500  1.0  0.1103
  C  C577  1  0.956500  0.829500  0.587800  1.0  0.0956
  C  C578  1  0.005000  0.830700  0.530200  1.0  -0.2136
  C  C579  1  0.380700  0.668500  0.965000  1.0  0.1624
  C  C580  1  0.395600  0.247500  0.732600  1.0  0.1165
  C  C581  1  0.395300  0.221890  0.663900  1.0  -0.1016
  C  C582  1  0.358400  0.216290  0.563900  1.0  -0.0866
  C  C583  1  0.321800  0.236300  0.532600  1.0  -0.1797
  C  C584  1  0.322100  0.261910  0.601300  1.0  0.1152
  C  C585  1  0.353600  0.189900  0.473000  1.0  0.3496
  C  C586  1  0.327000  0.170600  0.423000  1.0  0.119
  C  C587  1  0.359600  0.147100  0.359700  1.0  0.0183
  C  C588  1  0.326300  0.142300  0.249700  1.0  -0.1869
  C  C589  1  0.332100  0.118700  0.166500  1.0  0.1145
  C  C590  1  0.404600  0.104700  0.303300  1.0  0.1195
  C  C591  1  0.398800  0.128300  0.386500  1.0  -0.1442
  C  C592  1  0.129800  0.302000  0.042000  1.0  -0.2471
  C  C593  1  0.262800  0.288340  0.947700  1.0  0.1142
  C  C594  1  0.213300  0.287850  0.999400  1.0  -0.232
  C  C595  1  0.178900  0.308500  0.960200  1.0  -0.0933
  C  C596  1  0.193900  0.329600  0.869500  1.0  -0.1046
  C  C597  1  0.243300  0.330110  0.817800  1.0  0.1021
  C  C598  1  0.090500  0.316400  0.029000  1.0  -0.1214
  C  C599  1  0.045000  0.316500  0.093200  1.0  0.1116
  C  C600  1  0.036500  0.301000  0.213900  1.0  -0.233
  C  C601  1  0.988000  0.299800  0.271500  1.0  0.1103
  C  C602  1  0.956500  0.329500  0.087800  1.0  0.0956
  C  C603  1  0.005000  0.330700  0.030200  1.0  -0.2136
  C  C604  1  0.380700  0.168500  0.465000  1.0  0.1624
  C  C605  1  0.354400  0.997500  0.982600  1.0  0.1166
  C  C606  1  0.354700  0.971890  0.913900  1.0  -0.1029
  C  C607  1  0.391600  0.966290  0.813900  1.0  -0.0862
  C  C608  1  0.428200  0.986300  0.782600  1.0  -0.1798
  C  C609  1  0.427900  0.011910  0.851300  1.0  0.1157
  C  C610  1  0.396400  0.939900  0.723000  1.0  0.35
  C  C611  1  0.423000  0.920600  0.673000  1.0  0.1264
  C  C612  1  0.390400  0.897100  0.609700  1.0  0.0186
  C  C613  1  0.423700  0.892300  0.499700  1.0  -0.186
  C  C614  1  0.417900  0.868700  0.416500  1.0  0.1146
  C  C615  1  0.345400  0.854700  0.553300  1.0  0.1195
  C  C616  1  0.351200  0.878300  0.636500  1.0  -0.1434
  C  C617  1  0.620200  0.052000  0.292000  1.0  -0.2453
  C  C618  1  0.487200  0.038340  0.197700  1.0  0.1128
  C  C619  1  0.536700  0.037850  0.249400  1.0  -0.2311
  C  C620  1  0.571100  0.058500  0.210200  1.0  -0.0943
  C  C621  1  0.556100  0.079600  0.119500  1.0  -0.1057
  C  C622  1  0.506700  0.080110  0.067800  1.0  0.1041
  C  C623  1  0.659500  0.066400  0.279000  1.0  -0.1208
  C  C624  1  0.705000  0.066500  0.343200  1.0  0.112
  C  C625  1  0.713500  0.051000  0.463900  1.0  -0.2329
  C  C626  1  0.762000  0.049800  0.521500  1.0  0.1081
  C  C627  1  0.793500  0.079500  0.337800  1.0  0.0959
  C  C628  1  0.745000  0.080700  0.280200  1.0  -0.2147
  C  C629  1  0.369300  0.918500  0.715000  1.0  0.1615
  C  C630  1  0.354400  0.497500  0.482600  1.0  0.1166
  C  C631  1  0.354700  0.471890  0.413900  1.0  -0.1029
  C  C632  1  0.391600  0.466290  0.313900  1.0  -0.0862
  C  C633  1  0.428200  0.486300  0.282600  1.0  -0.1798
  C  C634  1  0.427900  0.511910  0.351300  1.0  0.1157
  C  C635  1  0.396400  0.439900  0.223000  1.0  0.35
  C  C636  1  0.423000  0.420600  0.173000  1.0  0.1264
  C  C637  1  0.390400  0.397100  0.109700  1.0  0.0186
  C  C638  1  0.423700  0.392300  0.999700  1.0  -0.186
  C  C639  1  0.417900  0.368700  0.916500  1.0  0.1146
  C  C640  1  0.345400  0.354700  0.053300  1.0  0.1195
  C  C641  1  0.351200  0.378300  0.136500  1.0  -0.1434
  C  C642  1  0.620200  0.552000  0.792000  1.0  -0.2453
  C  C643  1  0.487200  0.538340  0.697700  1.0  0.1128
  C  C644  1  0.536700  0.537850  0.749400  1.0  -0.2311
  C  C645  1  0.571100  0.558500  0.710200  1.0  -0.0943
  C  C646  1  0.556100  0.579600  0.619500  1.0  -0.1057
  C  C647  1  0.506700  0.580110  0.567800  1.0  0.1041
  C  C648  1  0.659500  0.566400  0.779000  1.0  -0.1208
  C  C649  1  0.705000  0.566500  0.843200  1.0  0.112
  C  C650  1  0.713500  0.551000  0.963900  1.0  -0.2329
  C  C651  1  0.762000  0.549800  0.021500  1.0  0.1081
  C  C652  1  0.793500  0.579500  0.837800  1.0  0.0959
  C  C653  1  0.745000  0.580700  0.780200  1.0  -0.2147
  C  C654  1  0.369300  0.418500  0.215000  1.0  0.1615
  C  C655  1  0.854400  0.997500  0.482600  1.0  0.1166
  C  C656  1  0.854700  0.971890  0.413900  1.0  -0.1029
  C  C657  1  0.891600  0.966290  0.313900  1.0  -0.0862
  C  C658  1  0.928200  0.986300  0.282600  1.0  -0.1798
  C  C659  1  0.927900  0.011910  0.351300  1.0  0.1157
  C  C660  1  0.896400  0.939900  0.223000  1.0  0.35
  C  C661  1  0.923000  0.920600  0.173000  1.0  0.1264
  C  C662  1  0.890400  0.897100  0.109700  1.0  0.0186
  C  C663  1  0.923700  0.892300  0.999700  1.0  -0.186
  C  C664  1  0.917900  0.868700  0.916500  1.0  0.1146
  C  C665  1  0.845400  0.854700  0.053300  1.0  0.1195
  C  C666  1  0.851200  0.878300  0.136500  1.0  -0.1434
  C  C667  1  0.120200  0.052000  0.792000  1.0  -0.2453
  C  C668  1  0.987200  0.038340  0.697700  1.0  0.1128
  C  C669  1  0.036700  0.037850  0.749400  1.0  -0.2311
  C  C670  1  0.071100  0.058500  0.710200  1.0  -0.0943
  C  C671  1  0.056100  0.079600  0.619500  1.0  -0.1057
  C  C672  1  0.006700  0.080110  0.567800  1.0  0.1041
  C  C673  1  0.159500  0.066400  0.779000  1.0  -0.1208
  C  C674  1  0.205000  0.066500  0.843200  1.0  0.112
  C  C675  1  0.213500  0.051000  0.963900  1.0  -0.2329
  C  C676  1  0.262000  0.049800  0.021500  1.0  0.1099
  C  C677  1  0.293500  0.079500  0.837800  1.0  0.0959
  C  C678  1  0.245000  0.080700  0.780200  1.0  -0.2147
  C  C679  1  0.869300  0.918500  0.215000  1.0  0.1615
  C  C680  1  0.854400  0.497500  0.982600  1.0  0.1166
  C  C681  1  0.854700  0.471890  0.913900  1.0  -0.1029
  C  C682  1  0.891600  0.466290  0.813900  1.0  -0.0862
  C  C683  1  0.928200  0.486300  0.782600  1.0  -0.1798
  C  C684  1  0.927900  0.511910  0.851300  1.0  0.1157
  C  C685  1  0.896400  0.439900  0.723000  1.0  0.35
  C  C686  1  0.923000  0.420600  0.673000  1.0  0.1264
  C  C687  1  0.890400  0.397100  0.609700  1.0  0.0186
  C  C688  1  0.923700  0.392300  0.499700  1.0  -0.186
  C  C689  1  0.917900  0.368700  0.416500  1.0  0.1146
  C  C690  1  0.845400  0.354700  0.553300  1.0  0.1195
  C  C691  1  0.851200  0.378300  0.636500  1.0  -0.1434
  C  C692  1  0.120200  0.552000  0.292000  1.0  -0.2453
  C  C693  1  0.987200  0.538340  0.197700  1.0  0.1128
  C  C694  1  0.036700  0.537850  0.249400  1.0  -0.2311
  C  C695  1  0.071100  0.558500  0.210200  1.0  -0.0943
  C  C696  1  0.056100  0.579600  0.119500  1.0  -0.1057
  C  C697  1  0.006700  0.580110  0.067800  1.0  0.1041
  C  C698  1  0.159500  0.566400  0.279000  1.0  -0.1208
  C  C699  1  0.205000  0.566500  0.343200  1.0  0.112
  C  C700  1  0.213500  0.551000  0.463900  1.0  -0.2329
  C  C701  1  0.262000  0.549800  0.521500  1.0  0.1099
  C  C702  1  0.293500  0.579500  0.337800  1.0  0.0959
  C  C703  1  0.245000  0.580700  0.280200  1.0  -0.2147
  C  C704  1  0.869300  0.418500  0.715000  1.0  0.1615
  N  N705  1  0.141000  0.232490  0.701300  1.0  -0.4002
  N  N706  1  0.128700  0.400100  0.193300  1.0  -0.4083
  N  N707  1  0.222200  0.190530  0.857000  1.0  -0.3924
  N  N708  1  0.552000  0.186000  0.208500  1.0  -0.4003
  N  N709  1  0.141000  0.732490  0.201300  1.0  -0.4002
  N  N710  1  0.128700  0.900100  0.693300  1.0  -0.4083
  N  N711  1  0.222200  0.690530  0.357000  1.0  -0.3924
  N  N712  1  0.552000  0.686000  0.708500  1.0  -0.4003
  N  N713  1  0.641000  0.232490  0.201300  1.0  -0.4002
  N  N714  1  0.628700  0.400100  0.693300  1.0  -0.4083
  N  N715  1  0.722200  0.190530  0.357000  1.0  -0.3924
  N  N716  1  0.052000  0.186000  0.708500  1.0  -0.4003
  N  N717  1  0.641000  0.732490  0.701300  1.0  -0.4002
  N  N718  1  0.628700  0.900100  0.193300  1.0  -0.4083
  N  N719  1  0.722200  0.690530  0.857000  1.0  -0.3924
  N  N720  1  0.052000  0.686000  0.208500  1.0  -0.4003
  N  N721  1  0.109000  0.482490  0.951300  1.0  -0.4
  N  N722  1  0.121300  0.650100  0.443300  1.0  -0.4088
  N  N723  1  0.027800  0.440530  0.107000  1.0  -0.3925
  N  N724  1  0.698000  0.436000  0.458500  1.0  -0.4004
  N  N725  1  0.109000  0.982490  0.451300  1.0  -0.4
  N  N726  1  0.121300  0.150100  0.943300  1.0  -0.4088
  N  N727  1  0.027800  0.940530  0.607000  1.0  -0.3925
  N  N728  1  0.698000  0.936000  0.958500  1.0  -0.4004
  N  N729  1  0.609000  0.482490  0.451300  1.0  -0.4
  N  N730  1  0.621300  0.650100  0.943300  1.0  -0.4088
  N  N731  1  0.527800  0.440530  0.607000  1.0  -0.3925
  N  N732  1  0.198000  0.436000  0.958500  1.0  -0.4004
  N  N733  1  0.609000  0.982490  0.951300  1.0  -0.4
  N  N734  1  0.621300  0.150100  0.443300  1.0  -0.4088
  N  N735  1  0.527800  0.940530  0.107000  1.0  -0.3925
  N  N736  1  0.198000  0.936000  0.458500  1.0  -0.4004
  N  N737  1  0.859000  0.767510  0.701300  1.0  -0.4008
  N  N738  1  0.871300  0.599900  0.193300  1.0  -0.4053
  N  N739  1  0.777800  0.809470  0.857000  1.0  -0.3925
  N  N740  1  0.448000  0.814000  0.208500  1.0  -0.4006
  N  N741  1  0.859000  0.267510  0.201300  1.0  -0.4008
  N  N742  1  0.871300  0.099900  0.693300  1.0  -0.4053
  N  N743  1  0.777800  0.309470  0.357000  1.0  -0.3925
  N  N744  1  0.448000  0.314000  0.708500  1.0  -0.4006
  N  N745  1  0.359000  0.767510  0.201300  1.0  -0.4008
  N  N746  1  0.371300  0.599900  0.693300  1.0  -0.4053
  N  N747  1  0.277800  0.809470  0.357000  1.0  -0.3925
  N  N748  1  0.948000  0.814000  0.708500  1.0  -0.4006
  N  N749  1  0.359000  0.267510  0.701300  1.0  -0.4008
  N  N750  1  0.371300  0.099900  0.193300  1.0  -0.4053
  N  N751  1  0.277800  0.309470  0.857000  1.0  -0.3925
  N  N752  1  0.948000  0.314000  0.208500  1.0  -0.4006
  N  N753  1  0.391000  0.017510  0.951300  1.0  -0.4009
  N  N754  1  0.378700  0.849900  0.443300  1.0  -0.4044
  N  N755  1  0.472200  0.059470  0.107000  1.0  -0.3924
  N  N756  1  0.802000  0.064000  0.458500  1.0  -0.4003
  N  N757  1  0.391000  0.517510  0.451300  1.0  -0.4009
  N  N758  1  0.378700  0.349900  0.943300  1.0  -0.4044
  N  N759  1  0.472200  0.559470  0.607000  1.0  -0.3924
  N  N760  1  0.802000  0.564000  0.958500  1.0  -0.4003
  N  N761  1  0.891000  0.017510  0.451300  1.0  -0.4009
  N  N762  1  0.878700  0.849900  0.943300  1.0  -0.4044
  N  N763  1  0.972200  0.059470  0.607000  1.0  -0.3924
  N  N764  1  0.302000  0.064000  0.958500  1.0  -0.4003
  N  N765  1  0.891000  0.517510  0.951300  1.0  -0.4009
  N  N766  1  0.878700  0.349900  0.443300  1.0  -0.4044
  N  N767  1  0.972200  0.559470  0.107000  1.0  -0.3924
  N  N768  1  0.302000  0.564000  0.458500  1.0  -0.4003
