# generated using pymatgen
data_Zr12H72Ir3C144N12(Cl3O20)2
_symmetry_space_group_name_H-M   'P 1'
_cell_length_a   38.39370000
_cell_length_b   38.39370000
_cell_length_c   38.39370000
_cell_angle_alpha   90.00000000
_cell_angle_beta   90.00000000
_cell_angle_gamma   90.00000000
_symmetry_Int_Tables_number   1
_chemical_formula_structural   Zr12H72Ir3C144N12(Cl3O20)2
_chemical_formula_sum   'Zr48 H288 Ir12 C576 N48 Cl24 O160'
_cell_volume   56595.23938804
_cell_formula_units_Z   4
loop_
 _symmetry_equiv_pos_site_id
 _symmetry_equiv_pos_as_xyz
  1  'x, y, z'
loop_
 _atom_site_type_symbol
 _atom_site_label
 _atom_site_symmetry_multiplicity
 _atom_site_fract_x
 _atom_site_fract_y
 _atom_site_fract_z
 _atom_site_occupancy
 _atom_site_charge
  Zr  Zr1  1  0.706940  0.771360  0.293060  1.0  1.8973
  Zr  Zr2  1  0.206940  0.271360  0.793060  1.0  1.8973
  Zr  Zr3  1  0.293060  0.228640  0.293060  1.0  1.8962
  Zr  Zr4  1  0.793060  0.728640  0.793060  1.0  1.8962
  Zr  Zr5  1  0.293060  0.771360  0.706940  1.0  1.9017
  Zr  Zr6  1  0.793060  0.271360  0.206940  1.0  1.9017
  Zr  Zr7  1  0.706940  0.228640  0.706940  1.0  1.9019
  Zr  Zr8  1  0.206940  0.728640  0.206940  1.0  1.9019
  Zr  Zr9  1  0.293060  0.706940  0.771360  1.0  1.907
  Zr  Zr10  1  0.793060  0.206940  0.271360  1.0  1.907
  Zr  Zr11  1  0.293060  0.293060  0.228640  1.0  1.9069
  Zr  Zr12  1  0.793060  0.793060  0.728640  1.0  1.9069
  Zr  Zr13  1  0.706940  0.293060  0.771360  1.0  1.907
  Zr  Zr14  1  0.206940  0.793060  0.271360  1.0  1.907
  Zr  Zr15  1  0.706940  0.706940  0.228640  1.0  1.9093
  Zr  Zr16  1  0.206940  0.206940  0.728640  1.0  1.9093
  Zr  Zr17  1  0.771360  0.293060  0.706940  1.0  1.9032
  Zr  Zr18  1  0.271360  0.793060  0.206940  1.0  1.9032
  Zr  Zr19  1  0.228640  0.293060  0.293060  1.0  1.8991
  Zr  Zr20  1  0.728640  0.793060  0.793060  1.0  1.8991
  Zr  Zr21  1  0.771360  0.706940  0.293060  1.0  1.8992
  Zr  Zr22  1  0.271360  0.206940  0.793060  1.0  1.8992
  Zr  Zr23  1  0.228640  0.706940  0.706940  1.0  1.9057
  Zr  Zr24  1  0.728640  0.206940  0.206940  1.0  1.9057
  Zr  Zr25  1  0.771360  0.706940  0.706940  1.0  1.9049
  Zr  Zr26  1  0.271360  0.206940  0.206940  1.0  1.9049
  Zr  Zr27  1  0.228640  0.293060  0.706940  1.0  1.9041
  Zr  Zr28  1  0.728640  0.793060  0.206940  1.0  1.9041
  Zr  Zr29  1  0.771360  0.293060  0.293060  1.0  1.8968
  Zr  Zr30  1  0.271360  0.793060  0.793060  1.0  1.8968
  Zr  Zr31  1  0.228640  0.706940  0.293060  1.0  1.9007
  Zr  Zr32  1  0.728640  0.206940  0.793060  1.0  1.9007
  Zr  Zr33  1  0.706940  0.293060  0.228640  1.0  1.9068
  Zr  Zr34  1  0.206940  0.793060  0.728640  1.0  1.9068
  Zr  Zr35  1  0.293060  0.293060  0.771360  1.0  1.9071
  Zr  Zr36  1  0.793060  0.793060  0.271360  1.0  1.9071
  Zr  Zr37  1  0.293060  0.706940  0.228640  1.0  1.9082
  Zr  Zr38  1  0.793060  0.206940  0.728640  1.0  1.9082
  Zr  Zr39  1  0.706940  0.706940  0.771360  1.0  1.908
  Zr  Zr40  1  0.206940  0.206940  0.271360  1.0  1.908
  Zr  Zr41  1  0.293060  0.771360  0.293060  1.0  1.8967
  Zr  Zr42  1  0.793060  0.271360  0.793060  1.0  1.8967
  Zr  Zr43  1  0.293060  0.228640  0.706940  1.0  1.9016
  Zr  Zr44  1  0.793060  0.728640  0.206940  1.0  1.9016
  Zr  Zr45  1  0.706940  0.771360  0.706940  1.0  1.9022
  Zr  Zr46  1  0.206940  0.271360  0.206940  1.0  1.9022
  Zr  Zr47  1  0.706940  0.228640  0.293060  1.0  1.8965
  Zr  Zr48  1  0.206940  0.728640  0.793060  1.0  1.8965
  H  H49  1  0.645000  0.870300  0.199200  1.0  0.109
  H  H50  1  0.603900  0.915300  0.199800  1.0  0.1108
  H  H51  1  0.532100  0.870700  0.247500  1.0  0.1151
  H  H52  1  0.145000  0.370300  0.699200  1.0  0.109
  H  H53  1  0.103900  0.415300  0.699800  1.0  0.1108
  H  H54  1  0.032100  0.370700  0.747500  1.0  0.1151
  H  H55  1  0.355000  0.129700  0.199200  1.0  0.1088
  H  H56  1  0.396100  0.084700  0.199800  1.0  0.1109
  H  H57  1  0.467900  0.129300  0.247500  1.0  0.1157
  H  H58  1  0.855000  0.629700  0.699200  1.0  0.1088
  H  H59  1  0.896100  0.584700  0.699800  1.0  0.1109
  H  H60  1  0.967900  0.629300  0.747500  1.0  0.1157
  H  H61  1  0.355000  0.870300  0.800800  1.0  0.1086
  H  H62  1  0.396100  0.915300  0.800200  1.0  0.1103
  H  H63  1  0.467900  0.870700  0.752500  1.0  0.1155
  H  H64  1  0.855000  0.370300  0.300800  1.0  0.1086
  H  H65  1  0.896100  0.415300  0.300200  1.0  0.1103
  H  H66  1  0.967900  0.370700  0.252500  1.0  0.1155
  H  H67  1  0.645000  0.129700  0.800800  1.0  0.1084
  H  H68  1  0.603900  0.084700  0.800200  1.0  0.11
  H  H69  1  0.532100  0.129300  0.752500  1.0  0.1155
  H  H70  1  0.145000  0.629700  0.300800  1.0  0.1084
  H  H71  1  0.103900  0.584700  0.300200  1.0  0.11
  H  H72  1  0.032100  0.629300  0.252500  1.0  0.1155
  H  H73  1  0.199200  0.645000  0.870300  1.0  0.1079
  H  H74  1  0.199800  0.603900  0.915300  1.0  0.1098
  H  H75  1  0.247500  0.532100  0.870700  1.0  0.1148
  H  H76  1  0.699200  0.145000  0.370300  1.0  0.1079
  H  H77  1  0.699800  0.103900  0.415300  1.0  0.1098
  H  H78  1  0.747500  0.032100  0.370700  1.0  0.1148
  H  H79  1  0.199200  0.355000  0.129700  1.0  0.1079
  H  H80  1  0.199800  0.396100  0.084700  1.0  0.1107
  H  H81  1  0.247500  0.467900  0.129300  1.0  0.1152
  H  H82  1  0.699200  0.855000  0.629700  1.0  0.1079
  H  H83  1  0.699800  0.896100  0.584700  1.0  0.1107
  H  H84  1  0.747500  0.967900  0.629300  1.0  0.1152
  H  H85  1  0.800800  0.355000  0.870300  1.0  0.1082
  H  H86  1  0.800200  0.396100  0.915300  1.0  0.1089
  H  H87  1  0.752500  0.467900  0.870700  1.0  0.1146
  H  H88  1  0.300800  0.855000  0.370300  1.0  0.1082
  H  H89  1  0.300200  0.896100  0.415300  1.0  0.1089
  H  H90  1  0.252500  0.967900  0.370700  1.0  0.1146
  H  H91  1  0.800800  0.645000  0.129700  1.0  0.1082
  H  H92  1  0.800200  0.603900  0.084700  1.0  0.1095
  H  H93  1  0.752500  0.532100  0.129300  1.0  0.1151
  H  H94  1  0.300800  0.145000  0.629700  1.0  0.1082
  H  H95  1  0.300200  0.103900  0.584700  1.0  0.1095
  H  H96  1  0.252500  0.032100  0.629300  1.0  0.1151
  H  H97  1  0.870300  0.199200  0.645000  1.0  0.1081
  H  H98  1  0.915300  0.199800  0.603900  1.0  0.1101
  H  H99  1  0.870700  0.247500  0.532100  1.0  0.115
  H  H100  1  0.370300  0.699200  0.145000  1.0  0.1081
  H  H101  1  0.415300  0.699800  0.103900  1.0  0.1101
  H  H102  1  0.370700  0.747500  0.032100  1.0  0.115
  H  H103  1  0.129700  0.199200  0.355000  1.0  0.1074
  H  H104  1  0.084700  0.199800  0.396100  1.0  0.11
  H  H105  1  0.129300  0.247500  0.467900  1.0  0.1153
  H  H106  1  0.629700  0.699200  0.855000  1.0  0.1074
  H  H107  1  0.584700  0.699800  0.896100  1.0  0.11
  H  H108  1  0.629300  0.747500  0.967900  1.0  0.1153
  H  H109  1  0.870300  0.800800  0.355000  1.0  0.1087
  H  H110  1  0.915300  0.800200  0.396100  1.0  0.1099
  H  H111  1  0.870700  0.752500  0.467900  1.0  0.1157
  H  H112  1  0.370300  0.300800  0.855000  1.0  0.1087
  H  H113  1  0.415300  0.300200  0.896100  1.0  0.1099
  H  H114  1  0.370700  0.252500  0.967900  1.0  0.1157
  H  H115  1  0.129700  0.800800  0.645000  1.0  0.1081
  H  H116  1  0.084700  0.800200  0.603900  1.0  0.1103
  H  H117  1  0.129300  0.752500  0.532100  1.0  0.1148
  H  H118  1  0.629700  0.300800  0.145000  1.0  0.1081
  H  H119  1  0.584700  0.300200  0.103900  1.0  0.1103
  H  H120  1  0.629300  0.252500  0.032100  1.0  0.1148
  H  H121  1  0.870300  0.645000  0.800800  1.0  0.108
  H  H122  1  0.915300  0.603900  0.800200  1.0  0.1103
  H  H123  1  0.870700  0.532100  0.752500  1.0  0.1162
  H  H124  1  0.370300  0.145000  0.300800  1.0  0.108
  H  H125  1  0.415300  0.103900  0.300200  1.0  0.1103
  H  H126  1  0.370700  0.032100  0.252500  1.0  0.1162
  H  H127  1  0.129700  0.355000  0.800800  1.0  0.1084
  H  H128  1  0.084700  0.396100  0.800200  1.0  0.1107
  H  H129  1  0.129300  0.467900  0.752500  1.0  0.1157
  H  H130  1  0.629700  0.855000  0.300800  1.0  0.1084
  H  H131  1  0.584700  0.896100  0.300200  1.0  0.1107
  H  H132  1  0.629300  0.967900  0.252500  1.0  0.1157
  H  H133  1  0.870300  0.355000  0.199200  1.0  0.1089
  H  H134  1  0.915300  0.396100  0.199800  1.0  0.1112
  H  H135  1  0.870700  0.467900  0.247500  1.0  0.1162
  H  H136  1  0.370300  0.855000  0.699200  1.0  0.1089
  H  H137  1  0.415300  0.896100  0.699800  1.0  0.1112
  H  H138  1  0.370700  0.967900  0.747500  1.0  0.1162
  H  H139  1  0.129700  0.645000  0.199200  1.0  0.1085
  H  H140  1  0.084700  0.603900  0.199800  1.0  0.111
  H  H141  1  0.129300  0.532100  0.247500  1.0  0.1157
  H  H142  1  0.629700  0.145000  0.699200  1.0  0.1085
  H  H143  1  0.584700  0.103900  0.699800  1.0  0.111
  H  H144  1  0.629300  0.032100  0.747500  1.0  0.1157
  H  H145  1  0.645000  0.199200  0.129700  1.0  0.1081
  H  H146  1  0.603900  0.199800  0.084700  1.0  0.1092
  H  H147  1  0.532100  0.247500  0.129300  1.0  0.1159
  H  H148  1  0.145000  0.699200  0.629700  1.0  0.1081
  H  H149  1  0.103900  0.699800  0.584700  1.0  0.1092
  H  H150  1  0.032100  0.747500  0.629300  1.0  0.1159
  H  H151  1  0.355000  0.199200  0.870300  1.0  0.1077
  H  H152  1  0.396100  0.199800  0.915300  1.0  0.1092
  H  H153  1  0.467900  0.247500  0.870700  1.0  0.1156
  H  H154  1  0.855000  0.699200  0.370300  1.0  0.1077
  H  H155  1  0.896100  0.699800  0.415300  1.0  0.1092
  H  H156  1  0.967900  0.747500  0.370700  1.0  0.1156
  H  H157  1  0.355000  0.800800  0.129700  1.0  0.1085
  H  H158  1  0.396100  0.800200  0.084700  1.0  0.1104
  H  H159  1  0.467900  0.752500  0.129300  1.0  0.1155
  H  H160  1  0.855000  0.300800  0.629700  1.0  0.1085
  H  H161  1  0.896100  0.300200  0.584700  1.0  0.1104
  H  H162  1  0.967900  0.252500  0.629300  1.0  0.1155
  H  H163  1  0.645000  0.800800  0.870300  1.0  0.1086
  H  H164  1  0.603900  0.800200  0.915300  1.0  0.1087
  H  H165  1  0.532100  0.752500  0.870700  1.0  0.1154
  H  H166  1  0.145000  0.300800  0.370300  1.0  0.1086
  H  H167  1  0.103900  0.300200  0.415300  1.0  0.1087
  H  H168  1  0.032100  0.252500  0.370700  1.0  0.1154
  H  H169  1  0.199200  0.870300  0.355000  1.0  0.1079
  H  H170  1  0.199800  0.915300  0.396100  1.0  0.1108
  H  H171  1  0.247500  0.870700  0.467900  1.0  0.1146
  H  H172  1  0.699200  0.370300  0.855000  1.0  0.1079
  H  H173  1  0.699800  0.415300  0.896100  1.0  0.1108
  H  H174  1  0.747500  0.370700  0.967900  1.0  0.1146
  H  H175  1  0.199200  0.129700  0.645000  1.0  0.1082
  H  H176  1  0.199800  0.084700  0.603900  1.0  0.1113
  H  H177  1  0.247500  0.129300  0.532100  1.0  0.114
  H  H178  1  0.699200  0.629700  0.145000  1.0  0.1082
  H  H179  1  0.699800  0.584700  0.103900  1.0  0.1113
  H  H180  1  0.747500  0.629300  0.032100  1.0  0.114
  H  H181  1  0.800800  0.870300  0.645000  1.0  0.1081
  H  H182  1  0.800200  0.915300  0.603900  1.0  0.1102
  H  H183  1  0.752500  0.870700  0.532100  1.0  0.1141
  H  H184  1  0.300800  0.370300  0.145000  1.0  0.1081
  H  H185  1  0.300200  0.415300  0.103900  1.0  0.1102
  H  H186  1  0.252500  0.370700  0.032100  1.0  0.1141
  H  H187  1  0.800800  0.129700  0.355000  1.0  0.1083
  H  H188  1  0.800200  0.084700  0.396100  1.0  0.1097
  H  H189  1  0.752500  0.129300  0.467900  1.0  0.1151
  H  H190  1  0.300800  0.629700  0.855000  1.0  0.1083
  H  H191  1  0.300200  0.584700  0.896100  1.0  0.1097
  H  H192  1  0.252500  0.629300  0.967900  1.0  0.1151
  H  H193  1  0.355000  0.129700  0.800800  1.0  0.1086
  H  H194  1  0.396100  0.084700  0.800200  1.0  0.1104
  H  H195  1  0.467900  0.129300  0.752500  1.0  0.1158
  H  H196  1  0.855000  0.629700  0.300800  1.0  0.1086
  H  H197  1  0.896100  0.584700  0.300200  1.0  0.1104
  H  H198  1  0.967900  0.629300  0.252500  1.0  0.1158
  H  H199  1  0.645000  0.870300  0.800800  1.0  0.1083
  H  H200  1  0.603900  0.915300  0.800200  1.0  0.1098
  H  H201  1  0.532100  0.870700  0.752500  1.0  0.1153
  H  H202  1  0.145000  0.370300  0.300800  1.0  0.1083
  H  H203  1  0.103900  0.415300  0.300200  1.0  0.1098
  H  H204  1  0.032100  0.370700  0.252500  1.0  0.1153
  H  H205  1  0.645000  0.129700  0.199200  1.0  0.1089
  H  H206  1  0.603900  0.084700  0.199800  1.0  0.1105
  H  H207  1  0.532100  0.129300  0.247500  1.0  0.1155
  H  H208  1  0.145000  0.629700  0.699200  1.0  0.1089
  H  H209  1  0.103900  0.584700  0.699800  1.0  0.1105
  H  H210  1  0.032100  0.629300  0.747500  1.0  0.1155
  H  H211  1  0.355000  0.870300  0.199200  1.0  0.1089
  H  H212  1  0.396100  0.915300  0.199800  1.0  0.1111
  H  H213  1  0.467900  0.870700  0.247500  1.0  0.1153
  H  H214  1  0.855000  0.370300  0.699200  1.0  0.1089
  H  H215  1  0.896100  0.415300  0.699800  1.0  0.1111
  H  H216  1  0.967900  0.370700  0.747500  1.0  0.1153
  H  H217  1  0.800800  0.355000  0.129700  1.0  0.108
  H  H218  1  0.800200  0.396100  0.084700  1.0  0.1096
  H  H219  1  0.752500  0.467900  0.129300  1.0  0.1153
  H  H220  1  0.300800  0.855000  0.629700  1.0  0.108
  H  H221  1  0.300200  0.896100  0.584700  1.0  0.1096
  H  H222  1  0.252500  0.967900  0.629300  1.0  0.1153
  H  H223  1  0.800800  0.645000  0.870300  1.0  0.1083
  H  H224  1  0.800200  0.603900  0.915300  1.0  0.1086
  H  H225  1  0.752500  0.532100  0.870700  1.0  0.1147
  H  H226  1  0.300800  0.145000  0.370300  1.0  0.1083
  H  H227  1  0.300200  0.103900  0.415300  1.0  0.1086
  H  H228  1  0.252500  0.032100  0.370700  1.0  0.1147
  H  H229  1  0.199200  0.645000  0.129700  1.0  0.1077
  H  H230  1  0.199800  0.603900  0.084700  1.0  0.1106
  H  H231  1  0.247500  0.532100  0.129300  1.0  0.1151
  H  H232  1  0.699200  0.145000  0.629700  1.0  0.1077
  H  H233  1  0.699800  0.103900  0.584700  1.0  0.1106
  H  H234  1  0.747500  0.032100  0.629300  1.0  0.1151
  H  H235  1  0.199200  0.355000  0.870300  1.0  0.1081
  H  H236  1  0.199800  0.396100  0.915300  1.0  0.1101
  H  H237  1  0.247500  0.467900  0.870700  1.0  0.1147
  H  H238  1  0.699200  0.855000  0.370300  1.0  0.1081
  H  H239  1  0.699800  0.896100  0.415300  1.0  0.1101
  H  H240  1  0.747500  0.967900  0.370700  1.0  0.1147
  H  H241  1  0.129700  0.800800  0.355000  1.0  0.1081
  H  H242  1  0.084700  0.800200  0.396100  1.0  0.1101
  H  H243  1  0.129300  0.752500  0.467900  1.0  0.1153
  H  H244  1  0.629700  0.300800  0.855000  1.0  0.1081
  H  H245  1  0.584700  0.300200  0.896100  1.0  0.1101
  H  H246  1  0.629300  0.252500  0.967900  1.0  0.1153
  H  H247  1  0.870300  0.800800  0.645000  1.0  0.1086
  H  H248  1  0.915300  0.800200  0.603900  1.0  0.11
  H  H249  1  0.870700  0.752500  0.532100  1.0  0.1149
  H  H250  1  0.370300  0.300800  0.145000  1.0  0.1086
  H  H251  1  0.415300  0.300200  0.103900  1.0  0.11
  H  H252  1  0.370700  0.252500  0.032100  1.0  0.1149
  H  H253  1  0.129700  0.199200  0.645000  1.0  0.1077
  H  H254  1  0.084700  0.199800  0.603900  1.0  0.1103
  H  H255  1  0.129300  0.247500  0.532100  1.0  0.115
  H  H256  1  0.629700  0.699200  0.145000  1.0  0.1077
  H  H257  1  0.584700  0.699800  0.103900  1.0  0.1103
  H  H258  1  0.629300  0.747500  0.032100  1.0  0.115
  H  H259  1  0.870300  0.199200  0.355000  1.0  0.1078
  H  H260  1  0.915300  0.199800  0.396100  1.0  0.1099
  H  H261  1  0.870700  0.247500  0.467900  1.0  0.1157
  H  H262  1  0.370300  0.699200  0.855000  1.0  0.1078
  H  H263  1  0.415300  0.699800  0.896100  1.0  0.1099
  H  H264  1  0.370700  0.747500  0.967900  1.0  0.1157
  H  H265  1  0.129700  0.355000  0.199200  1.0  0.1084
  H  H266  1  0.084700  0.396100  0.199800  1.0  0.1113
  H  H267  1  0.129300  0.467900  0.247500  1.0  0.1157
  H  H268  1  0.629700  0.855000  0.699200  1.0  0.1084
  H  H269  1  0.584700  0.896100  0.699800  1.0  0.1113
  H  H270  1  0.629300  0.967900  0.747500  1.0  0.1157
  H  H271  1  0.870300  0.645000  0.199200  1.0  0.109
  H  H272  1  0.915300  0.603900  0.199800  1.0  0.111
  H  H273  1  0.870700  0.532100  0.247500  1.0  0.1162
  H  H274  1  0.370300  0.145000  0.699200  1.0  0.109
  H  H275  1  0.415300  0.103900  0.699800  1.0  0.111
  H  H276  1  0.370700  0.032100  0.747500  1.0  0.1162
  H  H277  1  0.129700  0.645000  0.800800  1.0  0.108
  H  H278  1  0.084700  0.603900  0.800200  1.0  0.1104
  H  H279  1  0.129300  0.532100  0.752500  1.0  0.1156
  H  H280  1  0.629700  0.145000  0.300800  1.0  0.108
  H  H281  1  0.584700  0.103900  0.300200  1.0  0.1104
  H  H282  1  0.629300  0.032100  0.252500  1.0  0.1156
  H  H283  1  0.870300  0.355000  0.800800  1.0  0.1082
  H  H284  1  0.915300  0.396100  0.800200  1.0  0.1105
  H  H285  1  0.870700  0.467900  0.752500  1.0  0.1161
  H  H286  1  0.370300  0.855000  0.300800  1.0  0.1082
  H  H287  1  0.415300  0.896100  0.300200  1.0  0.1105
  H  H288  1  0.370700  0.967900  0.252500  1.0  0.1161
  H  H289  1  0.355000  0.800800  0.870300  1.0  0.1088
  H  H290  1  0.396100  0.800200  0.915300  1.0  0.1091
  H  H291  1  0.467900  0.752500  0.870700  1.0  0.1156
  H  H292  1  0.855000  0.300800  0.370300  1.0  0.1088
  H  H293  1  0.896100  0.300200  0.415300  1.0  0.1091
  H  H294  1  0.967900  0.252500  0.370700  1.0  0.1156
  H  H295  1  0.645000  0.800800  0.129700  1.0  0.1084
  H  H296  1  0.603900  0.800200  0.084700  1.0  0.1099
  H  H297  1  0.532100  0.752500  0.129300  1.0  0.1158
  H  H298  1  0.145000  0.300800  0.629700  1.0  0.1084
  H  H299  1  0.103900  0.300200  0.584700  1.0  0.1099
  H  H300  1  0.032100  0.252500  0.629300  1.0  0.1158
  H  H301  1  0.645000  0.199200  0.870300  1.0  0.1081
  H  H302  1  0.603900  0.199800  0.915300  1.0  0.1089
  H  H303  1  0.532100  0.247500  0.870700  1.0  0.1155
  H  H304  1  0.145000  0.699200  0.370300  1.0  0.1081
  H  H305  1  0.103900  0.699800  0.415300  1.0  0.1089
  H  H306  1  0.032100  0.747500  0.370700  1.0  0.1155
  H  H307  1  0.355000  0.199200  0.129700  1.0  0.1077
  H  H308  1  0.396100  0.199800  0.084700  1.0  0.1095
  H  H309  1  0.467900  0.247500  0.129300  1.0  0.1156
  H  H310  1  0.855000  0.699200  0.629700  1.0  0.1077
  H  H311  1  0.896100  0.699800  0.584700  1.0  0.1095
  H  H312  1  0.967900  0.747500  0.629300  1.0  0.1156
  H  H313  1  0.800800  0.129700  0.645000  1.0  0.1082
  H  H314  1  0.800200  0.084700  0.603900  1.0  0.1102
  H  H315  1  0.752500  0.129300  0.532100  1.0  0.1139
  H  H316  1  0.300800  0.629700  0.145000  1.0  0.1082
  H  H317  1  0.300200  0.584700  0.103900  1.0  0.1102
  H  H318  1  0.252500  0.629300  0.032100  1.0  0.1139
  H  H319  1  0.800800  0.870300  0.355000  1.0  0.1083
  H  H320  1  0.800200  0.915300  0.396100  1.0  0.1099
  H  H321  1  0.752500  0.870700  0.467900  1.0  0.1147
  H  H322  1  0.300800  0.370300  0.855000  1.0  0.1083
  H  H323  1  0.300200  0.415300  0.896100  1.0  0.1099
  H  H324  1  0.252500  0.370700  0.967900  1.0  0.1147
  H  H325  1  0.199200  0.129700  0.355000  1.0  0.1078
  H  H326  1  0.199800  0.084700  0.396100  1.0  0.1108
  H  H327  1  0.247500  0.129300  0.467900  1.0  0.1152
  H  H328  1  0.699200  0.629700  0.855000  1.0  0.1078
  H  H329  1  0.699800  0.584700  0.896100  1.0  0.1108
  H  H330  1  0.747500  0.629300  0.967900  1.0  0.1152
  H  H331  1  0.199200  0.870300  0.645000  1.0  0.1082
  H  H332  1  0.199800  0.915300  0.603900  1.0  0.1111
  H  H333  1  0.247500  0.870700  0.532100  1.0  0.1141
  H  H334  1  0.699200  0.370300  0.145000  1.0  0.1082
  H  H335  1  0.699800  0.415300  0.103900  1.0  0.1111
  H  H336  1  0.747500  0.370700  0.032100  1.0  0.1141
  Ir  Ir337  1  0.500000  0.000000  0.250000  1.0  0.2154
  Ir  Ir338  1  0.500000  0.000000  0.750000  1.0  0.2154
  Ir  Ir339  1  0.000000  0.500000  0.250000  1.0  0.2154
  Ir  Ir340  1  0.250000  0.500000  0.000000  1.0  0.2154
  Ir  Ir341  1  0.750000  0.500000  0.000000  1.0  0.2154
  Ir  Ir342  1  0.250000  0.000000  0.500000  1.0  0.2154
  Ir  Ir343  1  0.000000  0.250000  0.500000  1.0  0.2154
  Ir  Ir344  1  0.000000  0.750000  0.500000  1.0  0.2154
  Ir  Ir345  1  0.000000  0.500000  0.750000  1.0  0.2154
  Ir  Ir346  1  0.500000  0.250000  0.000000  1.0  0.2154
  Ir  Ir347  1  0.500000  0.750000  0.000000  1.0  0.2154
  Ir  Ir348  1  0.750000  0.000000  0.500000  1.0  0.2154
  C  C349  1  0.633320  0.876170  0.220200  1.0  -0.0599
  C  C350  1  0.608390  0.902400  0.220400  1.0  -0.1525
  C  C351  1  0.528820  0.926620  0.248500  1.0  0.21
  C  C352  1  0.517430  0.890680  0.247800  1.0  -0.1757
  C  C353  1  0.133320  0.376170  0.720200  1.0  -0.0599
  C  C354  1  0.108390  0.402400  0.720400  1.0  -0.1525
  C  C355  1  0.028820  0.426620  0.748500  1.0  0.21
  C  C356  1  0.017430  0.390680  0.747800  1.0  -0.1757
  C  C357  1  0.366680  0.123830  0.220200  1.0  -0.0601
  C  C358  1  0.391610  0.097600  0.220400  1.0  -0.1529
  C  C359  1  0.471180  0.073380  0.248500  1.0  0.2093
  C  C360  1  0.482570  0.109320  0.247800  1.0  -0.1771
  C  C361  1  0.866680  0.623830  0.720200  1.0  -0.0601
  C  C362  1  0.891610  0.597600  0.720400  1.0  -0.1529
  C  C363  1  0.971180  0.573380  0.748500  1.0  0.2093
  C  C364  1  0.982570  0.609320  0.747800  1.0  -0.1771
  C  C365  1  0.366680  0.876170  0.779800  1.0  -0.0619
  C  C366  1  0.391610  0.902400  0.779600  1.0  -0.1547
  C  C367  1  0.471180  0.926620  0.751500  1.0  0.2098
  C  C368  1  0.482570  0.890680  0.752200  1.0  -0.1771
  C  C369  1  0.866680  0.376170  0.279800  1.0  -0.0619
  C  C370  1  0.891610  0.402400  0.279600  1.0  -0.1547
  C  C371  1  0.971180  0.426620  0.251500  1.0  0.2098
  C  C372  1  0.982570  0.390680  0.252200  1.0  -0.1771
  C  C373  1  0.633320  0.123830  0.779800  1.0  -0.0615
  C  C374  1  0.608390  0.097600  0.779600  1.0  -0.1554
  C  C375  1  0.528820  0.073380  0.751500  1.0  0.209
  C  C376  1  0.517430  0.109320  0.752200  1.0  -0.1761
  C  C377  1  0.133320  0.623830  0.279800  1.0  -0.0615
  C  C378  1  0.108390  0.597600  0.279600  1.0  -0.1554
  C  C379  1  0.028820  0.573380  0.251500  1.0  0.209
  C  C380  1  0.017430  0.609320  0.252200  1.0  -0.1761
  C  C381  1  0.220200  0.633320  0.876170  1.0  -0.0586
  C  C382  1  0.220400  0.608390  0.902400  1.0  -0.1595
  C  C383  1  0.248500  0.528820  0.926620  1.0  0.2104
  C  C384  1  0.247800  0.517430  0.890680  1.0  -0.1748
  C  C385  1  0.720200  0.133320  0.376170  1.0  -0.0586
  C  C386  1  0.720400  0.108390  0.402400  1.0  -0.1595
  C  C387  1  0.748500  0.028820  0.426620  1.0  0.2104
  C  C388  1  0.747800  0.017430  0.390680  1.0  -0.1748
  C  C389  1  0.220200  0.366680  0.123830  1.0  -0.0584
  C  C390  1  0.220400  0.391610  0.097600  1.0  -0.1589
  C  C391  1  0.248500  0.471180  0.073380  1.0  0.2106
  C  C392  1  0.247800  0.482570  0.109320  1.0  -0.1747
  C  C393  1  0.720200  0.866680  0.623830  1.0  -0.0584
  C  C394  1  0.720400  0.891610  0.597600  1.0  -0.1589
  C  C395  1  0.748500  0.971180  0.573380  1.0  0.2106
  C  C396  1  0.747800  0.982570  0.609320  1.0  -0.1747
  C  C397  1  0.779800  0.366680  0.876170  1.0  -0.0587
  C  C398  1  0.779600  0.391610  0.902400  1.0  -0.1574
  C  C399  1  0.751500  0.471180  0.926620  1.0  0.2098
  C  C400  1  0.752200  0.482570  0.890680  1.0  -0.175
  C  C401  1  0.279800  0.866680  0.376170  1.0  -0.0587
  C  C402  1  0.279600  0.891610  0.402400  1.0  -0.1574
  C  C403  1  0.251500  0.971180  0.426620  1.0  0.2098
  C  C404  1  0.252200  0.982570  0.390680  1.0  -0.175
  C  C405  1  0.779800  0.633320  0.123830  1.0  -0.0572
  C  C406  1  0.779600  0.608390  0.097600  1.0  -0.1582
  C  C407  1  0.751500  0.528820  0.073380  1.0  0.2112
  C  C408  1  0.752200  0.517430  0.109320  1.0  -0.1754
  C  C409  1  0.279800  0.133320  0.623830  1.0  -0.0572
  C  C410  1  0.279600  0.108390  0.597600  1.0  -0.1582
  C  C411  1  0.251500  0.028820  0.573380  1.0  0.2112
  C  C412  1  0.252200  0.017430  0.609320  1.0  -0.1754
  C  C413  1  0.876170  0.220200  0.633320  1.0  -0.0602
  C  C414  1  0.902400  0.220400  0.608390  1.0  -0.1583
  C  C415  1  0.926620  0.248500  0.528820  1.0  0.2101
  C  C416  1  0.890680  0.247800  0.517430  1.0  -0.1714
  C  C417  1  0.376170  0.720200  0.133320  1.0  -0.0602
  C  C418  1  0.402400  0.720400  0.108390  1.0  -0.1583
  C  C419  1  0.426620  0.748500  0.028820  1.0  0.2101
  C  C420  1  0.390680  0.747800  0.017430  1.0  -0.1714
  C  C421  1  0.123830  0.220200  0.366680  1.0  -0.0606
  C  C422  1  0.097600  0.220400  0.391610  1.0  -0.1581
  C  C423  1  0.073380  0.248500  0.471180  1.0  0.209
  C  C424  1  0.109320  0.247800  0.482570  1.0  -0.1735
  C  C425  1  0.623830  0.720200  0.866680  1.0  -0.0606
  C  C426  1  0.597600  0.720400  0.891610  1.0  -0.1581
  C  C427  1  0.573380  0.748500  0.971180  1.0  0.209
  C  C428  1  0.609320  0.747800  0.982570  1.0  -0.1735
  C  C429  1  0.876170  0.779800  0.366680  1.0  -0.0592
  C  C430  1  0.902400  0.779600  0.391610  1.0  -0.1559
  C  C431  1  0.926620  0.751500  0.471180  1.0  0.2097
  C  C432  1  0.890680  0.752200  0.482570  1.0  -0.1709
  C  C433  1  0.376170  0.279800  0.866680  1.0  -0.0592
  C  C434  1  0.402400  0.279600  0.891610  1.0  -0.1559
  C  C435  1  0.426620  0.251500  0.971180  1.0  0.2097
  C  C436  1  0.390680  0.252200  0.982570  1.0  -0.1709
  C  C437  1  0.123830  0.779800  0.633320  1.0  -0.0583
  C  C438  1  0.097600  0.779600  0.608390  1.0  -0.1553
  C  C439  1  0.073380  0.751500  0.528820  1.0  0.2098
  C  C440  1  0.109320  0.752200  0.517430  1.0  -0.1721
  C  C441  1  0.623830  0.279800  0.133320  1.0  -0.0583
  C  C442  1  0.597600  0.279600  0.108390  1.0  -0.1553
  C  C443  1  0.573380  0.251500  0.028820  1.0  0.2098
  C  C444  1  0.609320  0.252200  0.017430  1.0  -0.1721
  C  C445  1  0.876170  0.633320  0.779800  1.0  -0.0614
  C  C446  1  0.902400  0.608390  0.779600  1.0  -0.1527
  C  C447  1  0.926620  0.528820  0.751500  1.0  0.2099
  C  C448  1  0.890680  0.517430  0.752200  1.0  -0.1726
  C  C449  1  0.376170  0.133320  0.279800  1.0  -0.0614
  C  C450  1  0.402400  0.108390  0.279600  1.0  -0.1527
  C  C451  1  0.426620  0.028820  0.251500  1.0  0.2099
  C  C452  1  0.390680  0.017430  0.252200  1.0  -0.1726
  C  C453  1  0.123830  0.366680  0.779800  1.0  -0.0611
  C  C454  1  0.097600  0.391610  0.779600  1.0  -0.1528
  C  C455  1  0.073380  0.471180  0.751500  1.0  0.2088
  C  C456  1  0.109320  0.482570  0.752200  1.0  -0.1752
  C  C457  1  0.623830  0.866680  0.279800  1.0  -0.0611
  C  C458  1  0.597600  0.891610  0.279600  1.0  -0.1528
  C  C459  1  0.573380  0.971180  0.251500  1.0  0.2088
  C  C460  1  0.609320  0.982570  0.252200  1.0  -0.1752
  C  C461  1  0.876170  0.366680  0.220200  1.0  -0.0603
  C  C462  1  0.902400  0.391610  0.220400  1.0  -0.151
  C  C463  1  0.926620  0.471180  0.248500  1.0  0.2097
  C  C464  1  0.890680  0.482570  0.247800  1.0  -0.1731
  C  C465  1  0.376170  0.866680  0.720200  1.0  -0.0603
  C  C466  1  0.402400  0.891610  0.720400  1.0  -0.151
  C  C467  1  0.426620  0.971180  0.748500  1.0  0.2097
  C  C468  1  0.390680  0.982570  0.747800  1.0  -0.1731
  C  C469  1  0.123830  0.633320  0.220200  1.0  -0.0596
  C  C470  1  0.097600  0.608390  0.220400  1.0  -0.1503
  C  C471  1  0.073380  0.528820  0.248500  1.0  0.2094
  C  C472  1  0.109320  0.517430  0.247800  1.0  -0.1749
  C  C473  1  0.623830  0.133320  0.720200  1.0  -0.0596
  C  C474  1  0.597600  0.108390  0.720400  1.0  -0.1503
  C  C475  1  0.573380  0.028820  0.748500  1.0  0.2094
  C  C476  1  0.609320  0.017430  0.747800  1.0  -0.1749
  C  C477  1  0.633320  0.220200  0.123830  1.0  -0.0602
  C  C478  1  0.608390  0.220400  0.097600  1.0  -0.1572
  C  C479  1  0.528820  0.248500  0.073380  1.0  0.2108
  C  C480  1  0.517430  0.247800  0.109320  1.0  -0.1746
  C  C481  1  0.133320  0.720200  0.623830  1.0  -0.0602
  C  C482  1  0.108390  0.720400  0.597600  1.0  -0.1572
  C  C483  1  0.028820  0.748500  0.573380  1.0  0.2108
  C  C484  1  0.017430  0.747800  0.609320  1.0  -0.1746
  C  C485  1  0.366680  0.220200  0.876170  1.0  -0.06
  C  C486  1  0.391610  0.220400  0.902400  1.0  -0.1569
  C  C487  1  0.471180  0.248500  0.926620  1.0  0.21
  C  C488  1  0.482570  0.247800  0.890680  1.0  -0.1758
  C  C489  1  0.866680  0.720200  0.376170  1.0  -0.06
  C  C490  1  0.891610  0.720400  0.402400  1.0  -0.1569
  C  C491  1  0.971180  0.748500  0.426620  1.0  0.21
  C  C492  1  0.982570  0.747800  0.390680  1.0  -0.1758
  C  C493  1  0.366680  0.779800  0.123830  1.0  -0.0584
  C  C494  1  0.391610  0.779600  0.097600  1.0  -0.1546
  C  C495  1  0.471180  0.751500  0.073380  1.0  0.211
  C  C496  1  0.482570  0.752200  0.109320  1.0  -0.1763
  C  C497  1  0.866680  0.279800  0.623830  1.0  -0.0584
  C  C498  1  0.891610  0.279600  0.597600  1.0  -0.1546
  C  C499  1  0.971180  0.251500  0.573380  1.0  0.211
  C  C500  1  0.982570  0.252200  0.609320  1.0  -0.1763
  C  C501  1  0.633320  0.779800  0.876170  1.0  -0.058
  C  C502  1  0.608390  0.779600  0.902400  1.0  -0.1549
  C  C503  1  0.528820  0.751500  0.926620  1.0  0.2102
  C  C504  1  0.517430  0.752200  0.890680  1.0  -0.1744
  C  C505  1  0.133320  0.279800  0.376170  1.0  -0.058
  C  C506  1  0.108390  0.279600  0.402400  1.0  -0.1549
  C  C507  1  0.028820  0.251500  0.426620  1.0  0.2102
  C  C508  1  0.017430  0.252200  0.390680  1.0  -0.1744
  C  C509  1  0.220200  0.876170  0.366680  1.0  -0.0594
  C  C510  1  0.220400  0.902400  0.391610  1.0  -0.1584
  C  C511  1  0.248500  0.926620  0.471180  1.0  0.2097
  C  C512  1  0.247800  0.890680  0.482570  1.0  -0.1739
  C  C513  1  0.720200  0.376170  0.866680  1.0  -0.0594
  C  C514  1  0.720400  0.402400  0.891610  1.0  -0.1584
  C  C515  1  0.748500  0.426620  0.971180  1.0  0.2097
  C  C516  1  0.747800  0.390680  0.982570  1.0  -0.1739
  C  C517  1  0.220200  0.123830  0.633320  1.0  -0.0601
  C  C518  1  0.220400  0.097600  0.608390  1.0  -0.1582
  C  C519  1  0.248500  0.073380  0.528820  1.0  0.2094
  C  C520  1  0.247800  0.109320  0.517430  1.0  -0.174
  C  C521  1  0.720200  0.623830  0.133320  1.0  -0.0601
  C  C522  1  0.720400  0.597600  0.108390  1.0  -0.1582
  C  C523  1  0.748500  0.573380  0.028820  1.0  0.2094
  C  C524  1  0.747800  0.609320  0.017430  1.0  -0.174
  C  C525  1  0.779800  0.876170  0.633320  1.0  -0.0579
  C  C526  1  0.779600  0.902400  0.608390  1.0  -0.1566
  C  C527  1  0.751500  0.926620  0.528820  1.0  0.2103
  C  C528  1  0.752200  0.890680  0.517430  1.0  -0.1741
  C  C529  1  0.279800  0.376170  0.133320  1.0  -0.0579
  C  C530  1  0.279600  0.402400  0.108390  1.0  -0.1566
  C  C531  1  0.251500  0.426620  0.028820  1.0  0.2103
  C  C532  1  0.252200  0.390680  0.017430  1.0  -0.1741
  C  C533  1  0.779800  0.123830  0.366680  1.0  -0.0588
  C  C534  1  0.779600  0.097600  0.391610  1.0  -0.1567
  C  C535  1  0.751500  0.073380  0.471180  1.0  0.2089
  C  C536  1  0.752200  0.109320  0.482570  1.0  -0.1746
  C  C537  1  0.279800  0.623830  0.866680  1.0  -0.0588
  C  C538  1  0.279600  0.597600  0.891610  1.0  -0.1567
  C  C539  1  0.251500  0.573380  0.971180  1.0  0.2089
  C  C540  1  0.252200  0.609320  0.982570  1.0  -0.1746
  C  C541  1  0.366680  0.123830  0.779800  1.0  -0.0625
  C  C542  1  0.391610  0.097600  0.779600  1.0  -0.1545
  C  C543  1  0.471180  0.073380  0.751500  1.0  0.2093
  C  C544  1  0.482570  0.109320  0.752200  1.0  -0.1772
  C  C545  1  0.866680  0.623830  0.279800  1.0  -0.0625
  C  C546  1  0.891610  0.597600  0.279600  1.0  -0.1545
  C  C547  1  0.971180  0.573380  0.251500  1.0  0.2093
  C  C548  1  0.982570  0.609320  0.252200  1.0  -0.1772
  C  C549  1  0.633320  0.876170  0.779800  1.0  -0.0611
  C  C550  1  0.608390  0.902400  0.779600  1.0  -0.1555
  C  C551  1  0.528820  0.926620  0.751500  1.0  0.21
  C  C552  1  0.517430  0.890680  0.752200  1.0  -0.1756
  C  C553  1  0.133320  0.376170  0.279800  1.0  -0.0611
  C  C554  1  0.108390  0.402400  0.279600  1.0  -0.1555
  C  C555  1  0.028820  0.426620  0.251500  1.0  0.21
  C  C556  1  0.017430  0.390680  0.252200  1.0  -0.1756
  C  C557  1  0.633320  0.123830  0.220200  1.0  -0.0603
  C  C558  1  0.608390  0.097600  0.220400  1.0  -0.1529
  C  C559  1  0.528820  0.073380  0.248500  1.0  0.2096
  C  C560  1  0.517430  0.109320  0.247800  1.0  -0.1763
  C  C561  1  0.133320  0.623830  0.720200  1.0  -0.0603
  C  C562  1  0.108390  0.597600  0.720400  1.0  -0.1529
  C  C563  1  0.028820  0.573380  0.748500  1.0  0.2096
  C  C564  1  0.017430  0.609320  0.747800  1.0  -0.1763
  C  C565  1  0.366680  0.876170  0.220200  1.0  -0.0597
  C  C566  1  0.391610  0.902400  0.220400  1.0  -0.1524
  C  C567  1  0.471180  0.926620  0.248500  1.0  0.2103
  C  C568  1  0.482570  0.890680  0.247800  1.0  -0.1772
  C  C569  1  0.866680  0.376170  0.720200  1.0  -0.0597
  C  C570  1  0.891610  0.402400  0.720400  1.0  -0.1524
  C  C571  1  0.971180  0.426620  0.748500  1.0  0.2103
  C  C572  1  0.982570  0.390680  0.747800  1.0  -0.1772
  C  C573  1  0.779800  0.366680  0.123830  1.0  -0.0578
  C  C574  1  0.779600  0.391610  0.097600  1.0  -0.1579
  C  C575  1  0.751500  0.471180  0.073380  1.0  0.2111
  C  C576  1  0.752200  0.482570  0.109320  1.0  -0.175
  C  C577  1  0.279800  0.866680  0.623830  1.0  -0.0578
  C  C578  1  0.279600  0.891610  0.597600  1.0  -0.1579
  C  C579  1  0.251500  0.971180  0.573380  1.0  0.2111
  C  C580  1  0.252200  0.982570  0.609320  1.0  -0.175
  C  C581  1  0.779800  0.633320  0.876170  1.0  -0.0581
  C  C582  1  0.779600  0.608390  0.902400  1.0  -0.1576
  C  C583  1  0.751500  0.528820  0.926620  1.0  0.2107
  C  C584  1  0.752200  0.517430  0.890680  1.0  -0.1753
  C  C585  1  0.279800  0.133320  0.376170  1.0  -0.0581
  C  C586  1  0.279600  0.108390  0.402400  1.0  -0.1576
  C  C587  1  0.251500  0.028820  0.426620  1.0  0.2107
  C  C588  1  0.252200  0.017430  0.390680  1.0  -0.1753
  C  C589  1  0.220200  0.633320  0.123830  1.0  -0.0584
  C  C590  1  0.220400  0.608390  0.097600  1.0  -0.1593
  C  C591  1  0.248500  0.528820  0.073380  1.0  0.2113
  C  C592  1  0.247800  0.517430  0.109320  1.0  -0.1756
  C  C593  1  0.720200  0.133320  0.623830  1.0  -0.0584
  C  C594  1  0.720400  0.108390  0.597600  1.0  -0.1593
  C  C595  1  0.748500  0.028820  0.573380  1.0  0.2113
  C  C596  1  0.747800  0.017430  0.609320  1.0  -0.1756
  C  C597  1  0.220200  0.366680  0.876170  1.0  -0.059
  C  C598  1  0.220400  0.391610  0.902400  1.0  -0.1592
  C  C599  1  0.248500  0.471180  0.926620  1.0  0.21
  C  C600  1  0.247800  0.482570  0.890680  1.0  -0.1748
  C  C601  1  0.720200  0.866680  0.376170  1.0  -0.059
  C  C602  1  0.720400  0.891610  0.402400  1.0  -0.1592
  C  C603  1  0.748500  0.971180  0.426620  1.0  0.21
  C  C604  1  0.747800  0.982570  0.390680  1.0  -0.1748
  C  C605  1  0.123830  0.779800  0.366680  1.0  -0.0587
  C  C606  1  0.097600  0.779600  0.391610  1.0  -0.1555
  C  C607  1  0.073380  0.751500  0.471180  1.0  0.2096
  C  C608  1  0.109320  0.752200  0.482570  1.0  -0.1731
  C  C609  1  0.623830  0.279800  0.866680  1.0  -0.0587
  C  C610  1  0.597600  0.279600  0.891610  1.0  -0.1555
  C  C611  1  0.573380  0.251500  0.971180  1.0  0.2096
  C  C612  1  0.609320  0.252200  0.982570  1.0  -0.1731
  C  C613  1  0.876170  0.779800  0.633320  1.0  -0.0588
  C  C614  1  0.902400  0.779600  0.608390  1.0  -0.1557
  C  C615  1  0.926620  0.751500  0.528820  1.0  0.2106
  C  C616  1  0.890680  0.752200  0.517430  1.0  -0.1708
  C  C617  1  0.376170  0.279800  0.133320  1.0  -0.0588
  C  C618  1  0.402400  0.279600  0.108390  1.0  -0.1557
  C  C619  1  0.426620  0.251500  0.028820  1.0  0.2106
  C  C620  1  0.390680  0.252200  0.017430  1.0  -0.1708
  C  C621  1  0.123830  0.220200  0.633320  1.0  -0.06
  C  C622  1  0.097600  0.220400  0.608390  1.0  -0.1578
  C  C623  1  0.073380  0.248500  0.528820  1.0  0.2097
  C  C624  1  0.109320  0.247800  0.517430  1.0  -0.173
  C  C625  1  0.623830  0.720200  0.133320  1.0  -0.06
  C  C626  1  0.597600  0.720400  0.108390  1.0  -0.1578
  C  C627  1  0.573380  0.748500  0.028820  1.0  0.2097
  C  C628  1  0.609320  0.747800  0.017430  1.0  -0.173
  C  C629  1  0.876170  0.220200  0.366680  1.0  -0.0606
  C  C630  1  0.902400  0.220400  0.391610  1.0  -0.1588
  C  C631  1  0.926620  0.248500  0.471180  1.0  0.2098
  C  C632  1  0.890680  0.247800  0.482570  1.0  -0.1712
  C  C633  1  0.376170  0.720200  0.866680  1.0  -0.0606
  C  C634  1  0.402400  0.720400  0.891610  1.0  -0.1588
  C  C635  1  0.426620  0.748500  0.971180  1.0  0.2098
  C  C636  1  0.390680  0.747800  0.982570  1.0  -0.1712
  C  C637  1  0.123830  0.366680  0.220200  1.0  -0.0598
  C  C638  1  0.097600  0.391610  0.220400  1.0  -0.15
  C  C639  1  0.073380  0.471180  0.248500  1.0  0.2094
  C  C640  1  0.109320  0.482570  0.247800  1.0  -0.1756
  C  C641  1  0.623830  0.866680  0.720200  1.0  -0.0598
  C  C642  1  0.597600  0.891610  0.720400  1.0  -0.15
  C  C643  1  0.573380  0.971180  0.748500  1.0  0.2094
  C  C644  1  0.609320  0.982570  0.747800  1.0  -0.1756
  C  C645  1  0.876170  0.633320  0.220200  1.0  -0.0601
  C  C646  1  0.902400  0.608390  0.220400  1.0  -0.1513
  C  C647  1  0.926620  0.528820  0.248500  1.0  0.2104
  C  C648  1  0.890680  0.517430  0.247800  1.0  -0.1724
  C  C649  1  0.376170  0.133320  0.720200  1.0  -0.0601
  C  C650  1  0.402400  0.108390  0.720400  1.0  -0.1513
  C  C651  1  0.426620  0.028820  0.748500  1.0  0.2104
  C  C652  1  0.390680  0.017430  0.747800  1.0  -0.1724
  C  C653  1  0.123830  0.633320  0.779800  1.0  -0.0611
  C  C654  1  0.097600  0.608390  0.779600  1.0  -0.1526
  C  C655  1  0.073380  0.528820  0.751500  1.0  0.2094
  C  C656  1  0.109320  0.517430  0.752200  1.0  -0.1748
  C  C657  1  0.623830  0.133320  0.279800  1.0  -0.0611
  C  C658  1  0.597600  0.108390  0.279600  1.0  -0.1526
  C  C659  1  0.573380  0.028820  0.251500  1.0  0.2094
  C  C660  1  0.609320  0.017430  0.252200  1.0  -0.1748
  C  C661  1  0.876170  0.366680  0.779800  1.0  -0.0616
  C  C662  1  0.902400  0.391610  0.779600  1.0  -0.153
  C  C663  1  0.926620  0.471180  0.751500  1.0  0.2097
  C  C664  1  0.890680  0.482570  0.752200  1.0  -0.1729
  C  C665  1  0.376170  0.866680  0.279800  1.0  -0.0616
  C  C666  1  0.402400  0.891610  0.279600  1.0  -0.153
  C  C667  1  0.426620  0.971180  0.251500  1.0  0.2097
  C  C668  1  0.390680  0.982570  0.252200  1.0  -0.1729
  C  C669  1  0.366680  0.779800  0.876170  1.0  -0.0591
  C  C670  1  0.391610  0.779600  0.902400  1.0  -0.1549
  C  C671  1  0.471180  0.751500  0.926620  1.0  0.2105
  C  C672  1  0.482570  0.752200  0.890680  1.0  -0.1757
  C  C673  1  0.866680  0.279800  0.376170  1.0  -0.0591
  C  C674  1  0.891610  0.279600  0.402400  1.0  -0.1549
  C  C675  1  0.971180  0.251500  0.426620  1.0  0.2105
  C  C676  1  0.982570  0.252200  0.390680  1.0  -0.1757
  C  C677  1  0.633320  0.779800  0.123830  1.0  -0.0576
  C  C678  1  0.608390  0.779600  0.097600  1.0  -0.1543
  C  C679  1  0.528820  0.751500  0.073380  1.0  0.2115
  C  C680  1  0.517430  0.752200  0.109320  1.0  -0.1746
  C  C681  1  0.133320  0.279800  0.623830  1.0  -0.0576
  C  C682  1  0.108390  0.279600  0.597600  1.0  -0.1543
  C  C683  1  0.028820  0.251500  0.573380  1.0  0.2115
  C  C684  1  0.017430  0.252200  0.609320  1.0  -0.1746
  C  C685  1  0.633320  0.220200  0.876170  1.0  -0.0607
  C  C686  1  0.608390  0.220400  0.902400  1.0  -0.1577
  C  C687  1  0.528820  0.248500  0.926620  1.0  0.2103
  C  C688  1  0.517430  0.247800  0.890680  1.0  -0.175
  C  C689  1  0.133320  0.720200  0.376170  1.0  -0.0607
  C  C690  1  0.108390  0.720400  0.402400  1.0  -0.1577
  C  C691  1  0.028820  0.748500  0.426620  1.0  0.2103
  C  C692  1  0.017430  0.747800  0.390680  1.0  -0.175
  C  C693  1  0.366680  0.220200  0.123830  1.0  -0.0593
  C  C694  1  0.391610  0.220400  0.097600  1.0  -0.1566
  C  C695  1  0.471180  0.248500  0.073380  1.0  0.2109
  C  C696  1  0.482570  0.247800  0.109320  1.0  -0.177
  C  C697  1  0.866680  0.720200  0.623830  1.0  -0.0593
  C  C698  1  0.891610  0.720400  0.597600  1.0  -0.1566
  C  C699  1  0.971180  0.748500  0.573380  1.0  0.2109
  C  C700  1  0.982570  0.747800  0.609320  1.0  -0.177
  C  C701  1  0.779800  0.123830  0.633320  1.0  -0.0583
  C  C702  1  0.779600  0.097600  0.608390  1.0  -0.1569
  C  C703  1  0.751500  0.073380  0.528820  1.0  0.2097
  C  C704  1  0.752200  0.109320  0.517430  1.0  -0.1741
  C  C705  1  0.279800  0.623830  0.133320  1.0  -0.0583
  C  C706  1  0.279600  0.597600  0.108390  1.0  -0.1569
  C  C707  1  0.251500  0.573380  0.028820  1.0  0.2097
  C  C708  1  0.252200  0.609320  0.017430  1.0  -0.1741
  C  C709  1  0.779800  0.876170  0.366680  1.0  -0.0585
  C  C710  1  0.779600  0.902400  0.391610  1.0  -0.1562
  C  C711  1  0.751500  0.926620  0.471180  1.0  0.2101
  C  C712  1  0.752200  0.890680  0.482570  1.0  -0.1743
  C  C713  1  0.279800  0.376170  0.866680  1.0  -0.0585
  C  C714  1  0.279600  0.402400  0.891610  1.0  -0.1562
  C  C715  1  0.251500  0.426620  0.971180  1.0  0.2101
  C  C716  1  0.252200  0.390680  0.982570  1.0  -0.1743
  C  C717  1  0.220200  0.123830  0.366680  1.0  -0.0596
  C  C718  1  0.220400  0.097600  0.391610  1.0  -0.1587
  C  C719  1  0.248500  0.073380  0.471180  1.0  0.2091
  C  C720  1  0.247800  0.109320  0.482570  1.0  -0.1747
  C  C721  1  0.720200  0.623830  0.866680  1.0  -0.0596
  C  C722  1  0.720400  0.597600  0.891610  1.0  -0.1587
  C  C723  1  0.748500  0.573380  0.971180  1.0  0.2091
  C  C724  1  0.747800  0.609320  0.982570  1.0  -0.1747
  C  C725  1  0.220200  0.876170  0.633320  1.0  -0.0599
  C  C726  1  0.220400  0.902400  0.608390  1.0  -0.158
  C  C727  1  0.248500  0.926620  0.528820  1.0  0.2104
  C  C728  1  0.247800  0.890680  0.517430  1.0  -0.1738
  C  C729  1  0.720200  0.376170  0.133320  1.0  -0.0599
  C  C730  1  0.720400  0.402400  0.108390  1.0  -0.158
  C  C731  1  0.748500  0.426620  0.028820  1.0  0.2104
  C  C732  1  0.747800  0.390680  0.017430  1.0  -0.1738
  C  C733  1  0.669310  0.830690  0.250000  1.0  0.7194
  C  C734  1  0.641010  0.858990  0.250000  1.0  -0.1067
  C  C735  1  0.590390  0.909610  0.250000  1.0  0.1011
  C  C736  1  0.562780  0.937220  0.250000  1.0  -0.0553
  C  C737  1  0.330690  0.169310  0.250000  1.0  0.7199
  C  C738  1  0.358990  0.141010  0.250000  1.0  -0.1062
  C  C739  1  0.409610  0.090390  0.250000  1.0  0.1004
  C  C740  1  0.437220  0.062780  0.250000  1.0  -0.0563
  C  C741  1  0.330690  0.830690  0.750000  1.0  0.7197
  C  C742  1  0.358990  0.858990  0.750000  1.0  -0.1074
  C  C743  1  0.409610  0.909610  0.750000  1.0  0.1003
  C  C744  1  0.437220  0.937220  0.750000  1.0  -0.0562
  C  C745  1  0.669310  0.169310  0.750000  1.0  0.7198
  C  C746  1  0.641010  0.141010  0.750000  1.0  -0.1069
  C  C747  1  0.590390  0.090390  0.750000  1.0  0.1015
  C  C748  1  0.562780  0.062780  0.750000  1.0  -0.0553
  C  C749  1  0.250000  0.669310  0.830690  1.0  0.7203
  C  C750  1  0.250000  0.641010  0.858990  1.0  -0.1055
  C  C751  1  0.250000  0.590390  0.909610  1.0  0.1018
  C  C752  1  0.250000  0.562780  0.937220  1.0  -0.0558
  C  C753  1  0.250000  0.330690  0.169310  1.0  0.7198
  C  C754  1  0.250000  0.358990  0.141010  1.0  -0.1071
  C  C755  1  0.250000  0.409610  0.090390  1.0  0.1015
  C  C756  1  0.250000  0.437220  0.062780  1.0  -0.0556
  C  C757  1  0.750000  0.330690  0.830690  1.0  0.7199
  C  C758  1  0.750000  0.358990  0.858990  1.0  -0.1073
  C  C759  1  0.750000  0.409610  0.909610  1.0  0.1015
  C  C760  1  0.750000  0.437220  0.937220  1.0  -0.0559
  C  C761  1  0.750000  0.669310  0.169310  1.0  0.7201
  C  C762  1  0.750000  0.641010  0.141010  1.0  -0.1067
  C  C763  1  0.750000  0.590390  0.090390  1.0  0.1017
  C  C764  1  0.750000  0.562780  0.062780  1.0  -0.0556
  C  C765  1  0.830690  0.250000  0.669310  1.0  0.7205
  C  C766  1  0.858990  0.250000  0.641010  1.0  -0.1091
  C  C767  1  0.909610  0.250000  0.590390  1.0  0.1001
  C  C768  1  0.937220  0.250000  0.562780  1.0  -0.0559
  C  C769  1  0.169310  0.250000  0.330690  1.0  0.7205
  C  C770  1  0.141010  0.250000  0.358990  1.0  -0.109
  C  C771  1  0.090390  0.250000  0.409610  1.0  0.1011
  C  C772  1  0.062780  0.250000  0.437220  1.0  -0.0553
  C  C773  1  0.830690  0.750000  0.330690  1.0  0.7208
  C  C774  1  0.858990  0.750000  0.358990  1.0  -0.1091
  C  C775  1  0.909610  0.750000  0.409610  1.0  0.1001
  C  C776  1  0.937220  0.750000  0.437220  1.0  -0.056
  C  C777  1  0.169310  0.750000  0.669310  1.0  0.7203
  C  C778  1  0.141010  0.750000  0.641010  1.0  -0.1096
  C  C779  1  0.090390  0.750000  0.590390  1.0  0.1012
  C  C780  1  0.062780  0.750000  0.562780  1.0  -0.0551
  C  C781  1  0.830690  0.669310  0.750000  1.0  0.7199
  C  C782  1  0.858990  0.641010  0.750000  1.0  -0.1062
  C  C783  1  0.909610  0.590390  0.750000  1.0  0.1004
  C  C784  1  0.937220  0.562780  0.750000  1.0  -0.0563
  C  C785  1  0.169310  0.330690  0.750000  1.0  0.7194
  C  C786  1  0.141010  0.358990  0.750000  1.0  -0.1067
  C  C787  1  0.090390  0.409610  0.750000  1.0  0.1011
  C  C788  1  0.062780  0.437220  0.750000  1.0  -0.0553
  C  C789  1  0.830690  0.330690  0.250000  1.0  0.7197
  C  C790  1  0.858990  0.358990  0.250000  1.0  -0.1074
  C  C791  1  0.909610  0.409610  0.250000  1.0  0.1003
  C  C792  1  0.937220  0.437220  0.250000  1.0  -0.0562
  C  C793  1  0.169310  0.669310  0.250000  1.0  0.7198
  C  C794  1  0.141010  0.641010  0.250000  1.0  -0.1069
  C  C795  1  0.090390  0.590390  0.250000  1.0  0.1015
  C  C796  1  0.062780  0.562780  0.250000  1.0  -0.0553
  C  C797  1  0.669310  0.250000  0.169310  1.0  0.7203
  C  C798  1  0.641010  0.250000  0.141010  1.0  -0.1096
  C  C799  1  0.590390  0.250000  0.090390  1.0  0.1012
  C  C800  1  0.562780  0.250000  0.062780  1.0  -0.0551
  C  C801  1  0.330690  0.250000  0.830690  1.0  0.7208
  C  C802  1  0.358990  0.250000  0.858990  1.0  -0.1091
  C  C803  1  0.409610  0.250000  0.909610  1.0  0.1001
  C  C804  1  0.437220  0.250000  0.937220  1.0  -0.056
  C  C805  1  0.330690  0.750000  0.169310  1.0  0.7205
  C  C806  1  0.358990  0.750000  0.141010  1.0  -0.1091
  C  C807  1  0.409610  0.750000  0.090390  1.0  0.1001
  C  C808  1  0.437220  0.750000  0.062780  1.0  -0.0559
  C  C809  1  0.669310  0.750000  0.830690  1.0  0.7205
  C  C810  1  0.641010  0.750000  0.858990  1.0  -0.109
  C  C811  1  0.590390  0.750000  0.909610  1.0  0.1011
  C  C812  1  0.562780  0.750000  0.937220  1.0  -0.0553
  C  C813  1  0.250000  0.830690  0.330690  1.0  0.7199
  C  C814  1  0.250000  0.858990  0.358990  1.0  -0.1073
  C  C815  1  0.250000  0.909610  0.409610  1.0  0.1015
  C  C816  1  0.250000  0.937220  0.437220  1.0  -0.0559
  C  C817  1  0.250000  0.169310  0.669310  1.0  0.7201
  C  C818  1  0.250000  0.141010  0.641010  1.0  -0.1067
  C  C819  1  0.250000  0.090390  0.590390  1.0  0.1017
  C  C820  1  0.250000  0.062780  0.562780  1.0  -0.0556
  C  C821  1  0.750000  0.830690  0.669310  1.0  0.7198
  C  C822  1  0.750000  0.858990  0.641010  1.0  -0.1071
  C  C823  1  0.750000  0.909610  0.590390  1.0  0.1015
  C  C824  1  0.750000  0.937220  0.562780  1.0  -0.0556
  C  C825  1  0.750000  0.169310  0.330690  1.0  0.7203
  C  C826  1  0.750000  0.141010  0.358990  1.0  -0.1055
  C  C827  1  0.750000  0.090390  0.409610  1.0  0.1018
  C  C828  1  0.750000  0.062780  0.437220  1.0  -0.0558
  C  C829  1  0.330690  0.169310  0.750000  1.0  0.7199
  C  C830  1  0.358990  0.141010  0.750000  1.0  -0.1062
  C  C831  1  0.409610  0.090390  0.750000  1.0  0.1004
  C  C832  1  0.437220  0.062780  0.750000  1.0  -0.0563
  C  C833  1  0.669310  0.830690  0.750000  1.0  0.7194
  C  C834  1  0.641010  0.858990  0.750000  1.0  -0.1067
  C  C835  1  0.590390  0.909610  0.750000  1.0  0.1011
  C  C836  1  0.562780  0.937220  0.750000  1.0  -0.0553
  C  C837  1  0.669310  0.169310  0.250000  1.0  0.7198
  C  C838  1  0.641010  0.141010  0.250000  1.0  -0.1069
  C  C839  1  0.590390  0.090390  0.250000  1.0  0.1015
  C  C840  1  0.562780  0.062780  0.250000  1.0  -0.0553
  C  C841  1  0.330690  0.830690  0.250000  1.0  0.7197
  C  C842  1  0.358990  0.858990  0.250000  1.0  -0.1074
  C  C843  1  0.409610  0.909610  0.250000  1.0  0.1003
  C  C844  1  0.437220  0.937220  0.250000  1.0  -0.0562
  C  C845  1  0.750000  0.330690  0.169310  1.0  0.7198
  C  C846  1  0.750000  0.358990  0.141010  1.0  -0.1071
  C  C847  1  0.750000  0.409610  0.090390  1.0  0.1015
  C  C848  1  0.750000  0.437220  0.062780  1.0  -0.0556
  C  C849  1  0.750000  0.669310  0.830690  1.0  0.7203
  C  C850  1  0.750000  0.641010  0.858990  1.0  -0.1055
  C  C851  1  0.750000  0.590390  0.909610  1.0  0.1018
  C  C852  1  0.750000  0.562780  0.937220  1.0  -0.0558
  C  C853  1  0.250000  0.669310  0.169310  1.0  0.7201
  C  C854  1  0.250000  0.641010  0.141010  1.0  -0.1067
  C  C855  1  0.250000  0.590390  0.090390  1.0  0.1017
  C  C856  1  0.250000  0.562780  0.062780  1.0  -0.0556
  C  C857  1  0.250000  0.330690  0.830690  1.0  0.7199
  C  C858  1  0.250000  0.358990  0.858990  1.0  -0.1073
  C  C859  1  0.250000  0.409610  0.909610  1.0  0.1015
  C  C860  1  0.250000  0.437220  0.937220  1.0  -0.0559
  C  C861  1  0.169310  0.750000  0.330690  1.0  0.7205
  C  C862  1  0.141010  0.750000  0.358990  1.0  -0.109
  C  C863  1  0.090390  0.750000  0.409610  1.0  0.1011
  C  C864  1  0.062780  0.750000  0.437220  1.0  -0.0553
  C  C865  1  0.830690  0.750000  0.669310  1.0  0.7205
  C  C866  1  0.858990  0.750000  0.641010  1.0  -0.1091
  C  C867  1  0.909610  0.750000  0.590390  1.0  0.1001
  C  C868  1  0.937220  0.750000  0.562780  1.0  -0.0559
  C  C869  1  0.169310  0.250000  0.669310  1.0  0.7203
  C  C870  1  0.141010  0.250000  0.641010  1.0  -0.1096
  C  C871  1  0.090390  0.250000  0.590390  1.0  0.1012
  C  C872  1  0.062780  0.250000  0.562780  1.0  -0.0551
  C  C873  1  0.830690  0.250000  0.330690  1.0  0.7208
  C  C874  1  0.858990  0.250000  0.358990  1.0  -0.1091
  C  C875  1  0.909610  0.250000  0.409610  1.0  0.1001
  C  C876  1  0.937220  0.250000  0.437220  1.0  -0.056
  C  C877  1  0.169310  0.330690  0.250000  1.0  0.7194
  C  C878  1  0.141010  0.358990  0.250000  1.0  -0.1067
  C  C879  1  0.090390  0.409610  0.250000  1.0  0.1011
  C  C880  1  0.062780  0.437220  0.250000  1.0  -0.0553
  C  C881  1  0.830690  0.669310  0.250000  1.0  0.7199
  C  C882  1  0.858990  0.641010  0.250000  1.0  -0.1062
  C  C883  1  0.909610  0.590390  0.250000  1.0  0.1004
  C  C884  1  0.937220  0.562780  0.250000  1.0  -0.0563
  C  C885  1  0.169310  0.669310  0.750000  1.0  0.7198
  C  C886  1  0.141010  0.641010  0.750000  1.0  -0.1069
  C  C887  1  0.090390  0.590390  0.750000  1.0  0.1015
  C  C888  1  0.062780  0.562780  0.750000  1.0  -0.0553
  C  C889  1  0.830690  0.330690  0.750000  1.0  0.7197
  C  C890  1  0.858990  0.358990  0.750000  1.0  -0.1074
  C  C891  1  0.909610  0.409610  0.750000  1.0  0.1003
  C  C892  1  0.937220  0.437220  0.750000  1.0  -0.0562
  C  C893  1  0.330690  0.750000  0.830690  1.0  0.7208
  C  C894  1  0.358990  0.750000  0.858990  1.0  -0.1091
  C  C895  1  0.409610  0.750000  0.909610  1.0  0.1001
  C  C896  1  0.437220  0.750000  0.937220  1.0  -0.056
  C  C897  1  0.669310  0.750000  0.169310  1.0  0.7203
  C  C898  1  0.641010  0.750000  0.141010  1.0  -0.1096
  C  C899  1  0.590390  0.750000  0.090390  1.0  0.1012
  C  C900  1  0.562780  0.750000  0.062780  1.0  -0.0551
  C  C901  1  0.669310  0.250000  0.830690  1.0  0.7205
  C  C902  1  0.641010  0.250000  0.858990  1.0  -0.109
  C  C903  1  0.590390  0.250000  0.909610  1.0  0.1011
  C  C904  1  0.562780  0.250000  0.937220  1.0  -0.0553
  C  C905  1  0.330690  0.250000  0.169310  1.0  0.7205
  C  C906  1  0.358990  0.250000  0.141010  1.0  -0.1091
  C  C907  1  0.409610  0.250000  0.090390  1.0  0.1001
  C  C908  1  0.437220  0.250000  0.062780  1.0  -0.0559
  C  C909  1  0.750000  0.169310  0.669310  1.0  0.7201
  C  C910  1  0.750000  0.141010  0.641010  1.0  -0.1067
  C  C911  1  0.750000  0.090390  0.590390  1.0  0.1017
  C  C912  1  0.750000  0.062780  0.562780  1.0  -0.0556
  C  C913  1  0.750000  0.830690  0.330690  1.0  0.7199
  C  C914  1  0.750000  0.858990  0.358990  1.0  -0.1073
  C  C915  1  0.750000  0.909610  0.409610  1.0  0.1015
  C  C916  1  0.750000  0.937220  0.437220  1.0  -0.0559
  C  C917  1  0.250000  0.169310  0.330690  1.0  0.7203
  C  C918  1  0.250000  0.141010  0.358990  1.0  -0.1055
  C  C919  1  0.250000  0.090390  0.409610  1.0  0.1018
  C  C920  1  0.250000  0.062780  0.437220  1.0  -0.0558
  C  C921  1  0.250000  0.830690  0.669310  1.0  0.7198
  C  C922  1  0.250000  0.858990  0.641010  1.0  -0.1071
  C  C923  1  0.250000  0.909610  0.590390  1.0  0.1015
  C  C924  1  0.250000  0.937220  0.562780  1.0  -0.0556
  N  N925  1  0.500000  0.946950  0.249700  1.0  -0.3639
  N  N926  1  0.000000  0.446950  0.749700  1.0  -0.3639
  N  N927  1  0.500000  0.053050  0.249700  1.0  -0.3662
  N  N928  1  0.000000  0.553050  0.749700  1.0  -0.3662
  N  N929  1  0.500000  0.946950  0.750300  1.0  -0.3639
  N  N930  1  0.000000  0.446950  0.250300  1.0  -0.3639
  N  N931  1  0.500000  0.053050  0.750300  1.0  -0.3663
  N  N932  1  0.000000  0.553050  0.250300  1.0  -0.3663
  N  N933  1  0.249700  0.500000  0.946950  1.0  -0.3621
  N  N934  1  0.749700  0.000000  0.446950  1.0  -0.3621
  N  N935  1  0.249700  0.500000  0.053050  1.0  -0.362
  N  N936  1  0.749700  0.000000  0.553050  1.0  -0.362
  N  N937  1  0.750300  0.500000  0.946950  1.0  -0.3621
  N  N938  1  0.250300  0.000000  0.446950  1.0  -0.3621
  N  N939  1  0.750300  0.500000  0.053050  1.0  -0.3621
  N  N940  1  0.250300  0.000000  0.553050  1.0  -0.3621
  N  N941  1  0.946950  0.249700  0.500000  1.0  -0.3654
  N  N942  1  0.446950  0.749700  0.000000  1.0  -0.3654
  N  N943  1  0.053050  0.249700  0.500000  1.0  -0.3664
  N  N944  1  0.553050  0.749700  0.000000  1.0  -0.3664
  N  N945  1  0.946950  0.750300  0.500000  1.0  -0.3657
  N  N946  1  0.446950  0.250300  0.000000  1.0  -0.3657
  N  N947  1  0.053050  0.750300  0.500000  1.0  -0.3668
  N  N948  1  0.553050  0.250300  0.000000  1.0  -0.3668
  N  N949  1  0.946950  0.500000  0.750300  1.0  -0.3652
  N  N950  1  0.446950  0.000000  0.250300  1.0  -0.3652
  N  N951  1  0.053050  0.500000  0.750300  1.0  -0.3663
  N  N952  1  0.553050  0.000000  0.250300  1.0  -0.3663
  N  N953  1  0.946950  0.500000  0.249700  1.0  -0.3651
  N  N954  1  0.446950  0.000000  0.749700  1.0  -0.3651
  N  N955  1  0.053050  0.500000  0.249700  1.0  -0.3661
  N  N956  1  0.553050  0.000000  0.749700  1.0  -0.3661
  N  N957  1  0.500000  0.249700  0.053050  1.0  -0.3621
  N  N958  1  0.000000  0.749700  0.553050  1.0  -0.3621
  N  N959  1  0.500000  0.249700  0.946950  1.0  -0.3622
  N  N960  1  0.000000  0.749700  0.446950  1.0  -0.3622
  N  N961  1  0.500000  0.750300  0.053050  1.0  -0.3626
  N  N962  1  0.000000  0.250300  0.553050  1.0  -0.3626
  N  N963  1  0.500000  0.750300  0.946950  1.0  -0.3625
  N  N964  1  0.000000  0.250300  0.446950  1.0  -0.3625
  N  N965  1  0.249700  0.946950  0.500000  1.0  -0.3641
  N  N966  1  0.749700  0.446950  0.000000  1.0  -0.3641
  N  N967  1  0.249700  0.053050  0.500000  1.0  -0.3662
  N  N968  1  0.749700  0.553050  0.000000  1.0  -0.3662
  N  N969  1  0.750300  0.946950  0.500000  1.0  -0.3641
  N  N970  1  0.250300  0.446950  0.000000  1.0  -0.3641
  N  N971  1  0.750300  0.053050  0.500000  1.0  -0.3664
  N  N972  1  0.250300  0.553050  0.000000  1.0  -0.3664
  Cl  Cl973  1  0.500000  0.000000  0.189900  1.0  -0.4539
  Cl  Cl974  1  0.000000  0.500000  0.689900  1.0  -0.4659
  Cl  Cl975  1  0.500000  0.000000  0.810100  1.0  -0.455
  Cl  Cl976  1  0.000000  0.500000  0.310100  1.0  -0.4676
  Cl  Cl977  1  0.189900  0.500000  0.000000  1.0  -0.4567
  Cl  Cl978  1  0.689900  0.000000  0.500000  1.0  -0.4695
  Cl  Cl979  1  0.810100  0.500000  0.000000  1.0  -0.4557
  Cl  Cl980  1  0.310100  0.000000  0.500000  1.0  -0.4682
  Cl  Cl981  1  0.000000  0.189900  0.500000  1.0  -0.4511
  Cl  Cl982  1  0.500000  0.689900  0.000000  1.0  -0.464
  Cl  Cl983  1  0.000000  0.810100  0.500000  1.0  -0.4529
  Cl  Cl984  1  0.500000  0.310100  0.000000  1.0  -0.4658
  Cl  Cl985  1  0.000000  0.500000  0.810100  1.0  -0.455
  Cl  Cl986  1  0.500000  0.000000  0.310100  1.0  -0.4676
  Cl  Cl987  1  0.000000  0.500000  0.189900  1.0  -0.4539
  Cl  Cl988  1  0.500000  0.000000  0.689900  1.0  -0.4659
  Cl  Cl989  1  0.500000  0.189900  0.000000  1.0  -0.4511
  Cl  Cl990  1  0.000000  0.689900  0.500000  1.0  -0.464
  Cl  Cl991  1  0.500000  0.810100  0.000000  1.0  -0.4529
  Cl  Cl992  1  0.000000  0.310100  0.500000  1.0  -0.4658
  Cl  Cl993  1  0.189900  0.000000  0.500000  1.0  -0.4567
  Cl  Cl994  1  0.689900  0.500000  0.000000  1.0  -0.4695
  Cl  Cl995  1  0.810100  0.000000  0.500000  1.0  -0.4557
  Cl  Cl996  1  0.310100  0.500000  0.000000  1.0  -0.4682
  O  O997  1  0.672140  0.814070  0.278500  1.0  -0.6352
  O  O998  1  0.172140  0.314070  0.778500  1.0  -0.6352
  O  O999  1  0.327860  0.185930  0.278500  1.0  -0.6348
  O  O1000  1  0.827860  0.685930  0.778500  1.0  -0.6348
  O  O1001  1  0.327860  0.814070  0.721500  1.0  -0.636
  O  O1002  1  0.827860  0.314070  0.221500  1.0  -0.636
  O  O1003  1  0.672140  0.185930  0.721500  1.0  -0.6354
  O  O1004  1  0.172140  0.685930  0.221500  1.0  -0.6354
  O  O1005  1  0.278500  0.672140  0.814070  1.0  -0.6339
  O  O1006  1  0.778500  0.172140  0.314070  1.0  -0.6339
  O  O1007  1  0.278500  0.327860  0.185930  1.0  -0.6329
  O  O1008  1  0.778500  0.827860  0.685930  1.0  -0.6329
  O  O1009  1  0.721500  0.327860  0.814070  1.0  -0.6339
  O  O1010  1  0.221500  0.827860  0.314070  1.0  -0.6339
  O  O1011  1  0.721500  0.672140  0.185930  1.0  -0.6334
  O  O1012  1  0.221500  0.172140  0.685930  1.0  -0.6334
  O  O1013  1  0.814070  0.278500  0.672140  1.0  -0.6342
  O  O1014  1  0.314070  0.778500  0.172140  1.0  -0.6342
  O  O1015  1  0.185930  0.278500  0.327860  1.0  -0.6341
  O  O1016  1  0.685930  0.778500  0.827860  1.0  -0.6341
  O  O1017  1  0.814070  0.721500  0.327860  1.0  -0.6349
  O  O1018  1  0.314070  0.221500  0.827860  1.0  -0.6349
  O  O1019  1  0.185930  0.721500  0.672140  1.0  -0.6347
  O  O1020  1  0.685930  0.221500  0.172140  1.0  -0.6347
  O  O1021  1  0.814070  0.672140  0.721500  1.0  -0.6347
  O  O1022  1  0.314070  0.172140  0.221500  1.0  -0.6347
  O  O1023  1  0.185930  0.327860  0.721500  1.0  -0.6353
  O  O1024  1  0.685930  0.827860  0.221500  1.0  -0.6353
  O  O1025  1  0.814070  0.327860  0.278500  1.0  -0.6343
  O  O1026  1  0.314070  0.827860  0.778500  1.0  -0.6343
  O  O1027  1  0.185930  0.672140  0.278500  1.0  -0.6348
  O  O1028  1  0.685930  0.172140  0.778500  1.0  -0.6348
  O  O1029  1  0.672140  0.278500  0.185930  1.0  -0.6346
  O  O1030  1  0.172140  0.778500  0.685930  1.0  -0.6346
  O  O1031  1  0.327860  0.278500  0.814070  1.0  -0.6342
  O  O1032  1  0.827860  0.778500  0.314070  1.0  -0.6342
  O  O1033  1  0.327860  0.721500  0.185930  1.0  -0.635
  O  O1034  1  0.827860  0.221500  0.685930  1.0  -0.635
  O  O1035  1  0.672140  0.721500  0.814070  1.0  -0.6349
  O  O1036  1  0.172140  0.221500  0.314070  1.0  -0.6349
  O  O1037  1  0.278500  0.814070  0.327860  1.0  -0.6339
  O  O1038  1  0.778500  0.314070  0.827860  1.0  -0.6339
  O  O1039  1  0.278500  0.185930  0.672140  1.0  -0.6334
  O  O1040  1  0.778500  0.685930  0.172140  1.0  -0.6334
  O  O1041  1  0.721500  0.814070  0.672140  1.0  -0.6339
  O  O1042  1  0.221500  0.314070  0.172140  1.0  -0.6339
  O  O1043  1  0.721500  0.185930  0.327860  1.0  -0.6337
  O  O1044  1  0.221500  0.685930  0.827860  1.0  -0.6337
  O  O1045  1  0.327860  0.185930  0.721500  1.0  -0.6355
  O  O1046  1  0.827860  0.685930  0.221500  1.0  -0.6355
  O  O1047  1  0.672140  0.814070  0.721500  1.0  -0.6356
  O  O1048  1  0.172140  0.314070  0.221500  1.0  -0.6356
  O  O1049  1  0.672140  0.185930  0.278500  1.0  -0.6351
  O  O1050  1  0.172140  0.685930  0.778500  1.0  -0.6351
  O  O1051  1  0.327860  0.814070  0.278500  1.0  -0.635
  O  O1052  1  0.827860  0.314070  0.778500  1.0  -0.635
  O  O1053  1  0.721500  0.327860  0.185930  1.0  -0.6332
  O  O1054  1  0.221500  0.827860  0.685930  1.0  -0.6332
  O  O1055  1  0.721500  0.672140  0.814070  1.0  -0.6342
  O  O1056  1  0.221500  0.172140  0.314070  1.0  -0.6342
  O  O1057  1  0.278500  0.672140  0.185930  1.0  -0.6334
  O  O1058  1  0.778500  0.172140  0.685930  1.0  -0.6334
  O  O1059  1  0.278500  0.327860  0.814070  1.0  -0.6339
  O  O1060  1  0.778500  0.827860  0.314070  1.0  -0.6339
  O  O1061  1  0.185930  0.721500  0.327860  1.0  -0.6352
  O  O1062  1  0.685930  0.221500  0.827860  1.0  -0.6352
  O  O1063  1  0.814070  0.721500  0.672140  1.0  -0.6344
  O  O1064  1  0.314070  0.221500  0.172140  1.0  -0.6344
  O  O1065  1  0.185930  0.278500  0.672140  1.0  -0.6339
  O  O1066  1  0.685930  0.778500  0.172140  1.0  -0.6339
  O  O1067  1  0.814070  0.278500  0.327860  1.0  -0.6344
  O  O1068  1  0.314070  0.778500  0.827860  1.0  -0.6344
  O  O1069  1  0.185930  0.327860  0.278500  1.0  -0.6342
  O  O1070  1  0.685930  0.827860  0.778500  1.0  -0.6342
  O  O1071  1  0.814070  0.672140  0.278500  1.0  -0.6348
  O  O1072  1  0.314070  0.172140  0.778500  1.0  -0.6348
  O  O1073  1  0.185930  0.672140  0.721500  1.0  -0.6354
  O  O1074  1  0.685930  0.172140  0.221500  1.0  -0.6354
  O  O1075  1  0.814070  0.327860  0.721500  1.0  -0.6346
  O  O1076  1  0.314070  0.827860  0.221500  1.0  -0.6346
  O  O1077  1  0.327860  0.721500  0.814070  1.0  -0.635
  O  O1078  1  0.827860  0.221500  0.314070  1.0  -0.635
  O  O1079  1  0.672140  0.721500  0.185930  1.0  -0.635
  O  O1080  1  0.172140  0.221500  0.685930  1.0  -0.635
  O  O1081  1  0.672140  0.278500  0.814070  1.0  -0.6351
  O  O1082  1  0.172140  0.778500  0.314070  1.0  -0.6351
  O  O1083  1  0.327860  0.278500  0.185930  1.0  -0.634
  O  O1084  1  0.827860  0.778500  0.685930  1.0  -0.634
  O  O1085  1  0.721500  0.185930  0.672140  1.0  -0.6338
  O  O1086  1  0.221500  0.685930  0.172140  1.0  -0.6338
  O  O1087  1  0.721500  0.814070  0.327860  1.0  -0.634
  O  O1088  1  0.221500  0.314070  0.827860  1.0  -0.634
  O  O1089  1  0.278500  0.185930  0.327860  1.0  -0.6333
  O  O1090  1  0.778500  0.685930  0.827860  1.0  -0.6333
  O  O1091  1  0.278500  0.814070  0.672140  1.0  -0.6335
  O  O1092  1  0.778500  0.314070  0.172140  1.0  -0.6335
  O  O1093  1  0.742720  0.807800  0.257280  1.0  -0.7918
  O  O1094  1  0.242720  0.307800  0.757280  1.0  -0.7918
  O  O1095  1  0.257280  0.192200  0.257280  1.0  -0.7933
  O  O1096  1  0.757280  0.692200  0.757280  1.0  -0.7933
  O  O1097  1  0.257280  0.807800  0.742720  1.0  -0.7912
  O  O1098  1  0.757280  0.307800  0.242720  1.0  -0.7912
  O  O1099  1  0.742720  0.192200  0.742720  1.0  -0.7918
  O  O1100  1  0.242720  0.692200  0.242720  1.0  -0.7918
  O  O1101  1  0.257280  0.742720  0.807800  1.0  -0.7936
  O  O1102  1  0.757280  0.242720  0.307800  1.0  -0.7936
  O  O1103  1  0.257280  0.257280  0.192200  1.0  -0.7961
  O  O1104  1  0.757280  0.757280  0.692200  1.0  -0.7961
  O  O1105  1  0.742720  0.257280  0.807800  1.0  -0.7929
  O  O1106  1  0.242720  0.757280  0.307800  1.0  -0.7929
  O  O1107  1  0.742720  0.742720  0.192200  1.0  -0.7968
  O  O1108  1  0.242720  0.242720  0.692200  1.0  -0.7968
  O  O1109  1  0.807800  0.257280  0.742720  1.0  -0.7926
  O  O1110  1  0.307800  0.757280  0.242720  1.0  -0.7926
  O  O1111  1  0.192200  0.257280  0.257280  1.0  -0.7936
  O  O1112  1  0.692200  0.757280  0.757280  1.0  -0.7936
  O  O1113  1  0.807800  0.742720  0.257280  1.0  -0.7935
  O  O1114  1  0.307800  0.242720  0.757280  1.0  -0.7935
  O  O1115  1  0.192200  0.742720  0.742720  1.0  -0.7927
  O  O1116  1  0.692200  0.242720  0.242720  1.0  -0.7927
  O  O1117  1  0.807800  0.742720  0.742720  1.0  -0.7926
  O  O1118  1  0.307800  0.242720  0.242720  1.0  -0.7926
  O  O1119  1  0.192200  0.257280  0.742720  1.0  -0.7926
  O  O1120  1  0.692200  0.757280  0.242720  1.0  -0.7926
  O  O1121  1  0.807800  0.257280  0.257280  1.0  -0.7937
  O  O1122  1  0.307800  0.757280  0.757280  1.0  -0.7937
  O  O1123  1  0.192200  0.742720  0.257280  1.0  -0.7936
  O  O1124  1  0.692200  0.242720  0.757280  1.0  -0.7936
  O  O1125  1  0.742720  0.257280  0.192200  1.0  -0.7969
  O  O1126  1  0.242720  0.757280  0.692200  1.0  -0.7969
  O  O1127  1  0.257280  0.257280  0.807800  1.0  -0.7941
  O  O1128  1  0.757280  0.757280  0.307800  1.0  -0.7941
  O  O1129  1  0.257280  0.742720  0.192200  1.0  -0.7965
  O  O1130  1  0.757280  0.242720  0.692200  1.0  -0.7965
  O  O1131  1  0.742720  0.742720  0.807800  1.0  -0.7919
  O  O1132  1  0.242720  0.242720  0.307800  1.0  -0.7919
  O  O1133  1  0.257280  0.807800  0.257280  1.0  -0.7928
  O  O1134  1  0.757280  0.307800  0.757280  1.0  -0.7928
  O  O1135  1  0.257280  0.192200  0.742720  1.0  -0.7923
  O  O1136  1  0.757280  0.692200  0.242720  1.0  -0.7923
  O  O1137  1  0.742720  0.807800  0.742720  1.0  -0.79
  O  O1138  1  0.242720  0.307800  0.242720  1.0  -0.79
  O  O1139  1  0.742720  0.192200  0.257280  1.0  -0.7929
  O  O1140  1  0.242720  0.692200  0.757280  1.0  -0.7929
  O  O1141  1  0.717130  0.717130  0.282870  1.0  -0.8027
  O  O1142  1  0.217130  0.217130  0.782870  1.0  -0.7927
  O  O1143  1  0.282870  0.282870  0.282870  1.0  -0.8002
  O  O1144  1  0.782870  0.782870  0.782870  1.0  -0.7908
  O  O1145  1  0.282870  0.717130  0.717130  1.0  -0.7977
  O  O1146  1  0.782870  0.217130  0.217130  1.0  -0.7881
  O  O1147  1  0.717130  0.282870  0.717130  1.0  -0.8041
  O  O1148  1  0.217130  0.782870  0.217130  1.0  -0.7938
  O  O1149  1  0.717130  0.717130  0.717130  1.0  -0.8011
  O  O1150  1  0.217130  0.217130  0.217130  1.0  -0.7907
  O  O1151  1  0.282870  0.282870  0.717130  1.0  -0.8004
  O  O1152  1  0.782870  0.782870  0.217130  1.0  -0.7907
  O  O1153  1  0.717130  0.282870  0.282870  1.0  -0.8027
  O  O1154  1  0.217130  0.782870  0.782870  1.0  -0.7929
  O  O1155  1  0.282870  0.717130  0.282870  1.0  -0.8004
  O  O1156  1  0.782870  0.217130  0.782870  1.0  -0.791
