# generated using pymatgen
data_Tb3H96(C21O2)8
_symmetry_space_group_name_H-M   'P 1'
_cell_length_a   88.79000000
_cell_length_b   13.98800000
_cell_length_c   27.88800000
_cell_angle_alpha   90.00000000
_cell_angle_beta   90.00000000
_cell_angle_gamma   90.00000000
_symmetry_Int_Tables_number   1
_chemical_formula_structural   Tb3H96(C21O2)8
_chemical_formula_sum   'Tb24 H768 C1344 O128'
_cell_volume   34636.74317376
_cell_formula_units_Z   8
loop_
 _symmetry_equiv_pos_site_id
 _symmetry_equiv_pos_as_xyz
  1  'x, y, z'
loop_
 _atom_site_type_symbol
 _atom_site_label
 _atom_site_symmetry_multiplicity
 _atom_site_fract_x
 _atom_site_fract_y
 _atom_site_fract_z
 _atom_site_occupancy
 _atom_site_charge
  Tb  Tb1  1  0.251010  0.561920  0.287020  1.0  2.2146
  Tb  Tb2  1  0.251010  0.061920  0.787020  1.0  2.2146
  Tb  Tb3  1  0.751010  0.561920  0.787020  1.0  2.2146
  Tb  Tb4  1  0.751010  0.061920  0.287020  1.0  2.2146
  Tb  Tb5  1  0.748990  0.438080  0.287020  1.0  2.215
  Tb  Tb6  1  0.748990  0.938080  0.787020  1.0  2.215
  Tb  Tb7  1  0.248990  0.438080  0.787020  1.0  2.215
  Tb  Tb8  1  0.248990  0.938080  0.287020  1.0  2.215
  Tb  Tb9  1  0.501010  0.688080  0.537020  1.0  2.2145
  Tb  Tb10  1  0.501010  0.188080  0.037020  1.0  2.2145
  Tb  Tb11  1  0.001010  0.688080  0.037020  1.0  2.2145
  Tb  Tb12  1  0.001010  0.188080  0.537020  1.0  2.2145
  Tb  Tb13  1  0.998990  0.811920  0.537020  1.0  2.2151
  Tb  Tb14  1  0.998990  0.311920  0.037020  1.0  2.2151
  Tb  Tb15  1  0.498990  0.811920  0.037020  1.0  2.2151
  Tb  Tb16  1  0.498990  0.311920  0.537020  1.0  2.2151
  Tb  Tb17  1  0.250000  0.250000  0.208990  1.0  2.4563
  Tb  Tb18  1  0.250000  0.750000  0.708990  1.0  2.4563
  Tb  Tb19  1  0.750000  0.750000  0.208990  1.0  2.4563
  Tb  Tb20  1  0.750000  0.250000  0.708990  1.0  2.4563
  Tb  Tb21  1  0.500000  0.000000  0.458990  1.0  2.457
  Tb  Tb22  1  0.500000  0.500000  0.958990  1.0  2.457
  Tb  Tb23  1  0.000000  0.500000  0.458990  1.0  2.457
  Tb  Tb24  1  0.000000  0.000000  0.958990  1.0  2.457
  H  H25  1  0.129600  0.124900  0.402700  1.0  0.1061
  H  H26  1  0.144600  0.999100  0.410400  1.0  0.0952
  H  H27  1  0.171200  0.016600  0.402200  1.0  0.1279
  H  H28  1  0.180200  0.145800  0.358800  1.0  0.1018
  H  H29  1  0.186200  0.220000  0.275600  1.0  0.0981
  H  H30  1  0.210900  0.254100  0.257600  1.0  0.1051
  H  H31  1  0.211300  0.442100  0.369700  1.0  0.1217
  H  H32  1  0.186800  0.414200  0.382400  1.0  0.1044
  H  H33  1  0.210500  0.383900  0.137700  1.0  0.068
  H  H34  1  0.187300  0.421700  0.115800  1.0  0.11
  H  H35  1  0.185400  0.599700  0.229600  1.0  0.0848
  H  H36  1  0.210800  0.581400  0.239800  1.0  0.1258
  H  H37  1  0.171200  0.358300  0.208400  1.0  0.0864
  H  H38  1  0.156800  0.225600  0.215200  1.0  0.1135
  H  H39  1  0.131100  0.240200  0.192900  1.0  0.0976
  H  H40  1  0.121000  0.376000  0.164500  1.0  0.1036
  H  H41  1  0.128900  0.715000  0.112700  1.0  0.1248
  H  H42  1  0.144800  0.843400  0.096500  1.0  0.115
  H  H43  1  0.171900  0.820300  0.108400  1.0  0.1064
  H  H44  1  0.180700  0.687500  0.142300  1.0  0.1278
  H  H45  1  0.134600  0.545700  0.051200  1.0  0.1177
  H  H46  1  0.125700  0.539000  0.975700  1.0  0.0885
  H  H47  1  0.100300  0.531900  0.956900  1.0  0.1008
  H  H48  1  0.083600  0.549800  0.013600  1.0  0.0905
  H  H49  1  0.121400  0.559200  0.230000  1.0  0.0929
  H  H50  1  0.103600  0.580800  0.286600  1.0  0.1218
  H  H51  1  0.079100  0.555400  0.268300  1.0  0.0778
  H  H52  1  0.070000  0.561100  0.195100  1.0  0.1222
  H  H53  1  0.070000  0.398800  0.111400  1.0  0.1083
  H  H54  1  0.046500  0.370100  0.080100  1.0  0.0986
  H  H55  1  0.041800  0.648500  0.057800  1.0  0.1024
  H  H56  1  0.064900  0.672700  0.092000  1.0  0.1197
  H  H57  1  0.172200  0.482500  0.295700  1.0  0.1216
  H  H58  1  0.155600  0.600000  0.285500  1.0  0.0748
  H  H59  1  0.131700  0.593700  0.310000  1.0  0.1152
  H  H60  1  0.122400  0.466200  0.342500  1.0  0.0909
  H  H61  1  0.121900  0.272300  0.280100  1.0  0.1059
  H  H62  1  0.102500  0.270200  0.220000  1.0  0.1
  H  H63  1  0.077500  0.284600  0.242800  1.0  0.1251
  H  H64  1  0.071300  0.277900  0.323100  1.0  0.0811
  H  H65  1  0.084800  0.282100  0.492100  1.0  0.1194
  H  H66  1  0.104300  0.300400  0.552100  1.0  0.1102
  H  H67  1  0.129400  0.300800  0.526400  1.0  0.0809
  H  H68  1  0.136600  0.297500  0.452300  1.0  0.1313
  H  H69  1  0.069700  0.155000  0.436600  1.0  0.1246
  H  H70  1  0.044900  0.170100  0.467100  1.0  0.0942
  H  H71  1  0.043700  0.433500  0.417400  1.0  0.0946
  H  H72  1  0.069000  0.430500  0.402300  1.0  0.1312
  H  H73  1  0.129600  0.624900  0.902700  1.0  0.1061
  H  H74  1  0.144600  0.499100  0.910400  1.0  0.0952
  H  H75  1  0.171200  0.516600  0.902200  1.0  0.1279
  H  H76  1  0.180200  0.645800  0.858800  1.0  0.1018
  H  H77  1  0.186200  0.720000  0.775600  1.0  0.0981
  H  H78  1  0.210900  0.754100  0.757600  1.0  0.1051
  H  H79  1  0.211300  0.942100  0.869700  1.0  0.122
  H  H80  1  0.186800  0.914200  0.882400  1.0  0.1044
  H  H81  1  0.210500  0.883900  0.637700  1.0  0.068
  H  H82  1  0.187300  0.921700  0.615800  1.0  0.11
  H  H83  1  0.185400  0.099700  0.729600  1.0  0.0848
  H  H84  1  0.210800  0.081400  0.739800  1.0  0.1258
  H  H85  1  0.171200  0.858300  0.708400  1.0  0.0864
  H  H86  1  0.156800  0.725600  0.715200  1.0  0.1135
  H  H87  1  0.131100  0.740200  0.692900  1.0  0.0976
  H  H88  1  0.121000  0.876000  0.664500  1.0  0.1036
  H  H89  1  0.128900  0.215000  0.612700  1.0  0.1248
  H  H90  1  0.144800  0.343400  0.596500  1.0  0.115
  H  H91  1  0.171900  0.320300  0.608400  1.0  0.1064
  H  H92  1  0.180700  0.187500  0.642300  1.0  0.1278
  H  H93  1  0.134600  0.045700  0.551200  1.0  0.1177
  H  H94  1  0.125700  0.039000  0.475700  1.0  0.0885
  H  H95  1  0.100300  0.031900  0.456900  1.0  0.1008
  H  H96  1  0.083600  0.049800  0.513600  1.0  0.0905
  H  H97  1  0.121400  0.059200  0.730000  1.0  0.0929
  H  H98  1  0.103600  0.080800  0.786600  1.0  0.1218
  H  H99  1  0.079100  0.055400  0.768300  1.0  0.0778
  H  H100  1  0.070000  0.061100  0.695100  1.0  0.1222
  H  H101  1  0.070000  0.898800  0.611400  1.0  0.1083
  H  H102  1  0.046500  0.870100  0.580100  1.0  0.0986
  H  H103  1  0.041800  0.148500  0.557800  1.0  0.1024
  H  H104  1  0.064900  0.172700  0.592000  1.0  0.1197
  H  H105  1  0.172200  0.982500  0.795700  1.0  0.1216
  H  H106  1  0.155600  0.100000  0.785500  1.0  0.0748
  H  H107  1  0.131700  0.093700  0.810000  1.0  0.1152
  H  H108  1  0.122400  0.966200  0.842500  1.0  0.0909
  H  H109  1  0.121900  0.772300  0.780100  1.0  0.1059
  H  H110  1  0.102500  0.770200  0.720000  1.0  0.1
  H  H111  1  0.077500  0.784600  0.742800  1.0  0.1251
  H  H112  1  0.071300  0.777900  0.823100  1.0  0.0811
  H  H113  1  0.084800  0.782100  0.992100  1.0  0.1194
  H  H114  1  0.104300  0.800400  0.052100  1.0  0.1102
  H  H115  1  0.129400  0.800800  0.026400  1.0  0.0811
  H  H116  1  0.136600  0.797500  0.952300  1.0  0.1313
  H  H117  1  0.069700  0.655000  0.936600  1.0  0.1246
  H  H118  1  0.044900  0.670100  0.967100  1.0  0.0946
  H  H119  1  0.043700  0.933500  0.917400  1.0  0.0946
  H  H120  1  0.069000  0.930500  0.902300  1.0  0.1312
  H  H121  1  0.629600  0.124900  0.902700  1.0  0.1061
  H  H122  1  0.644600  0.999100  0.910400  1.0  0.0952
  H  H123  1  0.671200  0.016600  0.902200  1.0  0.1279
  H  H124  1  0.680200  0.145800  0.858800  1.0  0.1017
  H  H125  1  0.686200  0.220000  0.775600  1.0  0.098
  H  H126  1  0.710900  0.254100  0.757600  1.0  0.1051
  H  H127  1  0.711300  0.442100  0.869700  1.0  0.1225
  H  H128  1  0.686800  0.414200  0.882400  1.0  0.1044
  H  H129  1  0.710500  0.383900  0.637700  1.0  0.068
  H  H130  1  0.687300  0.421700  0.615800  1.0  0.11
  H  H131  1  0.685400  0.599700  0.729600  1.0  0.0848
  H  H132  1  0.710800  0.581400  0.739800  1.0  0.1258
  H  H133  1  0.671200  0.358300  0.708400  1.0  0.0864
  H  H134  1  0.656800  0.225600  0.715200  1.0  0.1135
  H  H135  1  0.631100  0.240200  0.692900  1.0  0.0976
  H  H136  1  0.621000  0.376000  0.664500  1.0  0.1036
  H  H137  1  0.628900  0.715000  0.612700  1.0  0.1248
  H  H138  1  0.644800  0.843400  0.596500  1.0  0.115
  H  H139  1  0.671900  0.820300  0.608400  1.0  0.1064
  H  H140  1  0.680700  0.687500  0.642300  1.0  0.1278
  H  H141  1  0.634600  0.545700  0.551200  1.0  0.1177
  H  H142  1  0.625700  0.539000  0.475700  1.0  0.0885
  H  H143  1  0.600300  0.531900  0.456900  1.0  0.1008
  H  H144  1  0.583600  0.549800  0.513600  1.0  0.0905
  H  H145  1  0.621400  0.559200  0.730000  1.0  0.0929
  H  H146  1  0.603600  0.580800  0.786600  1.0  0.1218
  H  H147  1  0.579100  0.555400  0.768300  1.0  0.0778
  H  H148  1  0.570000  0.561100  0.695100  1.0  0.1222
  H  H149  1  0.570000  0.398800  0.611400  1.0  0.1083
  H  H150  1  0.546500  0.370100  0.580100  1.0  0.0986
  H  H151  1  0.541800  0.648500  0.557800  1.0  0.1024
  H  H152  1  0.564900  0.672700  0.592000  1.0  0.1197
  H  H153  1  0.672200  0.482500  0.795700  1.0  0.1216
  H  H154  1  0.655600  0.600000  0.785500  1.0  0.0748
  H  H155  1  0.631700  0.593700  0.810000  1.0  0.1152
  H  H156  1  0.622400  0.466200  0.842500  1.0  0.0909
  H  H157  1  0.621900  0.272300  0.780100  1.0  0.1059
  H  H158  1  0.602500  0.270200  0.720000  1.0  0.1
  H  H159  1  0.577500  0.284600  0.742800  1.0  0.1251
  H  H160  1  0.571300  0.277900  0.823100  1.0  0.0811
  H  H161  1  0.584800  0.282100  0.992100  1.0  0.1194
  H  H162  1  0.604300  0.300400  0.052100  1.0  0.1102
  H  H163  1  0.629400  0.300800  0.026400  1.0  0.0809
  H  H164  1  0.636600  0.297500  0.952300  1.0  0.1313
  H  H165  1  0.569700  0.155000  0.936600  1.0  0.1246
  H  H166  1  0.544900  0.170100  0.967100  1.0  0.0942
  H  H167  1  0.543700  0.433500  0.917400  1.0  0.0946
  H  H168  1  0.569000  0.430500  0.902300  1.0  0.1312
  H  H169  1  0.629600  0.624900  0.402700  1.0  0.1061
  H  H170  1  0.644600  0.499100  0.410400  1.0  0.0952
  H  H171  1  0.671200  0.516600  0.402200  1.0  0.1279
  H  H172  1  0.680200  0.645800  0.358800  1.0  0.1017
  H  H173  1  0.686200  0.720000  0.275600  1.0  0.098
  H  H174  1  0.710900  0.754100  0.257600  1.0  0.1051
  H  H175  1  0.711300  0.942100  0.369700  1.0  0.1217
  H  H176  1  0.686800  0.914200  0.382400  1.0  0.1044
  H  H177  1  0.710500  0.883900  0.137700  1.0  0.0682
  H  H178  1  0.687300  0.921700  0.115800  1.0  0.11
  H  H179  1  0.685400  0.099700  0.229600  1.0  0.0848
  H  H180  1  0.710800  0.081400  0.239800  1.0  0.1258
  H  H181  1  0.671200  0.858300  0.208400  1.0  0.0864
  H  H182  1  0.656800  0.725600  0.215200  1.0  0.1135
  H  H183  1  0.631100  0.740200  0.192900  1.0  0.0976
  H  H184  1  0.621000  0.876000  0.164500  1.0  0.1036
  H  H185  1  0.628900  0.215000  0.112700  1.0  0.1248
  H  H186  1  0.644800  0.343400  0.096500  1.0  0.115
  H  H187  1  0.671900  0.320300  0.108400  1.0  0.1064
  H  H188  1  0.680700  0.187500  0.142300  1.0  0.1278
  H  H189  1  0.634600  0.045700  0.051200  1.0  0.1177
  H  H190  1  0.625700  0.039000  0.975700  1.0  0.0885
  H  H191  1  0.600300  0.031900  0.956900  1.0  0.1008
  H  H192  1  0.583600  0.049800  0.013600  1.0  0.0905
  H  H193  1  0.621400  0.059200  0.230000  1.0  0.0929
  H  H194  1  0.603600  0.080800  0.286600  1.0  0.1218
  H  H195  1  0.579100  0.055400  0.268300  1.0  0.0778
  H  H196  1  0.570000  0.061100  0.195100  1.0  0.1222
  H  H197  1  0.570000  0.898800  0.111400  1.0  0.1083
  H  H198  1  0.546500  0.870100  0.080100  1.0  0.0986
  H  H199  1  0.541800  0.148500  0.057800  1.0  0.1024
  H  H200  1  0.564900  0.172700  0.092000  1.0  0.1197
  H  H201  1  0.672200  0.982500  0.295700  1.0  0.1216
  H  H202  1  0.655600  0.100000  0.285500  1.0  0.0748
  H  H203  1  0.631700  0.093700  0.310000  1.0  0.1152
  H  H204  1  0.622400  0.966200  0.342500  1.0  0.0909
  H  H205  1  0.621900  0.772300  0.280100  1.0  0.1059
  H  H206  1  0.602500  0.770200  0.220000  1.0  0.1
  H  H207  1  0.577500  0.784600  0.242800  1.0  0.1251
  H  H208  1  0.571300  0.777900  0.323100  1.0  0.0811
  H  H209  1  0.584800  0.782100  0.492100  1.0  0.1194
  H  H210  1  0.604300  0.800400  0.552100  1.0  0.1102
  H  H211  1  0.629400  0.800800  0.526400  1.0  0.0811
  H  H212  1  0.636600  0.797500  0.452300  1.0  0.1313
  H  H213  1  0.569700  0.655000  0.436600  1.0  0.1246
  H  H214  1  0.544900  0.670100  0.467100  1.0  0.0946
  H  H215  1  0.543700  0.933500  0.417400  1.0  0.0946
  H  H216  1  0.569000  0.930500  0.402300  1.0  0.1312
  H  H217  1  0.870400  0.875100  0.402700  1.0  0.107
  H  H218  1  0.855400  0.000900  0.410400  1.0  0.0953
  H  H219  1  0.828800  0.983400  0.402200  1.0  0.1277
  H  H220  1  0.819800  0.854200  0.358800  1.0  0.1027
  H  H221  1  0.813800  0.780000  0.275600  1.0  0.098
  H  H222  1  0.789100  0.745900  0.257600  1.0  0.1057
  H  H223  1  0.788700  0.557900  0.369700  1.0  0.1233
  H  H224  1  0.813200  0.585800  0.382400  1.0  0.1048
  H  H225  1  0.789500  0.616100  0.137700  1.0  0.0664
  H  H226  1  0.812700  0.578300  0.115800  1.0  0.11
  H  H227  1  0.814600  0.400300  0.229600  1.0  0.0852
  H  H228  1  0.789200  0.418600  0.239800  1.0  0.1256
  H  H229  1  0.828800  0.641700  0.208400  1.0  0.0863
  H  H230  1  0.843200  0.774400  0.215200  1.0  0.1132
  H  H231  1  0.868900  0.759800  0.192900  1.0  0.0971
  H  H232  1  0.879000  0.624000  0.164500  1.0  0.1035
  H  H233  1  0.871100  0.285000  0.112700  1.0  0.125
  H  H234  1  0.855200  0.156600  0.096500  1.0  0.115
  H  H235  1  0.828100  0.179700  0.108400  1.0  0.106
  H  H236  1  0.819300  0.312500  0.142300  1.0  0.1278
  H  H237  1  0.865400  0.454300  0.051200  1.0  0.1172
  H  H238  1  0.874300  0.461000  0.975700  1.0  0.089
  H  H239  1  0.899700  0.468100  0.956900  1.0  0.1006
  H  H240  1  0.916400  0.450200  0.013600  1.0  0.0915
  H  H241  1  0.878600  0.440800  0.230000  1.0  0.0927
  H  H242  1  0.896400  0.419200  0.286600  1.0  0.122
  H  H243  1  0.920900  0.444600  0.268300  1.0  0.0778
  H  H244  1  0.930000  0.438900  0.195100  1.0  0.1212
  H  H245  1  0.930000  0.601200  0.111400  1.0  0.1075
  H  H246  1  0.953500  0.629900  0.080100  1.0  0.0984
  H  H247  1  0.958200  0.351500  0.057800  1.0  0.1018
  H  H248  1  0.935100  0.327300  0.092000  1.0  0.1203
  H  H249  1  0.827800  0.517500  0.295700  1.0  0.1219
  H  H250  1  0.844400  0.400000  0.285500  1.0  0.0743
  H  H251  1  0.868300  0.406300  0.310000  1.0  0.1153
  H  H252  1  0.877600  0.533800  0.342500  1.0  0.0913
  H  H253  1  0.878100  0.727700  0.280100  1.0  0.1064
  H  H254  1  0.897500  0.729800  0.220000  1.0  0.1
  H  H255  1  0.922500  0.715400  0.242800  1.0  0.1251
  H  H256  1  0.928700  0.722100  0.323100  1.0  0.0801
  H  H257  1  0.915200  0.717900  0.492100  1.0  0.1194
  H  H258  1  0.895700  0.699600  0.552100  1.0  0.1102
  H  H259  1  0.870600  0.699200  0.526400  1.0  0.0804
  H  H260  1  0.863400  0.702500  0.452300  1.0  0.1317
  H  H261  1  0.930300  0.845000  0.436600  1.0  0.128
  H  H262  1  0.955100  0.829900  0.467100  1.0  0.0943
  H  H263  1  0.956300  0.566500  0.417400  1.0  0.0949
  H  H264  1  0.931000  0.569500  0.402300  1.0  0.1305
  H  H265  1  0.870400  0.375100  0.902700  1.0  0.107
  H  H266  1  0.855400  0.500900  0.910400  1.0  0.0953
  H  H267  1  0.828800  0.483400  0.902200  1.0  0.1277
  H  H268  1  0.819800  0.354200  0.858800  1.0  0.1027
  H  H269  1  0.813800  0.280000  0.775600  1.0  0.098
  H  H270  1  0.789100  0.245900  0.757600  1.0  0.1057
  H  H271  1  0.788700  0.057900  0.869700  1.0  0.1238
  H  H272  1  0.813200  0.085800  0.882400  1.0  0.1048
  H  H273  1  0.789500  0.116100  0.637700  1.0  0.0664
  H  H274  1  0.812700  0.078300  0.615800  1.0  0.11
  H  H275  1  0.814600  0.900300  0.729600  1.0  0.0852
  H  H276  1  0.789200  0.918600  0.739800  1.0  0.1256
  H  H277  1  0.828800  0.141700  0.708400  1.0  0.0863
  H  H278  1  0.843200  0.274400  0.715200  1.0  0.1132
  H  H279  1  0.868900  0.259800  0.692900  1.0  0.0971
  H  H280  1  0.879000  0.124000  0.664500  1.0  0.1035
  H  H281  1  0.871100  0.785000  0.612700  1.0  0.125
  H  H282  1  0.855200  0.656600  0.596500  1.0  0.115
  H  H283  1  0.828100  0.679700  0.608400  1.0  0.106
  H  H284  1  0.819300  0.812500  0.642300  1.0  0.1278
  H  H285  1  0.865400  0.954300  0.551200  1.0  0.1172
  H  H286  1  0.874300  0.961000  0.475700  1.0  0.089
  H  H287  1  0.899700  0.968100  0.456900  1.0  0.1006
  H  H288  1  0.916400  0.950200  0.513600  1.0  0.0915
  H  H289  1  0.878600  0.940800  0.730000  1.0  0.0927
  H  H290  1  0.896400  0.919200  0.786600  1.0  0.122
  H  H291  1  0.920900  0.944600  0.768300  1.0  0.0778
  H  H292  1  0.930000  0.938900  0.695100  1.0  0.1212
  H  H293  1  0.930000  0.101200  0.611400  1.0  0.1075
  H  H294  1  0.953500  0.129900  0.580100  1.0  0.0984
  H  H295  1  0.958200  0.851500  0.557800  1.0  0.1018
  H  H296  1  0.935100  0.827300  0.592000  1.0  0.1203
  H  H297  1  0.827800  0.017500  0.795700  1.0  0.1219
  H  H298  1  0.844400  0.900000  0.785500  1.0  0.0743
  H  H299  1  0.868300  0.906300  0.810000  1.0  0.1153
  H  H300  1  0.877600  0.033800  0.842500  1.0  0.0913
  H  H301  1  0.878100  0.227700  0.780100  1.0  0.1064
  H  H302  1  0.897500  0.229800  0.720000  1.0  0.1
  H  H303  1  0.922500  0.215400  0.742800  1.0  0.1251
  H  H304  1  0.928700  0.222100  0.823100  1.0  0.0801
  H  H305  1  0.915200  0.217900  0.992100  1.0  0.1194
  H  H306  1  0.895700  0.199600  0.052100  1.0  0.1102
  H  H307  1  0.870600  0.199200  0.026400  1.0  0.0806
  H  H308  1  0.863400  0.202500  0.952300  1.0  0.1317
  H  H309  1  0.930300  0.345000  0.936600  1.0  0.128
  H  H310  1  0.955100  0.329900  0.967100  1.0  0.0947
  H  H311  1  0.956300  0.066500  0.917400  1.0  0.0949
  H  H312  1  0.931000  0.069500  0.902300  1.0  0.1305
  H  H313  1  0.370400  0.875100  0.902700  1.0  0.107
  H  H314  1  0.355400  0.000900  0.910400  1.0  0.0953
  H  H315  1  0.328800  0.983400  0.902200  1.0  0.1277
  H  H316  1  0.319800  0.854200  0.858800  1.0  0.1026
  H  H317  1  0.313800  0.780000  0.775600  1.0  0.098
  H  H318  1  0.289100  0.745900  0.757600  1.0  0.1056
  H  H319  1  0.288700  0.557900  0.869700  1.0  0.1242
  H  H320  1  0.313200  0.585800  0.882400  1.0  0.1048
  H  H321  1  0.289500  0.616100  0.637700  1.0  0.0664
  H  H322  1  0.312700  0.578300  0.615800  1.0  0.11
  H  H323  1  0.314600  0.400300  0.729600  1.0  0.0852
  H  H324  1  0.289200  0.418600  0.739800  1.0  0.1256
  H  H325  1  0.328800  0.641700  0.708400  1.0  0.0863
  H  H326  1  0.343200  0.774400  0.715200  1.0  0.1133
  H  H327  1  0.368900  0.759800  0.692900  1.0  0.0971
  H  H328  1  0.379000  0.624000  0.664500  1.0  0.1035
  H  H329  1  0.371100  0.285000  0.612700  1.0  0.125
  H  H330  1  0.355200  0.156600  0.596500  1.0  0.115
  H  H331  1  0.328100  0.179700  0.608400  1.0  0.106
  H  H332  1  0.319300  0.312500  0.642300  1.0  0.1278
  H  H333  1  0.365400  0.454300  0.551200  1.0  0.1172
  H  H334  1  0.374300  0.461000  0.475700  1.0  0.089
  H  H335  1  0.399700  0.468100  0.456900  1.0  0.1006
  H  H336  1  0.416400  0.450200  0.513600  1.0  0.0915
  H  H337  1  0.378600  0.440800  0.730000  1.0  0.0927
  H  H338  1  0.396400  0.419200  0.786600  1.0  0.122
  H  H339  1  0.420900  0.444600  0.768300  1.0  0.0778
  H  H340  1  0.430000  0.438900  0.695100  1.0  0.1212
  H  H341  1  0.430000  0.601200  0.611400  1.0  0.1075
  H  H342  1  0.453500  0.629900  0.580100  1.0  0.0984
  H  H343  1  0.458200  0.351500  0.557800  1.0  0.1018
  H  H344  1  0.435100  0.327300  0.592000  1.0  0.1203
  H  H345  1  0.327800  0.517500  0.795700  1.0  0.1219
  H  H346  1  0.344400  0.400000  0.785500  1.0  0.0743
  H  H347  1  0.368300  0.406300  0.810000  1.0  0.1153
  H  H348  1  0.377600  0.533800  0.842500  1.0  0.0913
  H  H349  1  0.378100  0.727700  0.780100  1.0  0.1064
  H  H350  1  0.397500  0.729800  0.720000  1.0  0.1
  H  H351  1  0.422500  0.715400  0.742800  1.0  0.1251
  H  H352  1  0.428700  0.722100  0.823100  1.0  0.0801
  H  H353  1  0.415200  0.717900  0.992100  1.0  0.1194
  H  H354  1  0.395700  0.699600  0.052100  1.0  0.1102
  H  H355  1  0.370600  0.699200  0.026400  1.0  0.0804
  H  H356  1  0.363400  0.702500  0.952300  1.0  0.1318
  H  H357  1  0.430300  0.845000  0.936600  1.0  0.128
  H  H358  1  0.455100  0.829900  0.967100  1.0  0.0943
  H  H359  1  0.456300  0.566500  0.917400  1.0  0.0949
  H  H360  1  0.431000  0.569500  0.902300  1.0  0.1305
  H  H361  1  0.370400  0.375100  0.402700  1.0  0.107
  H  H362  1  0.355400  0.500900  0.410400  1.0  0.0953
  H  H363  1  0.328800  0.483400  0.402200  1.0  0.1277
  H  H364  1  0.319800  0.354200  0.358800  1.0  0.1026
  H  H365  1  0.313800  0.280000  0.275600  1.0  0.098
  H  H366  1  0.289100  0.245900  0.257600  1.0  0.1056
  H  H367  1  0.288700  0.057900  0.369700  1.0  0.1233
  H  H368  1  0.313200  0.085800  0.382400  1.0  0.1048
  H  H369  1  0.289500  0.116100  0.137700  1.0  0.0667
  H  H370  1  0.312700  0.078300  0.115800  1.0  0.11
  H  H371  1  0.314600  0.900300  0.229600  1.0  0.0852
  H  H372  1  0.289200  0.918600  0.239800  1.0  0.1256
  H  H373  1  0.328800  0.141700  0.208400  1.0  0.0863
  H  H374  1  0.343200  0.274400  0.215200  1.0  0.1133
  H  H375  1  0.368900  0.259800  0.192900  1.0  0.0971
  H  H376  1  0.379000  0.124000  0.164500  1.0  0.1035
  H  H377  1  0.371100  0.785000  0.112700  1.0  0.125
  H  H378  1  0.355200  0.656600  0.096500  1.0  0.115
  H  H379  1  0.328100  0.679700  0.108400  1.0  0.106
  H  H380  1  0.319300  0.812500  0.142300  1.0  0.1278
  H  H381  1  0.365400  0.954300  0.051200  1.0  0.1172
  H  H382  1  0.374300  0.961000  0.975700  1.0  0.089
  H  H383  1  0.399700  0.968100  0.956900  1.0  0.1006
  H  H384  1  0.416400  0.950200  0.013600  1.0  0.0915
  H  H385  1  0.378600  0.940800  0.230000  1.0  0.0927
  H  H386  1  0.396400  0.919200  0.286600  1.0  0.122
  H  H387  1  0.420900  0.944600  0.268300  1.0  0.0778
  H  H388  1  0.430000  0.938900  0.195100  1.0  0.1212
  H  H389  1  0.430000  0.101200  0.111400  1.0  0.1075
  H  H390  1  0.453500  0.129900  0.080100  1.0  0.0984
  H  H391  1  0.458200  0.851500  0.057800  1.0  0.1018
  H  H392  1  0.435100  0.827300  0.092000  1.0  0.1203
  H  H393  1  0.327800  0.017500  0.295700  1.0  0.1219
  H  H394  1  0.344400  0.900000  0.285500  1.0  0.0743
  H  H395  1  0.368300  0.906300  0.310000  1.0  0.1153
  H  H396  1  0.377600  0.033800  0.342500  1.0  0.0913
  H  H397  1  0.378100  0.227700  0.280100  1.0  0.1064
  H  H398  1  0.397500  0.229800  0.220000  1.0  0.1
  H  H399  1  0.422500  0.215400  0.242800  1.0  0.1251
  H  H400  1  0.428700  0.222100  0.323100  1.0  0.0801
  H  H401  1  0.415200  0.217900  0.492100  1.0  0.1194
  H  H402  1  0.395700  0.199600  0.552100  1.0  0.1102
  H  H403  1  0.370600  0.199200  0.526400  1.0  0.0806
  H  H404  1  0.363400  0.202500  0.452300  1.0  0.1318
  H  H405  1  0.430300  0.345000  0.436600  1.0  0.128
  H  H406  1  0.455100  0.329900  0.467100  1.0  0.0947
  H  H407  1  0.456300  0.066500  0.417400  1.0  0.0949
  H  H408  1  0.431000  0.069500  0.402300  1.0  0.1305
  H  H409  1  0.379600  0.125100  0.652700  1.0  0.1061
  H  H410  1  0.394600  0.250900  0.660400  1.0  0.0949
  H  H411  1  0.421200  0.233400  0.652200  1.0  0.1277
  H  H412  1  0.430200  0.104200  0.608800  1.0  0.1011
  H  H413  1  0.436200  0.030000  0.525600  1.0  0.0982
  H  H414  1  0.460900  0.995900  0.507600  1.0  0.1054
  H  H415  1  0.461300  0.807900  0.619700  1.0  0.1221
  H  H416  1  0.436800  0.835800  0.632400  1.0  0.1043
  H  H417  1  0.460500  0.866100  0.387700  1.0  0.0676
  H  H418  1  0.437300  0.828300  0.365800  1.0  0.1101
  H  H419  1  0.435400  0.650300  0.479600  1.0  0.0851
  H  H420  1  0.460800  0.668600  0.489800  1.0  0.1256
  H  H421  1  0.421200  0.891700  0.458400  1.0  0.0862
  H  H422  1  0.406800  0.024400  0.465200  1.0  0.1132
  H  H423  1  0.381100  0.009800  0.442900  1.0  0.0977
  H  H424  1  0.371000  0.874000  0.414500  1.0  0.1039
  H  H425  1  0.378900  0.535000  0.362700  1.0  0.1247
  H  H426  1  0.394800  0.406600  0.346500  1.0  0.1153
  H  H427  1  0.421900  0.429700  0.358400  1.0  0.1063
  H  H428  1  0.430700  0.562500  0.392300  1.0  0.1279
  H  H429  1  0.384600  0.704300  0.301200  1.0  0.1177
  H  H430  1  0.375700  0.711000  0.225700  1.0  0.0884
  H  H431  1  0.350300  0.718100  0.206900  1.0  0.1006
  H  H432  1  0.333600  0.700200  0.263600  1.0  0.0906
  H  H433  1  0.371400  0.690800  0.480000  1.0  0.0927
  H  H434  1  0.353600  0.669200  0.536600  1.0  0.1222
  H  H435  1  0.329100  0.694600  0.518300  1.0  0.0774
  H  H436  1  0.320000  0.688900  0.445100  1.0  0.1223
  H  H437  1  0.320000  0.851200  0.361400  1.0  0.1073
  H  H438  1  0.296500  0.879900  0.330100  1.0  0.0985
  H  H439  1  0.291800  0.601500  0.307800  1.0  0.1022
  H  H440  1  0.314900  0.577300  0.342000  1.0  0.1198
  H  H441  1  0.422200  0.767500  0.545700  1.0  0.1217
  H  H442  1  0.405600  0.650000  0.535500  1.0  0.0743
  H  H443  1  0.381700  0.656300  0.560000  1.0  0.1154
  H  H444  1  0.372400  0.783800  0.592500  1.0  0.0907
  H  H445  1  0.371900  0.977700  0.530100  1.0  0.1058
  H  H446  1  0.352500  0.979800  0.470000  1.0  0.0999
  H  H447  1  0.327500  0.965400  0.492800  1.0  0.1252
  H  H448  1  0.321300  0.972100  0.573100  1.0  0.0811
  H  H449  1  0.334800  0.967900  0.742100  1.0  0.1195
  H  H450  1  0.354300  0.949600  0.802100  1.0  0.1101
  H  H451  1  0.379400  0.949200  0.776400  1.0  0.081
  H  H452  1  0.386600  0.952500  0.702300  1.0  0.1314
  H  H453  1  0.319700  0.095000  0.686600  1.0  0.1265
  H  H454  1  0.294900  0.079900  0.717100  1.0  0.0945
  H  H455  1  0.293700  0.816500  0.667400  1.0  0.0943
  H  H456  1  0.319000  0.819500  0.652300  1.0  0.1312
  H  H457  1  0.379600  0.625100  0.152700  1.0  0.1061
  H  H458  1  0.394600  0.750900  0.160400  1.0  0.0949
  H  H459  1  0.421200  0.733400  0.152200  1.0  0.1277
  H  H460  1  0.430200  0.604200  0.108800  1.0  0.1011
  H  H461  1  0.436200  0.530000  0.025600  1.0  0.0982
  H  H462  1  0.460900  0.495900  0.007600  1.0  0.1054
  H  H463  1  0.461300  0.307900  0.119700  1.0  0.1221
  H  H464  1  0.436800  0.335800  0.132400  1.0  0.1043
  H  H465  1  0.460500  0.366100  0.887700  1.0  0.0676
  H  H466  1  0.437300  0.328300  0.865800  1.0  0.1101
  H  H467  1  0.435400  0.150300  0.979600  1.0  0.0851
  H  H468  1  0.460800  0.168600  0.989800  1.0  0.1256
  H  H469  1  0.421200  0.391700  0.958400  1.0  0.0862
  H  H470  1  0.406800  0.524400  0.965200  1.0  0.1132
  H  H471  1  0.381100  0.509800  0.942900  1.0  0.0977
  H  H472  1  0.371000  0.374000  0.914500  1.0  0.1039
  H  H473  1  0.378900  0.035000  0.862700  1.0  0.1247
  H  H474  1  0.394800  0.906600  0.846500  1.0  0.1153
  H  H475  1  0.421900  0.929700  0.858400  1.0  0.1063
  H  H476  1  0.430700  0.062500  0.892300  1.0  0.1279
  H  H477  1  0.384600  0.204300  0.801200  1.0  0.1177
  H  H478  1  0.375700  0.211000  0.725700  1.0  0.0884
  H  H479  1  0.350300  0.218100  0.706900  1.0  0.1006
  H  H480  1  0.333600  0.200200  0.763600  1.0  0.0906
  H  H481  1  0.371400  0.190800  0.980000  1.0  0.0927
  H  H482  1  0.353600  0.169200  0.036600  1.0  0.1222
  H  H483  1  0.329100  0.194600  0.018300  1.0  0.0774
  H  H484  1  0.320000  0.188900  0.945100  1.0  0.1223
  H  H485  1  0.320000  0.351200  0.861400  1.0  0.1073
  H  H486  1  0.296500  0.379900  0.830100  1.0  0.0985
  H  H487  1  0.291800  0.101500  0.807800  1.0  0.1022
  H  H488  1  0.314900  0.077300  0.842000  1.0  0.1198
  H  H489  1  0.422200  0.267500  0.045700  1.0  0.1217
  H  H490  1  0.405600  0.150000  0.035500  1.0  0.0743
  H  H491  1  0.381700  0.156300  0.060000  1.0  0.1154
  H  H492  1  0.372400  0.283800  0.092500  1.0  0.0907
  H  H493  1  0.371900  0.477700  0.030100  1.0  0.1058
  H  H494  1  0.352500  0.479800  0.970000  1.0  0.0999
  H  H495  1  0.327500  0.465400  0.992800  1.0  0.1252
  H  H496  1  0.321300  0.472100  0.073100  1.0  0.0811
  H  H497  1  0.334800  0.467900  0.242100  1.0  0.1195
  H  H498  1  0.354300  0.449600  0.302100  1.0  0.1101
  H  H499  1  0.379400  0.449200  0.276400  1.0  0.0812
  H  H500  1  0.386600  0.452500  0.202300  1.0  0.1314
  H  H501  1  0.319700  0.595000  0.186600  1.0  0.1265
  H  H502  1  0.294900  0.579900  0.217100  1.0  0.0949
  H  H503  1  0.293700  0.316500  0.167400  1.0  0.0943
  H  H504  1  0.319000  0.319500  0.152300  1.0  0.1312
  H  H505  1  0.879600  0.125100  0.152700  1.0  0.1061
  H  H506  1  0.894600  0.250900  0.160400  1.0  0.0949
  H  H507  1  0.921200  0.233400  0.152200  1.0  0.1277
  H  H508  1  0.930200  0.104200  0.108800  1.0  0.1011
  H  H509  1  0.936200  0.030000  0.025600  1.0  0.0982
  H  H510  1  0.960900  0.995900  0.007600  1.0  0.1054
  H  H511  1  0.961300  0.807900  0.119700  1.0  0.1221
  H  H512  1  0.936800  0.835800  0.132400  1.0  0.1043
  H  H513  1  0.960500  0.866100  0.887700  1.0  0.0676
  H  H514  1  0.937300  0.828300  0.865800  1.0  0.1101
  H  H515  1  0.935400  0.650300  0.979600  1.0  0.0851
  H  H516  1  0.960800  0.668600  0.989800  1.0  0.1256
  H  H517  1  0.921200  0.891700  0.958400  1.0  0.0862
  H  H518  1  0.906800  0.024400  0.965200  1.0  0.1132
  H  H519  1  0.881100  0.009800  0.942900  1.0  0.0977
  H  H520  1  0.871000  0.874000  0.914500  1.0  0.1039
  H  H521  1  0.878900  0.535000  0.862700  1.0  0.1247
  H  H522  1  0.894800  0.406600  0.846500  1.0  0.1153
  H  H523  1  0.921900  0.429700  0.858400  1.0  0.1063
  H  H524  1  0.930700  0.562500  0.892300  1.0  0.1279
  H  H525  1  0.884600  0.704300  0.801200  1.0  0.1177
  H  H526  1  0.875700  0.711000  0.725700  1.0  0.0884
  H  H527  1  0.850300  0.718100  0.706900  1.0  0.1006
  H  H528  1  0.833600  0.700200  0.763600  1.0  0.0906
  H  H529  1  0.871400  0.690800  0.980000  1.0  0.0927
  H  H530  1  0.853600  0.669200  0.036600  1.0  0.1222
  H  H531  1  0.829100  0.694600  0.018300  1.0  0.0774
  H  H532  1  0.820000  0.688900  0.945100  1.0  0.1223
  H  H533  1  0.820000  0.851200  0.861400  1.0  0.1073
  H  H534  1  0.796500  0.879900  0.830100  1.0  0.0986
  H  H535  1  0.791800  0.601500  0.807800  1.0  0.1022
  H  H536  1  0.814900  0.577300  0.842000  1.0  0.1198
  H  H537  1  0.922200  0.767500  0.045700  1.0  0.1217
  H  H538  1  0.905600  0.650000  0.035500  1.0  0.0743
  H  H539  1  0.881700  0.656300  0.060000  1.0  0.1154
  H  H540  1  0.872400  0.783800  0.092500  1.0  0.0907
  H  H541  1  0.871900  0.977700  0.030100  1.0  0.1058
  H  H542  1  0.852500  0.979800  0.970000  1.0  0.0999
  H  H543  1  0.827500  0.965400  0.992800  1.0  0.1252
  H  H544  1  0.821300  0.972100  0.073100  1.0  0.0811
  H  H545  1  0.834800  0.967900  0.242100  1.0  0.1195
  H  H546  1  0.854300  0.949600  0.302100  1.0  0.1101
  H  H547  1  0.879400  0.949200  0.276400  1.0  0.081
  H  H548  1  0.886600  0.952500  0.202300  1.0  0.1314
  H  H549  1  0.819700  0.095000  0.186600  1.0  0.1265
  H  H550  1  0.794900  0.079900  0.217100  1.0  0.0945
  H  H551  1  0.793700  0.816500  0.167400  1.0  0.0943
  H  H552  1  0.819000  0.819500  0.152300  1.0  0.1312
  H  H553  1  0.879600  0.625100  0.652700  1.0  0.1061
  H  H554  1  0.894600  0.750900  0.660400  1.0  0.0949
  H  H555  1  0.921200  0.733400  0.652200  1.0  0.1277
  H  H556  1  0.930200  0.604200  0.608800  1.0  0.1011
  H  H557  1  0.936200  0.530000  0.525600  1.0  0.0982
  H  H558  1  0.960900  0.495900  0.507600  1.0  0.1054
  H  H559  1  0.961300  0.307900  0.619700  1.0  0.1221
  H  H560  1  0.936800  0.335800  0.632400  1.0  0.1043
  H  H561  1  0.960500  0.366100  0.387700  1.0  0.0676
  H  H562  1  0.937300  0.328300  0.365800  1.0  0.1101
  H  H563  1  0.935400  0.150300  0.479600  1.0  0.0851
  H  H564  1  0.960800  0.168600  0.489800  1.0  0.1256
  H  H565  1  0.921200  0.391700  0.458400  1.0  0.0862
  H  H566  1  0.906800  0.524400  0.465200  1.0  0.1132
  H  H567  1  0.881100  0.509800  0.442900  1.0  0.0977
  H  H568  1  0.871000  0.374000  0.414500  1.0  0.1039
  H  H569  1  0.878900  0.035000  0.362700  1.0  0.1247
  H  H570  1  0.894800  0.906600  0.346500  1.0  0.1153
  H  H571  1  0.921900  0.929700  0.358400  1.0  0.1063
  H  H572  1  0.930700  0.062500  0.392300  1.0  0.1279
  H  H573  1  0.884600  0.204300  0.301200  1.0  0.1177
  H  H574  1  0.875700  0.211000  0.225700  1.0  0.0884
  H  H575  1  0.850300  0.218100  0.206900  1.0  0.1006
  H  H576  1  0.833600  0.200200  0.263600  1.0  0.0906
  H  H577  1  0.871400  0.190800  0.480000  1.0  0.0927
  H  H578  1  0.853600  0.169200  0.536600  1.0  0.1222
  H  H579  1  0.829100  0.194600  0.518300  1.0  0.0774
  H  H580  1  0.820000  0.188900  0.445100  1.0  0.1223
  H  H581  1  0.820000  0.351200  0.361400  1.0  0.1073
  H  H582  1  0.796500  0.379900  0.330100  1.0  0.0986
  H  H583  1  0.791800  0.101500  0.307800  1.0  0.1022
  H  H584  1  0.814900  0.077300  0.342000  1.0  0.1198
  H  H585  1  0.922200  0.267500  0.545700  1.0  0.1217
  H  H586  1  0.905600  0.150000  0.535500  1.0  0.0743
  H  H587  1  0.881700  0.156300  0.560000  1.0  0.1154
  H  H588  1  0.872400  0.283800  0.592500  1.0  0.0907
  H  H589  1  0.871900  0.477700  0.530100  1.0  0.1058
  H  H590  1  0.852500  0.479800  0.470000  1.0  0.0999
  H  H591  1  0.827500  0.465400  0.492800  1.0  0.1252
  H  H592  1  0.821300  0.472100  0.573100  1.0  0.0811
  H  H593  1  0.834800  0.467900  0.742100  1.0  0.1195
  H  H594  1  0.854300  0.449600  0.802100  1.0  0.1101
  H  H595  1  0.879400  0.449200  0.776400  1.0  0.0812
  H  H596  1  0.886600  0.452500  0.702300  1.0  0.1314
  H  H597  1  0.819700  0.595000  0.686600  1.0  0.1265
  H  H598  1  0.794900  0.579900  0.717100  1.0  0.0949
  H  H599  1  0.793700  0.316500  0.667400  1.0  0.0943
  H  H600  1  0.819000  0.319500  0.652300  1.0  0.1312
  H  H601  1  0.120400  0.374900  0.652700  1.0  0.107
  H  H602  1  0.105400  0.249100  0.660400  1.0  0.0955
  H  H603  1  0.078800  0.266600  0.652200  1.0  0.1274
  H  H604  1  0.069800  0.395800  0.608800  1.0  0.1031
  H  H605  1  0.063800  0.470000  0.525600  1.0  0.0979
  H  H606  1  0.039100  0.504100  0.507600  1.0  0.1055
  H  H607  1  0.038700  0.692100  0.619700  1.0  0.1232
  H  H608  1  0.063200  0.664200  0.632400  1.0  0.1046
  H  H609  1  0.039500  0.633900  0.387700  1.0  0.0661
  H  H610  1  0.062700  0.671700  0.365800  1.0  0.11
  H  H611  1  0.064600  0.849700  0.479600  1.0  0.085
  H  H612  1  0.039200  0.831400  0.489800  1.0  0.1257
  H  H613  1  0.078800  0.608300  0.458400  1.0  0.0861
  H  H614  1  0.093200  0.475600  0.465200  1.0  0.1133
  H  H615  1  0.118900  0.490200  0.442900  1.0  0.0971
  H  H616  1  0.129000  0.626000  0.414500  1.0  0.1037
  H  H617  1  0.121100  0.965000  0.362700  1.0  0.125
  H  H618  1  0.105200  0.093400  0.346500  1.0  0.1146
  H  H619  1  0.078100  0.070300  0.358400  1.0  0.1063
  H  H620  1  0.069300  0.937500  0.392300  1.0  0.1279
  H  H621  1  0.115400  0.795700  0.301200  1.0  0.1172
  H  H622  1  0.124300  0.789000  0.225700  1.0  0.0891
  H  H623  1  0.149700  0.781900  0.206900  1.0  0.1003
  H  H624  1  0.166400  0.799800  0.263600  1.0  0.0914
  H  H625  1  0.128600  0.809200  0.480000  1.0  0.093
  H  H626  1  0.146400  0.830800  0.536600  1.0  0.1219
  H  H627  1  0.170900  0.805400  0.518300  1.0  0.0775
  H  H628  1  0.180000  0.811100  0.445100  1.0  0.1209
  H  H629  1  0.180000  0.648800  0.361400  1.0  0.1085
  H  H630  1  0.203500  0.620100  0.330100  1.0  0.0984
  H  H631  1  0.208200  0.898500  0.307800  1.0  0.1019
  H  H632  1  0.185100  0.922700  0.342000  1.0  0.1198
  H  H633  1  0.077800  0.732500  0.545700  1.0  0.1219
  H  H634  1  0.094400  0.850000  0.535500  1.0  0.0748
  H  H635  1  0.118300  0.843700  0.560000  1.0  0.1148
  H  H636  1  0.127600  0.716200  0.592500  1.0  0.0913
  H  H637  1  0.128100  0.522300  0.530100  1.0  0.1064
  H  H638  1  0.147500  0.520200  0.470000  1.0  0.0999
  H  H639  1  0.172500  0.534600  0.492800  1.0  0.1249
  H  H640  1  0.178700  0.527900  0.573100  1.0  0.0798
  H  H641  1  0.165200  0.532100  0.742100  1.0  0.1193
  H  H642  1  0.145700  0.550400  0.802100  1.0  0.1104
  H  H643  1  0.120600  0.550800  0.776400  1.0  0.0803
  H  H644  1  0.113400  0.547500  0.702300  1.0  0.1316
  H  H645  1  0.180300  0.405000  0.686600  1.0  0.126
  H  H646  1  0.205100  0.420100  0.717100  1.0  0.0939
  H  H647  1  0.206300  0.683500  0.667400  1.0  0.0951
  H  H648  1  0.181000  0.680500  0.652300  1.0  0.1306
  H  H649  1  0.120400  0.874900  0.152700  1.0  0.107
  H  H650  1  0.105400  0.749100  0.160400  1.0  0.0955
  H  H651  1  0.078800  0.766600  0.152200  1.0  0.1274
  H  H652  1  0.069800  0.895800  0.108800  1.0  0.1031
  H  H653  1  0.063800  0.970000  0.025600  1.0  0.0979
  H  H654  1  0.039100  0.004100  0.007600  1.0  0.1055
  H  H655  1  0.038700  0.192100  0.119700  1.0  0.1232
  H  H656  1  0.063200  0.164200  0.132400  1.0  0.1046
  H  H657  1  0.039500  0.133900  0.887700  1.0  0.0661
  H  H658  1  0.062700  0.171700  0.865800  1.0  0.11
  H  H659  1  0.064600  0.349700  0.979600  1.0  0.085
  H  H660  1  0.039200  0.331400  0.989800  1.0  0.1257
  H  H661  1  0.078800  0.108300  0.958400  1.0  0.0861
  H  H662  1  0.093200  0.975600  0.965200  1.0  0.1133
  H  H663  1  0.118900  0.990200  0.942900  1.0  0.0971
  H  H664  1  0.129000  0.126000  0.914500  1.0  0.1037
  H  H665  1  0.121100  0.465000  0.862700  1.0  0.125
  H  H666  1  0.105200  0.593400  0.846500  1.0  0.1145
  H  H667  1  0.078100  0.570300  0.858400  1.0  0.1063
  H  H668  1  0.069300  0.437500  0.892300  1.0  0.1279
  H  H669  1  0.115400  0.295700  0.801200  1.0  0.1172
  H  H670  1  0.124300  0.289000  0.725700  1.0  0.0891
  H  H671  1  0.149700  0.281900  0.706900  1.0  0.1003
  H  H672  1  0.166400  0.299800  0.763600  1.0  0.0914
  H  H673  1  0.128600  0.309200  0.980000  1.0  0.093
  H  H674  1  0.146400  0.330800  0.036600  1.0  0.1219
  H  H675  1  0.170900  0.305400  0.018300  1.0  0.0775
  H  H676  1  0.180000  0.311100  0.945100  1.0  0.1209
  H  H677  1  0.180000  0.148800  0.861400  1.0  0.1085
  H  H678  1  0.203500  0.120100  0.830100  1.0  0.0984
  H  H679  1  0.208200  0.398500  0.807800  1.0  0.1019
  H  H680  1  0.185100  0.422700  0.842000  1.0  0.1198
  H  H681  1  0.077800  0.232500  0.045700  1.0  0.1219
  H  H682  1  0.094400  0.350000  0.035500  1.0  0.0748
  H  H683  1  0.118300  0.343700  0.060000  1.0  0.1148
  H  H684  1  0.127600  0.216200  0.092500  1.0  0.0913
  H  H685  1  0.128100  0.022300  0.030100  1.0  0.1064
  H  H686  1  0.147500  0.020200  0.970000  1.0  0.0999
  H  H687  1  0.172500  0.034600  0.992800  1.0  0.1249
  H  H688  1  0.178700  0.027900  0.073100  1.0  0.0798
  H  H689  1  0.165200  0.032100  0.242100  1.0  0.1193
  H  H690  1  0.145700  0.050400  0.302100  1.0  0.1104
  H  H691  1  0.120600  0.050800  0.276400  1.0  0.0805
  H  H692  1  0.113400  0.047500  0.202300  1.0  0.1316
  H  H693  1  0.180300  0.905000  0.186600  1.0  0.126
  H  H694  1  0.205100  0.920100  0.217100  1.0  0.0943
  H  H695  1  0.206300  0.183500  0.167400  1.0  0.0951
  H  H696  1  0.181000  0.180500  0.152300  1.0  0.1306
  H  H697  1  0.620400  0.374900  0.152700  1.0  0.107
  H  H698  1  0.605400  0.249100  0.160400  1.0  0.0955
  H  H699  1  0.578800  0.266600  0.152200  1.0  0.1274
  H  H700  1  0.569800  0.395800  0.108800  1.0  0.1031
  H  H701  1  0.563800  0.470000  0.025600  1.0  0.0979
  H  H702  1  0.539100  0.504100  0.007600  1.0  0.1055
  H  H703  1  0.538700  0.692100  0.119700  1.0  0.1232
  H  H704  1  0.563200  0.664200  0.132400  1.0  0.1046
  H  H705  1  0.539500  0.633900  0.887700  1.0  0.0661
  H  H706  1  0.562700  0.671700  0.865800  1.0  0.11
  H  H707  1  0.564600  0.849700  0.979600  1.0  0.085
  H  H708  1  0.539200  0.831400  0.989800  1.0  0.1257
  H  H709  1  0.578800  0.608300  0.958400  1.0  0.0861
  H  H710  1  0.593200  0.475600  0.965200  1.0  0.1133
  H  H711  1  0.618900  0.490200  0.942900  1.0  0.0971
  H  H712  1  0.629000  0.626000  0.914500  1.0  0.1037
  H  H713  1  0.621100  0.965000  0.862700  1.0  0.125
  H  H714  1  0.605200  0.093400  0.846500  1.0  0.1146
  H  H715  1  0.578100  0.070300  0.858400  1.0  0.1063
  H  H716  1  0.569300  0.937500  0.892300  1.0  0.1279
  H  H717  1  0.615400  0.795700  0.801200  1.0  0.1172
  H  H718  1  0.624300  0.789000  0.725700  1.0  0.0891
  H  H719  1  0.649700  0.781900  0.706900  1.0  0.1003
  H  H720  1  0.666400  0.799800  0.763600  1.0  0.0914
  H  H721  1  0.628600  0.809200  0.980000  1.0  0.093
  H  H722  1  0.646400  0.830800  0.036600  1.0  0.1219
  H  H723  1  0.670900  0.805400  0.018300  1.0  0.0775
  H  H724  1  0.680000  0.811100  0.945100  1.0  0.1209
  H  H725  1  0.680000  0.648800  0.861400  1.0  0.1085
  H  H726  1  0.703500  0.620100  0.830100  1.0  0.0984
  H  H727  1  0.708200  0.898500  0.807800  1.0  0.1019
  H  H728  1  0.685100  0.922700  0.842000  1.0  0.1198
  H  H729  1  0.577800  0.732500  0.045700  1.0  0.1219
  H  H730  1  0.594400  0.850000  0.035500  1.0  0.0748
  H  H731  1  0.618300  0.843700  0.060000  1.0  0.1148
  H  H732  1  0.627600  0.716200  0.092500  1.0  0.0913
  H  H733  1  0.628100  0.522300  0.030100  1.0  0.1064
  H  H734  1  0.647500  0.520200  0.970000  1.0  0.0999
  H  H735  1  0.672500  0.534600  0.992800  1.0  0.1249
  H  H736  1  0.678700  0.527900  0.073100  1.0  0.0798
  H  H737  1  0.665200  0.532100  0.242100  1.0  0.1193
  H  H738  1  0.645700  0.550400  0.302100  1.0  0.1104
  H  H739  1  0.620600  0.550800  0.276400  1.0  0.0803
  H  H740  1  0.613400  0.547500  0.202300  1.0  0.1316
  H  H741  1  0.680300  0.405000  0.186600  1.0  0.126
  H  H742  1  0.705100  0.420100  0.217100  1.0  0.0939
  H  H743  1  0.706300  0.683500  0.167400  1.0  0.0951
  H  H744  1  0.681000  0.680500  0.152300  1.0  0.1306
  H  H745  1  0.620400  0.874900  0.652700  1.0  0.107
  H  H746  1  0.605400  0.749100  0.660400  1.0  0.0955
  H  H747  1  0.578800  0.766600  0.652200  1.0  0.1274
  H  H748  1  0.569800  0.895800  0.608800  1.0  0.1031
  H  H749  1  0.563800  0.970000  0.525600  1.0  0.0979
  H  H750  1  0.539100  0.004100  0.507600  1.0  0.1055
  H  H751  1  0.538700  0.192100  0.619700  1.0  0.1232
  H  H752  1  0.563200  0.164200  0.632400  1.0  0.1046
  H  H753  1  0.539500  0.133900  0.387700  1.0  0.0661
  H  H754  1  0.562700  0.171700  0.365800  1.0  0.11
  H  H755  1  0.564600  0.349700  0.479600  1.0  0.085
  H  H756  1  0.539200  0.331400  0.489800  1.0  0.1257
  H  H757  1  0.578800  0.108300  0.458400  1.0  0.0861
  H  H758  1  0.593200  0.975600  0.465200  1.0  0.1133
  H  H759  1  0.618900  0.990200  0.442900  1.0  0.0971
  H  H760  1  0.629000  0.126000  0.414500  1.0  0.1037
  H  H761  1  0.621100  0.465000  0.362700  1.0  0.125
  H  H762  1  0.605200  0.593400  0.346500  1.0  0.1145
  H  H763  1  0.578100  0.570300  0.358400  1.0  0.1063
  H  H764  1  0.569300  0.437500  0.392300  1.0  0.1279
  H  H765  1  0.615400  0.295700  0.301200  1.0  0.1172
  H  H766  1  0.624300  0.289000  0.225700  1.0  0.0891
  H  H767  1  0.649700  0.281900  0.206900  1.0  0.1003
  H  H768  1  0.666400  0.299800  0.263600  1.0  0.0914
  H  H769  1  0.628600  0.309200  0.480000  1.0  0.093
  H  H770  1  0.646400  0.330800  0.536600  1.0  0.1219
  H  H771  1  0.670900  0.305400  0.518300  1.0  0.0775
  H  H772  1  0.680000  0.311100  0.445100  1.0  0.1209
  H  H773  1  0.680000  0.148800  0.361400  1.0  0.1085
  H  H774  1  0.703500  0.120100  0.330100  1.0  0.0984
  H  H775  1  0.708200  0.398500  0.307800  1.0  0.1019
  H  H776  1  0.685100  0.422700  0.342000  1.0  0.1198
  H  H777  1  0.577800  0.232500  0.545700  1.0  0.1219
  H  H778  1  0.594400  0.350000  0.535500  1.0  0.0748
  H  H779  1  0.618300  0.343700  0.560000  1.0  0.1148
  H  H780  1  0.627600  0.216200  0.592500  1.0  0.0913
  H  H781  1  0.628100  0.022300  0.530100  1.0  0.1064
  H  H782  1  0.647500  0.020200  0.470000  1.0  0.0999
  H  H783  1  0.672500  0.034600  0.492800  1.0  0.1249
  H  H784  1  0.678700  0.027900  0.573100  1.0  0.0798
  H  H785  1  0.665200  0.032100  0.742100  1.0  0.1193
  H  H786  1  0.645700  0.050400  0.802100  1.0  0.1104
  H  H787  1  0.620600  0.050800  0.776400  1.0  0.0805
  H  H788  1  0.613400  0.047500  0.702300  1.0  0.1316
  H  H789  1  0.680300  0.905000  0.686600  1.0  0.126
  H  H790  1  0.705100  0.920100  0.717100  1.0  0.0943
  H  H791  1  0.706300  0.183500  0.667400  1.0  0.0951
  H  H792  1  0.681000  0.180500  0.652300  1.0  0.1306
  C  C793  1  0.139500  0.129200  0.391800  1.0  -0.1224
  C  C794  1  0.148500  0.056600  0.399500  1.0  -0.1062
  C  C795  1  0.164700  0.063900  0.391400  1.0  -0.0817
  C  C796  1  0.170100  0.143500  0.367000  1.0  -0.0893
  C  C797  1  0.182600  0.319600  0.328400  1.0  0.0564
  C  C798  1  0.191100  0.267500  0.293000  1.0  -0.1121
  C  C799  1  0.206200  0.284800  0.283200  1.0  -0.0625
  C  C800  1  0.214200  0.346600  0.311200  1.0  -0.0953
  C  C801  1  0.206100  0.398800  0.350400  1.0  -0.0729
  C  C802  1  0.191600  0.382600  0.357200  1.0  -0.0735
  C  C803  1  0.229800  0.368100  0.301800  1.0  0.6971
  C  C804  1  0.230700  0.448100  0.199500  1.0  0.5913
  C  C805  1  0.212800  0.471800  0.185900  1.0  0.1599
  C  C806  1  0.205600  0.431800  0.154800  1.0  0.0249
  C  C807  1  0.191400  0.450000  0.143000  1.0  -0.1971
  C  C808  1  0.182400  0.512800  0.171500  1.0  0.0595
  C  C809  1  0.190600  0.558800  0.209200  1.0  -0.0992
  C  C810  1  0.205500  0.546500  0.217000  1.0  -0.128
  C  C811  1  0.156300  0.447200  0.173700  1.0  -0.1105
  C  C812  1  0.140300  0.459100  0.159300  1.0  0.0439
  C  C813  1  0.135100  0.542100  0.144100  1.0  -0.0248
  C  C814  1  0.144600  0.621700  0.136900  1.0  -0.0466
  C  C815  1  0.161100  0.617300  0.144100  1.0  -0.0831
  C  C816  1  0.166000  0.523600  0.164200  1.0  -0.0009
  C  C817  1  0.161400  0.360000  0.196900  1.0  -0.0889
  C  C818  1  0.152900  0.282400  0.202900  1.0  -0.1606
  C  C819  1  0.137400  0.292700  0.188900  1.0  -0.0839
  C  C820  1  0.131300  0.374200  0.170300  1.0  -0.1474
  C  C821  1  0.139100  0.708600  0.118300  1.0  -0.149
  C  C822  1  0.148600  0.785800  0.108000  1.0  -0.1842
  C  C823  1  0.165200  0.771600  0.116600  1.0  -0.101
  C  C824  1  0.170500  0.692500  0.135200  1.0  -0.089
  C  C825  1  0.118300  0.548500  0.131600  1.0  0.0211
  C  C826  1  0.107200  0.556000  0.171100  1.0  0.0207
  C  C827  1  0.091700  0.552400  0.160200  1.0  -0.0625
  C  C828  1  0.086200  0.543500  0.111200  1.0  0.0195
  C  C829  1  0.097800  0.545900  0.072900  1.0  -0.1362
  C  C830  1  0.112900  0.545700  0.088700  1.0  0.0202
  C  C831  1  0.124300  0.544100  0.045800  1.0  -0.1448
  C  C832  1  0.118800  0.540300  0.000700  1.0  -0.102
  C  C833  1  0.103300  0.538200  0.988700  1.0  -0.1097
  C  C834  1  0.093700  0.545100  0.021800  1.0  -0.066
  C  C835  1  0.111300  0.561400  0.221300  1.0  -0.0766
  C  C836  1  0.100900  0.569300  0.255000  1.0  -0.101
  C  C837  1  0.085900  0.560600  0.243000  1.0  -0.0654
  C  C838  1  0.080300  0.558700  0.200600  1.0  -0.1356
  C  C839  1  0.070300  0.533400  0.097100  1.0  0.1797
  C  C840  1  0.064400  0.449300  0.098900  1.0  -0.1635
  C  C841  1  0.049900  0.432700  0.082600  1.0  -0.0931
  C  C842  1  0.040300  0.506400  0.069800  1.0  -0.1307
  C  C843  1  0.047100  0.596500  0.069900  1.0  -0.0794
  C  C844  1  0.061300  0.611000  0.087100  1.0  -0.1482
  C  C845  1  0.024700  0.486700  0.053200  1.0  0.6532
  C  C846  1  0.166700  0.302900  0.337700  1.0  0.007
  C  C847  1  0.160600  0.221800  0.354100  1.0  0.0143
  C  C848  1  0.144100  0.214500  0.367400  1.0  0.0206
  C  C849  1  0.135100  0.290600  0.359600  1.0  0.0021
  C  C850  1  0.140700  0.375900  0.337200  1.0  -0.0916
  C  C851  1  0.157600  0.386000  0.327700  1.0  -0.0659
  C  C852  1  0.162300  0.474400  0.305800  1.0  -0.1649
  C  C853  1  0.152300  0.544100  0.300100  1.0  -0.0934
  C  C854  1  0.137800  0.540200  0.313800  1.0  -0.0693
  C  C855  1  0.132300  0.464800  0.332000  1.0  -0.0939
  C  C856  1  0.119100  0.283000  0.371100  1.0  0.0024
  C  C857  1  0.114300  0.284800  0.421500  1.0  -0.0907
  C  C858  1  0.099200  0.285400  0.434900  1.0  -0.0196
  C  C859  1  0.088100  0.283500  0.400300  1.0  -0.1581
  C  C860  1  0.091100  0.282100  0.349900  1.0  0.0778
  C  C861  1  0.107400  0.284300  0.339100  1.0  -0.0129
  C  C862  1  0.111800  0.276000  0.288700  1.0  -0.1185
  C  C863  1  0.099900  0.274900  0.252300  1.0  -0.1015
  C  C864  1  0.085000  0.280500  0.265800  1.0  -0.1051
  C  C865  1  0.081500  0.279900  0.315000  1.0  -0.082
  C  C866  1  0.094900  0.286800  0.483400  1.0  -0.1396
  C  C867  1  0.106600  0.295800  0.519600  1.0  -0.1494
  C  C868  1  0.122000  0.297200  0.503000  1.0  -0.0845
  C  C869  1  0.126400  0.294200  0.460100  1.0  -0.1014
  C  C870  1  0.070900  0.290900  0.415800  1.0  0.1111
  C  C871  1  0.064500  0.212700  0.434700  1.0  -0.1627
  C  C872  1  0.049400  0.221900  0.451800  1.0  -0.0347
  C  C873  1  0.041500  0.302700  0.446400  1.0  -0.0248
  C  C874  1  0.049100  0.378300  0.424300  1.0  -0.0812
  C  C875  1  0.063900  0.375900  0.412400  1.0  -0.1733
  C  C876  1  0.025300  0.315100  0.464500  1.0  0.7525
  C  C877  1  0.139500  0.629200  0.891800  1.0  -0.1224
  C  C878  1  0.148500  0.556600  0.899500  1.0  -0.1062
  C  C879  1  0.164700  0.563900  0.891400  1.0  -0.0817
  C  C880  1  0.170100  0.643500  0.867000  1.0  -0.0893
  C  C881  1  0.182600  0.819600  0.828400  1.0  0.0564
  C  C882  1  0.191100  0.767500  0.793000  1.0  -0.1121
  C  C883  1  0.206200  0.784800  0.783200  1.0  -0.0625
  C  C884  1  0.214200  0.846600  0.811200  1.0  -0.0953
  C  C885  1  0.206100  0.898800  0.850400  1.0  -0.0729
  C  C886  1  0.191600  0.882600  0.857200  1.0  -0.0735
  C  C887  1  0.229800  0.868100  0.801800  1.0  0.6971
  C  C888  1  0.230700  0.948100  0.699500  1.0  0.5913
  C  C889  1  0.212800  0.971800  0.685900  1.0  0.1599
  C  C890  1  0.205600  0.931800  0.654800  1.0  0.0249
  C  C891  1  0.191400  0.950000  0.643000  1.0  -0.1971
  C  C892  1  0.182400  0.012800  0.671500  1.0  0.0595
  C  C893  1  0.190600  0.058800  0.709200  1.0  -0.0992
  C  C894  1  0.205500  0.046500  0.717000  1.0  -0.128
  C  C895  1  0.156300  0.947200  0.673700  1.0  -0.1105
  C  C896  1  0.140300  0.959100  0.659300  1.0  0.0439
  C  C897  1  0.135100  0.042100  0.644100  1.0  -0.0248
  C  C898  1  0.144600  0.121700  0.636900  1.0  -0.0466
  C  C899  1  0.161100  0.117300  0.644100  1.0  -0.0831
  C  C900  1  0.166000  0.023600  0.664200  1.0  -0.0009
  C  C901  1  0.161400  0.860000  0.696900  1.0  -0.0889
  C  C902  1  0.152900  0.782400  0.702900  1.0  -0.1606
  C  C903  1  0.137400  0.792700  0.688900  1.0  -0.0839
  C  C904  1  0.131300  0.874200  0.670300  1.0  -0.1474
  C  C905  1  0.139100  0.208600  0.618300  1.0  -0.149
  C  C906  1  0.148600  0.285800  0.608000  1.0  -0.1842
  C  C907  1  0.165200  0.271600  0.616600  1.0  -0.101
  C  C908  1  0.170500  0.192500  0.635200  1.0  -0.089
  C  C909  1  0.118300  0.048500  0.631600  1.0  0.0211
  C  C910  1  0.107200  0.056000  0.671100  1.0  0.0207
  C  C911  1  0.091700  0.052400  0.660200  1.0  -0.0625
  C  C912  1  0.086200  0.043500  0.611200  1.0  0.0195
  C  C913  1  0.097800  0.045900  0.572900  1.0  -0.1362
  C  C914  1  0.112900  0.045700  0.588700  1.0  0.0202
  C  C915  1  0.124300  0.044100  0.545800  1.0  -0.1448
  C  C916  1  0.118800  0.040300  0.500700  1.0  -0.102
  C  C917  1  0.103300  0.038200  0.488700  1.0  -0.1097
  C  C918  1  0.093700  0.045100  0.521800  1.0  -0.066
  C  C919  1  0.111300  0.061400  0.721300  1.0  -0.0766
  C  C920  1  0.100900  0.069300  0.755000  1.0  -0.101
  C  C921  1  0.085900  0.060600  0.743000  1.0  -0.0654
  C  C922  1  0.080300  0.058700  0.700600  1.0  -0.1356
  C  C923  1  0.070300  0.033400  0.597100  1.0  0.1797
  C  C924  1  0.064400  0.949300  0.598900  1.0  -0.1635
  C  C925  1  0.049900  0.932700  0.582600  1.0  -0.0931
  C  C926  1  0.040300  0.006400  0.569800  1.0  -0.1307
  C  C927  1  0.047100  0.096500  0.569900  1.0  -0.0794
  C  C928  1  0.061300  0.111000  0.587100  1.0  -0.1482
  C  C929  1  0.024700  0.986700  0.553200  1.0  0.6532
  C  C930  1  0.166700  0.802900  0.837700  1.0  0.007
  C  C931  1  0.160600  0.721800  0.854100  1.0  0.0143
  C  C932  1  0.144100  0.714500  0.867400  1.0  0.0206
  C  C933  1  0.135100  0.790600  0.859600  1.0  0.0021
  C  C934  1  0.140700  0.875900  0.837200  1.0  -0.0916
  C  C935  1  0.157600  0.886000  0.827700  1.0  -0.0659
  C  C936  1  0.162300  0.974400  0.805800  1.0  -0.1649
  C  C937  1  0.152300  0.044100  0.800100  1.0  -0.0934
  C  C938  1  0.137800  0.040200  0.813800  1.0  -0.0693
  C  C939  1  0.132300  0.964800  0.832000  1.0  -0.0939
  C  C940  1  0.119100  0.783000  0.871100  1.0  0.0024
  C  C941  1  0.114300  0.784800  0.921500  1.0  -0.0907
  C  C942  1  0.099200  0.785400  0.934900  1.0  -0.0196
  C  C943  1  0.088100  0.783500  0.900300  1.0  -0.1581
  C  C944  1  0.091100  0.782100  0.849900  1.0  0.0778
  C  C945  1  0.107400  0.784300  0.839100  1.0  -0.0129
  C  C946  1  0.111800  0.776000  0.788700  1.0  -0.1185
  C  C947  1  0.099900  0.774900  0.752300  1.0  -0.1015
  C  C948  1  0.085000  0.780500  0.765800  1.0  -0.1051
  C  C949  1  0.081500  0.779900  0.815000  1.0  -0.082
  C  C950  1  0.094900  0.786800  0.983400  1.0  -0.1396
  C  C951  1  0.106600  0.795800  0.019600  1.0  -0.1494
  C  C952  1  0.122000  0.797200  0.003000  1.0  -0.0845
  C  C953  1  0.126400  0.794200  0.960100  1.0  -0.1014
  C  C954  1  0.070900  0.790900  0.915800  1.0  0.1111
  C  C955  1  0.064500  0.712700  0.934700  1.0  -0.1627
  C  C956  1  0.049400  0.721900  0.951800  1.0  -0.0347
  C  C957  1  0.041500  0.802700  0.946400  1.0  -0.0248
  C  C958  1  0.049100  0.878300  0.924300  1.0  -0.0812
  C  C959  1  0.063900  0.875900  0.912400  1.0  -0.1733
  C  C960  1  0.025300  0.815100  0.964500  1.0  0.7525
  C  C961  1  0.639500  0.129200  0.891800  1.0  -0.1224
  C  C962  1  0.648500  0.056600  0.899500  1.0  -0.1062
  C  C963  1  0.664700  0.063900  0.891400  1.0  -0.0817
  C  C964  1  0.670100  0.143500  0.867000  1.0  -0.0893
  C  C965  1  0.682600  0.319600  0.828400  1.0  0.0512
  C  C966  1  0.691100  0.267500  0.793000  1.0  -0.1118
  C  C967  1  0.706200  0.284800  0.783200  1.0  -0.0626
  C  C968  1  0.714200  0.346600  0.811200  1.0  -0.0953
  C  C969  1  0.706100  0.398800  0.850400  1.0  -0.0729
  C  C970  1  0.691600  0.382600  0.857200  1.0  -0.0737
  C  C971  1  0.729800  0.368100  0.801800  1.0  0.6971
  C  C972  1  0.730700  0.448100  0.699500  1.0  0.5913
  C  C973  1  0.712800  0.471800  0.685900  1.0  0.1599
  C  C974  1  0.705600  0.431800  0.654800  1.0  0.0249
  C  C975  1  0.691400  0.450000  0.643000  1.0  -0.1971
  C  C976  1  0.682400  0.512800  0.671500  1.0  0.0595
  C  C977  1  0.690600  0.558800  0.709200  1.0  -0.0992
  C  C978  1  0.705500  0.546500  0.717000  1.0  -0.128
  C  C979  1  0.656300  0.447200  0.673700  1.0  -0.1105
  C  C980  1  0.640300  0.459100  0.659300  1.0  0.044
  C  C981  1  0.635100  0.542100  0.644100  1.0  -0.0248
  C  C982  1  0.644600  0.621700  0.636900  1.0  -0.0466
  C  C983  1  0.661100  0.617300  0.644100  1.0  -0.0831
  C  C984  1  0.666000  0.523600  0.664200  1.0  -0.0009
  C  C985  1  0.661400  0.360000  0.696900  1.0  -0.0889
  C  C986  1  0.652900  0.282400  0.702900  1.0  -0.1606
  C  C987  1  0.637400  0.292700  0.688900  1.0  -0.0839
  C  C988  1  0.631300  0.374200  0.670300  1.0  -0.1474
  C  C989  1  0.639100  0.708600  0.618300  1.0  -0.149
  C  C990  1  0.648600  0.785800  0.608000  1.0  -0.1842
  C  C991  1  0.665200  0.771600  0.616600  1.0  -0.101
  C  C992  1  0.670500  0.692500  0.635200  1.0  -0.089
  C  C993  1  0.618300  0.548500  0.631600  1.0  0.0211
  C  C994  1  0.607200  0.556000  0.671100  1.0  0.0207
  C  C995  1  0.591700  0.552400  0.660200  1.0  -0.0625
  C  C996  1  0.586200  0.543500  0.611200  1.0  0.0195
  C  C997  1  0.597800  0.545900  0.572900  1.0  -0.1362
  C  C998  1  0.612900  0.545700  0.588700  1.0  0.0202
  C  C999  1  0.624300  0.544100  0.545800  1.0  -0.1448
  C  C1000  1  0.618800  0.540300  0.500700  1.0  -0.102
  C  C1001  1  0.603300  0.538200  0.488700  1.0  -0.1097
  C  C1002  1  0.593700  0.545100  0.521800  1.0  -0.066
  C  C1003  1  0.611300  0.561400  0.721300  1.0  -0.0766
  C  C1004  1  0.600900  0.569300  0.755000  1.0  -0.101
  C  C1005  1  0.585900  0.560600  0.743000  1.0  -0.0654
  C  C1006  1  0.580300  0.558700  0.700600  1.0  -0.1356
  C  C1007  1  0.570300  0.533400  0.597100  1.0  0.1797
  C  C1008  1  0.564400  0.449300  0.598900  1.0  -0.1635
  C  C1009  1  0.549900  0.432700  0.582600  1.0  -0.0931
  C  C1010  1  0.540300  0.506400  0.569800  1.0  -0.1307
  C  C1011  1  0.547100  0.596500  0.569900  1.0  -0.0794
  C  C1012  1  0.561300  0.611000  0.587100  1.0  -0.1482
  C  C1013  1  0.524700  0.486700  0.553200  1.0  0.6532
  C  C1014  1  0.666667  0.302900  0.837700  1.0  0.0183
  C  C1015  1  0.660600  0.221800  0.854100  1.0  0.0182
  C  C1016  1  0.644100  0.214500  0.867400  1.0  0.0206
  C  C1017  1  0.635100  0.290600  0.859600  1.0  0.002
  C  C1018  1  0.640700  0.375900  0.837200  1.0  -0.0984
  C  C1019  1  0.657600  0.386000  0.827700  1.0  -0.0643
  C  C1020  1  0.662300  0.474400  0.805800  1.0  -0.1649
  C  C1021  1  0.652300  0.544100  0.800100  1.0  -0.0934
  C  C1022  1  0.637800  0.540200  0.813800  1.0  -0.0693
  C  C1023  1  0.632300  0.464800  0.832000  1.0  -0.0939
  C  C1024  1  0.619100  0.283000  0.871100  1.0  0.0024
  C  C1025  1  0.614300  0.284800  0.921500  1.0  -0.0907
  C  C1026  1  0.599200  0.285400  0.934900  1.0  -0.0196
  C  C1027  1  0.588100  0.283500  0.900300  1.0  -0.1581
  C  C1028  1  0.591100  0.282100  0.849900  1.0  0.0778
  C  C1029  1  0.607400  0.284300  0.839100  1.0  -0.0129
  C  C1030  1  0.611800  0.276000  0.788700  1.0  -0.1185
  C  C1031  1  0.599900  0.274900  0.752300  1.0  -0.1015
  C  C1032  1  0.585000  0.280500  0.765800  1.0  -0.1051
  C  C1033  1  0.581500  0.279900  0.815000  1.0  -0.082
  C  C1034  1  0.594900  0.286800  0.983400  1.0  -0.1396
  C  C1035  1  0.606600  0.295800  0.019600  1.0  -0.1494
  C  C1036  1  0.622000  0.297200  0.003000  1.0  -0.0845
  C  C1037  1  0.626400  0.294200  0.960100  1.0  -0.1014
  C  C1038  1  0.570900  0.290900  0.915800  1.0  0.1111
  C  C1039  1  0.564500  0.212700  0.934700  1.0  -0.1627
  C  C1040  1  0.549400  0.221900  0.951800  1.0  -0.0347
  C  C1041  1  0.541500  0.302700  0.946400  1.0  -0.0248
  C  C1042  1  0.549100  0.378300  0.924300  1.0  -0.0812
  C  C1043  1  0.563900  0.375900  0.912400  1.0  -0.1733
  C  C1044  1  0.525300  0.315100  0.964500  1.0  0.7525
  C  C1045  1  0.639500  0.629200  0.391800  1.0  -0.1224
  C  C1046  1  0.648500  0.556600  0.399500  1.0  -0.1062
  C  C1047  1  0.664700  0.563900  0.391400  1.0  -0.0817
  C  C1048  1  0.670100  0.643500  0.367000  1.0  -0.0893
  C  C1049  1  0.682600  0.819600  0.328400  1.0  0.0512
  C  C1050  1  0.691100  0.767500  0.293000  1.0  -0.1118
  C  C1051  1  0.706200  0.784800  0.283200  1.0  -0.0626
  C  C1052  1  0.714200  0.846600  0.311200  1.0  -0.0953
  C  C1053  1  0.706100  0.898800  0.350400  1.0  -0.0729
  C  C1054  1  0.691600  0.882600  0.357200  1.0  -0.0737
  C  C1055  1  0.729800  0.868100  0.301800  1.0  0.6971
  C  C1056  1  0.730700  0.948100  0.199500  1.0  0.5921
  C  C1057  1  0.712800  0.971800  0.185900  1.0  0.1526
  C  C1058  1  0.705600  0.931800  0.154800  1.0  0.0087
  C  C1059  1  0.691400  0.950000  0.143000  1.0  -0.1971
  C  C1060  1  0.682400  0.012800  0.171500  1.0  0.0595
  C  C1061  1  0.690600  0.058800  0.209200  1.0  -0.0992
  C  C1062  1  0.705500  0.046500  0.217000  1.0  -0.128
  C  C1063  1  0.656300  0.947200  0.173700  1.0  -0.1105
  C  C1064  1  0.640300  0.959100  0.159300  1.0  0.044
  C  C1065  1  0.635100  0.042100  0.144100  1.0  -0.0248
  C  C1066  1  0.644600  0.121700  0.136900  1.0  -0.0466
  C  C1067  1  0.661100  0.117300  0.144100  1.0  -0.0831
  C  C1068  1  0.666000  0.023600  0.164200  1.0  -0.0009
  C  C1069  1  0.661400  0.860000  0.196900  1.0  -0.0889
  C  C1070  1  0.652900  0.782400  0.202900  1.0  -0.1606
  C  C1071  1  0.637400  0.792700  0.188900  1.0  -0.0839
  C  C1072  1  0.631300  0.874200  0.170300  1.0  -0.1474
  C  C1073  1  0.639100  0.208600  0.118300  1.0  -0.149
  C  C1074  1  0.648600  0.285800  0.108000  1.0  -0.1842
  C  C1075  1  0.665200  0.271600  0.116600  1.0  -0.101
  C  C1076  1  0.670500  0.192500  0.135200  1.0  -0.089
  C  C1077  1  0.618300  0.048500  0.131600  1.0  0.0211
  C  C1078  1  0.607200  0.056000  0.171100  1.0  0.0207
  C  C1079  1  0.591700  0.052400  0.160200  1.0  -0.0625
  C  C1080  1  0.586200  0.043500  0.111200  1.0  0.0195
  C  C1081  1  0.597800  0.045900  0.072900  1.0  -0.1362
  C  C1082  1  0.612900  0.045700  0.088700  1.0  0.0202
  C  C1083  1  0.624300  0.044100  0.045800  1.0  -0.1448
  C  C1084  1  0.618800  0.040300  0.000700  1.0  -0.102
  C  C1085  1  0.603300  0.038200  0.988700  1.0  -0.1097
  C  C1086  1  0.593700  0.045100  0.021800  1.0  -0.066
  C  C1087  1  0.611300  0.061400  0.221300  1.0  -0.0766
  C  C1088  1  0.600900  0.069300  0.255000  1.0  -0.101
  C  C1089  1  0.585900  0.060600  0.243000  1.0  -0.0654
  C  C1090  1  0.580300  0.058700  0.200600  1.0  -0.1356
  C  C1091  1  0.570300  0.033400  0.097100  1.0  0.1797
  C  C1092  1  0.564400  0.949300  0.098900  1.0  -0.1635
  C  C1093  1  0.549900  0.932700  0.082600  1.0  -0.0931
  C  C1094  1  0.540300  0.006400  0.069800  1.0  -0.1307
  C  C1095  1  0.547100  0.096500  0.069900  1.0  -0.0794
  C  C1096  1  0.561300  0.111000  0.087100  1.0  -0.1482
  C  C1097  1  0.524700  0.986700  0.053200  1.0  0.6532
  C  C1098  1  0.666667  0.802900  0.337700  1.0  0.0183
  C  C1099  1  0.660600  0.721800  0.354100  1.0  0.0182
  C  C1100  1  0.644100  0.714500  0.367400  1.0  0.0206
  C  C1101  1  0.635100  0.790600  0.359600  1.0  0.002
  C  C1102  1  0.640700  0.875900  0.337200  1.0  -0.0984
  C  C1103  1  0.657600  0.886000  0.327700  1.0  -0.0643
  C  C1104  1  0.662300  0.974400  0.305800  1.0  -0.1649
  C  C1105  1  0.652300  0.044100  0.300100  1.0  -0.0934
  C  C1106  1  0.637800  0.040200  0.313800  1.0  -0.0693
  C  C1107  1  0.632300  0.964800  0.332000  1.0  -0.0939
  C  C1108  1  0.619100  0.783000  0.371100  1.0  0.0024
  C  C1109  1  0.614300  0.784800  0.421500  1.0  -0.0907
  C  C1110  1  0.599200  0.785400  0.434900  1.0  -0.0196
  C  C1111  1  0.588100  0.783500  0.400300  1.0  -0.1581
  C  C1112  1  0.591100  0.782100  0.349900  1.0  0.0778
  C  C1113  1  0.607400  0.784300  0.339100  1.0  -0.0129
  C  C1114  1  0.611800  0.776000  0.288700  1.0  -0.1185
  C  C1115  1  0.599900  0.774900  0.252300  1.0  -0.1015
  C  C1116  1  0.585000  0.780500  0.265800  1.0  -0.1051
  C  C1117  1  0.581500  0.779900  0.315000  1.0  -0.082
  C  C1118  1  0.594900  0.786800  0.483400  1.0  -0.1396
  C  C1119  1  0.606600  0.795800  0.519600  1.0  -0.1494
  C  C1120  1  0.622000  0.797200  0.503000  1.0  -0.0845
  C  C1121  1  0.626400  0.794200  0.460100  1.0  -0.1014
  C  C1122  1  0.570900  0.790900  0.415800  1.0  0.1111
  C  C1123  1  0.564500  0.712700  0.434700  1.0  -0.1627
  C  C1124  1  0.549400  0.721900  0.451800  1.0  -0.0347
  C  C1125  1  0.541500  0.802700  0.446400  1.0  -0.0248
  C  C1126  1  0.549100  0.878300  0.424300  1.0  -0.0812
  C  C1127  1  0.563900  0.875900  0.412400  1.0  -0.1733
  C  C1128  1  0.525300  0.815100  0.464500  1.0  0.7525
  C  C1129  1  0.860500  0.870800  0.391800  1.0  -0.1262
  C  C1130  1  0.851500  0.943400  0.399500  1.0  -0.1049
  C  C1131  1  0.835300  0.936100  0.391400  1.0  -0.0852
  C  C1132  1  0.829900  0.856500  0.367000  1.0  -0.0902
  C  C1133  1  0.817400  0.680400  0.328400  1.0  0.0566
  C  C1134  1  0.808900  0.732500  0.293000  1.0  -0.1127
  C  C1135  1  0.793800  0.715200  0.283200  1.0  -0.0619
  C  C1136  1  0.785800  0.653400  0.311200  1.0  -0.0942
  C  C1137  1  0.793900  0.601200  0.350400  1.0  -0.0725
  C  C1138  1  0.808400  0.617400  0.357200  1.0  -0.074
  C  C1139  1  0.770200  0.631900  0.301800  1.0  0.698
  C  C1140  1  0.769300  0.551900  0.199500  1.0  0.5888
  C  C1141  1  0.787200  0.528200  0.185900  1.0  0.1596
  C  C1142  1  0.794400  0.568200  0.154800  1.0  0.0245
  C  C1143  1  0.808600  0.550000  0.143000  1.0  -0.1949
  C  C1144  1  0.817600  0.487200  0.171500  1.0  0.0584
  C  C1145  1  0.809400  0.441200  0.209200  1.0  -0.0994
  C  C1146  1  0.794500  0.453500  0.217000  1.0  -0.1258
  C  C1147  1  0.843700  0.552800  0.173700  1.0  -0.1105
  C  C1148  1  0.859700  0.540900  0.159300  1.0  0.0427
  C  C1149  1  0.864900  0.457900  0.144100  1.0  -0.0249
  C  C1150  1  0.855400  0.378300  0.136900  1.0  -0.0482
  C  C1151  1  0.838900  0.382700  0.144100  1.0  -0.0812
  C  C1152  1  0.834000  0.476400  0.164200  1.0  -0.0007
  C  C1153  1  0.838600  0.640000  0.196900  1.0  -0.0892
  C  C1154  1  0.847100  0.717600  0.202900  1.0  -0.1599
  C  C1155  1  0.862600  0.707300  0.188900  1.0  -0.0832
  C  C1156  1  0.868700  0.625800  0.170300  1.0  -0.1509
  C  C1157  1  0.860900  0.291400  0.118300  1.0  -0.149
  C  C1158  1  0.851400  0.214200  0.108000  1.0  -0.1838
  C  C1159  1  0.834800  0.228400  0.116600  1.0  -0.1025
  C  C1160  1  0.829500  0.307500  0.135200  1.0  -0.0936
  C  C1161  1  0.881700  0.451500  0.131600  1.0  0.0213
  C  C1162  1  0.892800  0.444000  0.171100  1.0  0.0213
  C  C1163  1  0.908300  0.447600  0.160200  1.0  -0.0603
  C  C1164  1  0.913800  0.456500  0.111200  1.0  0.0195
  C  C1165  1  0.902200  0.454100  0.072900  1.0  -0.1362
  C  C1166  1  0.887100  0.454300  0.088700  1.0  0.0201
  C  C1167  1  0.875700  0.455900  0.045800  1.0  -0.1442
  C  C1168  1  0.881200  0.459700  0.000700  1.0  -0.1025
  C  C1169  1  0.896700  0.461800  0.988700  1.0  -0.1099
  C  C1170  1  0.906300  0.454900  0.021800  1.0  -0.0676
  C  C1171  1  0.888700  0.438600  0.221300  1.0  -0.076
  C  C1172  1  0.899100  0.430700  0.255000  1.0  -0.0976
  C  C1173  1  0.914100  0.439400  0.243000  1.0  -0.0602
  C  C1174  1  0.919700  0.441300  0.200600  1.0  -0.1346
  C  C1175  1  0.929700  0.466600  0.097100  1.0  0.1799
  C  C1176  1  0.935600  0.550700  0.098900  1.0  -0.1597
  C  C1177  1  0.950100  0.567300  0.082600  1.0  -0.0936
  C  C1178  1  0.959700  0.493600  0.069800  1.0  -0.1326
  C  C1179  1  0.952900  0.403500  0.069900  1.0  -0.0805
  C  C1180  1  0.938700  0.389000  0.087100  1.0  -0.146
  C  C1181  1  0.975300  0.513300  0.053200  1.0  0.6521
  C  C1182  1  0.833300  0.697100  0.337700  1.0  0.0068
  C  C1183  1  0.839400  0.778200  0.354100  1.0  0.0137
  C  C1184  1  0.855900  0.785500  0.367400  1.0  0.02
  C  C1185  1  0.864900  0.709400  0.359600  1.0  0.0003
  C  C1186  1  0.859300  0.624100  0.337200  1.0  -0.0928
  C  C1187  1  0.842400  0.614000  0.327700  1.0  -0.0664
  C  C1188  1  0.837700  0.525600  0.305800  1.0  -0.1642
  C  C1189  1  0.847700  0.455900  0.300100  1.0  -0.0939
  C  C1190  1  0.862200  0.459800  0.313800  1.0  -0.0675
  C  C1191  1  0.867700  0.535200  0.332000  1.0  -0.0938
  C  C1192  1  0.880900  0.717000  0.371100  1.0  0.0025
  C  C1193  1  0.885700  0.715200  0.421500  1.0  -0.0908
  C  C1194  1  0.900800  0.714600  0.434900  1.0  -0.0195
  C  C1195  1  0.911900  0.716500  0.400300  1.0  -0.1579
  C  C1196  1  0.908900  0.717900  0.349900  1.0  0.0789
  C  C1197  1  0.892600  0.715700  0.339100  1.0  -0.0127
  C  C1198  1  0.888200  0.724000  0.288700  1.0  -0.1192
  C  C1199  1  0.900100  0.725100  0.252300  1.0  -0.0988
  C  C1200  1  0.915000  0.719500  0.265800  1.0  -0.1027
  C  C1201  1  0.918500  0.720100  0.315000  1.0  -0.0807
  C  C1202  1  0.905100  0.713200  0.483400  1.0  -0.1386
  C  C1203  1  0.893400  0.704200  0.519600  1.0  -0.1482
  C  C1204  1  0.878000  0.702800  0.503000  1.0  -0.085
  C  C1205  1  0.873600  0.705800  0.460100  1.0  -0.1018
  C  C1206  1  0.929100  0.709100  0.415800  1.0  0.112
  C  C1207  1  0.935500  0.787300  0.434700  1.0  -0.1639
  C  C1208  1  0.950600  0.778100  0.451800  1.0  -0.0371
  C  C1209  1  0.958500  0.697300  0.446400  1.0  -0.0253
  C  C1210  1  0.950900  0.621700  0.424300  1.0  -0.0813
  C  C1211  1  0.936100  0.624100  0.412400  1.0  -0.172
  C  C1212  1  0.974700  0.684900  0.464500  1.0  0.7516
  C  C1213  1  0.860500  0.370800  0.891800  1.0  -0.1262
  C  C1214  1  0.851500  0.443400  0.899500  1.0  -0.1049
  C  C1215  1  0.835300  0.436100  0.891400  1.0  -0.0852
  C  C1216  1  0.829900  0.356500  0.867000  1.0  -0.0902
  C  C1217  1  0.817400  0.180400  0.828400  1.0  0.0566
  C  C1218  1  0.808900  0.232500  0.793000  1.0  -0.1127
  C  C1219  1  0.793800  0.215200  0.783200  1.0  -0.0619
  C  C1220  1  0.785800  0.153400  0.811200  1.0  -0.0942
  C  C1221  1  0.793900  0.101200  0.850400  1.0  -0.0725
  C  C1222  1  0.808400  0.117400  0.857200  1.0  -0.074
  C  C1223  1  0.770200  0.131900  0.801800  1.0  0.698
  C  C1224  1  0.769300  0.051900  0.699500  1.0  0.5888
  C  C1225  1  0.787200  0.028200  0.685900  1.0  0.1596
  C  C1226  1  0.794400  0.068200  0.654800  1.0  0.0245
  C  C1227  1  0.808600  0.050000  0.643000  1.0  -0.1949
  C  C1228  1  0.817600  0.987200  0.671500  1.0  0.0584
  C  C1229  1  0.809400  0.941200  0.709200  1.0  -0.0994
  C  C1230  1  0.794500  0.953500  0.717000  1.0  -0.1258
  C  C1231  1  0.843700  0.052800  0.673700  1.0  -0.1105
  C  C1232  1  0.859700  0.040900  0.659300  1.0  0.0427
  C  C1233  1  0.864900  0.957900  0.644100  1.0  -0.0249
  C  C1234  1  0.855400  0.878300  0.636900  1.0  -0.0482
  C  C1235  1  0.838900  0.882700  0.644100  1.0  -0.0812
  C  C1236  1  0.834000  0.976400  0.664200  1.0  -0.0007
  C  C1237  1  0.838600  0.140000  0.696900  1.0  -0.0892
  C  C1238  1  0.847100  0.217600  0.702900  1.0  -0.1599
  C  C1239  1  0.862600  0.207300  0.688900  1.0  -0.0832
  C  C1240  1  0.868700  0.125800  0.670300  1.0  -0.1509
  C  C1241  1  0.860900  0.791400  0.618300  1.0  -0.149
  C  C1242  1  0.851400  0.714200  0.608000  1.0  -0.1838
  C  C1243  1  0.834800  0.728400  0.616600  1.0  -0.1025
  C  C1244  1  0.829500  0.807500  0.635200  1.0  -0.0936
  C  C1245  1  0.881700  0.951500  0.631600  1.0  0.0213
  C  C1246  1  0.892800  0.944000  0.671100  1.0  0.0213
  C  C1247  1  0.908300  0.947600  0.660200  1.0  -0.0603
  C  C1248  1  0.913800  0.956500  0.611200  1.0  0.0195
  C  C1249  1  0.902200  0.954100  0.572900  1.0  -0.1362
  C  C1250  1  0.887100  0.954300  0.588700  1.0  0.0201
  C  C1251  1  0.875700  0.955900  0.545800  1.0  -0.1442
  C  C1252  1  0.881200  0.959700  0.500700  1.0  -0.1025
  C  C1253  1  0.896700  0.961800  0.488700  1.0  -0.1099
  C  C1254  1  0.906300  0.954900  0.521800  1.0  -0.0676
  C  C1255  1  0.888700  0.938600  0.721300  1.0  -0.076
  C  C1256  1  0.899100  0.930700  0.755000  1.0  -0.0976
  C  C1257  1  0.914100  0.939400  0.743000  1.0  -0.0602
  C  C1258  1  0.919700  0.941300  0.700600  1.0  -0.1346
  C  C1259  1  0.929700  0.966600  0.597100  1.0  0.1799
  C  C1260  1  0.935600  0.050700  0.598900  1.0  -0.1597
  C  C1261  1  0.950100  0.067300  0.582600  1.0  -0.0936
  C  C1262  1  0.959700  0.993600  0.569800  1.0  -0.1326
  C  C1263  1  0.952900  0.903500  0.569900  1.0  -0.0805
  C  C1264  1  0.938700  0.889000  0.587100  1.0  -0.146
  C  C1265  1  0.975300  0.013300  0.553200  1.0  0.6521
  C  C1266  1  0.833300  0.197100  0.837700  1.0  0.0068
  C  C1267  1  0.839400  0.278200  0.854100  1.0  0.0137
  C  C1268  1  0.855900  0.285500  0.867400  1.0  0.02
  C  C1269  1  0.864900  0.209400  0.859600  1.0  0.0003
  C  C1270  1  0.859300  0.124100  0.837200  1.0  -0.0928
  C  C1271  1  0.842400  0.114000  0.827700  1.0  -0.0664
  C  C1272  1  0.837700  0.025600  0.805800  1.0  -0.1642
  C  C1273  1  0.847700  0.955900  0.800100  1.0  -0.0939
  C  C1274  1  0.862200  0.959800  0.813800  1.0  -0.0675
  C  C1275  1  0.867700  0.035200  0.832000  1.0  -0.0938
  C  C1276  1  0.880900  0.217000  0.871100  1.0  0.0025
  C  C1277  1  0.885700  0.215200  0.921500  1.0  -0.0908
  C  C1278  1  0.900800  0.214600  0.934900  1.0  -0.0195
  C  C1279  1  0.911900  0.216500  0.900300  1.0  -0.1579
  C  C1280  1  0.908900  0.217900  0.849900  1.0  0.0789
  C  C1281  1  0.892600  0.215700  0.839100  1.0  -0.0127
  C  C1282  1  0.888200  0.224000  0.788700  1.0  -0.1192
  C  C1283  1  0.900100  0.225100  0.752300  1.0  -0.0988
  C  C1284  1  0.915000  0.219500  0.765800  1.0  -0.1027
  C  C1285  1  0.918500  0.220100  0.815000  1.0  -0.0807
  C  C1286  1  0.905100  0.213200  0.983400  1.0  -0.1386
  C  C1287  1  0.893400  0.204200  0.019600  1.0  -0.1482
  C  C1288  1  0.878000  0.202800  0.003000  1.0  -0.085
  C  C1289  1  0.873600  0.205800  0.960100  1.0  -0.1018
  C  C1290  1  0.929100  0.209100  0.915800  1.0  0.112
  C  C1291  1  0.935500  0.287300  0.934700  1.0  -0.1639
  C  C1292  1  0.950600  0.278100  0.951800  1.0  -0.0371
  C  C1293  1  0.958500  0.197300  0.946400  1.0  -0.0253
  C  C1294  1  0.950900  0.121700  0.924300  1.0  -0.0813
  C  C1295  1  0.936100  0.124100  0.912400  1.0  -0.172
  C  C1296  1  0.974700  0.184900  0.964500  1.0  0.7516
  C  C1297  1  0.360500  0.870800  0.891800  1.0  -0.1263
  C  C1298  1  0.351500  0.943400  0.899500  1.0  -0.1049
  C  C1299  1  0.335300  0.936100  0.891400  1.0  -0.0852
  C  C1300  1  0.329900  0.856500  0.867000  1.0  -0.0901
  C  C1301  1  0.317400  0.680400  0.828400  1.0  0.052
  C  C1302  1  0.308900  0.732500  0.793000  1.0  -0.1125
  C  C1303  1  0.293800  0.715200  0.783200  1.0  -0.0619
  C  C1304  1  0.285800  0.653400  0.811200  1.0  -0.0942
  C  C1305  1  0.293900  0.601200  0.850400  1.0  -0.0725
  C  C1306  1  0.308400  0.617400  0.857200  1.0  -0.0743
  C  C1307  1  0.270200  0.631900  0.801800  1.0  0.698
  C  C1308  1  0.269300  0.551900  0.699500  1.0  0.5888
  C  C1309  1  0.287200  0.528200  0.685900  1.0  0.1596
  C  C1310  1  0.294400  0.568200  0.654800  1.0  0.0245
  C  C1311  1  0.308600  0.550000  0.643000  1.0  -0.1949
  C  C1312  1  0.317600  0.487200  0.671500  1.0  0.0584
  C  C1313  1  0.309400  0.441200  0.709200  1.0  -0.0994
  C  C1314  1  0.294500  0.453500  0.717000  1.0  -0.1258
  C  C1315  1  0.343700  0.552800  0.673700  1.0  -0.1105
  C  C1316  1  0.359700  0.540900  0.659300  1.0  0.0428
  C  C1317  1  0.364900  0.457900  0.644100  1.0  -0.0249
  C  C1318  1  0.355400  0.378300  0.636900  1.0  -0.0482
  C  C1319  1  0.338900  0.382700  0.644100  1.0  -0.0812
  C  C1320  1  0.334000  0.476400  0.664200  1.0  -0.0007
  C  C1321  1  0.338600  0.640000  0.696900  1.0  -0.0892
  C  C1322  1  0.347100  0.717600  0.702900  1.0  -0.1599
  C  C1323  1  0.362600  0.707300  0.688900  1.0  -0.0832
  C  C1324  1  0.368700  0.625800  0.670300  1.0  -0.1509
  C  C1325  1  0.360900  0.291400  0.618300  1.0  -0.149
  C  C1326  1  0.351400  0.214200  0.608000  1.0  -0.1838
  C  C1327  1  0.334800  0.228400  0.616600  1.0  -0.1025
  C  C1328  1  0.329500  0.307500  0.635200  1.0  -0.0936
  C  C1329  1  0.381700  0.451500  0.631600  1.0  0.0213
  C  C1330  1  0.392800  0.444000  0.671100  1.0  0.0213
  C  C1331  1  0.408300  0.447600  0.660200  1.0  -0.0603
  C  C1332  1  0.413800  0.456500  0.611200  1.0  0.0195
  C  C1333  1  0.402200  0.454100  0.572900  1.0  -0.1362
  C  C1334  1  0.387100  0.454300  0.588700  1.0  0.0201
  C  C1335  1  0.375700  0.455900  0.545800  1.0  -0.1442
  C  C1336  1  0.381200  0.459700  0.500700  1.0  -0.1025
  C  C1337  1  0.396700  0.461800  0.488700  1.0  -0.1099
  C  C1338  1  0.406300  0.454900  0.521800  1.0  -0.0676
  C  C1339  1  0.388700  0.438600  0.721300  1.0  -0.076
  C  C1340  1  0.399100  0.430700  0.755000  1.0  -0.0976
  C  C1341  1  0.414100  0.439400  0.743000  1.0  -0.0602
  C  C1342  1  0.419700  0.441300  0.700600  1.0  -0.1346
  C  C1343  1  0.429700  0.466600  0.597100  1.0  0.1799
  C  C1344  1  0.435600  0.550700  0.598900  1.0  -0.1597
  C  C1345  1  0.450100  0.567300  0.582600  1.0  -0.0936
  C  C1346  1  0.459700  0.493600  0.569800  1.0  -0.1326
  C  C1347  1  0.452900  0.403500  0.569900  1.0  -0.0805
  C  C1348  1  0.438700  0.389000  0.587100  1.0  -0.146
  C  C1349  1  0.475300  0.513300  0.553200  1.0  0.6521
  C  C1350  1  0.333333  0.697100  0.837700  1.0  0.0174
  C  C1351  1  0.339400  0.778200  0.854100  1.0  0.0175
  C  C1352  1  0.355900  0.785500  0.867400  1.0  0.02
  C  C1353  1  0.364900  0.709400  0.859600  1.0  0.0002
  C  C1354  1  0.359300  0.624100  0.837200  1.0  -0.0998
  C  C1355  1  0.342400  0.614000  0.827700  1.0  -0.0649
  C  C1356  1  0.337700  0.525600  0.805800  1.0  -0.1643
  C  C1357  1  0.347700  0.455900  0.800100  1.0  -0.0939
  C  C1358  1  0.362200  0.459800  0.813800  1.0  -0.0675
  C  C1359  1  0.367700  0.535200  0.832000  1.0  -0.0938
  C  C1360  1  0.380900  0.717000  0.871100  1.0  0.0025
  C  C1361  1  0.385700  0.715200  0.921500  1.0  -0.0908
  C  C1362  1  0.400800  0.714600  0.934900  1.0  -0.0195
  C  C1363  1  0.411900  0.716500  0.900300  1.0  -0.1579
  C  C1364  1  0.408900  0.717900  0.849900  1.0  0.0789
  C  C1365  1  0.392600  0.715700  0.839100  1.0  -0.0127
  C  C1366  1  0.388200  0.724000  0.788700  1.0  -0.1192
  C  C1367  1  0.400100  0.725100  0.752300  1.0  -0.0988
  C  C1368  1  0.415000  0.719500  0.765800  1.0  -0.1027
  C  C1369  1  0.418500  0.720100  0.815000  1.0  -0.0807
  C  C1370  1  0.405100  0.713200  0.983400  1.0  -0.1386
  C  C1371  1  0.393400  0.704200  0.019600  1.0  -0.1482
  C  C1372  1  0.378000  0.702800  0.003000  1.0  -0.085
  C  C1373  1  0.373600  0.705800  0.960100  1.0  -0.1018
  C  C1374  1  0.429100  0.709100  0.915800  1.0  0.112
  C  C1375  1  0.435500  0.787300  0.934700  1.0  -0.1639
  C  C1376  1  0.450600  0.778100  0.951800  1.0  -0.0371
  C  C1377  1  0.458500  0.697300  0.946400  1.0  -0.0253
  C  C1378  1  0.450900  0.621700  0.924300  1.0  -0.0813
  C  C1379  1  0.436100  0.624100  0.912400  1.0  -0.172
  C  C1380  1  0.474700  0.684900  0.964500  1.0  0.7516
  C  C1381  1  0.360500  0.370800  0.391800  1.0  -0.1263
  C  C1382  1  0.351500  0.443400  0.399500  1.0  -0.1049
  C  C1383  1  0.335300  0.436100  0.391400  1.0  -0.0852
  C  C1384  1  0.329900  0.356500  0.367000  1.0  -0.0901
  C  C1385  1  0.317400  0.180400  0.328400  1.0  0.052
  C  C1386  1  0.308900  0.232500  0.293000  1.0  -0.1125
  C  C1387  1  0.293800  0.215200  0.283200  1.0  -0.0619
  C  C1388  1  0.285800  0.153400  0.311200  1.0  -0.0942
  C  C1389  1  0.293900  0.101200  0.350400  1.0  -0.0725
  C  C1390  1  0.308400  0.117400  0.357200  1.0  -0.0743
  C  C1391  1  0.270200  0.131900  0.301800  1.0  0.698
  C  C1392  1  0.269300  0.051900  0.199500  1.0  0.5897
  C  C1393  1  0.287200  0.028200  0.185900  1.0  0.1509
  C  C1394  1  0.294400  0.068200  0.154800  1.0  0.0092
  C  C1395  1  0.308600  0.050000  0.143000  1.0  -0.1949
  C  C1396  1  0.317600  0.987200  0.171500  1.0  0.0584
  C  C1397  1  0.309400  0.941200  0.209200  1.0  -0.0994
  C  C1398  1  0.294500  0.953500  0.217000  1.0  -0.1258
  C  C1399  1  0.343700  0.052800  0.173700  1.0  -0.1105
  C  C1400  1  0.359700  0.040900  0.159300  1.0  0.0428
  C  C1401  1  0.364900  0.957900  0.144100  1.0  -0.0249
  C  C1402  1  0.355400  0.878300  0.136900  1.0  -0.0482
  C  C1403  1  0.338900  0.882700  0.144100  1.0  -0.0812
  C  C1404  1  0.334000  0.976400  0.164200  1.0  -0.0007
  C  C1405  1  0.338600  0.140000  0.196900  1.0  -0.0892
  C  C1406  1  0.347100  0.217600  0.202900  1.0  -0.1599
  C  C1407  1  0.362600  0.207300  0.188900  1.0  -0.0832
  C  C1408  1  0.368700  0.125800  0.170300  1.0  -0.1509
  C  C1409  1  0.360900  0.791400  0.118300  1.0  -0.149
  C  C1410  1  0.351400  0.714200  0.108000  1.0  -0.1838
  C  C1411  1  0.334800  0.728400  0.116600  1.0  -0.1025
  C  C1412  1  0.329500  0.807500  0.135200  1.0  -0.0936
  C  C1413  1  0.381700  0.951500  0.131600  1.0  0.0213
  C  C1414  1  0.392800  0.944000  0.171100  1.0  0.0213
  C  C1415  1  0.408300  0.947600  0.160200  1.0  -0.0603
  C  C1416  1  0.413800  0.956500  0.111200  1.0  0.0195
  C  C1417  1  0.402200  0.954100  0.072900  1.0  -0.1362
  C  C1418  1  0.387100  0.954300  0.088700  1.0  0.0201
  C  C1419  1  0.375700  0.955900  0.045800  1.0  -0.1442
  C  C1420  1  0.381200  0.959700  0.000700  1.0  -0.1025
  C  C1421  1  0.396700  0.961800  0.988700  1.0  -0.1099
  C  C1422  1  0.406300  0.954900  0.021800  1.0  -0.0676
  C  C1423  1  0.388700  0.938600  0.221300  1.0  -0.076
  C  C1424  1  0.399100  0.930700  0.255000  1.0  -0.0976
  C  C1425  1  0.414100  0.939400  0.243000  1.0  -0.0602
  C  C1426  1  0.419700  0.941300  0.200600  1.0  -0.1346
  C  C1427  1  0.429700  0.966600  0.097100  1.0  0.1799
  C  C1428  1  0.435600  0.050700  0.098900  1.0  -0.1597
  C  C1429  1  0.450100  0.067300  0.082600  1.0  -0.0936
  C  C1430  1  0.459700  0.993600  0.069800  1.0  -0.1326
  C  C1431  1  0.452900  0.903500  0.069900  1.0  -0.0805
  C  C1432  1  0.438700  0.889000  0.087100  1.0  -0.146
  C  C1433  1  0.475300  0.013300  0.053200  1.0  0.6521
  C  C1434  1  0.333333  0.197100  0.337700  1.0  0.0174
  C  C1435  1  0.339400  0.278200  0.354100  1.0  0.0175
  C  C1436  1  0.355900  0.285500  0.367400  1.0  0.02
  C  C1437  1  0.364900  0.209400  0.359600  1.0  0.0002
  C  C1438  1  0.359300  0.124100  0.337200  1.0  -0.0998
  C  C1439  1  0.342400  0.114000  0.327700  1.0  -0.0649
  C  C1440  1  0.337700  0.025600  0.305800  1.0  -0.1643
  C  C1441  1  0.347700  0.955900  0.300100  1.0  -0.0939
  C  C1442  1  0.362200  0.959800  0.313800  1.0  -0.0675
  C  C1443  1  0.367700  0.035200  0.332000  1.0  -0.0938
  C  C1444  1  0.380900  0.217000  0.371100  1.0  0.0025
  C  C1445  1  0.385700  0.215200  0.421500  1.0  -0.0908
  C  C1446  1  0.400800  0.214600  0.434900  1.0  -0.0195
  C  C1447  1  0.411900  0.216500  0.400300  1.0  -0.1579
  C  C1448  1  0.408900  0.217900  0.349900  1.0  0.0789
  C  C1449  1  0.392600  0.215700  0.339100  1.0  -0.0127
  C  C1450  1  0.388200  0.224000  0.288700  1.0  -0.1192
  C  C1451  1  0.400100  0.225100  0.252300  1.0  -0.0988
  C  C1452  1  0.415000  0.219500  0.265800  1.0  -0.1027
  C  C1453  1  0.418500  0.220100  0.315000  1.0  -0.0807
  C  C1454  1  0.405100  0.213200  0.483400  1.0  -0.1386
  C  C1455  1  0.393400  0.204200  0.519600  1.0  -0.1482
  C  C1456  1  0.378000  0.202800  0.503000  1.0  -0.085
  C  C1457  1  0.373600  0.205800  0.460100  1.0  -0.1018
  C  C1458  1  0.429100  0.209100  0.415800  1.0  0.112
  C  C1459  1  0.435500  0.287300  0.434700  1.0  -0.1639
  C  C1460  1  0.450600  0.278100  0.451800  1.0  -0.0371
  C  C1461  1  0.458500  0.197300  0.446400  1.0  -0.0253
  C  C1462  1  0.450900  0.121700  0.424300  1.0  -0.0813
  C  C1463  1  0.436100  0.124100  0.412400  1.0  -0.172
  C  C1464  1  0.474700  0.184900  0.464500  1.0  0.7516
  C  C1465  1  0.389500  0.120800  0.641800  1.0  -0.1226
  C  C1466  1  0.398500  0.193400  0.649500  1.0  -0.1055
  C  C1467  1  0.414700  0.186100  0.641400  1.0  -0.0817
  C  C1468  1  0.420100  0.106500  0.617000  1.0  -0.0895
  C  C1469  1  0.432600  0.930400  0.578400  1.0  0.0563
  C  C1470  1  0.441100  0.982500  0.543000  1.0  -0.1122
  C  C1471  1  0.456200  0.965200  0.533200  1.0  -0.0616
  C  C1472  1  0.464200  0.903400  0.561200  1.0  -0.0951
  C  C1473  1  0.456100  0.851200  0.600400  1.0  -0.0726
  C  C1474  1  0.441600  0.867400  0.607200  1.0  -0.0732
  C  C1475  1  0.479800  0.881900  0.551800  1.0  0.6968
  C  C1476  1  0.480700  0.801900  0.449500  1.0  0.5909
  C  C1477  1  0.462800  0.778200  0.435900  1.0  0.159
  C  C1478  1  0.455600  0.818200  0.404800  1.0  0.0247
  C  C1479  1  0.441400  0.800000  0.393000  1.0  -0.1965
  C  C1480  1  0.432400  0.737200  0.421500  1.0  0.059
  C  C1481  1  0.440600  0.691200  0.459200  1.0  -0.0985
  C  C1482  1  0.455500  0.703500  0.467000  1.0  -0.1269
  C  C1483  1  0.406300  0.802800  0.423700  1.0  -0.1112
  C  C1484  1  0.390300  0.790900  0.409300  1.0  0.0437
  C  C1485  1  0.385100  0.707900  0.394100  1.0  -0.0248
  C  C1486  1  0.394600  0.628300  0.386900  1.0  -0.047
  C  C1487  1  0.411100  0.632700  0.394100  1.0  -0.083
  C  C1488  1  0.416000  0.726400  0.414200  1.0  -0.0009
  C  C1489  1  0.411400  0.890000  0.446900  1.0  -0.0892
  C  C1490  1  0.402900  0.967600  0.452900  1.0  -0.16
  C  C1491  1  0.387400  0.957300  0.438900  1.0  -0.084
  C  C1492  1  0.381300  0.875800  0.420300  1.0  -0.148
  C  C1493  1  0.389100  0.541400  0.368300  1.0  -0.1483
  C  C1494  1  0.398600  0.464200  0.358000  1.0  -0.1841
  C  C1495  1  0.415200  0.478400  0.366600  1.0  -0.1014
  C  C1496  1  0.420500  0.557500  0.385200  1.0  -0.0892
  C  C1497  1  0.368300  0.701500  0.381600  1.0  0.0214
  C  C1498  1  0.357200  0.694000  0.421100  1.0  0.0207
  C  C1499  1  0.341700  0.697600  0.410200  1.0  -0.0624
  C  C1500  1  0.336200  0.706500  0.361200  1.0  0.0197
  C  C1501  1  0.347800  0.704100  0.322900  1.0  -0.1364
  C  C1502  1  0.362900  0.704300  0.338700  1.0  0.02
  C  C1503  1  0.374300  0.705900  0.295800  1.0  -0.1449
  C  C1504  1  0.368800  0.709700  0.250700  1.0  -0.102
  C  C1505  1  0.353300  0.711800  0.238700  1.0  -0.1094
  C  C1506  1  0.343700  0.704900  0.271800  1.0  -0.0664
  C  C1507  1  0.361300  0.688600  0.471300  1.0  -0.0767
  C  C1508  1  0.350900  0.680700  0.505000  1.0  -0.101
  C  C1509  1  0.335900  0.689400  0.493000  1.0  -0.0654
  C  C1510  1  0.330300  0.691300  0.450600  1.0  -0.1358
  C  C1511  1  0.320300  0.716600  0.347100  1.0  0.1793
  C  C1512  1  0.314400  0.800700  0.348900  1.0  -0.1625
  C  C1513  1  0.299900  0.817300  0.332600  1.0  -0.0942
  C  C1514  1  0.290300  0.743600  0.319800  1.0  -0.1315
  C  C1515  1  0.297100  0.653500  0.319900  1.0  -0.0785
  C  C1516  1  0.311300  0.639000  0.337100  1.0  -0.1468
  C  C1517  1  0.274700  0.763300  0.303200  1.0  0.6526
  C  C1518  1  0.416700  0.947100  0.587700  1.0  0.0072
  C  C1519  1  0.410600  0.028200  0.604100  1.0  0.014
  C  C1520  1  0.394100  0.035500  0.617400  1.0  0.0203
  C  C1521  1  0.385100  0.959400  0.609600  1.0  0.0016
  C  C1522  1  0.390700  0.874100  0.587200  1.0  -0.0918
  C  C1523  1  0.407600  0.864000  0.577700  1.0  -0.0658
  C  C1524  1  0.412300  0.775600  0.555800  1.0  -0.1645
  C  C1525  1  0.402300  0.705900  0.550100  1.0  -0.0934
  C  C1526  1  0.387800  0.709800  0.563800  1.0  -0.0687
  C  C1527  1  0.382300  0.785200  0.582000  1.0  -0.0929
  C  C1528  1  0.369100  0.967000  0.621100  1.0  0.0026
  C  C1529  1  0.364300  0.965200  0.671500  1.0  -0.0907
  C  C1530  1  0.349200  0.964600  0.684900  1.0  -0.0199
  C  C1531  1  0.338100  0.966500  0.650300  1.0  -0.1582
  C  C1532  1  0.341100  0.967900  0.599900  1.0  0.0785
  C  C1533  1  0.357400  0.965700  0.589100  1.0  -0.0134
  C  C1534  1  0.361800  0.974000  0.538700  1.0  -0.1186
  C  C1535  1  0.349900  0.975100  0.502300  1.0  -0.1025
  C  C1536  1  0.335000  0.969500  0.515800  1.0  -0.1052
  C  C1537  1  0.331500  0.970100  0.565000  1.0  -0.082
  C  C1538  1  0.344900  0.963200  0.733400  1.0  -0.1393
  C  C1539  1  0.356600  0.954200  0.769600  1.0  -0.1492
  C  C1540  1  0.372000  0.952800  0.753000  1.0  -0.0844
  C  C1541  1  0.376400  0.955800  0.710100  1.0  -0.1012
  C  C1542  1  0.320900  0.959100  0.665800  1.0  0.1113
  C  C1543  1  0.314500  0.037300  0.684700  1.0  -0.162
  C  C1544  1  0.299400  0.028100  0.701800  1.0  -0.0349
  C  C1545  1  0.291500  0.947300  0.696400  1.0  -0.0241
  C  C1546  1  0.299100  0.871700  0.674300  1.0  -0.0815
  C  C1547  1  0.313900  0.874100  0.662400  1.0  -0.1737
  C  C1548  1  0.275300  0.934900  0.714500  1.0  0.7537
  C  C1549  1  0.389500  0.620800  0.141800  1.0  -0.1226
  C  C1550  1  0.398500  0.693400  0.149500  1.0  -0.1055
  C  C1551  1  0.414700  0.686100  0.141400  1.0  -0.0817
  C  C1552  1  0.420100  0.606500  0.117000  1.0  -0.0895
  C  C1553  1  0.432600  0.430400  0.078400  1.0  0.0563
  C  C1554  1  0.441100  0.482500  0.043000  1.0  -0.1122
  C  C1555  1  0.456200  0.465200  0.033200  1.0  -0.0616
  C  C1556  1  0.464200  0.403400  0.061200  1.0  -0.0951
  C  C1557  1  0.456100  0.351200  0.100400  1.0  -0.0726
  C  C1558  1  0.441600  0.367400  0.107200  1.0  -0.0732
  C  C1559  1  0.479800  0.381900  0.051800  1.0  0.6968
  C  C1560  1  0.480700  0.301900  0.949500  1.0  0.5909
  C  C1561  1  0.462800  0.278200  0.935900  1.0  0.159
  C  C1562  1  0.455600  0.318200  0.904800  1.0  0.0247
  C  C1563  1  0.441400  0.300000  0.893000  1.0  -0.1965
  C  C1564  1  0.432400  0.237200  0.921500  1.0  0.059
  C  C1565  1  0.440600  0.191200  0.959200  1.0  -0.0985
  C  C1566  1  0.455500  0.203500  0.967000  1.0  -0.1269
  C  C1567  1  0.406300  0.302800  0.923700  1.0  -0.1112
  C  C1568  1  0.390300  0.290900  0.909300  1.0  0.0437
  C  C1569  1  0.385100  0.207900  0.894100  1.0  -0.0248
  C  C1570  1  0.394600  0.128300  0.886900  1.0  -0.047
  C  C1571  1  0.411100  0.132700  0.894100  1.0  -0.083
  C  C1572  1  0.416000  0.226400  0.914200  1.0  -0.0009
  C  C1573  1  0.411400  0.390000  0.946900  1.0  -0.0892
  C  C1574  1  0.402900  0.467600  0.952900  1.0  -0.16
  C  C1575  1  0.387400  0.457300  0.938900  1.0  -0.084
  C  C1576  1  0.381300  0.375800  0.920300  1.0  -0.148
  C  C1577  1  0.389100  0.041400  0.868300  1.0  -0.1483
  C  C1578  1  0.398600  0.964200  0.858000  1.0  -0.1841
  C  C1579  1  0.415200  0.978400  0.866600  1.0  -0.1014
  C  C1580  1  0.420500  0.057500  0.885200  1.0  -0.0892
  C  C1581  1  0.368300  0.201500  0.881600  1.0  0.0214
  C  C1582  1  0.357200  0.194000  0.921100  1.0  0.0207
  C  C1583  1  0.341700  0.197600  0.910200  1.0  -0.0624
  C  C1584  1  0.336200  0.206500  0.861200  1.0  0.0197
  C  C1585  1  0.347800  0.204100  0.822900  1.0  -0.1364
  C  C1586  1  0.362900  0.204300  0.838700  1.0  0.02
  C  C1587  1  0.374300  0.205900  0.795800  1.0  -0.1449
  C  C1588  1  0.368800  0.209700  0.750700  1.0  -0.102
  C  C1589  1  0.353300  0.211800  0.738700  1.0  -0.1094
  C  C1590  1  0.343700  0.204900  0.771800  1.0  -0.0664
  C  C1591  1  0.361300  0.188600  0.971300  1.0  -0.0767
  C  C1592  1  0.350900  0.180700  0.005000  1.0  -0.101
  C  C1593  1  0.335900  0.189400  0.993000  1.0  -0.0654
  C  C1594  1  0.330300  0.191300  0.950600  1.0  -0.1358
  C  C1595  1  0.320300  0.216600  0.847100  1.0  0.1793
  C  C1596  1  0.314400  0.300700  0.848900  1.0  -0.1625
  C  C1597  1  0.299900  0.317300  0.832600  1.0  -0.0942
  C  C1598  1  0.290300  0.243600  0.819800  1.0  -0.1315
  C  C1599  1  0.297100  0.153500  0.819900  1.0  -0.0785
  C  C1600  1  0.311300  0.139000  0.837100  1.0  -0.1468
  C  C1601  1  0.274700  0.263300  0.803200  1.0  0.6526
  C  C1602  1  0.416700  0.447100  0.087700  1.0  0.0072
  C  C1603  1  0.410600  0.528200  0.104100  1.0  0.014
  C  C1604  1  0.394100  0.535500  0.117400  1.0  0.0203
  C  C1605  1  0.385100  0.459400  0.109600  1.0  0.0016
  C  C1606  1  0.390700  0.374100  0.087200  1.0  -0.0918
  C  C1607  1  0.407600  0.364000  0.077700  1.0  -0.0658
  C  C1608  1  0.412300  0.275600  0.055800  1.0  -0.1645
  C  C1609  1  0.402300  0.205900  0.050100  1.0  -0.0934
  C  C1610  1  0.387800  0.209800  0.063800  1.0  -0.0687
  C  C1611  1  0.382300  0.285200  0.082000  1.0  -0.0929
  C  C1612  1  0.369100  0.467000  0.121100  1.0  0.0026
  C  C1613  1  0.364300  0.465200  0.171500  1.0  -0.0907
  C  C1614  1  0.349200  0.464600  0.184900  1.0  -0.0199
  C  C1615  1  0.338100  0.466500  0.150300  1.0  -0.1582
  C  C1616  1  0.341100  0.467900  0.099900  1.0  0.0785
  C  C1617  1  0.357400  0.465700  0.089100  1.0  -0.0134
  C  C1618  1  0.361800  0.474000  0.038700  1.0  -0.1186
  C  C1619  1  0.349900  0.475100  0.002300  1.0  -0.1025
  C  C1620  1  0.335000  0.469500  0.015800  1.0  -0.1052
  C  C1621  1  0.331500  0.470100  0.065000  1.0  -0.082
  C  C1622  1  0.344900  0.463200  0.233400  1.0  -0.1393
  C  C1623  1  0.356600  0.454200  0.269600  1.0  -0.1492
  C  C1624  1  0.372000  0.452800  0.253000  1.0  -0.0844
  C  C1625  1  0.376400  0.455800  0.210100  1.0  -0.1012
  C  C1626  1  0.320900  0.459100  0.165800  1.0  0.1113
  C  C1627  1  0.314500  0.537300  0.184700  1.0  -0.162
  C  C1628  1  0.299400  0.528100  0.201800  1.0  -0.0349
  C  C1629  1  0.291500  0.447300  0.196400  1.0  -0.0241
  C  C1630  1  0.299100  0.371700  0.174300  1.0  -0.0815
  C  C1631  1  0.313900  0.374100  0.162400  1.0  -0.1737
  C  C1632  1  0.275300  0.434900  0.214500  1.0  0.7537
  C  C1633  1  0.889500  0.120800  0.141800  1.0  -0.1226
  C  C1634  1  0.898500  0.193400  0.149500  1.0  -0.1055
  C  C1635  1  0.914700  0.186100  0.141400  1.0  -0.0817
  C  C1636  1  0.920100  0.106500  0.117000  1.0  -0.0895
  C  C1637  1  0.932600  0.930400  0.078400  1.0  0.0563
  C  C1638  1  0.941100  0.982500  0.043000  1.0  -0.1122
  C  C1639  1  0.956200  0.965200  0.033200  1.0  -0.0616
  C  C1640  1  0.964200  0.903400  0.061200  1.0  -0.0951
  C  C1641  1  0.956100  0.851200  0.100400  1.0  -0.0726
  C  C1642  1  0.941600  0.867400  0.107200  1.0  -0.0732
  C  C1643  1  0.979800  0.881900  0.051800  1.0  0.6968
  C  C1644  1  0.980700  0.801900  0.949500  1.0  0.5909
  C  C1645  1  0.962800  0.778200  0.935900  1.0  0.159
  C  C1646  1  0.955600  0.818200  0.904800  1.0  0.0247
  C  C1647  1  0.941400  0.800000  0.893000  1.0  -0.1965
  C  C1648  1  0.932400  0.737200  0.921500  1.0  0.059
  C  C1649  1  0.940600  0.691200  0.959200  1.0  -0.0985
  C  C1650  1  0.955500  0.703500  0.967000  1.0  -0.1269
  C  C1651  1  0.906300  0.802800  0.923700  1.0  -0.1112
  C  C1652  1  0.890300  0.790900  0.909300  1.0  0.0437
  C  C1653  1  0.885100  0.707900  0.894100  1.0  -0.0248
  C  C1654  1  0.894600  0.628300  0.886900  1.0  -0.047
  C  C1655  1  0.911100  0.632700  0.894100  1.0  -0.083
  C  C1656  1  0.916000  0.726400  0.914200  1.0  -0.0009
  C  C1657  1  0.911400  0.890000  0.946900  1.0  -0.0892
  C  C1658  1  0.902900  0.967600  0.952900  1.0  -0.16
  C  C1659  1  0.887400  0.957300  0.938900  1.0  -0.084
  C  C1660  1  0.881300  0.875800  0.920300  1.0  -0.148
  C  C1661  1  0.889100  0.541400  0.868300  1.0  -0.1483
  C  C1662  1  0.898600  0.464200  0.858000  1.0  -0.1841
  C  C1663  1  0.915200  0.478400  0.866600  1.0  -0.1014
  C  C1664  1  0.920500  0.557500  0.885200  1.0  -0.0892
  C  C1665  1  0.868300  0.701500  0.881600  1.0  0.0214
  C  C1666  1  0.857200  0.694000  0.921100  1.0  0.0207
  C  C1667  1  0.841700  0.697600  0.910200  1.0  -0.0624
  C  C1668  1  0.836200  0.706500  0.861200  1.0  0.0197
  C  C1669  1  0.847800  0.704100  0.822900  1.0  -0.1364
  C  C1670  1  0.862900  0.704300  0.838700  1.0  0.02
  C  C1671  1  0.874300  0.705900  0.795800  1.0  -0.1449
  C  C1672  1  0.868800  0.709700  0.750700  1.0  -0.102
  C  C1673  1  0.853300  0.711800  0.738700  1.0  -0.1094
  C  C1674  1  0.843700  0.704900  0.771800  1.0  -0.0664
  C  C1675  1  0.861300  0.688600  0.971300  1.0  -0.0767
  C  C1676  1  0.850900  0.680700  0.005000  1.0  -0.101
  C  C1677  1  0.835900  0.689400  0.993000  1.0  -0.0654
  C  C1678  1  0.830300  0.691300  0.950600  1.0  -0.1358
  C  C1679  1  0.820300  0.716600  0.847100  1.0  0.1793
  C  C1680  1  0.814400  0.800700  0.848900  1.0  -0.1625
  C  C1681  1  0.799900  0.817300  0.832600  1.0  -0.0942
  C  C1682  1  0.790300  0.743600  0.819800  1.0  -0.1315
  C  C1683  1  0.797100  0.653500  0.819900  1.0  -0.0785
  C  C1684  1  0.811300  0.639000  0.837100  1.0  -0.1468
  C  C1685  1  0.774700  0.763300  0.803200  1.0  0.6526
  C  C1686  1  0.916700  0.947100  0.087700  1.0  0.0072
  C  C1687  1  0.910600  0.028200  0.104100  1.0  0.014
  C  C1688  1  0.894100  0.035500  0.117400  1.0  0.0203
  C  C1689  1  0.885100  0.959400  0.109600  1.0  0.0016
  C  C1690  1  0.890700  0.874100  0.087200  1.0  -0.0918
  C  C1691  1  0.907600  0.864000  0.077700  1.0  -0.0658
  C  C1692  1  0.912300  0.775600  0.055800  1.0  -0.1645
  C  C1693  1  0.902300  0.705900  0.050100  1.0  -0.0934
  C  C1694  1  0.887800  0.709800  0.063800  1.0  -0.0687
  C  C1695  1  0.882300  0.785200  0.082000  1.0  -0.0929
  C  C1696  1  0.869100  0.967000  0.121100  1.0  0.0026
  C  C1697  1  0.864300  0.965200  0.171500  1.0  -0.0907
  C  C1698  1  0.849200  0.964600  0.184900  1.0  -0.0199
  C  C1699  1  0.838100  0.966500  0.150300  1.0  -0.1582
  C  C1700  1  0.841100  0.967900  0.099900  1.0  0.0785
  C  C1701  1  0.857400  0.965700  0.089100  1.0  -0.0134
  C  C1702  1  0.861800  0.974000  0.038700  1.0  -0.1186
  C  C1703  1  0.849900  0.975100  0.002300  1.0  -0.1025
  C  C1704  1  0.835000  0.969500  0.015800  1.0  -0.1052
  C  C1705  1  0.831500  0.970100  0.065000  1.0  -0.082
  C  C1706  1  0.844900  0.963200  0.233400  1.0  -0.1393
  C  C1707  1  0.856600  0.954200  0.269600  1.0  -0.1492
  C  C1708  1  0.872000  0.952800  0.253000  1.0  -0.0844
  C  C1709  1  0.876400  0.955800  0.210100  1.0  -0.1012
  C  C1710  1  0.820900  0.959100  0.165800  1.0  0.1113
  C  C1711  1  0.814500  0.037300  0.184700  1.0  -0.162
  C  C1712  1  0.799400  0.028100  0.201800  1.0  -0.0349
  C  C1713  1  0.791500  0.947300  0.196400  1.0  -0.0241
  C  C1714  1  0.799100  0.871700  0.174300  1.0  -0.0815
  C  C1715  1  0.813900  0.874100  0.162400  1.0  -0.1737
  C  C1716  1  0.775300  0.934900  0.214500  1.0  0.7537
  C  C1717  1  0.889500  0.620800  0.641800  1.0  -0.1226
  C  C1718  1  0.898500  0.693400  0.649500  1.0  -0.1055
  C  C1719  1  0.914700  0.686100  0.641400  1.0  -0.0817
  C  C1720  1  0.920100  0.606500  0.617000  1.0  -0.0895
  C  C1721  1  0.932600  0.430400  0.578400  1.0  0.0563
  C  C1722  1  0.941100  0.482500  0.543000  1.0  -0.1122
  C  C1723  1  0.956200  0.465200  0.533200  1.0  -0.0616
  C  C1724  1  0.964200  0.403400  0.561200  1.0  -0.0951
  C  C1725  1  0.956100  0.351200  0.600400  1.0  -0.0726
  C  C1726  1  0.941600  0.367400  0.607200  1.0  -0.0732
  C  C1727  1  0.979800  0.381900  0.551800  1.0  0.6968
  C  C1728  1  0.980700  0.301900  0.449500  1.0  0.5909
  C  C1729  1  0.962800  0.278200  0.435900  1.0  0.159
  C  C1730  1  0.955600  0.318200  0.404800  1.0  0.0247
  C  C1731  1  0.941400  0.300000  0.393000  1.0  -0.1965
  C  C1732  1  0.932400  0.237200  0.421500  1.0  0.059
  C  C1733  1  0.940600  0.191200  0.459200  1.0  -0.0985
  C  C1734  1  0.955500  0.203500  0.467000  1.0  -0.1269
  C  C1735  1  0.906300  0.302800  0.423700  1.0  -0.1112
  C  C1736  1  0.890300  0.290900  0.409300  1.0  0.0437
  C  C1737  1  0.885100  0.207900  0.394100  1.0  -0.0248
  C  C1738  1  0.894600  0.128300  0.386900  1.0  -0.047
  C  C1739  1  0.911100  0.132700  0.394100  1.0  -0.083
  C  C1740  1  0.916000  0.226400  0.414200  1.0  -0.0009
  C  C1741  1  0.911400  0.390000  0.446900  1.0  -0.0892
  C  C1742  1  0.902900  0.467600  0.452900  1.0  -0.16
  C  C1743  1  0.887400  0.457300  0.438900  1.0  -0.084
  C  C1744  1  0.881300  0.375800  0.420300  1.0  -0.148
  C  C1745  1  0.889100  0.041400  0.368300  1.0  -0.1483
  C  C1746  1  0.898600  0.964200  0.358000  1.0  -0.1841
  C  C1747  1  0.915200  0.978400  0.366600  1.0  -0.1014
  C  C1748  1  0.920500  0.057500  0.385200  1.0  -0.0892
  C  C1749  1  0.868300  0.201500  0.381600  1.0  0.0214
  C  C1750  1  0.857200  0.194000  0.421100  1.0  0.0207
  C  C1751  1  0.841700  0.197600  0.410200  1.0  -0.0624
  C  C1752  1  0.836200  0.206500  0.361200  1.0  0.0197
  C  C1753  1  0.847800  0.204100  0.322900  1.0  -0.1364
  C  C1754  1  0.862900  0.204300  0.338700  1.0  0.02
  C  C1755  1  0.874300  0.205900  0.295800  1.0  -0.1449
  C  C1756  1  0.868800  0.209700  0.250700  1.0  -0.102
  C  C1757  1  0.853300  0.211800  0.238700  1.0  -0.1094
  C  C1758  1  0.843700  0.204900  0.271800  1.0  -0.0664
  C  C1759  1  0.861300  0.188600  0.471300  1.0  -0.0767
  C  C1760  1  0.850900  0.180700  0.505000  1.0  -0.101
  C  C1761  1  0.835900  0.189400  0.493000  1.0  -0.0654
  C  C1762  1  0.830300  0.191300  0.450600  1.0  -0.1358
  C  C1763  1  0.820300  0.216600  0.347100  1.0  0.1793
  C  C1764  1  0.814400  0.300700  0.348900  1.0  -0.1625
  C  C1765  1  0.799900  0.317300  0.332600  1.0  -0.0942
  C  C1766  1  0.790300  0.243600  0.319800  1.0  -0.1315
  C  C1767  1  0.797100  0.153500  0.319900  1.0  -0.0785
  C  C1768  1  0.811300  0.139000  0.337100  1.0  -0.1468
  C  C1769  1  0.774700  0.263300  0.303200  1.0  0.6526
  C  C1770  1  0.916700  0.447100  0.587700  1.0  0.0072
  C  C1771  1  0.910600  0.528200  0.604100  1.0  0.014
  C  C1772  1  0.894100  0.535500  0.617400  1.0  0.0203
  C  C1773  1  0.885100  0.459400  0.609600  1.0  0.0016
  C  C1774  1  0.890700  0.374100  0.587200  1.0  -0.0918
  C  C1775  1  0.907600  0.364000  0.577700  1.0  -0.0658
  C  C1776  1  0.912300  0.275600  0.555800  1.0  -0.1645
  C  C1777  1  0.902300  0.205900  0.550100  1.0  -0.0934
  C  C1778  1  0.887800  0.209800  0.563800  1.0  -0.0687
  C  C1779  1  0.882300  0.285200  0.582000  1.0  -0.0929
  C  C1780  1  0.869100  0.467000  0.621100  1.0  0.0026
  C  C1781  1  0.864300  0.465200  0.671500  1.0  -0.0907
  C  C1782  1  0.849200  0.464600  0.684900  1.0  -0.0199
  C  C1783  1  0.838100  0.466500  0.650300  1.0  -0.1582
  C  C1784  1  0.841100  0.467900  0.599900  1.0  0.0785
  C  C1785  1  0.857400  0.465700  0.589100  1.0  -0.0134
  C  C1786  1  0.861800  0.474000  0.538700  1.0  -0.1186
  C  C1787  1  0.849900  0.475100  0.502300  1.0  -0.1025
  C  C1788  1  0.835000  0.469500  0.515800  1.0  -0.1052
  C  C1789  1  0.831500  0.470100  0.565000  1.0  -0.082
  C  C1790  1  0.844900  0.463200  0.733400  1.0  -0.1393
  C  C1791  1  0.856600  0.454200  0.769600  1.0  -0.1492
  C  C1792  1  0.872000  0.452800  0.753000  1.0  -0.0844
  C  C1793  1  0.876400  0.455800  0.710100  1.0  -0.1012
  C  C1794  1  0.820900  0.459100  0.665800  1.0  0.1113
  C  C1795  1  0.814500  0.537300  0.684700  1.0  -0.162
  C  C1796  1  0.799400  0.528100  0.701800  1.0  -0.0349
  C  C1797  1  0.791500  0.447300  0.696400  1.0  -0.0241
  C  C1798  1  0.799100  0.371700  0.674300  1.0  -0.0815
  C  C1799  1  0.813900  0.374100  0.662400  1.0  -0.1737
  C  C1800  1  0.775300  0.434900  0.714500  1.0  0.7537
  C  C1801  1  0.110500  0.379200  0.641800  1.0  -0.1264
  C  C1802  1  0.101500  0.306600  0.649500  1.0  -0.1053
  C  C1803  1  0.085300  0.313900  0.641400  1.0  -0.0837
  C  C1804  1  0.079900  0.393500  0.617000  1.0  -0.0902
  C  C1805  1  0.067400  0.569600  0.578400  1.0  0.0566
  C  C1806  1  0.058900  0.517500  0.543000  1.0  -0.1129
  C  C1807  1  0.043800  0.534800  0.533200  1.0  -0.0631
  C  C1808  1  0.035800  0.596600  0.561200  1.0  -0.0942
  C  C1809  1  0.043900  0.648800  0.600400  1.0  -0.0731
  C  C1810  1  0.058400  0.632600  0.607200  1.0  -0.0739
  C  C1811  1  0.020200  0.618100  0.551800  1.0  0.6989
  C  C1812  1  0.019300  0.698100  0.449500  1.0  0.5883
  C  C1813  1  0.037200  0.721800  0.435900  1.0  0.1614
  C  C1814  1  0.044400  0.681800  0.404800  1.0  0.025
  C  C1815  1  0.058600  0.700000  0.393000  1.0  -0.1953
  C  C1816  1  0.067600  0.762800  0.421500  1.0  0.059
  C  C1817  1  0.059400  0.808800  0.459200  1.0  -0.0997
  C  C1818  1  0.044500  0.796500  0.467000  1.0  -0.127
  C  C1819  1  0.093700  0.697200  0.423700  1.0  -0.11
  C  C1820  1  0.109700  0.709100  0.409300  1.0  0.0428
  C  C1821  1  0.114900  0.792100  0.394100  1.0  -0.0252
  C  C1822  1  0.105400  0.871700  0.386900  1.0  -0.0484
  C  C1823  1  0.088900  0.867300  0.394100  1.0  -0.0819
  C  C1824  1  0.084000  0.773600  0.414200  1.0  -0.0006
  C  C1825  1  0.088600  0.610000  0.446900  1.0  -0.0893
  C  C1826  1  0.097100  0.532400  0.452900  1.0  -0.1604
  C  C1827  1  0.112600  0.542700  0.438900  1.0  -0.0832
  C  C1828  1  0.118700  0.624200  0.420300  1.0  -0.15
  C  C1829  1  0.110900  0.958600  0.368300  1.0  -0.1502
  C  C1830  1  0.101400  0.035800  0.358000  1.0  -0.1831
  C  C1831  1  0.084800  0.021600  0.366600  1.0  -0.1027
  C  C1832  1  0.079500  0.942500  0.385200  1.0  -0.0932
  C  C1833  1  0.131700  0.798500  0.381600  1.0  0.0211
  C  C1834  1  0.142800  0.806000  0.421100  1.0  0.0214
  C  C1835  1  0.158300  0.802400  0.410200  1.0  -0.0599
  C  C1836  1  0.163800  0.793500  0.361200  1.0  0.0193
  C  C1837  1  0.152200  0.795900  0.322900  1.0  -0.1359
  C  C1838  1  0.137100  0.795700  0.338700  1.0  0.0202
  C  C1839  1  0.125700  0.794100  0.295800  1.0  -0.1441
  C  C1840  1  0.131200  0.790300  0.250700  1.0  -0.1025
  C  C1841  1  0.146700  0.788200  0.238700  1.0  -0.1103
  C  C1842  1  0.156300  0.795100  0.271800  1.0  -0.0668
  C  C1843  1  0.138700  0.811400  0.471300  1.0  -0.0759
  C  C1844  1  0.149100  0.819300  0.505000  1.0  -0.0973
  C  C1845  1  0.164100  0.810600  0.493000  1.0  -0.0604
  C  C1846  1  0.169700  0.808700  0.450600  1.0  -0.1343
  C  C1847  1  0.179700  0.783400  0.347100  1.0  0.1798
  C  C1848  1  0.185600  0.699300  0.348900  1.0  -0.1609
  C  C1849  1  0.200100  0.682700  0.332600  1.0  -0.0933
  C  C1850  1  0.209700  0.756400  0.319800  1.0  -0.1327
  C  C1851  1  0.202900  0.846500  0.319900  1.0  -0.0804
  C  C1852  1  0.188700  0.861000  0.337100  1.0  -0.1469
  C  C1853  1  0.225300  0.736700  0.303200  1.0  0.6514
  C  C1854  1  0.083300  0.552900  0.587700  1.0  0.0065
  C  C1855  1  0.089400  0.471800  0.604100  1.0  0.0139
  C  C1856  1  0.105900  0.464500  0.617400  1.0  0.0203
  C  C1857  1  0.114900  0.540600  0.609600  1.0  0.0008
  C  C1858  1  0.109300  0.625900  0.587200  1.0  -0.0926
  C  C1859  1  0.092400  0.636000  0.577700  1.0  -0.0665
  C  C1860  1  0.087700  0.724400  0.555800  1.0  -0.1645
  C  C1861  1  0.097700  0.794100  0.550100  1.0  -0.0938
  C  C1862  1  0.112200  0.790200  0.563800  1.0  -0.0679
  C  C1863  1  0.117700  0.714800  0.582000  1.0  -0.0951
  C  C1864  1  0.130900  0.533000  0.621100  1.0  0.0023
  C  C1865  1  0.135700  0.534800  0.671500  1.0  -0.0909
  C  C1866  1  0.150800  0.535400  0.684900  1.0  -0.0194
  C  C1867  1  0.161900  0.533500  0.650300  1.0  -0.158
  C  C1868  1  0.158900  0.532100  0.599900  1.0  0.0781
  C  C1869  1  0.142600  0.534300  0.589100  1.0  -0.0126
  C  C1870  1  0.138200  0.526000  0.538700  1.0  -0.1191
  C  C1871  1  0.150100  0.524900  0.502300  1.0  -0.0982
  C  C1872  1  0.165000  0.530500  0.515800  1.0  -0.1025
  C  C1873  1  0.168500  0.529900  0.565000  1.0  -0.0805
  C  C1874  1  0.155100  0.536800  0.733400  1.0  -0.1388
  C  C1875  1  0.143400  0.545800  0.769600  1.0  -0.1483
  C  C1876  1  0.128000  0.547200  0.753000  1.0  -0.0851
  C  C1877  1  0.123600  0.544200  0.710100  1.0  -0.1017
  C  C1878  1  0.179100  0.540900  0.665800  1.0  0.1119
  C  C1879  1  0.185500  0.462700  0.684700  1.0  -0.1639
  C  C1880  1  0.200600  0.471900  0.701800  1.0  -0.0377
  C  C1881  1  0.208500  0.552700  0.696400  1.0  -0.0257
  C  C1882  1  0.200900  0.628300  0.674300  1.0  -0.0814
  C  C1883  1  0.186100  0.625900  0.662400  1.0  -0.1725
  C  C1884  1  0.224700  0.565100  0.714500  1.0  0.7531
  C  C1885  1  0.110500  0.879200  0.141800  1.0  -0.1264
  C  C1886  1  0.101500  0.806600  0.149500  1.0  -0.1053
  C  C1887  1  0.085300  0.813900  0.141400  1.0  -0.0837
  C  C1888  1  0.079900  0.893500  0.117000  1.0  -0.0902
  C  C1889  1  0.067400  0.069600  0.078400  1.0  0.0566
  C  C1890  1  0.058900  0.017500  0.043000  1.0  -0.1129
  C  C1891  1  0.043800  0.034800  0.033200  1.0  -0.0631
  C  C1892  1  0.035800  0.096600  0.061200  1.0  -0.0942
  C  C1893  1  0.043900  0.148800  0.100400  1.0  -0.0731
  C  C1894  1  0.058400  0.132600  0.107200  1.0  -0.0739
  C  C1895  1  0.020200  0.118100  0.051800  1.0  0.6989
  C  C1896  1  0.019300  0.198100  0.949500  1.0  0.5883
  C  C1897  1  0.037200  0.221800  0.935900  1.0  0.1614
  C  C1898  1  0.044400  0.181800  0.904800  1.0  0.025
  C  C1899  1  0.058600  0.200000  0.893000  1.0  -0.1953
  C  C1900  1  0.067600  0.262800  0.921500  1.0  0.059
  C  C1901  1  0.059400  0.308800  0.959200  1.0  -0.0997
  C  C1902  1  0.044500  0.296500  0.967000  1.0  -0.127
  C  C1903  1  0.093700  0.197200  0.923700  1.0  -0.11
  C  C1904  1  0.109700  0.209100  0.909300  1.0  0.0428
  C  C1905  1  0.114900  0.292100  0.894100  1.0  -0.0252
  C  C1906  1  0.105400  0.371700  0.886900  1.0  -0.0484
  C  C1907  1  0.088900  0.367300  0.894100  1.0  -0.0819
  C  C1908  1  0.084000  0.273600  0.914200  1.0  -0.0006
  C  C1909  1  0.088600  0.110000  0.946900  1.0  -0.0893
  C  C1910  1  0.097100  0.032400  0.952900  1.0  -0.1604
  C  C1911  1  0.112600  0.042700  0.938900  1.0  -0.0832
  C  C1912  1  0.118700  0.124200  0.920300  1.0  -0.15
  C  C1913  1  0.110900  0.458600  0.868300  1.0  -0.1502
  C  C1914  1  0.101400  0.535800  0.858000  1.0  -0.1831
  C  C1915  1  0.084800  0.521600  0.866600  1.0  -0.1027
  C  C1916  1  0.079500  0.442500  0.885200  1.0  -0.0932
  C  C1917  1  0.131700  0.298500  0.881600  1.0  0.0211
  C  C1918  1  0.142800  0.306000  0.921100  1.0  0.0214
  C  C1919  1  0.158300  0.302400  0.910200  1.0  -0.0599
  C  C1920  1  0.163800  0.293500  0.861200  1.0  0.0193
  C  C1921  1  0.152200  0.295900  0.822900  1.0  -0.1359
  C  C1922  1  0.137100  0.295700  0.838700  1.0  0.0202
  C  C1923  1  0.125700  0.294100  0.795800  1.0  -0.1441
  C  C1924  1  0.131200  0.290300  0.750700  1.0  -0.1025
  C  C1925  1  0.146700  0.288200  0.738700  1.0  -0.1103
  C  C1926  1  0.156300  0.295100  0.771800  1.0  -0.0668
  C  C1927  1  0.138700  0.311400  0.971300  1.0  -0.0759
  C  C1928  1  0.149100  0.319300  0.005000  1.0  -0.0973
  C  C1929  1  0.164100  0.310600  0.993000  1.0  -0.0604
  C  C1930  1  0.169700  0.308700  0.950600  1.0  -0.1343
  C  C1931  1  0.179700  0.283400  0.847100  1.0  0.1798
  C  C1932  1  0.185600  0.199300  0.848900  1.0  -0.1609
  C  C1933  1  0.200100  0.182700  0.832600  1.0  -0.0933
  C  C1934  1  0.209700  0.256400  0.819800  1.0  -0.1327
  C  C1935  1  0.202900  0.346500  0.819900  1.0  -0.0804
  C  C1936  1  0.188700  0.361000  0.837100  1.0  -0.1469
  C  C1937  1  0.225300  0.236700  0.803200  1.0  0.6514
  C  C1938  1  0.083300  0.052900  0.087700  1.0  0.0065
  C  C1939  1  0.089400  0.971800  0.104100  1.0  0.0139
  C  C1940  1  0.105900  0.964500  0.117400  1.0  0.0203
  C  C1941  1  0.114900  0.040600  0.109600  1.0  0.0008
  C  C1942  1  0.109300  0.125900  0.087200  1.0  -0.0926
  C  C1943  1  0.092400  0.136000  0.077700  1.0  -0.0665
  C  C1944  1  0.087700  0.224400  0.055800  1.0  -0.1645
  C  C1945  1  0.097700  0.294100  0.050100  1.0  -0.0938
  C  C1946  1  0.112200  0.290200  0.063800  1.0  -0.0679
  C  C1947  1  0.117700  0.214800  0.082000  1.0  -0.0951
  C  C1948  1  0.130900  0.033000  0.121100  1.0  0.0023
  C  C1949  1  0.135700  0.034800  0.171500  1.0  -0.0909
  C  C1950  1  0.150800  0.035400  0.184900  1.0  -0.0194
  C  C1951  1  0.161900  0.033500  0.150300  1.0  -0.158
  C  C1952  1  0.158900  0.032100  0.099900  1.0  0.0781
  C  C1953  1  0.142600  0.034300  0.089100  1.0  -0.0126
  C  C1954  1  0.138200  0.026000  0.038700  1.0  -0.1191
  C  C1955  1  0.150100  0.024900  0.002300  1.0  -0.0982
  C  C1956  1  0.165000  0.030500  0.015800  1.0  -0.1025
  C  C1957  1  0.168500  0.029900  0.065000  1.0  -0.0805
  C  C1958  1  0.155100  0.036800  0.233400  1.0  -0.1388
  C  C1959  1  0.143400  0.045800  0.269600  1.0  -0.1483
  C  C1960  1  0.128000  0.047200  0.253000  1.0  -0.0851
  C  C1961  1  0.123600  0.044200  0.210100  1.0  -0.1017
  C  C1962  1  0.179100  0.040900  0.165800  1.0  0.1119
  C  C1963  1  0.185500  0.962700  0.184700  1.0  -0.1639
  C  C1964  1  0.200600  0.971900  0.201800  1.0  -0.0377
  C  C1965  1  0.208500  0.052700  0.196400  1.0  -0.0257
  C  C1966  1  0.200900  0.128300  0.174300  1.0  -0.0814
  C  C1967  1  0.186100  0.125900  0.162400  1.0  -0.1725
  C  C1968  1  0.224700  0.065100  0.214500  1.0  0.7531
  C  C1969  1  0.610500  0.379200  0.141800  1.0  -0.1264
  C  C1970  1  0.601500  0.306600  0.149500  1.0  -0.1053
  C  C1971  1  0.585300  0.313900  0.141400  1.0  -0.0837
  C  C1972  1  0.579900  0.393500  0.117000  1.0  -0.0902
  C  C1973  1  0.567400  0.569600  0.078400  1.0  0.0566
  C  C1974  1  0.558900  0.517500  0.043000  1.0  -0.1129
  C  C1975  1  0.543800  0.534800  0.033200  1.0  -0.0631
  C  C1976  1  0.535800  0.596600  0.061200  1.0  -0.0942
  C  C1977  1  0.543900  0.648800  0.100400  1.0  -0.0731
  C  C1978  1  0.558400  0.632600  0.107200  1.0  -0.0739
  C  C1979  1  0.520200  0.618100  0.051800  1.0  0.6989
  C  C1980  1  0.519300  0.698100  0.949500  1.0  0.5883
  C  C1981  1  0.537200  0.721800  0.935900  1.0  0.1614
  C  C1982  1  0.544400  0.681800  0.904800  1.0  0.025
  C  C1983  1  0.558600  0.700000  0.893000  1.0  -0.1953
  C  C1984  1  0.567600  0.762800  0.921500  1.0  0.059
  C  C1985  1  0.559400  0.808800  0.959200  1.0  -0.0997
  C  C1986  1  0.544500  0.796500  0.967000  1.0  -0.127
  C  C1987  1  0.593700  0.697200  0.923700  1.0  -0.11
  C  C1988  1  0.609700  0.709100  0.909300  1.0  0.0428
  C  C1989  1  0.614900  0.792100  0.894100  1.0  -0.0252
  C  C1990  1  0.605400  0.871700  0.886900  1.0  -0.0484
  C  C1991  1  0.588900  0.867300  0.894100  1.0  -0.0819
  C  C1992  1  0.584000  0.773600  0.914200  1.0  -0.0006
  C  C1993  1  0.588600  0.610000  0.946900  1.0  -0.0893
  C  C1994  1  0.597100  0.532400  0.952900  1.0  -0.1604
  C  C1995  1  0.612600  0.542700  0.938900  1.0  -0.0832
  C  C1996  1  0.618700  0.624200  0.920300  1.0  -0.15
  C  C1997  1  0.610900  0.958600  0.868300  1.0  -0.1502
  C  C1998  1  0.601400  0.035800  0.858000  1.0  -0.1831
  C  C1999  1  0.584800  0.021600  0.866600  1.0  -0.1027
  C  C2000  1  0.579500  0.942500  0.885200  1.0  -0.0932
  C  C2001  1  0.631700  0.798500  0.881600  1.0  0.0211
  C  C2002  1  0.642800  0.806000  0.921100  1.0  0.0214
  C  C2003  1  0.658300  0.802400  0.910200  1.0  -0.0599
  C  C2004  1  0.663800  0.793500  0.861200  1.0  0.0193
  C  C2005  1  0.652200  0.795900  0.822900  1.0  -0.1359
  C  C2006  1  0.637100  0.795700  0.838700  1.0  0.0202
  C  C2007  1  0.625700  0.794100  0.795800  1.0  -0.1441
  C  C2008  1  0.631200  0.790300  0.750700  1.0  -0.1025
  C  C2009  1  0.646700  0.788200  0.738700  1.0  -0.1103
  C  C2010  1  0.656300  0.795100  0.771800  1.0  -0.0668
  C  C2011  1  0.638700  0.811400  0.971300  1.0  -0.0759
  C  C2012  1  0.649100  0.819300  0.005000  1.0  -0.0973
  C  C2013  1  0.664100  0.810600  0.993000  1.0  -0.0604
  C  C2014  1  0.669700  0.808700  0.950600  1.0  -0.1343
  C  C2015  1  0.679700  0.783400  0.847100  1.0  0.1798
  C  C2016  1  0.685600  0.699300  0.848900  1.0  -0.1609
  C  C2017  1  0.700100  0.682700  0.832600  1.0  -0.0933
  C  C2018  1  0.709700  0.756400  0.819800  1.0  -0.1327
  C  C2019  1  0.702900  0.846500  0.819900  1.0  -0.0804
  C  C2020  1  0.688700  0.861000  0.837100  1.0  -0.1469
  C  C2021  1  0.725300  0.736700  0.803200  1.0  0.6514
  C  C2022  1  0.583300  0.552900  0.087700  1.0  0.0065
  C  C2023  1  0.589400  0.471800  0.104100  1.0  0.0139
  C  C2024  1  0.605900  0.464500  0.117400  1.0  0.0203
  C  C2025  1  0.614900  0.540600  0.109600  1.0  0.0008
  C  C2026  1  0.609300  0.625900  0.087200  1.0  -0.0926
  C  C2027  1  0.592400  0.636000  0.077700  1.0  -0.0665
  C  C2028  1  0.587700  0.724400  0.055800  1.0  -0.1645
  C  C2029  1  0.597700  0.794100  0.050100  1.0  -0.0938
  C  C2030  1  0.612200  0.790200  0.063800  1.0  -0.0679
  C  C2031  1  0.617700  0.714800  0.082000  1.0  -0.0951
  C  C2032  1  0.630900  0.533000  0.121100  1.0  0.0023
  C  C2033  1  0.635700  0.534800  0.171500  1.0  -0.0909
  C  C2034  1  0.650800  0.535400  0.184900  1.0  -0.0194
  C  C2035  1  0.661900  0.533500  0.150300  1.0  -0.158
  C  C2036  1  0.658900  0.532100  0.099900  1.0  0.0781
  C  C2037  1  0.642600  0.534300  0.089100  1.0  -0.0126
  C  C2038  1  0.638200  0.526000  0.038700  1.0  -0.1191
  C  C2039  1  0.650100  0.524900  0.002300  1.0  -0.0982
  C  C2040  1  0.665000  0.530500  0.015800  1.0  -0.1025
  C  C2041  1  0.668500  0.529900  0.065000  1.0  -0.0805
  C  C2042  1  0.655100  0.536800  0.233400  1.0  -0.1388
  C  C2043  1  0.643400  0.545800  0.269600  1.0  -0.1483
  C  C2044  1  0.628000  0.547200  0.253000  1.0  -0.0851
  C  C2045  1  0.623600  0.544200  0.210100  1.0  -0.1017
  C  C2046  1  0.679100  0.540900  0.165800  1.0  0.1119
  C  C2047  1  0.685500  0.462700  0.184700  1.0  -0.1639
  C  C2048  1  0.700600  0.471900  0.201800  1.0  -0.0377
  C  C2049  1  0.708500  0.552700  0.196400  1.0  -0.0257
  C  C2050  1  0.700900  0.628300  0.174300  1.0  -0.0814
  C  C2051  1  0.686100  0.625900  0.162400  1.0  -0.1725
  C  C2052  1  0.724700  0.565100  0.214500  1.0  0.7531
  C  C2053  1  0.610500  0.879200  0.641800  1.0  -0.1264
  C  C2054  1  0.601500  0.806600  0.649500  1.0  -0.1053
  C  C2055  1  0.585300  0.813900  0.641400  1.0  -0.0837
  C  C2056  1  0.579900  0.893500  0.617000  1.0  -0.0902
  C  C2057  1  0.567400  0.069600  0.578400  1.0  0.0566
  C  C2058  1  0.558900  0.017500  0.543000  1.0  -0.1129
  C  C2059  1  0.543800  0.034800  0.533200  1.0  -0.0631
  C  C2060  1  0.535800  0.096600  0.561200  1.0  -0.0942
  C  C2061  1  0.543900  0.148800  0.600400  1.0  -0.0731
  C  C2062  1  0.558400  0.132600  0.607200  1.0  -0.0739
  C  C2063  1  0.520200  0.118100  0.551800  1.0  0.6989
  C  C2064  1  0.519300  0.198100  0.449500  1.0  0.5883
  C  C2065  1  0.537200  0.221800  0.435900  1.0  0.1614
  C  C2066  1  0.544400  0.181800  0.404800  1.0  0.025
  C  C2067  1  0.558600  0.200000  0.393000  1.0  -0.1953
  C  C2068  1  0.567600  0.262800  0.421500  1.0  0.059
  C  C2069  1  0.559400  0.308800  0.459200  1.0  -0.0997
  C  C2070  1  0.544500  0.296500  0.467000  1.0  -0.127
  C  C2071  1  0.593700  0.197200  0.423700  1.0  -0.11
  C  C2072  1  0.609700  0.209100  0.409300  1.0  0.0428
  C  C2073  1  0.614900  0.292100  0.394100  1.0  -0.0252
  C  C2074  1  0.605400  0.371700  0.386900  1.0  -0.0484
  C  C2075  1  0.588900  0.367300  0.394100  1.0  -0.0819
  C  C2076  1  0.584000  0.273600  0.414200  1.0  -0.0006
  C  C2077  1  0.588600  0.110000  0.446900  1.0  -0.0893
  C  C2078  1  0.597100  0.032400  0.452900  1.0  -0.1604
  C  C2079  1  0.612600  0.042700  0.438900  1.0  -0.0832
  C  C2080  1  0.618700  0.124200  0.420300  1.0  -0.15
  C  C2081  1  0.610900  0.458600  0.368300  1.0  -0.1502
  C  C2082  1  0.601400  0.535800  0.358000  1.0  -0.1831
  C  C2083  1  0.584800  0.521600  0.366600  1.0  -0.1027
  C  C2084  1  0.579500  0.442500  0.385200  1.0  -0.0932
  C  C2085  1  0.631700  0.298500  0.381600  1.0  0.0211
  C  C2086  1  0.642800  0.306000  0.421100  1.0  0.0214
  C  C2087  1  0.658300  0.302400  0.410200  1.0  -0.0599
  C  C2088  1  0.663800  0.293500  0.361200  1.0  0.0193
  C  C2089  1  0.652200  0.295900  0.322900  1.0  -0.1359
  C  C2090  1  0.637100  0.295700  0.338700  1.0  0.0202
  C  C2091  1  0.625700  0.294100  0.295800  1.0  -0.1441
  C  C2092  1  0.631200  0.290300  0.250700  1.0  -0.1025
  C  C2093  1  0.646700  0.288200  0.238700  1.0  -0.1103
  C  C2094  1  0.656300  0.295100  0.271800  1.0  -0.0668
  C  C2095  1  0.638700  0.311400  0.471300  1.0  -0.0759
  C  C2096  1  0.649100  0.319300  0.505000  1.0  -0.0973
  C  C2097  1  0.664100  0.310600  0.493000  1.0  -0.0604
  C  C2098  1  0.669700  0.308700  0.450600  1.0  -0.1343
  C  C2099  1  0.679700  0.283400  0.347100  1.0  0.1798
  C  C2100  1  0.685600  0.199300  0.348900  1.0  -0.1609
  C  C2101  1  0.700100  0.182700  0.332600  1.0  -0.0933
  C  C2102  1  0.709700  0.256400  0.319800  1.0  -0.1327
  C  C2103  1  0.702900  0.346500  0.319900  1.0  -0.0804
  C  C2104  1  0.688700  0.361000  0.337100  1.0  -0.1469
  C  C2105  1  0.725300  0.236700  0.303200  1.0  0.6514
  C  C2106  1  0.583300  0.052900  0.587700  1.0  0.0065
  C  C2107  1  0.589400  0.971800  0.604100  1.0  0.0139
  C  C2108  1  0.605900  0.964500  0.617400  1.0  0.0203
  C  C2109  1  0.614900  0.040600  0.609600  1.0  0.0008
  C  C2110  1  0.609300  0.125900  0.587200  1.0  -0.0926
  C  C2111  1  0.592400  0.136000  0.577700  1.0  -0.0665
  C  C2112  1  0.587700  0.224400  0.555800  1.0  -0.1645
  C  C2113  1  0.597700  0.294100  0.550100  1.0  -0.0938
  C  C2114  1  0.612200  0.290200  0.563800  1.0  -0.0679
  C  C2115  1  0.617700  0.214800  0.582000  1.0  -0.0951
  C  C2116  1  0.630900  0.033000  0.621100  1.0  0.0023
  C  C2117  1  0.635700  0.034800  0.671500  1.0  -0.0909
  C  C2118  1  0.650800  0.035400  0.684900  1.0  -0.0194
  C  C2119  1  0.661900  0.033500  0.650300  1.0  -0.158
  C  C2120  1  0.658900  0.032100  0.599900  1.0  0.0781
  C  C2121  1  0.642600  0.034300  0.589100  1.0  -0.0126
  C  C2122  1  0.638200  0.026000  0.538700  1.0  -0.1191
  C  C2123  1  0.650100  0.024900  0.502300  1.0  -0.0982
  C  C2124  1  0.665000  0.030500  0.515800  1.0  -0.1025
  C  C2125  1  0.668500  0.029900  0.565000  1.0  -0.0805
  C  C2126  1  0.655100  0.036800  0.733400  1.0  -0.1388
  C  C2127  1  0.643400  0.045800  0.769600  1.0  -0.1483
  C  C2128  1  0.628000  0.047200  0.753000  1.0  -0.0851
  C  C2129  1  0.623600  0.044200  0.710100  1.0  -0.1017
  C  C2130  1  0.679100  0.040900  0.665800  1.0  0.1119
  C  C2131  1  0.685500  0.962700  0.684700  1.0  -0.1639
  C  C2132  1  0.700600  0.971900  0.701800  1.0  -0.0377
  C  C2133  1  0.708500  0.052700  0.696400  1.0  -0.0257
  C  C2134  1  0.700900  0.128300  0.674300  1.0  -0.0814
  C  C2135  1  0.686100  0.125900  0.662400  1.0  -0.1725
  C  C2136  1  0.724700  0.065100  0.714500  1.0  0.7531
  O  O2137  1  0.236700  0.508200  0.228800  1.0  -0.721
  O  O2138  1  0.234600  0.369800  0.181900  1.0  -0.7015
  O  O2139  1  0.016500  0.561600  0.055100  1.0  -0.7296
  O  O2140  1  0.020260  0.412400  0.045200  1.0  -0.6909
  O  O2141  1  0.018510  0.388800  0.457900  1.0  -0.7414
  O  O2142  1  0.019900  0.242800  0.486500  1.0  -0.7357
  O  O2143  1  0.236600  0.440700  0.321400  1.0  -0.674
  O  O2144  1  0.237500  0.314900  0.275800  1.0  -0.7033
  O  O2145  1  0.236700  0.008200  0.728800  1.0  -0.721
  O  O2146  1  0.234600  0.869800  0.681900  1.0  -0.7015
  O  O2147  1  0.016500  0.061600  0.555100  1.0  -0.7302
  O  O2148  1  0.020260  0.912400  0.545200  1.0  -0.6909
  O  O2149  1  0.018510  0.888800  0.957900  1.0  -0.7414
  O  O2150  1  0.019900  0.742800  0.986500  1.0  -0.737
  O  O2151  1  0.236600  0.940700  0.821400  1.0  -0.674
  O  O2152  1  0.237500  0.814900  0.775800  1.0  -0.7033
  O  O2153  1  0.736700  0.508200  0.728800  1.0  -0.721
  O  O2154  1  0.734600  0.369800  0.681900  1.0  -0.7015
  O  O2155  1  0.516500  0.561600  0.555100  1.0  -0.7296
  O  O2156  1  0.520260  0.412400  0.545200  1.0  -0.6909
  O  O2157  1  0.518510  0.388800  0.957900  1.0  -0.7414
  O  O2158  1  0.519900  0.242800  0.986500  1.0  -0.7357
  O  O2159  1  0.736600  0.440700  0.821400  1.0  -0.674
  O  O2160  1  0.737500  0.314900  0.775800  1.0  -0.7032
  O  O2161  1  0.736700  0.008200  0.228800  1.0  -0.721
  O  O2162  1  0.734600  0.869800  0.181900  1.0  -0.7015
  O  O2163  1  0.516500  0.061600  0.055100  1.0  -0.7302
  O  O2164  1  0.520260  0.912400  0.045200  1.0  -0.6909
  O  O2165  1  0.518510  0.888800  0.457900  1.0  -0.7414
  O  O2166  1  0.519900  0.742800  0.486500  1.0  -0.737
  O  O2167  1  0.736600  0.940700  0.321400  1.0  -0.674
  O  O2168  1  0.737500  0.814900  0.275800  1.0  -0.7032
  O  O2169  1  0.763300  0.491800  0.228800  1.0  -0.7216
  O  O2170  1  0.765400  0.630200  0.181900  1.0  -0.7032
  O  O2171  1  0.983500  0.438400  0.055100  1.0  -0.7286
  O  O2172  1  0.979740  0.587600  0.045200  1.0  -0.6906
  O  O2173  1  0.981490  0.611200  0.457900  1.0  -0.7414
  O  O2174  1  0.980100  0.757200  0.486500  1.0  -0.7371
  O  O2175  1  0.763400  0.559300  0.321400  1.0  -0.6763
  O  O2176  1  0.762500  0.685100  0.275800  1.0  -0.7036
  O  O2177  1  0.763300  0.991800  0.728800  1.0  -0.7216
  O  O2178  1  0.765400  0.130200  0.681900  1.0  -0.7032
  O  O2179  1  0.983500  0.938400  0.555100  1.0  -0.7291
  O  O2180  1  0.979740  0.087600  0.545200  1.0  -0.6906
  O  O2181  1  0.981490  0.111200  0.957900  1.0  -0.7414
  O  O2182  1  0.980100  0.257200  0.986500  1.0  -0.7385
  O  O2183  1  0.763400  0.059300  0.821400  1.0  -0.6763
  O  O2184  1  0.762500  0.185100  0.775800  1.0  -0.7036
  O  O2185  1  0.263300  0.491800  0.728800  1.0  -0.7216
  O  O2186  1  0.265400  0.630200  0.681900  1.0  -0.7032
  O  O2187  1  0.483500  0.438400  0.555100  1.0  -0.7286
  O  O2188  1  0.479740  0.587600  0.545200  1.0  -0.6906
  O  O2189  1  0.481490  0.611200  0.957900  1.0  -0.7414
  O  O2190  1  0.480100  0.757200  0.986500  1.0  -0.7371
  O  O2191  1  0.263400  0.559300  0.821400  1.0  -0.6763
  O  O2192  1  0.262500  0.685100  0.775800  1.0  -0.7035
  O  O2193  1  0.263300  0.991800  0.228800  1.0  -0.7216
  O  O2194  1  0.265400  0.130200  0.181900  1.0  -0.7032
  O  O2195  1  0.483500  0.938400  0.055100  1.0  -0.7291
  O  O2196  1  0.479740  0.087600  0.045200  1.0  -0.6906
  O  O2197  1  0.481490  0.111200  0.457900  1.0  -0.7414
  O  O2198  1  0.480100  0.257200  0.486500  1.0  -0.7385
  O  O2199  1  0.263400  0.059300  0.321400  1.0  -0.6763
  O  O2200  1  0.262500  0.185100  0.275800  1.0  -0.7035
  O  O2201  1  0.486700  0.741800  0.478800  1.0  -0.7199
  O  O2202  1  0.484600  0.880200  0.431900  1.0  -0.7026
  O  O2203  1  0.266500  0.688400  0.305100  1.0  -0.7283
  O  O2204  1  0.270260  0.837600  0.295200  1.0  -0.6929
  O  O2205  1  0.268510  0.861200  0.707900  1.0  -0.7409
  O  O2206  1  0.269900  0.007200  0.736500  1.0  -0.7369
  O  O2207  1  0.486600  0.809300  0.571400  1.0  -0.6771
  O  O2208  1  0.487500  0.935100  0.525800  1.0  -0.7032
  O  O2209  1  0.486700  0.241800  0.978800  1.0  -0.7199
  O  O2210  1  0.484600  0.380200  0.931900  1.0  -0.7026
  O  O2211  1  0.266500  0.188400  0.805100  1.0  -0.7288
  O  O2212  1  0.270260  0.337600  0.795200  1.0  -0.6929
  O  O2213  1  0.268510  0.361200  0.207900  1.0  -0.7409
  O  O2214  1  0.269900  0.507200  0.236500  1.0  -0.7388
  O  O2215  1  0.486600  0.309300  0.071400  1.0  -0.6771
  O  O2216  1  0.487500  0.435100  0.025800  1.0  -0.7032
  O  O2217  1  0.986700  0.741800  0.978800  1.0  -0.7199
  O  O2218  1  0.984600  0.880200  0.931900  1.0  -0.7026
  O  O2219  1  0.766500  0.688400  0.805100  1.0  -0.7283
  O  O2220  1  0.770260  0.837600  0.795200  1.0  -0.6929
  O  O2221  1  0.768510  0.861200  0.207900  1.0  -0.7409
  O  O2222  1  0.769900  0.007200  0.236500  1.0  -0.7369
  O  O2223  1  0.986600  0.809300  0.071400  1.0  -0.6771
  O  O2224  1  0.987500  0.935100  0.025800  1.0  -0.7032
  O  O2225  1  0.986700  0.241800  0.478800  1.0  -0.7199
  O  O2226  1  0.984600  0.380200  0.431900  1.0  -0.7026
  O  O2227  1  0.766500  0.188400  0.305100  1.0  -0.7288
  O  O2228  1  0.770260  0.337600  0.295200  1.0  -0.6929
  O  O2229  1  0.768510  0.361200  0.707900  1.0  -0.7409
  O  O2230  1  0.769900  0.507200  0.736500  1.0  -0.7388
  O  O2231  1  0.986600  0.309300  0.571400  1.0  -0.6771
  O  O2232  1  0.987500  0.435100  0.525800  1.0  -0.7032
  O  O2233  1  0.013300  0.758200  0.478800  1.0  -0.7238
  O  O2234  1  0.015400  0.619800  0.431900  1.0  -0.7027
  O  O2235  1  0.233500  0.811600  0.305100  1.0  -0.7278
  O  O2236  1  0.229740  0.662400  0.295200  1.0  -0.6896
  O  O2237  1  0.231490  0.638800  0.707900  1.0  -0.7414
  O  O2238  1  0.230100  0.492800  0.736500  1.0  -0.7357
  O  O2239  1  0.013400  0.690700  0.571400  1.0  -0.6737
  O  O2240  1  0.012500  0.564900  0.525800  1.0  -0.7035
  O  O2241  1  0.013300  0.258200  0.978800  1.0  -0.7238
  O  O2242  1  0.015400  0.119800  0.931900  1.0  -0.7027
  O  O2243  1  0.233500  0.311600  0.805100  1.0  -0.7284
  O  O2244  1  0.229740  0.162400  0.795200  1.0  -0.6896
  O  O2245  1  0.231490  0.138800  0.207900  1.0  -0.7414
  O  O2246  1  0.230100  0.992800  0.236500  1.0  -0.7375
  O  O2247  1  0.013400  0.190700  0.071400  1.0  -0.6737
  O  O2248  1  0.012500  0.064900  0.025800  1.0  -0.7035
  O  O2249  1  0.513300  0.758200  0.978800  1.0  -0.7238
  O  O2250  1  0.515400  0.619800  0.931900  1.0  -0.7027
  O  O2251  1  0.733500  0.811600  0.805100  1.0  -0.7278
  O  O2252  1  0.729740  0.662400  0.795200  1.0  -0.6896
  O  O2253  1  0.731490  0.638800  0.207900  1.0  -0.7414
  O  O2254  1  0.730100  0.492800  0.236500  1.0  -0.7357
  O  O2255  1  0.513400  0.690700  0.071400  1.0  -0.6737
  O  O2256  1  0.512500  0.564900  0.025800  1.0  -0.7035
  O  O2257  1  0.513300  0.258200  0.478800  1.0  -0.7238
  O  O2258  1  0.515400  0.119800  0.431900  1.0  -0.7027
  O  O2259  1  0.733500  0.311600  0.305100  1.0  -0.7284
  O  O2260  1  0.729740  0.162400  0.295200  1.0  -0.6896
  O  O2261  1  0.731490  0.138800  0.707900  1.0  -0.7414
  O  O2262  1  0.730100  0.992800  0.736500  1.0  -0.7375
  O  O2263  1  0.513400  0.190700  0.571400  1.0  -0.6737
  O  O2264  1  0.512500  0.064900  0.525800  1.0  -0.7035
