# generated using pymatgen
data_U4H48(C29O8)3
_symmetry_space_group_name_H-M   'P 1'
_cell_length_a   29.15080000
_cell_length_b   29.15080000
_cell_length_c   36.13490000
_cell_angle_alpha   90.00000000
_cell_angle_beta   90.00000000
_cell_angle_gamma   120.00000000
_symmetry_Int_Tables_number   1
_chemical_formula_structural   U4H48(C29O8)3
_chemical_formula_sum   'U24 H288 C522 O144'
_cell_volume   26592.45570563
_cell_formula_units_Z   6
loop_
 _symmetry_equiv_pos_site_id
 _symmetry_equiv_pos_as_xyz
  1  'x, y, z'
loop_
 _atom_site_type_symbol
 _atom_site_label
 _atom_site_symmetry_multiplicity
 _atom_site_fract_x
 _atom_site_fract_y
 _atom_site_fract_z
 _atom_site_occupancy
 _atom_site_charge
  U  U1  1  0.000000  0.000000  0.644680  1.0  1.6405
  U  U2  1  0.666667  0.333333  0.978010  1.0  1.6367
  U  U3  1  0.333333  0.666667  0.311350  1.0  1.6362
  U  U4  1  0.528090  0.471910  0.744920  1.0  1.8688
  U  U5  1  0.194760  0.805240  0.078250  1.0  1.8688
  U  U6  1  0.861420  0.138580  0.411590  1.0  1.8688
  U  U7  1  0.528090  0.056180  0.744920  1.0  1.8614
  U  U8  1  0.194760  0.389510  0.078250  1.0  1.8614
  U  U9  1  0.861420  0.722850  0.411590  1.0  1.8614
  U  U10  1  0.943820  0.471910  0.744920  1.0  1.8619
  U  U11  1  0.610490  0.805240  0.078250  1.0  1.8619
  U  U12  1  0.277150  0.138580  0.411590  1.0  1.8619
  U  U13  1  0.190140  0.380280  0.474430  1.0  1.6186
  U  U14  1  0.856810  0.713610  0.807760  1.0  1.6189
  U  U15  1  0.523470  0.046950  0.141100  1.0  1.6186
  U  U16  1  0.619720  0.809860  0.474430  1.0  1.6183
  U  U17  1  0.286390  0.143190  0.807760  1.0  1.6183
  U  U18  1  0.953050  0.476530  0.141100  1.0  1.6183
  U  U19  1  0.190140  0.809860  0.474430  1.0  1.6255
  U  U20  1  0.856810  0.143190  0.807760  1.0  1.6255
  U  U21  1  0.523470  0.476530  0.141100  1.0  1.6255
  U  U22  1  0.666667  0.333333  0.401490  1.0  1.6693
  U  U23  1  0.333333  0.666667  0.734820  1.0  1.6691
  U  U24  1  0.000000  0.000000  0.068160  1.0  1.6819
  H  H25  1  0.426800  0.263100  0.618700  1.0  0.1205
  H  H26  1  0.327200  0.204000  0.704900  1.0  0.1135
  H  H27  1  0.368300  0.289300  0.731200  1.0  0.1172
  H  H28  1  0.479400  0.337700  0.651800  1.0  0.1184
  H  H29  1  0.334400  0.238300  0.528900  1.0  0.1229
  H  H30  1  0.344600  0.241400  0.591600  1.0  0.1002
  H  H31  1  0.179100  0.020500  0.645700  1.0  0.1065
  H  H32  1  0.272300  0.065100  0.644500  1.0  0.1375
  H  H33  1  0.093470  0.596430  0.952030  1.0  0.1205
  H  H34  1  0.993870  0.537330  0.038230  1.0  0.1131
  H  H35  1  0.034970  0.622630  0.064530  1.0  0.1172
  H  H36  1  0.146070  0.671030  0.985130  1.0  0.1184
  H  H37  1  0.001070  0.571630  0.862230  1.0  0.1229
  H  H38  1  0.011270  0.574730  0.924930  1.0  0.1001
  H  H39  1  0.845770  0.353830  0.979030  1.0  0.1064
  H  H40  1  0.938970  0.398430  0.977830  1.0  0.1374
  H  H41  1  0.760130  0.929770  0.285370  1.0  0.1205
  H  H42  1  0.660530  0.870670  0.371570  1.0  0.1135
  H  H43  1  0.701630  0.955970  0.397870  1.0  0.1175
  H  H44  1  0.812730  0.004370  0.318470  1.0  0.1184
  H  H45  1  0.667730  0.904970  0.195570  1.0  0.1229
  H  H46  1  0.677930  0.908070  0.258270  1.0  0.1002
  H  H47  1  0.512430  0.687170  0.312370  1.0  0.1065
  H  H48  1  0.605630  0.731770  0.311170  1.0  0.1375
  H  H49  1  0.736900  0.163700  0.618700  1.0  0.1196
  H  H50  1  0.796000  0.123200  0.704900  1.0  0.1122
  H  H51  1  0.710700  0.079000  0.731200  1.0  0.1158
  H  H52  1  0.662300  0.141700  0.651800  1.0  0.1177
  H  H53  1  0.761700  0.096100  0.528900  1.0  0.1213
  H  H54  1  0.758600  0.103200  0.591600  1.0  0.0998
  H  H55  1  0.979500  0.158600  0.645700  1.0  0.1073
  H  H56  1  0.934900  0.207200  0.644500  1.0  0.1385
  H  H57  1  0.403570  0.497030  0.952030  1.0  0.1196
  H  H58  1  0.462670  0.456530  0.038230  1.0  0.1122
  H  H59  1  0.377370  0.412330  0.064530  1.0  0.1158
  H  H60  1  0.328970  0.475030  0.985130  1.0  0.1177
  H  H61  1  0.428370  0.429430  0.862230  1.0  0.1213
  H  H62  1  0.425270  0.436530  0.924930  1.0  0.0998
  H  H63  1  0.646170  0.491930  0.979030  1.0  0.1061
  H  H64  1  0.601570  0.540530  0.977830  1.0  0.1385
  H  H65  1  0.070230  0.830370  0.285370  1.0  0.1196
  H  H66  1  0.129330  0.789870  0.371570  1.0  0.1122
  H  H67  1  0.044030  0.745670  0.397870  1.0  0.1158
  H  H68  1  0.995630  0.808370  0.318470  1.0  0.1177
  H  H69  1  0.095030  0.762770  0.195570  1.0  0.1213
  H  H70  1  0.091930  0.769870  0.258270  1.0  0.0998
  H  H71  1  0.312830  0.825270  0.312370  1.0  0.1073
  H  H72  1  0.268230  0.873870  0.311170  1.0  0.1385
  H  H73  1  0.836300  0.573200  0.618700  1.0  0.1199
  H  H74  1  0.876800  0.672800  0.704900  1.0  0.1134
  H  H75  1  0.921000  0.631700  0.731200  1.0  0.1169
  H  H76  1  0.858300  0.520600  0.651800  1.0  0.1177
  H  H77  1  0.903900  0.665600  0.528900  1.0  0.1225
  H  H78  1  0.896800  0.655400  0.591600  1.0  0.1003
  H  H79  1  0.841400  0.820900  0.645700  1.0  0.106
  H  H80  1  0.792800  0.727700  0.644500  1.0  0.1396
  H  H81  1  0.502970  0.906530  0.952030  1.0  0.1199
  H  H82  1  0.543470  0.006130  0.038230  1.0  0.1134
  H  H83  1  0.587670  0.965030  0.064530  1.0  0.1169
  H  H84  1  0.524970  0.853930  0.985130  1.0  0.1177
  H  H85  1  0.570570  0.998930  0.862230  1.0  0.1225
  H  H86  1  0.563470  0.988730  0.924930  1.0  0.1003
  H  H87  1  0.508070  0.154230  0.979030  1.0  0.107
  H  H88  1  0.459470  0.061030  0.977830  1.0  0.1397
  H  H89  1  0.169630  0.239870  0.285370  1.0  0.1199
  H  H90  1  0.210130  0.339470  0.371570  1.0  0.1134
  H  H91  1  0.254330  0.298370  0.397870  1.0  0.1173
  H  H92  1  0.191630  0.187270  0.318470  1.0  0.1177
  H  H93  1  0.237230  0.332270  0.195570  1.0  0.1225
  H  H94  1  0.230130  0.322070  0.258270  1.0  0.1003
  H  H95  1  0.174730  0.487570  0.312370  1.0  0.106
  H  H96  1  0.126130  0.394370  0.311170  1.0  0.1396
  H  H97  1  0.736900  0.573200  0.618700  1.0  0.1198
  H  H98  1  0.796000  0.672800  0.704900  1.0  0.1136
  H  H99  1  0.710700  0.631700  0.731200  1.0  0.1168
  H  H100  1  0.662300  0.520600  0.651800  1.0  0.1174
  H  H101  1  0.761700  0.665600  0.528900  1.0  0.1225
  H  H102  1  0.758600  0.655400  0.591600  1.0  0.1008
  H  H103  1  0.979500  0.820900  0.645700  1.0  0.107
  H  H104  1  0.934900  0.727700  0.644500  1.0  0.1395
  H  H105  1  0.403570  0.906530  0.952030  1.0  0.1198
  H  H106  1  0.462670  0.006130  0.038230  1.0  0.113
  H  H107  1  0.377370  0.965030  0.064530  1.0  0.1168
  H  H108  1  0.328970  0.853930  0.985130  1.0  0.1174
  H  H109  1  0.428370  0.998930  0.862230  1.0  0.1225
  H  H110  1  0.425270  0.988730  0.924930  1.0  0.1008
  H  H111  1  0.646170  0.154230  0.979030  1.0  0.107
  H  H112  1  0.601570  0.061030  0.977830  1.0  0.1393
  H  H113  1  0.070230  0.239870  0.285370  1.0  0.1198
  H  H114  1  0.129330  0.339470  0.371570  1.0  0.1136
  H  H115  1  0.044030  0.298370  0.397870  1.0  0.1168
  H  H116  1  0.995630  0.187270  0.318470  1.0  0.1174
  H  H117  1  0.095030  0.332270  0.195570  1.0  0.1225
  H  H118  1  0.091930  0.322070  0.258270  1.0  0.1008
  H  H119  1  0.312830  0.487570  0.312370  1.0  0.107
  H  H120  1  0.268230  0.394370  0.311170  1.0  0.1395
  H  H121  1  0.836300  0.263100  0.618700  1.0  0.12
  H  H122  1  0.876800  0.204000  0.704900  1.0  0.1135
  H  H123  1  0.921000  0.289300  0.731200  1.0  0.1172
  H  H124  1  0.858300  0.337700  0.651800  1.0  0.1183
  H  H125  1  0.903900  0.238300  0.528900  1.0  0.1226
  H  H126  1  0.896800  0.241400  0.591600  1.0  0.1006
  H  H127  1  0.841400  0.020500  0.645700  1.0  0.1069
  H  H128  1  0.792800  0.065100  0.644500  1.0  0.1375
  H  H129  1  0.502970  0.596430  0.952030  1.0  0.12
  H  H130  1  0.543470  0.537330  0.038230  1.0  0.1135
  H  H131  1  0.587670  0.622630  0.064530  1.0  0.1172
  H  H132  1  0.524970  0.671030  0.985130  1.0  0.1183
  H  H133  1  0.570570  0.571630  0.862230  1.0  0.1226
  H  H134  1  0.563470  0.574730  0.924930  1.0  0.1006
  H  H135  1  0.508070  0.353830  0.979030  1.0  0.106
  H  H136  1  0.459470  0.398430  0.977830  1.0  0.1375
  H  H137  1  0.169630  0.929770  0.285370  1.0  0.12
  H  H138  1  0.210130  0.870670  0.371570  1.0  0.1135
  H  H139  1  0.254330  0.955970  0.397870  1.0  0.1172
  H  H140  1  0.191630  0.004370  0.318470  1.0  0.1183
  H  H141  1  0.237230  0.904970  0.195570  1.0  0.1226
  H  H142  1  0.230130  0.908070  0.258270  1.0  0.1006
  H  H143  1  0.174730  0.687170  0.312370  1.0  0.1069
  H  H144  1  0.126130  0.731770  0.311170  1.0  0.1375
  H  H145  1  0.426800  0.163700  0.618700  1.0  0.1206
  H  H146  1  0.327200  0.123200  0.704900  1.0  0.1125
  H  H147  1  0.368300  0.079000  0.731200  1.0  0.1154
  H  H148  1  0.479400  0.141700  0.651800  1.0  0.1181
  H  H149  1  0.334400  0.096100  0.528900  1.0  0.1217
  H  H150  1  0.344600  0.103200  0.591600  1.0  0.1001
  H  H151  1  0.179100  0.158600  0.645700  1.0  0.1057
  H  H152  1  0.272300  0.207200  0.644500  1.0  0.1389
  H  H153  1  0.093470  0.497030  0.952030  1.0  0.1206
  H  H154  1  0.993870  0.456530  0.038230  1.0  0.1125
  H  H155  1  0.034970  0.412330  0.064530  1.0  0.1154
  H  H156  1  0.146070  0.475030  0.985130  1.0  0.1181
  H  H157  1  0.001070  0.429430  0.862230  1.0  0.1217
  H  H158  1  0.011270  0.436530  0.924930  1.0  0.1001
  H  H159  1  0.845770  0.491930  0.979030  1.0  0.1066
  H  H160  1  0.938970  0.540530  0.977830  1.0  0.139
  H  H161  1  0.760130  0.830370  0.285370  1.0  0.1206
  H  H162  1  0.660530  0.789870  0.371570  1.0  0.1125
  H  H163  1  0.701630  0.745670  0.397870  1.0  0.1158
  H  H164  1  0.812730  0.808370  0.318470  1.0  0.1181
  H  H165  1  0.667730  0.762770  0.195570  1.0  0.1217
  H  H166  1  0.677930  0.769870  0.258270  1.0  0.1001
  H  H167  1  0.512430  0.825270  0.312370  1.0  0.1057
  H  H168  1  0.605630  0.873870  0.311170  1.0  0.1389
  H  H169  1  0.323100  0.459400  0.378800  1.0  0.1086
  H  H170  1  0.411100  0.501900  0.353800  1.0  0.1138
  H  H171  1  0.458400  0.449200  0.440000  1.0  0.1226
  H  H172  1  0.510900  0.354100  0.389600  1.0  0.1202
  H  H173  1  0.463300  0.397800  0.390000  1.0  0.1247
  H  H174  1  0.374400  0.410400  0.464900  1.0  0.1068
  H  H175  1  0.427800  0.433500  0.326900  1.0  0.1252
  H  H176  1  0.439800  0.424100  0.264400  1.0  0.1112
  H  H177  1  0.989770  0.792730  0.712130  1.0  0.1086
  H  H178  1  0.077770  0.835230  0.687130  1.0  0.1138
  H  H179  1  0.125070  0.782530  0.773330  1.0  0.1226
  H  H180  1  0.177570  0.687430  0.722930  1.0  0.1202
  H  H181  1  0.129970  0.731130  0.723330  1.0  0.1247
  H  H182  1  0.041070  0.743730  0.798230  1.0  0.1077
  H  H183  1  0.094470  0.766830  0.660230  1.0  0.1252
  H  H184  1  0.106470  0.757430  0.597730  1.0  0.1112
  H  H185  1  0.656430  0.126070  0.045470  1.0  0.1087
  H  H186  1  0.744430  0.168570  0.020470  1.0  0.1138
  H  H187  1  0.791730  0.115870  0.106670  1.0  0.1226
  H  H188  1  0.844230  0.020770  0.056270  1.0  0.1206
  H  H189  1  0.796630  0.064470  0.056670  1.0  0.1247
  H  H190  1  0.707730  0.077070  0.131570  1.0  0.1068
  H  H191  1  0.761130  0.100170  0.993570  1.0  0.1252
  H  H192  1  0.773130  0.090770  0.931070  1.0  0.1112
  H  H193  1  0.540600  0.863700  0.378800  1.0  0.1089
  H  H194  1  0.498100  0.909200  0.353800  1.0  0.1139
  H  H195  1  0.550800  0.009200  0.440000  1.0  0.1217
  H  H196  1  0.645900  0.156800  0.389600  1.0  0.1218
  H  H197  1  0.602200  0.065500  0.390000  1.0  0.1255
  H  H198  1  0.589600  0.964000  0.464900  1.0  0.1062
  H  H199  1  0.566500  0.994300  0.326900  1.0  0.1261
  H  H200  1  0.575900  0.015700  0.264400  1.0  0.1115
  H  H201  1  0.207270  0.197030  0.712130  1.0  0.1089
  H  H202  1  0.164770  0.242530  0.687130  1.0  0.1139
  H  H203  1  0.217470  0.342530  0.773330  1.0  0.1217
  H  H204  1  0.312570  0.490130  0.722930  1.0  0.1218
  H  H205  1  0.268870  0.398830  0.723330  1.0  0.1255
  H  H206  1  0.256270  0.297330  0.798230  1.0  0.107
  H  H207  1  0.233170  0.327630  0.660230  1.0  0.1261
  H  H208  1  0.242570  0.349030  0.597730  1.0  0.1115
  H  H209  1  0.873930  0.530370  0.045470  1.0  0.1091
  H  H210  1  0.831430  0.575870  0.020470  1.0  0.1155
  H  H211  1  0.884130  0.675870  0.106670  1.0  0.1217
  H  H212  1  0.979230  0.823470  0.056270  1.0  0.1219
  H  H213  1  0.935530  0.732170  0.056670  1.0  0.1255
  H  H214  1  0.922930  0.630670  0.131570  1.0  0.1062
  H  H215  1  0.899830  0.660970  0.993570  1.0  0.1262
  H  H216  1  0.909230  0.682370  0.931070  1.0  0.1115
  H  H217  1  0.136300  0.676900  0.378800  1.0  0.1092
  H  H218  1  0.090800  0.588900  0.353800  1.0  0.1158
  H  H219  1  0.990800  0.541600  0.440000  1.0  0.123
  H  H220  1  0.843200  0.489100  0.389600  1.0  0.1221
  H  H221  1  0.934500  0.536700  0.390000  1.0  0.1254
  H  H222  1  0.036000  0.625600  0.464900  1.0  0.107
  H  H223  1  0.005700  0.572200  0.326900  1.0  0.1261
  H  H224  1  0.984300  0.560200  0.264400  1.0  0.1122
  H  H225  1  0.802970  0.010230  0.712130  1.0  0.1092
  H  H226  1  0.757470  0.922230  0.687130  1.0  0.1158
  H  H227  1  0.657470  0.874930  0.773330  1.0  0.123
  H  H228  1  0.509870  0.822430  0.722930  1.0  0.1221
  H  H229  1  0.601170  0.870030  0.723330  1.0  0.1254
  H  H230  1  0.702670  0.958930  0.798230  1.0  0.1061
  H  H231  1  0.672370  0.905530  0.660230  1.0  0.1261
  H  H232  1  0.650970  0.893530  0.597730  1.0  0.1122
  H  H233  1  0.469630  0.343570  0.045470  1.0  0.1089
  H  H234  1  0.424130  0.255570  0.020470  1.0  0.1138
  H  H235  1  0.324130  0.208270  0.106670  1.0  0.123
  H  H236  1  0.176530  0.155770  0.056270  1.0  0.1221
  H  H237  1  0.267830  0.203370  0.056670  1.0  0.1254
  H  H238  1  0.369330  0.292270  0.131570  1.0  0.107
  H  H239  1  0.339030  0.238870  0.993570  1.0  0.1261
  H  H240  1  0.317630  0.226870  0.931070  1.0  0.1122
  H  H241  1  0.540600  0.676900  0.378800  1.0  0.1089
  H  H242  1  0.498100  0.588900  0.353800  1.0  0.1131
  H  H243  1  0.550800  0.541600  0.440000  1.0  0.1227
  H  H244  1  0.645900  0.489100  0.389600  1.0  0.1224
  H  H245  1  0.602200  0.536700  0.390000  1.0  0.1263
  H  H246  1  0.589600  0.625600  0.464900  1.0  0.1072
  H  H247  1  0.566500  0.572200  0.326900  1.0  0.1264
  H  H248  1  0.575900  0.560200  0.264400  1.0  0.1121
  H  H249  1  0.207270  0.010230  0.712130  1.0  0.1089
  H  H250  1  0.164770  0.922230  0.687130  1.0  0.1131
  H  H251  1  0.217470  0.874930  0.773330  1.0  0.1227
  H  H252  1  0.312570  0.822430  0.722930  1.0  0.1224
  H  H253  1  0.268870  0.870030  0.723330  1.0  0.1263
  H  H254  1  0.256270  0.958930  0.798230  1.0  0.1079
  H  H255  1  0.233170  0.905530  0.660230  1.0  0.1264
  H  H256  1  0.242570  0.893530  0.597730  1.0  0.1121
  H  H257  1  0.873930  0.343570  0.045470  1.0  0.1089
  H  H258  1  0.831430  0.255570  0.020470  1.0  0.1131
  H  H259  1  0.884130  0.208270  0.106670  1.0  0.1227
  H  H260  1  0.979230  0.155770  0.056270  1.0  0.1224
  H  H261  1  0.935530  0.203370  0.056670  1.0  0.1263
  H  H262  1  0.922930  0.292270  0.131570  1.0  0.1072
  H  H263  1  0.899830  0.238870  0.993570  1.0  0.1264
  H  H264  1  0.909230  0.226870  0.931070  1.0  0.1121
  H  H265  1  0.136300  0.459400  0.378800  1.0  0.1085
  H  H266  1  0.090800  0.501900  0.353800  1.0  0.1138
  H  H267  1  0.990800  0.449200  0.440000  1.0  0.1226
  H  H268  1  0.843200  0.354100  0.389600  1.0  0.1207
  H  H269  1  0.934500  0.397800  0.390000  1.0  0.1254
  H  H270  1  0.036000  0.410400  0.464900  1.0  0.1062
  H  H271  1  0.005700  0.433500  0.326900  1.0  0.1253
  H  H272  1  0.984300  0.424100  0.264400  1.0  0.1112
  H  H273  1  0.802970  0.792730  0.712130  1.0  0.1085
  H  H274  1  0.757470  0.835230  0.687130  1.0  0.1138
  H  H275  1  0.657470  0.782530  0.773330  1.0  0.1226
  H  H276  1  0.509870  0.687430  0.722930  1.0  0.1207
  H  H277  1  0.601170  0.731130  0.723330  1.0  0.1254
  H  H278  1  0.702670  0.743730  0.798230  1.0  0.1068
  H  H279  1  0.672370  0.766830  0.660230  1.0  0.1253
  H  H280  1  0.650970  0.757430  0.597730  1.0  0.1112
  H  H281  1  0.469630  0.126070  0.045470  1.0  0.1087
  H  H282  1  0.424130  0.168570  0.020470  1.0  0.1155
  H  H283  1  0.324130  0.115870  0.106670  1.0  0.1226
  H  H284  1  0.176530  0.020770  0.056270  1.0  0.1207
  H  H285  1  0.267830  0.064470  0.056670  1.0  0.1254
  H  H286  1  0.369330  0.077070  0.131570  1.0  0.1062
  H  H287  1  0.339030  0.100170  0.993570  1.0  0.1253
  H  H288  1  0.317630  0.090770  0.931070  1.0  0.1112
  H  H289  1  0.323100  0.863700  0.378800  1.0  0.1095
  H  H290  1  0.411100  0.909200  0.353800  1.0  0.1155
  H  H291  1  0.458400  0.009200  0.440000  1.0  0.1221
  H  H292  1  0.510900  0.156800  0.389600  1.0  0.1217
  H  H293  1  0.463300  0.065500  0.390000  1.0  0.1252
  H  H294  1  0.374400  0.964000  0.464900  1.0  0.1067
  H  H295  1  0.427800  0.994300  0.326900  1.0  0.1256
  H  H296  1  0.439800  0.015700  0.264400  1.0  0.1111
  H  H297  1  0.989770  0.197030  0.712130  1.0  0.1095
  H  H298  1  0.077770  0.242530  0.687130  1.0  0.1155
  H  H299  1  0.125070  0.342530  0.773330  1.0  0.1221
  H  H300  1  0.177570  0.490130  0.722930  1.0  0.1217
  H  H301  1  0.129970  0.398830  0.723330  1.0  0.1252
  H  H302  1  0.041070  0.297330  0.798230  1.0  0.1058
  H  H303  1  0.094470  0.327630  0.660230  1.0  0.1256
  H  H304  1  0.106470  0.349030  0.597730  1.0  0.1111
  H  H305  1  0.656430  0.530370  0.045470  1.0  0.1093
  H  H306  1  0.744430  0.575870  0.020470  1.0  0.1139
  H  H307  1  0.791730  0.675870  0.106670  1.0  0.1221
  H  H308  1  0.844230  0.823470  0.056270  1.0  0.1216
  H  H309  1  0.796630  0.732170  0.056670  1.0  0.1252
  H  H310  1  0.707730  0.630670  0.131570  1.0  0.1067
  H  H311  1  0.761130  0.660970  0.993570  1.0  0.1256
  H  H312  1  0.773130  0.682370  0.931070  1.0  0.1111
  C  C313  1  0.416400  0.267300  0.642800  1.0  -0.1217
  C  C314  1  0.370400  0.226200  0.658700  1.0  0.0524
  C  C315  1  0.355600  0.233000  0.692400  1.0  -0.1683
  C  C316  1  0.428000  0.323000  0.693700  1.0  -0.1405
  C  C317  1  0.382000  0.282900  0.709100  1.0  -0.0818
  C  C318  1  0.445600  0.312400  0.661200  1.0  -0.0154
  C  C319  1  0.460100  0.373800  0.712300  1.0  0.6501
  C  C320  1  0.336900  0.211000  0.541500  1.0  -0.0831
  C  C321  1  0.342200  0.212200  0.578300  1.0  -0.0943
  C  C322  1  0.198500  0.058100  0.645400  1.0  -0.0627
  C  C323  1  0.253500  0.084000  0.645600  1.0  -0.1114
  C  C324  1  0.083070  0.600630  0.976130  1.0  -0.1217
  C  C325  1  0.037070  0.559530  0.992030  1.0  0.0524
  C  C326  1  0.022270  0.566330  0.025730  1.0  -0.1683
  C  C327  1  0.094670  0.656330  0.027030  1.0  -0.1405
  C  C328  1  0.048670  0.616230  0.042430  1.0  -0.0818
  C  C329  1  0.112270  0.645730  0.994530  1.0  -0.0154
  C  C330  1  0.126770  0.707130  0.045630  1.0  0.6524
  C  C331  1  0.003570  0.544330  0.874830  1.0  -0.0831
  C  C332  1  0.008870  0.545530  0.911630  1.0  -0.0943
  C  C333  1  0.865170  0.391430  0.978730  1.0  -0.0648
  C  C334  1  0.920170  0.417330  0.978930  1.0  -0.1114
  C  C335  1  0.749730  0.933970  0.309470  1.0  -0.1217
  C  C336  1  0.703730  0.892870  0.325370  1.0  0.0524
  C  C337  1  0.688930  0.899670  0.359070  1.0  -0.1683
  C  C338  1  0.761330  0.989670  0.360370  1.0  -0.1405
  C  C339  1  0.715330  0.949570  0.375770  1.0  -0.0818
  C  C340  1  0.778930  0.979070  0.327870  1.0  -0.0154
  C  C341  1  0.793430  0.040470  0.378970  1.0  0.6501
  C  C342  1  0.670230  0.877670  0.208170  1.0  -0.0831
  C  C343  1  0.675530  0.878870  0.244970  1.0  -0.0943
  C  C344  1  0.531830  0.724770  0.312070  1.0  -0.0627
  C  C345  1  0.586830  0.750670  0.312270  1.0  -0.1114
  C  C346  1  0.732700  0.149100  0.642800  1.0  -0.1188
  C  C347  1  0.773800  0.144200  0.658700  1.0  0.0499
  C  C348  1  0.767000  0.122600  0.692400  1.0  -0.168
  C  C349  1  0.677000  0.105000  0.693700  1.0  -0.1387
  C  C350  1  0.717100  0.099100  0.709100  1.0  -0.0773
  C  C351  1  0.687600  0.133200  0.661200  1.0  -0.0112
  C  C352  1  0.626200  0.086300  0.712300  1.0  0.6512
  C  C353  1  0.789000  0.125900  0.541500  1.0  -0.0816
  C  C354  1  0.787800  0.130000  0.578300  1.0  -0.0965
  C  C355  1  0.941900  0.140400  0.645400  1.0  -0.0536
  C  C356  1  0.916000  0.169500  0.645600  1.0  -0.1102
  C  C357  1  0.399370  0.482430  0.976130  1.0  -0.1188
  C  C358  1  0.440470  0.477530  0.992030  1.0  0.0499
  C  C359  1  0.433670  0.455930  0.025730  1.0  -0.168
  C  C360  1  0.343670  0.438330  0.027030  1.0  -0.1387
  C  C361  1  0.383770  0.432430  0.042430  1.0  -0.0773
  C  C362  1  0.354270  0.466530  0.994530  1.0  -0.0112
  C  C363  1  0.292870  0.419630  0.045630  1.0  0.6512
  C  C364  1  0.455670  0.459230  0.874830  1.0  -0.0816
  C  C365  1  0.454470  0.463330  0.911630  1.0  -0.0965
  C  C366  1  0.608570  0.473730  0.978730  1.0  -0.0536
  C  C367  1  0.582670  0.502830  0.978930  1.0  -0.1102
  C  C368  1  0.066030  0.815770  0.309470  1.0  -0.1188
  C  C369  1  0.107130  0.810870  0.325370  1.0  0.0499
  C  C370  1  0.100330  0.789270  0.359070  1.0  -0.168
  C  C371  1  0.010330  0.771670  0.360370  1.0  -0.1387
  C  C372  1  0.050430  0.765770  0.375770  1.0  -0.0773
  C  C373  1  0.020930  0.799870  0.327870  1.0  -0.0112
  C  C374  1  0.959530  0.752970  0.378970  1.0  0.6512
  C  C375  1  0.122330  0.792570  0.208170  1.0  -0.0816
  C  C376  1  0.121130  0.796670  0.244970  1.0  -0.0965
  C  C377  1  0.275230  0.807070  0.312070  1.0  -0.0536
  C  C378  1  0.249330  0.836170  0.312270  1.0  -0.1102
  C  C379  1  0.850900  0.583600  0.642800  1.0  -0.1219
  C  C380  1  0.855800  0.629600  0.658700  1.0  0.0512
  C  C381  1  0.877400  0.644400  0.692400  1.0  -0.1671
  C  C382  1  0.895000  0.572000  0.693700  1.0  -0.1415
  C  C383  1  0.900900  0.618000  0.709100  1.0  -0.0818
  C  C384  1  0.866800  0.554400  0.661200  1.0  -0.0145
  C  C385  1  0.913700  0.539900  0.712300  1.0  0.6535
  C  C386  1  0.874100  0.663100  0.541500  1.0  -0.0814
  C  C387  1  0.870000  0.657800  0.578300  1.0  -0.0859
  C  C388  1  0.859600  0.801500  0.645400  1.0  -0.0606
  C  C389  1  0.830500  0.746500  0.645600  1.0  -0.1098
  C  C390  1  0.517570  0.916930  0.976130  1.0  -0.1219
  C  C391  1  0.522470  0.962930  0.992030  1.0  0.0512
  C  C392  1  0.544070  0.977730  0.025730  1.0  -0.1671
  C  C393  1  0.561670  0.905330  0.027030  1.0  -0.1415
  C  C394  1  0.567570  0.951330  0.042430  1.0  -0.0818
  C  C395  1  0.533470  0.887730  0.994530  1.0  -0.0145
  C  C396  1  0.580370  0.873230  0.045630  1.0  0.6513
  C  C397  1  0.540770  0.996430  0.874830  1.0  -0.0814
  C  C398  1  0.536670  0.991130  0.911630  1.0  -0.0859
  C  C399  1  0.526270  0.134830  0.978730  1.0  -0.0585
  C  C400  1  0.497170  0.079830  0.978930  1.0  -0.1099
  C  C401  1  0.184230  0.250270  0.309470  1.0  -0.1219
  C  C402  1  0.189130  0.296270  0.325370  1.0  0.0512
  C  C403  1  0.210730  0.311070  0.359070  1.0  -0.1671
  C  C404  1  0.228330  0.238670  0.360370  1.0  -0.1415
  C  C405  1  0.234230  0.284670  0.375770  1.0  -0.0818
  C  C406  1  0.200130  0.221070  0.327870  1.0  -0.0145
  C  C407  1  0.247030  0.206570  0.378970  1.0  0.6535
  C  C408  1  0.207430  0.329770  0.208170  1.0  -0.0814
  C  C409  1  0.203330  0.324470  0.244970  1.0  -0.0859
  C  C410  1  0.192930  0.468170  0.312070  1.0  -0.0606
  C  C411  1  0.163830  0.413170  0.312270  1.0  -0.1098
  C  C412  1  0.732700  0.583600  0.642800  1.0  -0.1209
  C  C413  1  0.773800  0.629600  0.658700  1.0  0.0495
  C  C414  1  0.767000  0.644400  0.692400  1.0  -0.1686
  C  C415  1  0.677000  0.572000  0.693700  1.0  -0.1414
  C  C416  1  0.717100  0.618000  0.709100  1.0  -0.0817
  C  C417  1  0.687600  0.554400  0.661200  1.0  -0.014
  C  C418  1  0.626200  0.539900  0.712300  1.0  0.6505
  C  C419  1  0.789000  0.663100  0.541500  1.0  -0.0803
  C  C420  1  0.787800  0.657800  0.578300  1.0  -0.0891
  C  C421  1  0.941900  0.801500  0.645400  1.0  -0.0576
  C  C422  1  0.916000  0.746500  0.645600  1.0  -0.1103
  C  C423  1  0.399370  0.916930  0.976130  1.0  -0.1209
  C  C424  1  0.440470  0.962930  0.992030  1.0  0.0495
  C  C425  1  0.433670  0.977730  0.025730  1.0  -0.1686
  C  C426  1  0.343670  0.905330  0.027030  1.0  -0.1414
  C  C427  1  0.383770  0.951330  0.042430  1.0  -0.0817
  C  C428  1  0.354270  0.887730  0.994530  1.0  -0.014
  C  C429  1  0.292870  0.873230  0.045630  1.0  0.6528
  C  C430  1  0.455670  0.996430  0.874830  1.0  -0.0803
  C  C431  1  0.454470  0.991130  0.911630  1.0  -0.0891
  C  C432  1  0.608570  0.134830  0.978730  1.0  -0.059
  C  C433  1  0.582670  0.079830  0.978930  1.0  -0.1103
  C  C434  1  0.066030  0.250270  0.309470  1.0  -0.1209
  C  C435  1  0.107130  0.296270  0.325370  1.0  0.0495
  C  C436  1  0.100330  0.311070  0.359070  1.0  -0.1686
  C  C437  1  0.010330  0.238670  0.360370  1.0  -0.1414
  C  C438  1  0.050430  0.284670  0.375770  1.0  -0.0817
  C  C439  1  0.020930  0.221070  0.327870  1.0  -0.014
  C  C440  1  0.959530  0.206570  0.378970  1.0  0.6505
  C  C441  1  0.122330  0.329770  0.208170  1.0  -0.0803
  C  C442  1  0.121130  0.324470  0.244970  1.0  -0.0891
  C  C443  1  0.275230  0.468170  0.312070  1.0  -0.0576
  C  C444  1  0.249330  0.413170  0.312270  1.0  -0.1103
  C  C445  1  0.850900  0.267300  0.642800  1.0  -0.1222
  C  C446  1  0.855800  0.226200  0.658700  1.0  0.0519
  C  C447  1  0.877400  0.233000  0.692400  1.0  -0.1677
  C  C448  1  0.895000  0.323000  0.693700  1.0  -0.1417
  C  C449  1  0.900900  0.282900  0.709100  1.0  -0.0817
  C  C450  1  0.866800  0.312400  0.661200  1.0  -0.0161
  C  C451  1  0.913700  0.373800  0.712300  1.0  0.6499
  C  C452  1  0.874100  0.211000  0.541500  1.0  -0.0839
  C  C453  1  0.870000  0.212200  0.578300  1.0  -0.0961
  C  C454  1  0.859600  0.058100  0.645400  1.0  -0.0639
  C  C455  1  0.830500  0.084000  0.645600  1.0  -0.1098
  C  C456  1  0.517570  0.600630  0.976130  1.0  -0.1222
  C  C457  1  0.522470  0.559530  0.992030  1.0  0.0518
  C  C458  1  0.544070  0.566330  0.025730  1.0  -0.1677
  C  C459  1  0.561670  0.656330  0.027030  1.0  -0.1418
  C  C460  1  0.567570  0.616230  0.042430  1.0  -0.0817
  C  C461  1  0.533470  0.645730  0.994530  1.0  -0.0161
  C  C462  1  0.580370  0.707130  0.045630  1.0  0.6499
  C  C463  1  0.540770  0.544330  0.874830  1.0  -0.0839
  C  C464  1  0.536670  0.545530  0.911630  1.0  -0.0961
  C  C465  1  0.526270  0.391430  0.978730  1.0  -0.0639
  C  C466  1  0.497170  0.417330  0.978930  1.0  -0.1098
  C  C467  1  0.184230  0.933970  0.309470  1.0  -0.1222
  C  C468  1  0.189130  0.892870  0.325370  1.0  0.0519
  C  C469  1  0.210730  0.899670  0.359070  1.0  -0.1677
  C  C470  1  0.228330  0.989670  0.360370  1.0  -0.1417
  C  C471  1  0.234230  0.949570  0.375770  1.0  -0.0817
  C  C472  1  0.200130  0.979070  0.327870  1.0  -0.0161
  C  C473  1  0.247030  0.040470  0.378970  1.0  0.6499
  C  C474  1  0.207430  0.877670  0.208170  1.0  -0.0839
  C  C475  1  0.203330  0.878870  0.244970  1.0  -0.0961
  C  C476  1  0.192930  0.724770  0.312070  1.0  -0.0639
  C  C477  1  0.163830  0.750670  0.312270  1.0  -0.1098
  C  C478  1  0.416400  0.149100  0.642800  1.0  -0.119
  C  C479  1  0.370400  0.144200  0.658700  1.0  0.0514
  C  C480  1  0.355600  0.122600  0.692400  1.0  -0.1651
  C  C481  1  0.428000  0.105000  0.693700  1.0  -0.1404
  C  C482  1  0.382000  0.099100  0.709100  1.0  -0.0784
  C  C483  1  0.445600  0.133200  0.661200  1.0  -0.0133
  C  C484  1  0.460100  0.086300  0.712300  1.0  0.6543
  C  C485  1  0.336900  0.125900  0.541500  1.0  -0.0827
  C  C486  1  0.342200  0.130000  0.578300  1.0  -0.0978
  C  C487  1  0.198500  0.140400  0.645400  1.0  -0.0541
  C  C488  1  0.253500  0.169500  0.645600  1.0  -0.1115
  C  C489  1  0.083070  0.482430  0.976130  1.0  -0.119
  C  C490  1  0.037070  0.477530  0.992030  1.0  0.0514
  C  C491  1  0.022270  0.455930  0.025730  1.0  -0.1651
  C  C492  1  0.094670  0.438330  0.027030  1.0  -0.1404
  C  C493  1  0.048670  0.432430  0.042430  1.0  -0.0784
  C  C494  1  0.112270  0.466530  0.994530  1.0  -0.0133
  C  C495  1  0.126770  0.419630  0.045630  1.0  0.6519
  C  C496  1  0.003570  0.459230  0.874830  1.0  -0.0827
  C  C497  1  0.008870  0.463330  0.911630  1.0  -0.0978
  C  C498  1  0.865170  0.473730  0.978730  1.0  -0.0522
  C  C499  1  0.920170  0.502830  0.978930  1.0  -0.1115
  C  C500  1  0.749730  0.815770  0.309470  1.0  -0.119
  C  C501  1  0.703730  0.810870  0.325370  1.0  0.0514
  C  C502  1  0.688930  0.789270  0.359070  1.0  -0.1651
  C  C503  1  0.761330  0.771670  0.360370  1.0  -0.1404
  C  C504  1  0.715330  0.765770  0.375770  1.0  -0.0784
  C  C505  1  0.778930  0.799870  0.327870  1.0  -0.0133
  C  C506  1  0.793430  0.752970  0.378970  1.0  0.6543
  C  C507  1  0.670230  0.792570  0.208170  1.0  -0.0827
  C  C508  1  0.675530  0.796670  0.244970  1.0  -0.0978
  C  C509  1  0.531830  0.807070  0.312070  1.0  -0.0541
  C  C510  1  0.586830  0.836170  0.312270  1.0  -0.1115
  C  C511  1  0.342300  0.171150  0.642200  1.0  -0.0241
  C  C512  1  0.344100  0.172050  0.597600  1.0  0.0089
  C  C513  1  0.170800  0.085400  0.644700  1.0  -0.0958
  C  C514  1  0.111300  0.055650  0.646300  1.0  0.6504
  C  C515  1  0.280000  0.140000  0.647500  1.0  -0.0728
  C  C516  1  0.335100  0.167550  0.521100  1.0  -0.0708
  C  C517  1  0.325300  0.162650  0.482500  1.0  0.6752
  C  C518  1  0.008970  0.504480  0.975530  1.0  -0.0241
  C  C519  1  0.010770  0.505380  0.930930  1.0  0.0089
  C  C520  1  0.837470  0.418730  0.978030  1.0  -0.0958
  C  C521  1  0.777970  0.388980  0.979630  1.0  0.6504
  C  C522  1  0.946670  0.473330  0.980830  1.0  -0.0729
  C  C523  1  0.001770  0.500880  0.854430  1.0  -0.0708
  C  C524  1  0.991970  0.495980  0.815830  1.0  0.6752
  C  C525  1  0.675630  0.837820  0.308870  1.0  -0.0241
  C  C526  1  0.677430  0.838720  0.264270  1.0  0.0089
  C  C527  1  0.504130  0.752070  0.311370  1.0  -0.0958
  C  C528  1  0.444630  0.722320  0.312970  1.0  0.6504
  C  C529  1  0.613330  0.806670  0.314170  1.0  -0.0728
  C  C530  1  0.668430  0.834220  0.187770  1.0  -0.0708
  C  C531  1  0.658630  0.829320  0.149170  1.0  0.6752
  C  C532  1  0.828850  0.171150  0.642200  1.0  -0.0245
  C  C533  1  0.827950  0.172050  0.597600  1.0  0.0085
  C  C534  1  0.914600  0.085400  0.644700  1.0  -0.0979
  C  C535  1  0.944350  0.055650  0.646300  1.0  0.6515
  C  C536  1  0.860000  0.140000  0.647500  1.0  -0.0722
  C  C537  1  0.832450  0.167550  0.521100  1.0  -0.0706
  C  C538  1  0.837350  0.162650  0.482500  1.0  0.675
  C  C539  1  0.495520  0.504480  0.975530  1.0  -0.0245
  C  C540  1  0.494620  0.505380  0.930930  1.0  0.0085
  C  C541  1  0.581270  0.418730  0.978030  1.0  -0.0979
  C  C542  1  0.611020  0.388980  0.979630  1.0  0.6516
  C  C543  1  0.526670  0.473330  0.980830  1.0  -0.0722
  C  C544  1  0.499120  0.500880  0.854430  1.0  -0.0706
  C  C545  1  0.504020  0.495980  0.815830  1.0  0.675
  C  C546  1  0.162180  0.837820  0.308870  1.0  -0.0245
  C  C547  1  0.161280  0.838720  0.264270  1.0  0.0085
  C  C548  1  0.247930  0.752070  0.311370  1.0  -0.0979
  C  C549  1  0.277680  0.722320  0.312970  1.0  0.6515
  C  C550  1  0.193330  0.806670  0.314170  1.0  -0.0722
  C  C551  1  0.165780  0.834220  0.187770  1.0  -0.0706
  C  C552  1  0.170680  0.829320  0.149170  1.0  0.675
  C  C553  1  0.828850  0.657700  0.642200  1.0  -0.0236
  C  C554  1  0.827950  0.655900  0.597600  1.0  0.0105
  C  C555  1  0.914600  0.829200  0.644700  1.0  -0.0931
  C  C556  1  0.944350  0.888700  0.646300  1.0  0.6503
  C  C557  1  0.860000  0.720000  0.647500  1.0  -0.0703
  C  C558  1  0.832450  0.664900  0.521100  1.0  -0.0711
  C  C559  1  0.837350  0.674700  0.482500  1.0  0.6739
  C  C560  1  0.495520  0.991030  0.975530  1.0  -0.0236
  C  C561  1  0.494620  0.989230  0.930930  1.0  0.0105
  C  C562  1  0.581270  0.162530  0.978030  1.0  -0.0931
  C  C563  1  0.611020  0.222030  0.979630  1.0  0.6503
  C  C564  1  0.526670  0.053330  0.980830  1.0  -0.0703
  C  C565  1  0.499120  0.998230  0.854430  1.0  -0.071
  C  C566  1  0.504020  0.008030  0.815830  1.0  0.6739
  C  C567  1  0.162180  0.324370  0.308870  1.0  -0.0236
  C  C568  1  0.161280  0.322570  0.264270  1.0  0.0105
  C  C569  1  0.247930  0.495870  0.311370  1.0  -0.0931
  C  C570  1  0.277680  0.555370  0.312970  1.0  0.6503
  C  C571  1  0.193330  0.386670  0.314170  1.0  -0.0703
  C  C572  1  0.165780  0.331570  0.187770  1.0  -0.071
  C  C573  1  0.170680  0.341370  0.149170  1.0  0.6739
  C  C574  1  0.288300  0.407600  0.441100  1.0  0.6612
  C  C575  1  0.341100  0.431900  0.425200  1.0  -0.0955
  C  C576  1  0.350700  0.457600  0.391500  1.0  -0.0686
  C  C577  1  0.441500  0.474800  0.392400  1.0  0.0524
  C  C578  1  0.403200  0.481500  0.375800  1.0  -0.1834
  C  C579  1  0.431000  0.450600  0.426800  1.0  -0.1418
  C  C580  1  0.528700  0.391700  0.391100  1.0  -0.027
  C  C581  1  0.500900  0.417000  0.389100  1.0  -0.1924
  C  C582  1  0.381200  0.428600  0.441900  1.0  -0.0458
  C  C583  1  0.458200  0.459900  0.314200  1.0  -0.1874
  C  C584  1  0.463500  0.456100  0.276700  1.0  -0.0709
  C  C585  1  0.954970  0.740930  0.774430  1.0  0.6612
  C  C586  1  0.007770  0.765230  0.758530  1.0  -0.0955
  C  C587  1  0.017370  0.790930  0.724830  1.0  -0.0686
  C  C588  1  0.108170  0.808130  0.725730  1.0  0.0524
  C  C589  1  0.069870  0.814830  0.709130  1.0  -0.1834
  C  C590  1  0.097670  0.783930  0.760130  1.0  -0.1418
  C  C591  1  0.195370  0.725030  0.724430  1.0  -0.027
  C  C592  1  0.167570  0.750330  0.722430  1.0  -0.1924
  C  C593  1  0.047870  0.761930  0.775230  1.0  -0.0458
  C  C594  1  0.124870  0.793230  0.647530  1.0  -0.1874
  C  C595  1  0.130170  0.789430  0.610030  1.0  -0.0709
  C  C596  1  0.621630  0.074270  0.107770  1.0  0.6612
  C  C597  1  0.674430  0.098570  0.091870  1.0  -0.0954
  C  C598  1  0.684030  0.124270  0.058170  1.0  -0.0686
  C  C599  1  0.774830  0.141470  0.059070  1.0  0.0524
  C  C600  1  0.736530  0.148170  0.042470  1.0  -0.1834
  C  C601  1  0.764330  0.117270  0.093470  1.0  -0.1418
  C  C602  1  0.862030  0.058370  0.057770  1.0  -0.027
  C  C603  1  0.834230  0.083670  0.055770  1.0  -0.1924
  C  C604  1  0.714530  0.095270  0.108570  1.0  -0.0458
  C  C605  1  0.791530  0.126570  0.980870  1.0  -0.1874
  C  C606  1  0.796830  0.122770  0.943370  1.0  -0.0709
  C  C607  1  0.592400  0.880700  0.441100  1.0  0.6587
  C  C608  1  0.568100  0.909200  0.425200  1.0  -0.0915
  C  C609  1  0.542400  0.893100  0.391500  1.0  -0.0672
  C  C610  1  0.525200  0.966700  0.392400  1.0  0.0553
  C  C611  1  0.518500  0.921700  0.375800  1.0  -0.1841
  C  C612  1  0.549400  0.980400  0.426800  1.0  -0.1399
  C  C613  1  0.608300  0.137000  0.391100  1.0  -0.0248
  C  C614  1  0.583000  0.083900  0.389100  1.0  -0.1895
  C  C615  1  0.571400  0.952600  0.441900  1.0  -0.0468
  C  C616  1  0.540100  0.998300  0.314200  1.0  -0.1842
  C  C617  1  0.543900  0.007400  0.276700  1.0  -0.0671
  C  C618  1  0.259070  0.214030  0.774430  1.0  0.6621
  C  C619  1  0.234770  0.242530  0.758530  1.0  -0.0915
  C  C620  1  0.209070  0.226430  0.724830  1.0  -0.0672
  C  C621  1  0.191870  0.300030  0.725730  1.0  0.0553
  C  C622  1  0.185170  0.255030  0.709130  1.0  -0.1841
  C  C623  1  0.216070  0.313730  0.760130  1.0  -0.1399
  C  C624  1  0.274970  0.470330  0.724430  1.0  -0.0248
  C  C625  1  0.249670  0.417230  0.722430  1.0  -0.1895
  C  C626  1  0.238070  0.285930  0.775230  1.0  -0.0468
  C  C627  1  0.206770  0.331630  0.647530  1.0  -0.1842
  C  C628  1  0.210570  0.340730  0.610030  1.0  -0.0671
  C  C629  1  0.925730  0.547370  0.107770  1.0  0.6587
  C  C630  1  0.901430  0.575870  0.091870  1.0  -0.0918
  C  C631  1  0.875730  0.559770  0.058170  1.0  -0.0671
  C  C632  1  0.858530  0.633370  0.059070  1.0  0.0553
  C  C633  1  0.851830  0.588370  0.042470  1.0  -0.1841
  C  C634  1  0.882730  0.647070  0.093470  1.0  -0.1399
  C  C635  1  0.941630  0.803670  0.057770  1.0  -0.0248
  C  C636  1  0.916330  0.750570  0.055770  1.0  -0.1895
  C  C637  1  0.904730  0.619270  0.108570  1.0  -0.0467
  C  C638  1  0.873430  0.664970  0.980870  1.0  -0.1842
  C  C639  1  0.877230  0.674070  0.943370  1.0  -0.0671
  C  C640  1  0.119300  0.711700  0.441100  1.0  0.6628
  C  C641  1  0.090800  0.658900  0.425200  1.0  -0.0942
  C  C642  1  0.106900  0.649300  0.391500  1.0  -0.0687
  C  C643  1  0.033300  0.558500  0.392400  1.0  0.0579
  C  C644  1  0.078300  0.596800  0.375800  1.0  -0.1855
  C  C645  1  0.019600  0.569000  0.426800  1.0  -0.1436
  C  C646  1  0.863000  0.471300  0.391100  1.0  -0.0215
  C  C647  1  0.916100  0.499100  0.389100  1.0  -0.1923
  C  C648  1  0.047400  0.618800  0.441900  1.0  -0.0456
  C  C649  1  0.001700  0.541800  0.314200  1.0  -0.1889
  C  C650  1  0.992600  0.536500  0.276700  1.0  -0.0688
  C  C651  1  0.785970  0.045030  0.774430  1.0  0.6602
  C  C652  1  0.757470  0.992230  0.758530  1.0  -0.0942
  C  C653  1  0.773570  0.982630  0.724830  1.0  -0.0687
  C  C654  1  0.699970  0.891830  0.725730  1.0  0.0579
  C  C655  1  0.744970  0.930130  0.709130  1.0  -0.1855
  C  C656  1  0.686270  0.902330  0.760130  1.0  -0.1436
  C  C657  1  0.529670  0.804630  0.724430  1.0  -0.0215
  C  C658  1  0.582770  0.832430  0.722430  1.0  -0.1923
  C  C659  1  0.714070  0.952130  0.775230  1.0  -0.0456
  C  C660  1  0.668370  0.875130  0.647530  1.0  -0.1889
  C  C661  1  0.659270  0.869830  0.610030  1.0  -0.0688
  C  C662  1  0.452630  0.378370  0.107770  1.0  0.6628
  C  C663  1  0.424130  0.325570  0.091870  1.0  -0.0941
  C  C664  1  0.440230  0.315970  0.058170  1.0  -0.0685
  C  C665  1  0.366630  0.225170  0.059070  1.0  0.0579
  C  C666  1  0.411630  0.263470  0.042470  1.0  -0.1855
  C  C667  1  0.352930  0.235670  0.093470  1.0  -0.1436
  C  C668  1  0.196330  0.137970  0.057770  1.0  -0.0215
  C  C669  1  0.249430  0.165770  0.055770  1.0  -0.1923
  C  C670  1  0.380730  0.285470  0.108570  1.0  -0.0456
  C  C671  1  0.335030  0.208470  0.980870  1.0  -0.1889
  C  C672  1  0.325930  0.203170  0.943370  1.0  -0.0688
  C  C673  1  0.592400  0.711700  0.441100  1.0  0.6616
  C  C674  1  0.568100  0.658900  0.425200  1.0  -0.0958
  C  C675  1  0.542400  0.649300  0.391500  1.0  -0.0682
  C  C676  1  0.525200  0.558500  0.392400  1.0  0.0579
  C  C677  1  0.518500  0.596800  0.375800  1.0  -0.1862
  C  C678  1  0.549400  0.569000  0.426800  1.0  -0.1408
  C  C679  1  0.608300  0.471300  0.391100  1.0  -0.0222
  C  C680  1  0.583000  0.499100  0.389100  1.0  -0.1938
  C  C681  1  0.571400  0.618800  0.441900  1.0  -0.0463
  C  C682  1  0.540100  0.541800  0.314200  1.0  -0.1886
  C  C683  1  0.543900  0.536500  0.276700  1.0  -0.0687
  C  C684  1  0.259070  0.045030  0.774430  1.0  0.6616
  C  C685  1  0.234770  0.992230  0.758530  1.0  -0.0958
  C  C686  1  0.209070  0.982630  0.724830  1.0  -0.0682
  C  C687  1  0.191870  0.891830  0.725730  1.0  0.0579
  C  C688  1  0.185170  0.930130  0.709130  1.0  -0.1862
  C  C689  1  0.216070  0.902330  0.760130  1.0  -0.1408
  C  C690  1  0.274970  0.804630  0.724430  1.0  -0.0222
  C  C691  1  0.249670  0.832430  0.722430  1.0  -0.1938
  C  C692  1  0.238070  0.952130  0.775230  1.0  -0.0463
  C  C693  1  0.206770  0.875130  0.647530  1.0  -0.1886
  C  C694  1  0.210570  0.869830  0.610030  1.0  -0.0687
  C  C695  1  0.925730  0.378370  0.107770  1.0  0.6616
  C  C696  1  0.901430  0.325570  0.091870  1.0  -0.0957
  C  C697  1  0.875730  0.315970  0.058170  1.0  -0.0682
  C  C698  1  0.858530  0.225170  0.059070  1.0  0.0579
  C  C699  1  0.851830  0.263470  0.042470  1.0  -0.1862
  C  C700  1  0.882730  0.235670  0.093470  1.0  -0.1408
  C  C701  1  0.941630  0.137970  0.057770  1.0  -0.0222
  C  C702  1  0.916330  0.165770  0.055770  1.0  -0.1938
  C  C703  1  0.904730  0.285470  0.108570  1.0  -0.0463
  C  C704  1  0.873430  0.208470  0.980870  1.0  -0.1885
  C  C705  1  0.877230  0.203170  0.943370  1.0  -0.0687
  C  C706  1  0.119300  0.407600  0.441100  1.0  0.6596
  C  C707  1  0.090800  0.431900  0.425200  1.0  -0.0936
  C  C708  1  0.106900  0.457600  0.391500  1.0  -0.0683
  C  C709  1  0.033300  0.474800  0.392400  1.0  0.0548
  C  C710  1  0.078300  0.481500  0.375800  1.0  -0.1826
  C  C711  1  0.019600  0.450600  0.426800  1.0  -0.141
  C  C712  1  0.863000  0.391700  0.391100  1.0  -0.0265
  C  C713  1  0.916100  0.417000  0.389100  1.0  -0.1935
  C  C714  1  0.047400  0.428600  0.441900  1.0  -0.0463
  C  C715  1  0.001700  0.459900  0.314200  1.0  -0.1889
  C  C716  1  0.992600  0.456100  0.276700  1.0  -0.0715
  C  C717  1  0.785970  0.740930  0.774430  1.0  0.6627
  C  C718  1  0.757470  0.765230  0.758530  1.0  -0.0936
  C  C719  1  0.773570  0.790930  0.724830  1.0  -0.0683
  C  C720  1  0.699970  0.808130  0.725730  1.0  0.0548
  C  C721  1  0.744970  0.814830  0.709130  1.0  -0.1826
  C  C722  1  0.686270  0.783930  0.760130  1.0  -0.141
  C  C723  1  0.529670  0.725030  0.724430  1.0  -0.0265
  C  C724  1  0.582770  0.750330  0.722430  1.0  -0.1935
  C  C725  1  0.714070  0.761930  0.775230  1.0  -0.0463
  C  C726  1  0.668370  0.793230  0.647530  1.0  -0.1889
  C  C727  1  0.659270  0.789430  0.610030  1.0  -0.0715
  C  C728  1  0.452630  0.074270  0.107770  1.0  0.6596
  C  C729  1  0.424130  0.098570  0.091870  1.0  -0.0939
  C  C730  1  0.440230  0.124270  0.058170  1.0  -0.0681
  C  C731  1  0.366630  0.141470  0.059070  1.0  0.0548
  C  C732  1  0.411630  0.148170  0.042470  1.0  -0.1826
  C  C733  1  0.352930  0.117270  0.093470  1.0  -0.141
  C  C734  1  0.196330  0.058370  0.057770  1.0  -0.0265
  C  C735  1  0.249430  0.083670  0.055770  1.0  -0.1935
  C  C736  1  0.380730  0.095270  0.108570  1.0  -0.0462
  C  C737  1  0.335030  0.126570  0.980870  1.0  -0.1889
  C  C738  1  0.325930  0.122770  0.943370  1.0  -0.0715
  C  C739  1  0.288300  0.880700  0.441100  1.0  0.6622
  C  C740  1  0.341100  0.909200  0.425200  1.0  -0.092
  C  C741  1  0.350700  0.893100  0.391500  1.0  -0.0676
  C  C742  1  0.441500  0.966700  0.392400  1.0  0.0544
  C  C743  1  0.403200  0.921700  0.375800  1.0  -0.1855
  C  C744  1  0.431000  0.980400  0.426800  1.0  -0.1415
  C  C745  1  0.528700  0.137000  0.391100  1.0  -0.0211
  C  C746  1  0.500900  0.083900  0.389100  1.0  -0.1894
  C  C747  1  0.381200  0.952600  0.441900  1.0  -0.0466
  C  C748  1  0.458200  0.998300  0.314200  1.0  -0.1838
  C  C749  1  0.463500  0.007400  0.276700  1.0  -0.0665
  C  C750  1  0.954970  0.214030  0.774430  1.0  0.6588
  C  C751  1  0.007770  0.242530  0.758530  1.0  -0.092
  C  C752  1  0.017370  0.226430  0.724830  1.0  -0.0676
  C  C753  1  0.108170  0.300030  0.725730  1.0  0.0544
  C  C754  1  0.069870  0.255030  0.709130  1.0  -0.1855
  C  C755  1  0.097670  0.313730  0.760130  1.0  -0.1415
  C  C756  1  0.195370  0.470330  0.724430  1.0  -0.0211
  C  C757  1  0.167570  0.417230  0.722430  1.0  -0.1894
  C  C758  1  0.047870  0.285930  0.775230  1.0  -0.0466
  C  C759  1  0.124870  0.331630  0.647530  1.0  -0.1838
  C  C760  1  0.130170  0.340730  0.610030  1.0  -0.0665
  C  C761  1  0.621630  0.547370  0.107770  1.0  0.6622
  C  C762  1  0.674430  0.575870  0.091870  1.0  -0.0919
  C  C763  1  0.684030  0.559770  0.058170  1.0  -0.0674
  C  C764  1  0.774830  0.633370  0.059070  1.0  0.0544
  C  C765  1  0.736530  0.588370  0.042470  1.0  -0.1855
  C  C766  1  0.764330  0.647070  0.093470  1.0  -0.1415
  C  C767  1  0.862030  0.803670  0.057770  1.0  -0.0211
  C  C768  1  0.834230  0.750570  0.055770  1.0  -0.1894
  C  C769  1  0.714530  0.619270  0.108570  1.0  -0.0466
  C  C770  1  0.791530  0.664970  0.980870  1.0  -0.1838
  C  C771  1  0.796830  0.674070  0.943370  1.0  -0.0665
  C  C772  1  0.528400  0.471600  0.385900  1.0  0.0339
  C  C773  1  0.497500  0.502500  0.376700  1.0  0.0447
  C  C774  1  0.581000  0.419000  0.395000  1.0  0.0646
  C  C775  1  0.611700  0.388300  0.399300  1.0  0.6201
  C  C776  1  0.497600  0.502400  0.333500  1.0  0.0725
  C  C777  1  0.502300  0.497700  0.256600  1.0  -0.072
  C  C778  1  0.503200  0.496800  0.213900  1.0  0.6903
  C  C779  1  0.195070  0.804930  0.719230  1.0  0.0339
  C  C780  1  0.164170  0.835830  0.710030  1.0  0.0447
  C  C781  1  0.247670  0.752330  0.728330  1.0  0.0646
  C  C782  1  0.278370  0.721630  0.732630  1.0  0.6201
  C  C783  1  0.164270  0.835730  0.666830  1.0  0.0725
  C  C784  1  0.168970  0.831030  0.589930  1.0  -0.072
  C  C785  1  0.169870  0.830130  0.547230  1.0  0.6903
  C  C786  1  0.861730  0.138270  0.052570  1.0  0.0339
  C  C787  1  0.830830  0.169170  0.043370  1.0  0.0447
  C  C788  1  0.914330  0.085670  0.061670  1.0  0.0646
  C  C789  1  0.945030  0.054970  0.065970  1.0  0.6201
  C  C790  1  0.830930  0.169070  0.000170  1.0  0.0728
  C  C791  1  0.835630  0.164370  0.923270  1.0  -0.072
  C  C792  1  0.836530  0.163470  0.880570  1.0  0.6903
  C  C793  1  0.528400  0.056800  0.385900  1.0  0.0369
  C  C794  1  0.497500  0.995000  0.376700  1.0  0.0449
  C  C795  1  0.581000  0.162000  0.395000  1.0  0.0631
  C  C796  1  0.611700  0.223400  0.399300  1.0  0.6168
  C  C797  1  0.497600  0.995200  0.333500  1.0  0.0729
  C  C798  1  0.502300  0.004600  0.256600  1.0  -0.0718
  C  C799  1  0.503200  0.006400  0.213900  1.0  0.6919
  C  C800  1  0.195070  0.390130  0.719230  1.0  0.0369
  C  C801  1  0.164170  0.328330  0.710030  1.0  0.0449
  C  C802  1  0.247670  0.495330  0.728330  1.0  0.0631
  C  C803  1  0.278370  0.556730  0.732630  1.0  0.6168
  C  C804  1  0.164270  0.328530  0.666830  1.0  0.0729
  C  C805  1  0.168970  0.337930  0.589930  1.0  -0.0718
  C  C806  1  0.169870  0.339730  0.547230  1.0  0.6919
  C  C807  1  0.861730  0.723470  0.052570  1.0  0.0369
  C  C808  1  0.830830  0.661670  0.043370  1.0  0.0448
  C  C809  1  0.914330  0.828670  0.061670  1.0  0.0631
  C  C810  1  0.945030  0.890070  0.065970  1.0  0.6168
  C  C811  1  0.830930  0.661870  0.000170  1.0  0.0729
  C  C812  1  0.835630  0.671270  0.923270  1.0  -0.0718
  C  C813  1  0.836530  0.673070  0.880570  1.0  0.6919
  C  C814  1  0.943200  0.471600  0.385900  1.0  0.0336
  C  C815  1  0.005000  0.502500  0.376700  1.0  0.0447
  C  C816  1  0.838000  0.419000  0.395000  1.0  0.0623
  C  C817  1  0.776600  0.388300  0.399300  1.0  0.6182
  C  C818  1  0.004800  0.502400  0.333500  1.0  0.0731
  C  C819  1  0.995400  0.497700  0.256600  1.0  -0.0717
  C  C820  1  0.993600  0.496800  0.213900  1.0  0.6927
  C  C821  1  0.609870  0.804930  0.719230  1.0  0.0336
  C  C822  1  0.671670  0.835830  0.710030  1.0  0.0447
  C  C823  1  0.504670  0.752330  0.728330  1.0  0.0623
  C  C824  1  0.443270  0.721630  0.732630  1.0  0.6182
  C  C825  1  0.671470  0.835730  0.666830  1.0  0.0731
  C  C826  1  0.662070  0.831030  0.589930  1.0  -0.0717
  C  C827  1  0.660270  0.830130  0.547230  1.0  0.6927
  C  C828  1  0.276530  0.138270  0.052570  1.0  0.0336
  C  C829  1  0.338330  0.169170  0.043370  1.0  0.0447
  C  C830  1  0.171330  0.085670  0.061670  1.0  0.0623
  C  C831  1  0.109930  0.054970  0.065970  1.0  0.6182
  C  C832  1  0.338130  0.169070  0.000170  1.0  0.0731
  C  C833  1  0.328730  0.164370  0.923270  1.0  -0.0717
  C  C834  1  0.326930  0.163470  0.880570  1.0  0.6927
  O  O835  1  0.317500  0.120400  0.464800  1.0  -0.6163
  O  O836  1  0.086700  0.081400  0.646800  1.0  -0.6391
  O  O837  1  0.504100  0.406500  0.696100  1.0  -0.6263
  O  O838  1  0.446300  0.384500  0.742600  1.0  -0.5689
  O  O839  1  0.984170  0.453730  0.798130  1.0  -0.6163
  O  O840  1  0.753370  0.414730  0.980130  1.0  -0.6387
  O  O841  1  0.170770  0.739830  0.029430  1.0  -0.6263
  O  O842  1  0.112970  0.717830  0.075930  1.0  -0.5648
  O  O843  1  0.650830  0.787070  0.131470  1.0  -0.6163
  O  O844  1  0.420030  0.748070  0.313470  1.0  -0.6401
  O  O845  1  0.837430  0.073170  0.362770  1.0  -0.6263
  O  O846  1  0.779630  0.051170  0.409270  1.0  -0.5689
  O  O847  1  0.879600  0.197100  0.464800  1.0  -0.6143
  O  O848  1  0.918600  0.005300  0.646800  1.0  -0.6355
  O  O849  1  0.593500  0.097600  0.696100  1.0  -0.6194
  O  O850  1  0.615500  0.061800  0.742600  1.0  -0.5722
  O  O851  1  0.546270  0.530430  0.798130  1.0  -0.6143
  O  O852  1  0.585270  0.338630  0.980130  1.0  -0.6393
  O  O853  1  0.260170  0.430930  0.029430  1.0  -0.6253
  O  O854  1  0.282170  0.395130  0.075930  1.0  -0.5723
  O  O855  1  0.212930  0.863770  0.131470  1.0  -0.6143
  O  O856  1  0.251930  0.671970  0.313470  1.0  -0.6406
  O  O857  1  0.926830  0.764270  0.362770  1.0  -0.6194
  O  O858  1  0.948830  0.728470  0.409270  1.0  -0.5722
  O  O859  1  0.802900  0.682500  0.464800  1.0  -0.6174
  O  O860  1  0.994700  0.913300  0.646800  1.0  -0.6367
  O  O861  1  0.902400  0.495900  0.696100  1.0  -0.6237
  O  O862  1  0.938200  0.553700  0.742600  1.0  -0.566
  O  O863  1  0.469570  0.015830  0.798130  1.0  -0.6174
  O  O864  1  0.661370  0.246630  0.980130  1.0  -0.6415
  O  O865  1  0.569070  0.829230  0.029430  1.0  -0.6185
  O  O866  1  0.604870  0.887030  0.075930  1.0  -0.571
  O  O867  1  0.136230  0.349170  0.131470  1.0  -0.6174
  O  O868  1  0.328030  0.579970  0.313470  1.0  -0.6367
  O  O869  1  0.235730  0.162570  0.362770  1.0  -0.6237
  O  O870  1  0.271530  0.220370  0.409270  1.0  -0.566
  O  O871  1  0.879600  0.682500  0.464800  1.0  -0.6139
  O  O872  1  0.918600  0.913300  0.646800  1.0  -0.6377
  O  O873  1  0.593500  0.495900  0.696100  1.0  -0.6244
  O  O874  1  0.615500  0.553700  0.742600  1.0  -0.5714
  O  O875  1  0.546270  0.015830  0.798130  1.0  -0.6139
  O  O876  1  0.585270  0.246630  0.980130  1.0  -0.638
  O  O877  1  0.260170  0.829230  0.029430  1.0  -0.6244
  O  O878  1  0.282170  0.887030  0.075930  1.0  -0.5668
  O  O879  1  0.212930  0.349170  0.131470  1.0  -0.6139
  O  O880  1  0.251930  0.579970  0.313470  1.0  -0.6384
  O  O881  1  0.926830  0.162570  0.362770  1.0  -0.6244
  O  O882  1  0.948830  0.220370  0.409270  1.0  -0.5714
  O  O883  1  0.802900  0.120400  0.464800  1.0  -0.6146
  O  O884  1  0.994700  0.081400  0.646800  1.0  -0.6375
  O  O885  1  0.902400  0.406500  0.696100  1.0  -0.6191
  O  O886  1  0.938200  0.384500  0.742600  1.0  -0.5706
  O  O887  1  0.469570  0.453730  0.798130  1.0  -0.6146
  O  O888  1  0.661370  0.414730  0.980130  1.0  -0.6414
  O  O889  1  0.569070  0.739830  0.029430  1.0  -0.6264
  O  O890  1  0.604870  0.717830  0.075930  1.0  -0.5706
  O  O891  1  0.136230  0.787070  0.131470  1.0  -0.6146
  O  O892  1  0.328030  0.748070  0.313470  1.0  -0.6437
  O  O893  1  0.235730  0.073170  0.362770  1.0  -0.6191
  O  O894  1  0.271530  0.051170  0.409270  1.0  -0.5706
  O  O895  1  0.317500  0.197100  0.464800  1.0  -0.6168
  O  O896  1  0.086700  0.005300  0.646800  1.0  -0.6365
  O  O897  1  0.504100  0.097600  0.696100  1.0  -0.6235
  O  O898  1  0.446300  0.061800  0.742600  1.0  -0.567
  O  O899  1  0.984170  0.530430  0.798130  1.0  -0.6168
  O  O900  1  0.753370  0.338630  0.980130  1.0  -0.6401
  O  O901  1  0.170770  0.430930  0.029430  1.0  -0.6178
  O  O902  1  0.112970  0.395130  0.075930  1.0  -0.5722
  O  O903  1  0.650830  0.863770  0.131470  1.0  -0.6168
  O  O904  1  0.420030  0.671970  0.313470  1.0  -0.6365
  O  O905  1  0.837430  0.764270  0.362770  1.0  -0.6235
  O  O906  1  0.779630  0.728470  0.409270  1.0  -0.567
  O  O907  1  0.661600  0.415000  0.399800  1.0  -0.6438
  O  O908  1  0.277300  0.384500  0.471400  1.0  -0.62
  O  O909  1  0.252100  0.411900  0.423500  1.0  -0.6763
  O  O910  1  0.470500  0.456000  0.198100  1.0  -0.5933
  O  O911  1  0.328270  0.748330  0.733130  1.0  -0.6438
  O  O912  1  0.943970  0.717830  0.804730  1.0  -0.6199
  O  O913  1  0.918770  0.745230  0.756830  1.0  -0.6763
  O  O914  1  0.137170  0.789330  0.531430  1.0  -0.5933
  O  O915  1  0.994930  0.081670  0.066470  1.0  -0.6463
  O  O916  1  0.610630  0.051170  0.138070  1.0  -0.62
  O  O917  1  0.585430  0.078570  0.090170  1.0  -0.6673
  O  O918  1  0.803830  0.122670  0.864770  1.0  -0.5933
  O  O919  1  0.585000  0.246600  0.399800  1.0  -0.6453
  O  O920  1  0.615500  0.892800  0.471400  1.0  -0.6222
  O  O921  1  0.588100  0.840200  0.423500  1.0  -0.6677
  O  O922  1  0.544000  0.014500  0.198100  1.0  -0.5841
  O  O923  1  0.251670  0.579930  0.733130  1.0  -0.6452
  O  O924  1  0.282170  0.226130  0.804730  1.0  -0.6185
  O  O925  1  0.254770  0.173530  0.756830  1.0  -0.6677
  O  O926  1  0.210670  0.347830  0.531430  1.0  -0.593
  O  O927  1  0.918330  0.913270  0.066470  1.0  -0.6452
  O  O928  1  0.948830  0.559470  0.138070  1.0  -0.6222
  O  O929  1  0.921430  0.506870  0.090170  1.0  -0.6788
  O  O930  1  0.877330  0.681170  0.864770  1.0  -0.5841
  O  O931  1  0.753400  0.338400  0.399800  1.0  -0.6396
  O  O932  1  0.107200  0.722700  0.471400  1.0  -0.6209
  O  O933  1  0.159800  0.747900  0.423500  1.0  -0.6772
  O  O934  1  0.985500  0.529500  0.198100  1.0  -0.5943
  O  O935  1  0.420070  0.671730  0.733130  1.0  -0.6396
  O  O936  1  0.773870  0.056030  0.804730  1.0  -0.6249
  O  O937  1  0.826470  0.081230  0.756830  1.0  -0.6772
  O  O938  1  0.652170  0.862830  0.531430  1.0  -0.5856
  O  O939  1  0.086730  0.005070  0.066470  1.0  -0.6396
  O  O940  1  0.440530  0.389370  0.138070  1.0  -0.6209
  O  O941  1  0.493130  0.414570  0.090170  1.0  -0.6767
  O  O942  1  0.318830  0.196170  0.864770  1.0  -0.5943
  O  O943  1  0.585000  0.338400  0.399800  1.0  -0.6387
  O  O944  1  0.615500  0.722700  0.471400  1.0  -0.6197
  O  O945  1  0.588100  0.747900  0.423500  1.0  -0.6764
  O  O946  1  0.544000  0.529500  0.198100  1.0  -0.5949
  O  O947  1  0.251670  0.671730  0.733130  1.0  -0.6387
  O  O948  1  0.282170  0.056030  0.804730  1.0  -0.6197
  O  O949  1  0.254770  0.081230  0.756830  1.0  -0.6764
  O  O950  1  0.210670  0.862830  0.531430  1.0  -0.5949
  O  O951  1  0.918330  0.005070  0.066470  1.0  -0.6394
  O  O952  1  0.948830  0.389370  0.138070  1.0  -0.6197
  O  O953  1  0.921430  0.414570  0.090170  1.0  -0.6681
  O  O954  1  0.877330  0.196170  0.864770  1.0  -0.5949
  O  O955  1  0.753400  0.415000  0.399800  1.0  -0.6451
  O  O956  1  0.107200  0.384500  0.471400  1.0  -0.6233
  O  O957  1  0.159800  0.411900  0.423500  1.0  -0.6648
  O  O958  1  0.985500  0.456000  0.198100  1.0  -0.5829
  O  O959  1  0.420070  0.748330  0.733130  1.0  -0.645
  O  O960  1  0.773870  0.717830  0.804730  1.0  -0.6196
  O  O961  1  0.826470  0.745230  0.756830  1.0  -0.6648
  O  O962  1  0.652170  0.789330  0.531430  1.0  -0.593
  O  O963  1  0.086730  0.081670  0.066470  1.0  -0.6447
  O  O964  1  0.440530  0.051170  0.138070  1.0  -0.6233
  O  O965  1  0.493130  0.078570  0.090170  1.0  -0.6763
  O  O966  1  0.318830  0.122670  0.864770  1.0  -0.5829
  O  O967  1  0.661600  0.246600  0.399800  1.0  -0.6464
  O  O968  1  0.277300  0.892800  0.471400  1.0  -0.6185
  O  O969  1  0.252100  0.840200  0.423500  1.0  -0.6784
  O  O970  1  0.470500  0.014500  0.198100  1.0  -0.5927
  O  O971  1  0.328270  0.579930  0.733130  1.0  -0.6464
  O  O972  1  0.943970  0.226130  0.804730  1.0  -0.6227
  O  O973  1  0.918770  0.173530  0.756830  1.0  -0.6784
  O  O974  1  0.137170  0.347830  0.531430  1.0  -0.5843
  O  O975  1  0.994930  0.913270  0.066470  1.0  -0.6464
  O  O976  1  0.610630  0.559470  0.138070  1.0  -0.6185
  O  O977  1  0.585430  0.506870  0.090170  1.0  -0.6779
  O  O978  1  0.803830  0.681170  0.864770  1.0  -0.5926
