# generated using pymatgen
data_Pr20Sb60H24C72S12Cl41O138
_symmetry_space_group_name_H-M   'P 1'
_cell_length_a   19.34740000
_cell_length_b   43.60510000
_cell_length_c   43.60510000
_cell_angle_alpha   90.00000000
_cell_angle_beta   90.00000000
_cell_angle_gamma   90.00000000
_symmetry_Int_Tables_number   1
_chemical_formula_structural   Pr20Sb60H24C72S12Cl41O138
_chemical_formula_sum   'Pr40 Sb120 H48 C144 S24 Cl82 O276'
_cell_volume   36787.23818295
_cell_formula_units_Z   2
loop_
 _symmetry_equiv_pos_site_id
 _symmetry_equiv_pos_as_xyz
  1  'x, y, z'
loop_
 _atom_site_type_symbol
 _atom_site_label
 _atom_site_symmetry_multiplicity
 _atom_site_fract_x
 _atom_site_fract_y
 _atom_site_fract_z
 _atom_site_occupancy
 _atom_site_charge
  Pr  Pr1  1  0.786970  0.473030  0.875780  1.0  2.0816
  Pr  Pr2  1  0.778370  0.454550  0.766150  1.0  2.1502
  Pr  Pr3  1  0.635580  0.395370  0.836360  1.0  2.1443
  Pr  Pr4  1  0.584260  0.500620  0.817540  1.0  2.1851
  Pr  Pr5  1  0.160540  0.737400  0.696890  1.0  2.1739
  Pr  Pr6  1  0.786970  0.026970  0.624220  1.0  2.081
  Pr  Pr7  1  0.778370  0.045450  0.733850  1.0  2.151
  Pr  Pr8  1  0.635580  0.104630  0.663640  1.0  2.1438
  Pr  Pr9  1  0.584260  0.999380  0.682460  1.0  2.1859
  Pr  Pr10  1  0.160540  0.762600  0.803110  1.0  2.1737
  Pr  Pr11  1  0.286970  0.124220  0.973030  1.0  2.0844
  Pr  Pr12  1  0.278370  0.233850  0.954550  1.0  2.1519
  Pr  Pr13  1  0.135580  0.163640  0.895370  1.0  2.1416
  Pr  Pr14  1  0.084260  0.182460  0.000620  1.0  2.1856
  Pr  Pr15  1  0.660540  0.303110  0.237400  1.0  2.1735
  Pr  Pr16  1  0.286970  0.375780  0.526970  1.0  2.0809
  Pr  Pr17  1  0.278370  0.266150  0.545450  1.0  2.1504
  Pr  Pr18  1  0.135580  0.336360  0.604630  1.0  2.1424
  Pr  Pr19  1  0.084260  0.317540  0.499380  1.0  2.1862
  Pr  Pr20  1  0.660540  0.196890  0.262600  1.0  2.1738
  Pr  Pr21  1  0.213030  0.526970  0.124220  1.0  2.08
  Pr  Pr22  1  0.221630  0.545450  0.233850  1.0  2.1514
  Pr  Pr23  1  0.364420  0.604630  0.163640  1.0  2.1446
  Pr  Pr24  1  0.415740  0.499380  0.182460  1.0  2.1856
  Pr  Pr25  1  0.839460  0.262600  0.303110  1.0  2.1724
  Pr  Pr26  1  0.213030  0.973030  0.375780  1.0  2.0805
  Pr  Pr27  1  0.221630  0.954550  0.266150  1.0  2.1507
  Pr  Pr28  1  0.364420  0.895370  0.336360  1.0  2.1452
  Pr  Pr29  1  0.415740  0.000620  0.317540  1.0  2.1848
  Pr  Pr30  1  0.839460  0.237400  0.196890  1.0  2.1727
  Pr  Pr31  1  0.713030  0.875780  0.026970  1.0  2.0799
  Pr  Pr32  1  0.721630  0.766150  0.045450  1.0  2.1505
  Pr  Pr33  1  0.864420  0.836360  0.104630  1.0  2.1433
  Pr  Pr34  1  0.915740  0.817540  0.999380  1.0  2.1859
  Pr  Pr35  1  0.339460  0.696890  0.762600  1.0  2.1725
  Pr  Pr36  1  0.713030  0.624220  0.473030  1.0  2.0832
  Pr  Pr37  1  0.721630  0.733850  0.454550  1.0  2.1523
  Pr  Pr38  1  0.864420  0.663640  0.395370  1.0  2.1424
  Pr  Pr39  1  0.915740  0.682460  0.500620  1.0  2.1853
  Pr  Pr40  1  0.339460  0.803110  0.737400  1.0  2.1722
  Sb  Sb41  1  0.657870  0.425180  0.915350  1.0  0.8564
  Sb  Sb42  1  0.617040  0.505550  0.901960  1.0  0.9638
  Sb  Sb43  1  0.724300  0.548770  0.848610  1.0  0.8842
  Sb  Sb44  1  0.870910  0.513120  0.811310  1.0  0.8699
  Sb  Sb45  1  0.910220  0.433420  0.824720  1.0  0.7857
  Sb  Sb46  1  0.803880  0.388470  0.876740  1.0  0.8054
  Sb  Sb47  1  0.504950  0.446050  0.872540  1.0  0.895
  Sb  Sb48  1  0.717790  0.534200  0.766930  1.0  0.9418
  Sb  Sb49  1  0.797100  0.374840  0.795210  1.0  0.8736
  Sb  Sb50  1  0.605710  0.473970  0.737870  1.0  0.9026
  Sb  Sb51  1  0.642520  0.393900  0.751680  1.0  0.9899
  Sb  Sb52  1  0.496690  0.431160  0.790590  1.0  0.9458
  Sb  Sb53  1  0.184960  0.658020  0.729940  1.0  1.0568
  Sb  Sb54  1  0.183230  0.679400  0.810390  1.0  0.9755
  Sb  Sb55  1  0.051170  0.709490  0.758520  1.0  0.8355
  Sb  Sb56  1  0.657870  0.074820  0.584650  1.0  0.853
  Sb  Sb57  1  0.617040  0.994450  0.598040  1.0  0.9635
  Sb  Sb58  1  0.724300  0.951230  0.651390  1.0  0.878
  Sb  Sb59  1  0.870910  0.986880  0.688690  1.0  0.8678
  Sb  Sb60  1  0.910220  0.066580  0.675280  1.0  0.7869
  Sb  Sb61  1  0.803880  0.111530  0.623260  1.0  0.8065
  Sb  Sb62  1  0.504950  0.053950  0.627460  1.0  0.8947
  Sb  Sb63  1  0.717790  0.965800  0.733070  1.0  0.9422
  Sb  Sb64  1  0.797100  0.125160  0.704790  1.0  0.8776
  Sb  Sb65  1  0.605710  0.026030  0.762130  1.0  0.9021
  Sb  Sb66  1  0.642520  0.106100  0.748320  1.0  0.9891
  Sb  Sb67  1  0.496690  0.068840  0.709410  1.0  0.9467
  Sb  Sb68  1  0.184960  0.841980  0.770060  1.0  1.0609
  Sb  Sb69  1  0.183230  0.820600  0.689610  1.0  0.9671
  Sb  Sb70  1  0.051170  0.790510  0.741480  1.0  0.836
  Sb  Sb71  1  0.157870  0.084650  0.925180  1.0  0.8503
  Sb  Sb72  1  0.117040  0.098040  0.005550  1.0  0.9554
  Sb  Sb73  1  0.224300  0.151390  0.048770  1.0  0.8887
  Sb  Sb74  1  0.370910  0.188690  0.013120  1.0  0.8661
  Sb  Sb75  1  0.410220  0.175280  0.933420  1.0  0.7966
  Sb  Sb76  1  0.303880  0.123260  0.888470  1.0  0.8049
  Sb  Sb77  1  0.004950  0.127460  0.946050  1.0  0.9005
  Sb  Sb78  1  0.217790  0.233070  0.034200  1.0  0.9421
  Sb  Sb79  1  0.297100  0.204790  0.874840  1.0  0.8802
  Sb  Sb80  1  0.105710  0.262130  0.973970  1.0  0.9051
  Sb  Sb81  1  0.142520  0.248320  0.893900  1.0  0.9892
  Sb  Sb82  1  0.996690  0.209410  0.931160  1.0  0.9457
  Sb  Sb83  1  0.684960  0.270060  0.158020  1.0  1.0642
  Sb  Sb84  1  0.683230  0.189610  0.179400  1.0  0.9752
  Sb  Sb85  1  0.551170  0.241480  0.209490  1.0  0.8338
  Sb  Sb86  1  0.157870  0.415350  0.574820  1.0  0.855
  Sb  Sb87  1  0.117040  0.401960  0.494450  1.0  0.9615
  Sb  Sb88  1  0.224300  0.348610  0.451230  1.0  0.8854
  Sb  Sb89  1  0.370910  0.311310  0.486880  1.0  0.8631
  Sb  Sb90  1  0.410220  0.324720  0.566580  1.0  0.7967
  Sb  Sb91  1  0.303880  0.376740  0.611530  1.0  0.8091
  Sb  Sb92  1  0.004950  0.372540  0.553950  1.0  0.902
  Sb  Sb93  1  0.217790  0.266930  0.465800  1.0  0.9432
  Sb  Sb94  1  0.297100  0.295210  0.625160  1.0  0.8819
  Sb  Sb95  1  0.105710  0.237870  0.526030  1.0  0.8979
  Sb  Sb96  1  0.142520  0.251680  0.606100  1.0  0.9883
  Sb  Sb97  1  0.996690  0.290590  0.568840  1.0  0.9467
  Sb  Sb98  1  0.684960  0.229940  0.341980  1.0  1.064
  Sb  Sb99  1  0.683230  0.310390  0.320600  1.0  0.9763
  Sb  Sb100  1  0.551170  0.258520  0.290510  1.0  0.8342
  Sb  Sb101  1  0.342130  0.574820  0.084650  1.0  0.8521
  Sb  Sb102  1  0.382960  0.494450  0.098040  1.0  0.963
  Sb  Sb103  1  0.275700  0.451230  0.151390  1.0  0.8765
  Sb  Sb104  1  0.129090  0.486880  0.188690  1.0  0.8741
  Sb  Sb105  1  0.089780  0.566580  0.175280  1.0  0.7944
  Sb  Sb106  1  0.196120  0.611530  0.123260  1.0  0.8062
  Sb  Sb107  1  0.495050  0.553950  0.127460  1.0  0.8921
  Sb  Sb108  1  0.282210  0.465800  0.233070  1.0  0.9409
  Sb  Sb109  1  0.202900  0.625160  0.204790  1.0  0.8779
  Sb  Sb110  1  0.394290  0.526030  0.262130  1.0  0.9053
  Sb  Sb111  1  0.357480  0.606100  0.248320  1.0  0.9904
  Sb  Sb112  1  0.503310  0.568840  0.209410  1.0  0.9414
  Sb  Sb113  1  0.815040  0.341980  0.270060  1.0  1.0611
  Sb  Sb114  1  0.816770  0.320600  0.189610  1.0  0.9744
  Sb  Sb115  1  0.948830  0.290510  0.241480  1.0  0.8283
  Sb  Sb116  1  0.342130  0.925180  0.415350  1.0  0.8568
  Sb  Sb117  1  0.382960  0.005550  0.401960  1.0  0.9647
  Sb  Sb118  1  0.275700  0.048770  0.348610  1.0  0.8828
  Sb  Sb119  1  0.129090  0.013120  0.311310  1.0  0.8765
  Sb  Sb120  1  0.089780  0.933420  0.324720  1.0  0.7936
  Sb  Sb121  1  0.196120  0.888470  0.376740  1.0  0.8051
  Sb  Sb122  1  0.495050  0.946050  0.372540  1.0  0.8927
  Sb  Sb123  1  0.282210  0.034200  0.266930  1.0  0.9417
  Sb  Sb124  1  0.202900  0.874840  0.295210  1.0  0.8732
  Sb  Sb125  1  0.394290  0.973970  0.237870  1.0  0.9031
  Sb  Sb126  1  0.357480  0.893900  0.251680  1.0  0.9898
  Sb  Sb127  1  0.503310  0.931160  0.290590  1.0  0.9403
  Sb  Sb128  1  0.815040  0.158020  0.229940  1.0  1.0561
  Sb  Sb129  1  0.816770  0.179400  0.310390  1.0  0.9701
  Sb  Sb130  1  0.948830  0.209490  0.258520  1.0  0.8275
  Sb  Sb131  1  0.842130  0.915350  0.074820  1.0  0.8572
  Sb  Sb132  1  0.882960  0.901960  0.994450  1.0  0.9566
  Sb  Sb133  1  0.775700  0.848610  0.951230  1.0  0.8855
  Sb  Sb134  1  0.629090  0.811310  0.986880  1.0  0.8704
  Sb  Sb135  1  0.589780  0.824720  0.066580  1.0  0.804
  Sb  Sb136  1  0.696120  0.876740  0.111530  1.0  0.8075
  Sb  Sb137  1  0.995050  0.872540  0.053950  1.0  0.8997
  Sb  Sb138  1  0.782210  0.766930  0.965800  1.0  0.9437
  Sb  Sb139  1  0.702900  0.795210  0.125160  1.0  0.8798
  Sb  Sb140  1  0.894290  0.737870  0.026030  1.0  0.899
  Sb  Sb141  1  0.857480  0.751680  0.106100  1.0  0.9889
  Sb  Sb142  1  0.003310  0.790590  0.068840  1.0  0.9405
  Sb  Sb143  1  0.315040  0.729940  0.841980  1.0  1.0639
  Sb  Sb144  1  0.316770  0.810390  0.820600  1.0  0.9777
  Sb  Sb145  1  0.448830  0.758520  0.790510  1.0  0.8248
  Sb  Sb146  1  0.842130  0.584650  0.425180  1.0  0.8478
  Sb  Sb147  1  0.882960  0.598040  0.505550  1.0  0.9607
  Sb  Sb148  1  0.775700  0.651390  0.548770  1.0  0.8869
  Sb  Sb149  1  0.629090  0.688690  0.513120  1.0  0.8726
  Sb  Sb150  1  0.589780  0.675280  0.433420  1.0  0.804
  Sb  Sb151  1  0.696120  0.623260  0.388470  1.0  0.8051
  Sb  Sb152  1  0.995050  0.627460  0.446050  1.0  0.899
  Sb  Sb153  1  0.782210  0.733070  0.534200  1.0  0.9401
  Sb  Sb154  1  0.702900  0.704790  0.374840  1.0  0.8811
  Sb  Sb155  1  0.894290  0.762130  0.473970  1.0  0.9063
  Sb  Sb156  1  0.857480  0.748320  0.393900  1.0  0.9886
  Sb  Sb157  1  0.003310  0.709410  0.431160  1.0  0.9409
  Sb  Sb158  1  0.315040  0.770060  0.658020  1.0  1.0636
  Sb  Sb159  1  0.316770  0.689610  0.679400  1.0  0.9746
  Sb  Sb160  1  0.448830  0.741480  0.709490  1.0  0.8272
  H  H161  1  0.428500  0.530300  0.756200  1.0  0.1363
  H  H162  1  0.335700  0.561300  0.742300  1.0  0.1272
  H  H163  1  0.463300  0.600700  0.904700  1.0  0.1457
  H  H164  1  0.378300  0.638500  0.888500  1.0  0.1452
  H  H165  1  0.011400  0.391400  0.665400  1.0  0.1376
  H  H166  1  0.940000  0.414000  0.705300  1.0  0.1359
  H  H167  1  0.428500  0.969700  0.743800  1.0  0.1359
  H  H168  1  0.335700  0.938700  0.757700  1.0  0.1268
  H  H169  1  0.463300  0.899300  0.595300  1.0  0.146
  H  H170  1  0.378300  0.861500  0.611500  1.0  0.1413
  H  H171  1  0.011400  0.108600  0.834600  1.0  0.1369
  H  H172  1  0.940000  0.086000  0.794700  1.0  0.1362
  H  H173  1  0.928500  0.243800  0.030300  1.0  0.1346
  H  H174  1  0.835700  0.257700  0.061300  1.0  0.1268
  H  H175  1  0.963300  0.095300  0.100700  1.0  0.1484
  H  H176  1  0.878300  0.111500  0.138500  1.0  0.1449
  H  H177  1  0.511400  0.334600  0.891400  1.0  0.1378
  H  H178  1  0.440000  0.294700  0.914000  1.0  0.137
  H  H179  1  0.928500  0.256200  0.469700  1.0  0.1349
  H  H180  1  0.835700  0.242300  0.438700  1.0  0.1268
  H  H181  1  0.963300  0.404700  0.399300  1.0  0.1492
  H  H182  1  0.878300  0.388500  0.361500  1.0  0.1445
  H  H183  1  0.511400  0.165400  0.608600  1.0  0.1375
  H  H184  1  0.440000  0.205300  0.586000  1.0  0.1371
  H  H185  1  0.571500  0.469700  0.243800  1.0  0.1363
  H  H186  1  0.664300  0.438700  0.257700  1.0  0.125
  H  H187  1  0.536700  0.399300  0.095300  1.0  0.1454
  H  H188  1  0.621700  0.361500  0.111500  1.0  0.1429
  H  H189  1  0.988600  0.608600  0.334600  1.0  0.1377
  H  H190  1  0.060000  0.586000  0.294700  1.0  0.1357
  H  H191  1  0.571500  0.030300  0.256200  1.0  0.1365
  H  H192  1  0.664300  0.061300  0.242300  1.0  0.1265
  H  H193  1  0.536700  0.100700  0.404700  1.0  0.1464
  H  H194  1  0.621700  0.138500  0.388500  1.0  0.1443
  H  H195  1  0.988600  0.891400  0.165400  1.0  0.1374
  H  H196  1  0.060000  0.914000  0.205300  1.0  0.1354
  H  H197  1  0.071500  0.756200  0.969700  1.0  0.1349
  H  H198  1  0.164300  0.742300  0.938700  1.0  0.1255
  H  H199  1  0.036700  0.904700  0.899300  1.0  0.148
  H  H200  1  0.121700  0.888500  0.861500  1.0  0.1447
  H  H201  1  0.488600  0.665400  0.108600  1.0  0.1388
  H  H202  1  0.560000  0.705300  0.086000  1.0  0.1365
  H  H203  1  0.071500  0.743800  0.530300  1.0  0.1346
  H  H204  1  0.164300  0.757700  0.561300  1.0  0.1262
  H  H205  1  0.036700  0.595300  0.600700  1.0  0.1494
  H  H206  1  0.121700  0.611500  0.638500  1.0  0.145
  H  H207  1  0.488600  0.834600  0.391400  1.0  0.1383
  H  H208  1  0.560000  0.794700  0.414000  1.0  0.1369
  C  C209  1  0.556600  0.556600  0.759900  1.0  0.7568
  C  C210  1  0.490100  0.568400  0.753300  1.0  -0.1222
  C  C211  1  0.431500  0.551200  0.752200  1.0  -0.0294
  C  C212  1  0.379700  0.569500  0.744600  1.0  -0.0259
  C  C213  1  0.389400  0.600600  0.739900  1.0  -0.1149
  C  C214  1  0.343500  0.624500  0.732500  1.0  0.7324
  C  C215  1  0.529100  0.561700  0.859700  1.0  0.7198
  C  C216  1  0.476500  0.587300  0.859200  1.0  -0.1509
  C  C217  1  0.450400  0.604000  0.884400  1.0  -0.0528
  C  C218  1  0.402300  0.626100  0.874800  1.0  -0.0717
  C  C219  1  0.393500  0.627900  0.844300  1.0  -0.1432
  C  C220  1  0.350700  0.650200  0.828200  1.0  0.7622
  C  C221  1  0.961500  0.347300  0.626200  1.0  0.8194
  C  C222  1  0.932900  0.364400  0.651800  1.0  -0.1477
  C  C223  1  0.965700  0.385700  0.668800  1.0  -0.0663
  C  C224  1  0.924700  0.398700  0.692100  1.0  -0.0548
  C  C225  1  0.860500  0.386400  0.693300  1.0  -0.1481
  C  C226  1  0.804600  0.393700  0.715600  1.0  0.7635
  C  C227  1  0.556600  0.943400  0.740100  1.0  0.7579
  C  C228  1  0.490100  0.931600  0.746700  1.0  -0.1232
  C  C229  1  0.431500  0.948800  0.747800  1.0  -0.0303
  C  C230  1  0.379700  0.930500  0.755400  1.0  -0.0264
  C  C231  1  0.389400  0.899400  0.760100  1.0  -0.1157
  C  C232  1  0.343500  0.875500  0.767500  1.0  0.7331
  C  C233  1  0.529100  0.938300  0.640300  1.0  0.721
  C  C234  1  0.476500  0.912700  0.640800  1.0  -0.1477
  C  C235  1  0.450400  0.896000  0.615600  1.0  -0.0576
  C  C236  1  0.402300  0.873900  0.625200  1.0  -0.0742
  C  C237  1  0.393500  0.872100  0.655700  1.0  -0.1482
  C  C238  1  0.350700  0.849800  0.671800  1.0  0.7639
  C  C239  1  0.961500  0.152700  0.873800  1.0  0.8188
  C  C240  1  0.932900  0.135600  0.848200  1.0  -0.1475
  C  C241  1  0.965700  0.114300  0.831200  1.0  -0.066
  C  C242  1  0.924700  0.101300  0.807900  1.0  -0.0558
  C  C243  1  0.860500  0.113600  0.806700  1.0  -0.1472
  C  C244  1  0.804600  0.106300  0.784400  1.0  0.7639
  C  C245  1  0.056600  0.240100  0.056600  1.0  0.757
  C  C246  1  0.990100  0.246700  0.068400  1.0  -0.1391
  C  C247  1  0.931500  0.247800  0.051200  1.0  -0.0205
  C  C248  1  0.879700  0.255400  0.069500  1.0  -0.0366
  C  C249  1  0.889400  0.260100  0.100600  1.0  -0.1146
  C  C250  1  0.843500  0.267500  0.124500  1.0  0.7325
  C  C251  1  0.029100  0.140300  0.061700  1.0  0.7213
  C  C252  1  0.976500  0.140800  0.087300  1.0  -0.1456
  C  C253  1  0.950400  0.115600  0.104000  1.0  -0.0596
  C  C254  1  0.902300  0.125200  0.126100  1.0  -0.0711
  C  C255  1  0.893500  0.155700  0.127900  1.0  -0.1412
  C  C256  1  0.850700  0.171800  0.150200  1.0  0.7644
  C  C257  1  0.461500  0.373800  0.847300  1.0  0.8191
  C  C258  1  0.432900  0.348200  0.864400  1.0  -0.1485
  C  C259  1  0.465700  0.331200  0.885700  1.0  -0.0674
  C  C260  1  0.424700  0.307900  0.898700  1.0  -0.0557
  C  C261  1  0.360500  0.306700  0.886400  1.0  -0.1481
  C  C262  1  0.304600  0.284400  0.893700  1.0  0.7642
  C  C263  1  0.056600  0.259900  0.443400  1.0  0.7575
  C  C264  1  0.990100  0.253300  0.431600  1.0  -0.1324
  C  C265  1  0.931500  0.252200  0.448800  1.0  -0.0261
  C  C266  1  0.879700  0.244600  0.430500  1.0  -0.0352
  C  C267  1  0.889400  0.239900  0.399400  1.0  -0.1065
  C  C268  1  0.843500  0.232500  0.375500  1.0  0.7331
  C  C269  1  0.029100  0.359700  0.438300  1.0  0.7217
  C  C270  1  0.976500  0.359200  0.412700  1.0  -0.146
  C  C271  1  0.950400  0.384400  0.396000  1.0  -0.0598
  C  C272  1  0.902300  0.374800  0.373900  1.0  -0.0739
  C  C273  1  0.893500  0.344300  0.372100  1.0  -0.1412
  C  C274  1  0.850700  0.328200  0.349800  1.0  0.7633
  C  C275  1  0.461500  0.126200  0.652700  1.0  0.8186
  C  C276  1  0.432900  0.151800  0.635600  1.0  -0.1495
  C  C277  1  0.465700  0.168800  0.614300  1.0  -0.0669
  C  C278  1  0.424700  0.192100  0.601300  1.0  -0.0555
  C  C279  1  0.360500  0.193300  0.613600  1.0  -0.1471
  C  C280  1  0.304600  0.215600  0.606300  1.0  0.7644
  C  C281  1  0.443400  0.443400  0.240100  1.0  0.7579
  C  C282  1  0.509900  0.431600  0.246700  1.0  -0.1234
  C  C283  1  0.568500  0.448800  0.247800  1.0  -0.0291
  C  C284  1  0.620300  0.430500  0.255400  1.0  -0.0287
  C  C285  1  0.610600  0.399400  0.260100  1.0  -0.1157
  C  C286  1  0.656500  0.375500  0.267500  1.0  0.7327
  C  C287  1  0.470900  0.438300  0.140300  1.0  0.721
  C  C288  1  0.523500  0.412700  0.140800  1.0  -0.1476
  C  C289  1  0.549600  0.396000  0.115600  1.0  -0.0546
  C  C290  1  0.597700  0.373900  0.125200  1.0  -0.0724
  C  C291  1  0.606500  0.372100  0.155700  1.0  -0.1394
  C  C292  1  0.649300  0.349800  0.171800  1.0  0.764
  C  C293  1  0.038500  0.652700  0.373800  1.0  0.8202
  C  C294  1  0.067100  0.635600  0.348200  1.0  -0.1475
  C  C295  1  0.034300  0.614300  0.331200  1.0  -0.0666
  C  C296  1  0.075300  0.601300  0.307900  1.0  -0.0566
  C  C297  1  0.139500  0.613600  0.306700  1.0  -0.1476
  C  C298  1  0.195400  0.606300  0.284400  1.0  0.7639
  C  C299  1  0.443400  0.056600  0.259900  1.0  0.7573
  C  C300  1  0.509900  0.068400  0.253300  1.0  -0.1223
  C  C301  1  0.568500  0.051200  0.252200  1.0  -0.0287
  C  C302  1  0.620300  0.069500  0.244600  1.0  -0.0281
  C  C303  1  0.610600  0.100600  0.239900  1.0  -0.1147
  C  C304  1  0.656500  0.124500  0.232500  1.0  0.7319
  C  C305  1  0.470900  0.061700  0.359700  1.0  0.7198
  C  C306  1  0.523500  0.087300  0.359200  1.0  -0.1512
  C  C307  1  0.549600  0.104000  0.384400  1.0  -0.0575
  C  C308  1  0.597700  0.126100  0.374800  1.0  -0.0736
  C  C309  1  0.606500  0.127900  0.344300  1.0  -0.151
  C  C310  1  0.649300  0.150200  0.328200  1.0  0.763
  C  C311  1  0.038500  0.847300  0.126200  1.0  0.8206
  C  C312  1  0.067100  0.864400  0.151800  1.0  -0.1472
  C  C313  1  0.034300  0.885700  0.168800  1.0  -0.067
  C  C314  1  0.075300  0.898700  0.192100  1.0  -0.0564
  C  C315  1  0.139500  0.886400  0.193300  1.0  -0.1476
  C  C316  1  0.195400  0.893700  0.215600  1.0  0.7631
  C  C317  1  0.943400  0.759900  0.943400  1.0  0.7577
  C  C318  1  0.009900  0.753300  0.931600  1.0  -0.1394
  C  C319  1  0.068500  0.752200  0.948800  1.0  -0.0209
  C  C320  1  0.120300  0.744600  0.930500  1.0  -0.0383
  C  C321  1  0.110600  0.739900  0.899400  1.0  -0.1144
  C  C322  1  0.156500  0.732500  0.875500  1.0  0.7326
  C  C323  1  0.970900  0.859700  0.938300  1.0  0.7216
  C  C324  1  0.023500  0.859200  0.912700  1.0  -0.1462
  C  C325  1  0.049600  0.884400  0.896000  1.0  -0.0607
  C  C326  1  0.097700  0.874800  0.873900  1.0  -0.074
  C  C327  1  0.106500  0.844300  0.872100  1.0  -0.1409
  C  C328  1  0.149300  0.828200  0.849800  1.0  0.7638
  C  C329  1  0.538500  0.626200  0.152700  1.0  0.8199
  C  C330  1  0.567100  0.651800  0.135600  1.0  -0.1493
  C  C331  1  0.534300  0.668800  0.114300  1.0  -0.0676
  C  C332  1  0.575300  0.692100  0.101300  1.0  -0.0564
  C  C333  1  0.639500  0.693300  0.113600  1.0  -0.1474
  C  C334  1  0.695400  0.715600  0.106300  1.0  0.7643
  C  C335  1  0.943400  0.740100  0.556600  1.0  0.7571
  C  C336  1  0.009900  0.746700  0.568400  1.0  -0.1318
  C  C337  1  0.068500  0.747800  0.551200  1.0  -0.0249
  C  C338  1  0.120300  0.755400  0.569500  1.0  -0.0378
  C  C339  1  0.110600  0.760100  0.600600  1.0  -0.1063
  C  C340  1  0.156500  0.767500  0.624500  1.0  0.732
  C  C341  1  0.970900  0.640300  0.561700  1.0  0.721
  C  C342  1  0.023500  0.640800  0.587300  1.0  -0.1458
  C  C343  1  0.049600  0.615600  0.604000  1.0  -0.0603
  C  C344  1  0.097700  0.625200  0.626100  1.0  -0.0711
  C  C345  1  0.106500  0.655700  0.627900  1.0  -0.1408
  C  C346  1  0.149300  0.671800  0.650200  1.0  0.7645
  C  C347  1  0.538500  0.873800  0.347300  1.0  0.8197
  C  C348  1  0.567100  0.848200  0.364400  1.0  -0.1484
  C  C349  1  0.534300  0.831200  0.385700  1.0  -0.0681
  C  C350  1  0.575300  0.807900  0.398700  1.0  -0.0571
  C  C351  1  0.639500  0.806700  0.386400  1.0  -0.1483
  C  C352  1  0.695400  0.784400  0.393700  1.0  0.7638
  S  S353  1  0.848900  0.359560  0.664850  1.0  0.1478
  S  S354  1  0.441500  0.600820  0.825820  1.0  0.1847
  S  S355  1  0.475100  0.605770  0.744700  1.0  0.1712
  S  S356  1  0.848900  0.140440  0.835150  1.0  0.148
  S  S357  1  0.441500  0.899180  0.674180  1.0  0.1828
  S  S358  1  0.475100  0.894230  0.755300  1.0  0.171
  S  S359  1  0.348900  0.335150  0.859560  1.0  0.1478
  S  S360  1  0.941500  0.174180  0.100820  1.0  0.1872
  S  S361  1  0.975100  0.255300  0.105770  1.0  0.1707
  S  S362  1  0.348900  0.164850  0.640440  1.0  0.1481
  S  S363  1  0.941500  0.325820  0.399180  1.0  0.1869
  S  S364  1  0.975100  0.244700  0.394230  1.0  0.1707
  S  S365  1  0.151100  0.640440  0.335150  1.0  0.1472
  S  S366  1  0.558500  0.399180  0.174180  1.0  0.1827
  S  S367  1  0.524900  0.394230  0.255300  1.0  0.1727
  S  S368  1  0.151100  0.859560  0.164850  1.0  0.1473
  S  S369  1  0.558500  0.100820  0.325820  1.0  0.1845
  S  S370  1  0.524900  0.105770  0.244700  1.0  0.1734
  S  S371  1  0.651100  0.664850  0.140440  1.0  0.1467
  S  S372  1  0.058500  0.825820  0.899180  1.0  0.1868
  S  S373  1  0.024900  0.744700  0.894230  1.0  0.1701
  S  S374  1  0.651100  0.835150  0.359560  1.0  0.1472
  S  S375  1  0.058500  0.674180  0.600820  1.0  0.1874
  S  S376  1  0.024900  0.755300  0.605770  1.0  0.1759
  Cl  Cl377  1  0.695900  0.455700  0.824900  1.0  -0.3141
  Cl  Cl378  1  0.932000  0.489100  0.877330  1.0  -0.4684
  Cl  Cl379  1  0.820600  0.441750  0.932080  1.0  -0.4479
  Cl  Cl380  1  0.771800  0.527980  0.915150  1.0  -0.4682
  Cl  Cl381  1  0.930800  0.470150  0.762170  1.0  -0.4437
  Cl  Cl382  1  0.761300  0.487670  0.708720  1.0  -0.417
  Cl  Cl383  1  0.649000  0.339300  0.800040  1.0  -0.4548
  Cl  Cl384  1  0.663700  0.354460  0.890130  1.0  -0.4629
  Cl  Cl385  1  0.430500  0.489130  0.820930  1.0  -0.472
  Cl  Cl386  1  0.003000  0.735140  0.696860  1.0  -0.4359
  Cl  Cl387  1  0.695900  0.044300  0.675100  1.0  -0.3147
  Cl  Cl388  1  0.932000  0.010900  0.622670  1.0  -0.4695
  Cl  Cl389  1  0.820600  0.058250  0.567920  1.0  -0.4536
  Cl  Cl390  1  0.771800  0.972020  0.584850  1.0  -0.4629
  Cl  Cl391  1  0.930800  0.029850  0.737830  1.0  -0.4439
  Cl  Cl392  1  0.761300  0.012330  0.791280  1.0  -0.4176
  Cl  Cl393  1  0.649000  0.160700  0.699960  1.0  -0.4566
  Cl  Cl394  1  0.663700  0.145540  0.609870  1.0  -0.4615
  Cl  Cl395  1  0.430500  0.010870  0.679070  1.0  -0.4718
  Cl  Cl396  1  0.003000  0.764860  0.803140  1.0  -0.4363
  Cl  Cl397  1  0.195900  0.175100  0.955700  1.0  -0.3139
  Cl  Cl398  1  0.432000  0.122670  0.989100  1.0  -0.4627
  Cl  Cl399  1  0.320600  0.067920  0.941750  1.0  -0.4374
  Cl  Cl400  1  0.271800  0.084850  0.027980  1.0  -0.4638
  Cl  Cl401  1  0.430800  0.237830  0.970150  1.0  -0.4443
  Cl  Cl402  1  0.261300  0.291280  0.987670  1.0  -0.4157
  Cl  Cl403  1  0.149000  0.199960  0.839300  1.0  -0.4522
  Cl  Cl404  1  0.163700  0.109870  0.854460  1.0  -0.4594
  Cl  Cl405  1  0.930500  0.179070  0.989130  1.0  -0.477
  Cl  Cl406  1  0.503000  0.303140  0.235140  1.0  -0.4352
  Cl  Cl407  1  0.195900  0.324900  0.544300  1.0  -0.3154
  Cl  Cl408  1  0.432000  0.377330  0.510900  1.0  -0.4622
  Cl  Cl409  1  0.320600  0.432080  0.558250  1.0  -0.4408
  Cl  Cl410  1  0.271800  0.415150  0.472020  1.0  -0.4624
  Cl  Cl411  1  0.430800  0.262170  0.529850  1.0  -0.4448
  Cl  Cl412  1  0.261300  0.208720  0.512330  1.0  -0.4159
  Cl  Cl413  1  0.149000  0.300040  0.660700  1.0  -0.4537
  Cl  Cl414  1  0.163700  0.390130  0.645540  1.0  -0.4588
  Cl  Cl415  1  0.930500  0.320930  0.510870  1.0  -0.4716
  Cl  Cl416  1  0.503000  0.196860  0.264860  1.0  -0.4358
  Cl  Cl417  1  0.304100  0.544300  0.175100  1.0  -0.3166
  Cl  Cl418  1  0.068000  0.510900  0.122670  1.0  -0.4685
  Cl  Cl419  1  0.179400  0.558250  0.067920  1.0  -0.4496
  Cl  Cl420  1  0.228200  0.472020  0.084850  1.0  -0.4679
  Cl  Cl421  1  0.069200  0.529850  0.237830  1.0  -0.4449
  Cl  Cl422  1  0.238700  0.512330  0.291280  1.0  -0.4171
  Cl  Cl423  1  0.351000  0.660700  0.199960  1.0  -0.4565
  Cl  Cl424  1  0.336300  0.645540  0.109870  1.0  -0.4626
  Cl  Cl425  1  0.569500  0.510870  0.179070  1.0  -0.4715
  Cl  Cl426  1  0.997000  0.264860  0.303140  1.0  -0.443
  Cl  Cl427  1  0.304100  0.955700  0.324900  1.0  -0.3159
  Cl  Cl428  1  0.068000  0.989100  0.377330  1.0  -0.4692
  Cl  Cl429  1  0.179400  0.941750  0.432080  1.0  -0.4519
  Cl  Cl430  1  0.228200  0.027980  0.415150  1.0  -0.4635
  Cl  Cl431  1  0.069200  0.970150  0.262170  1.0  -0.4448
  Cl  Cl432  1  0.238700  0.987670  0.208720  1.0  -0.416
  Cl  Cl433  1  0.351000  0.839300  0.300040  1.0  -0.4548
  Cl  Cl434  1  0.336300  0.854460  0.390130  1.0  -0.4631
  Cl  Cl435  1  0.569500  0.989130  0.320930  1.0  -0.4717
  Cl  Cl436  1  0.997000  0.235140  0.196860  1.0  -0.4422
  Cl  Cl437  1  0.804100  0.824900  0.044300  1.0  -0.3172
  Cl  Cl438  1  0.568000  0.877330  0.010900  1.0  -0.4643
  Cl  Cl439  1  0.679400  0.932080  0.058250  1.0  -0.4393
  Cl  Cl440  1  0.728200  0.915150  0.972020  1.0  -0.4638
  Cl  Cl441  1  0.569200  0.762170  0.029850  1.0  -0.4458
  Cl  Cl442  1  0.738700  0.708720  0.012330  1.0  -0.4154
  Cl  Cl443  1  0.851000  0.800040  0.160700  1.0  -0.4537
  Cl  Cl444  1  0.836300  0.890130  0.145540  1.0  -0.4601
  Cl  Cl445  1  0.069500  0.820930  0.010870  1.0  -0.4765
  Cl  Cl446  1  0.497000  0.696860  0.764860  1.0  -0.4426
  Cl  Cl447  1  0.804100  0.675100  0.455700  1.0  -0.3157
  Cl  Cl448  1  0.568000  0.622670  0.489100  1.0  -0.4623
  Cl  Cl449  1  0.679400  0.567920  0.441750  1.0  -0.4393
  Cl  Cl450  1  0.728200  0.584850  0.527980  1.0  -0.4604
  Cl  Cl451  1  0.569200  0.737830  0.470150  1.0  -0.4447
  Cl  Cl452  1  0.738700  0.791280  0.487670  1.0  -0.4153
  Cl  Cl453  1  0.851000  0.699960  0.339300  1.0  -0.4522
  Cl  Cl454  1  0.836300  0.609870  0.354460  1.0  -0.4601
  Cl  Cl455  1  0.069500  0.679070  0.489130  1.0  -0.4719
  Cl  Cl456  1  0.497000  0.803140  0.735140  1.0  -0.4416
  Cl  Cl457  1  0.250000  0.750000  0.750000  1.0  -0.3284
  Cl  Cl458  1  0.750000  0.250000  0.250000  1.0  -0.3284
  O  O459  1  0.668700  0.513400  0.863000  1.0  -0.8082
  O  O460  1  0.801900  0.520300  0.844400  1.0  -0.7546
  O  O461  1  0.848100  0.469700  0.820800  1.0  -0.7992
  O  O462  1  0.851700  0.426100  0.861900  1.0  -0.7322
  O  O463  1  0.725400  0.417800  0.881500  1.0  -0.7825
  O  O464  1  0.678800  0.468400  0.905100  1.0  -0.7522
  O  O465  1  0.552600  0.485600  0.871800  1.0  -0.8091
  O  O466  1  0.682200  0.536900  0.809300  1.0  -0.8373
  O  O467  1  0.800500  0.509100  0.779400  1.0  -0.7572
  O  O468  1  0.845100  0.415000  0.795300  1.0  -0.7934
  O  O469  1  0.758400  0.379200  0.837000  1.0  -0.7518
  O  O470  1  0.587400  0.421200  0.883000  1.0  -0.8059
  O  O471  1  0.543100  0.440800  0.830100  1.0  -0.8044
  O  O472  1  0.672700  0.492900  0.767800  1.0  -0.78
  O  O473  1  0.716400  0.400200  0.782400  1.0  -0.8128
  O  O474  1  0.578300  0.403500  0.786100  1.0  -0.7617
  O  O475  1  0.550400  0.467000  0.775300  1.0  -0.7571
  O  O476  1  0.664400  0.437100  0.742000  1.0  -0.799
  O  O477  1  0.250300  0.689000  0.714100  1.0  -0.8025
  O  O478  1  0.118700  0.694000  0.728400  1.0  -0.7808
  O  O479  1  0.118300  0.710100  0.793200  1.0  -0.7535
  O  O480  1  0.226700  0.669500  0.770800  1.0  -0.8174
  O  O481  1  0.560500  0.530300  0.768200  1.0  -0.6383
  O  O482  1  0.607800  0.574400  0.756800  1.0  -0.4874
  O  O483  1  0.281500  0.619000  0.726700  1.0  -0.5765
  O  O484  1  0.363300  0.650500  0.733200  1.0  -0.615
  O  O485  1  0.554300  0.555800  0.884200  1.0  -0.5389
  O  O486  1  0.539300  0.548700  0.834600  1.0  -0.6404
  O  O487  1  0.304400  0.662900  0.841700  1.0  -0.4564
  O  O488  1  0.364600  0.656900  0.801100  1.0  -0.659
  O  O489  1  0.025600  0.344600  0.625800  1.0  -0.7157
  O  O490  1  0.921700  0.334700  0.607600  1.0  -0.4594
  O  O491  1  0.816100  0.417800  0.730600  1.0  -0.7217
  O  O492  1  0.752600  0.378100  0.716800  1.0  -0.4668
  O  O493  1  0.668700  0.986600  0.637000  1.0  -0.8057
  O  O494  1  0.801900  0.979700  0.655600  1.0  -0.7543
  O  O495  1  0.848100  0.030300  0.679200  1.0  -0.799
  O  O496  1  0.851700  0.073900  0.638100  1.0  -0.732
  O  O497  1  0.725400  0.082200  0.618500  1.0  -0.7822
  O  O498  1  0.678800  0.031600  0.594900  1.0  -0.7514
  O  O499  1  0.552600  0.014400  0.628200  1.0  -0.8097
  O  O500  1  0.682200  0.963100  0.690700  1.0  -0.8388
  O  O501  1  0.800500  0.990900  0.720600  1.0  -0.7589
  O  O502  1  0.845100  0.085000  0.704700  1.0  -0.7942
  O  O503  1  0.758400  0.120800  0.663000  1.0  -0.7514
  O  O504  1  0.587400  0.078800  0.617000  1.0  -0.8028
  O  O505  1  0.543100  0.059200  0.669900  1.0  -0.8045
  O  O506  1  0.672700  0.007100  0.732200  1.0  -0.782
  O  O507  1  0.716400  0.099800  0.717600  1.0  -0.8138
  O  O508  1  0.578300  0.096500  0.713900  1.0  -0.7608
  O  O509  1  0.550400  0.033000  0.724700  1.0  -0.7582
  O  O510  1  0.664400  0.062900  0.758000  1.0  -0.7987
  O  O511  1  0.250300  0.811000  0.785900  1.0  -0.8035
  O  O512  1  0.118700  0.806000  0.771600  1.0  -0.7806
  O  O513  1  0.118300  0.789900  0.706800  1.0  -0.7551
  O  O514  1  0.226700  0.830500  0.729200  1.0  -0.8159
  O  O515  1  0.560500  0.969700  0.731800  1.0  -0.6408
  O  O516  1  0.607800  0.925600  0.743200  1.0  -0.4882
  O  O517  1  0.281500  0.881000  0.773300  1.0  -0.5767
  O  O518  1  0.363300  0.849500  0.766800  1.0  -0.6157
  O  O519  1  0.554300  0.944200  0.615800  1.0  -0.5403
  O  O520  1  0.539300  0.951300  0.665400  1.0  -0.6392
  O  O521  1  0.304400  0.837100  0.658300  1.0  -0.4586
  O  O522  1  0.364600  0.843100  0.698900  1.0  -0.6564
  O  O523  1  0.025600  0.155400  0.874200  1.0  -0.7157
  O  O524  1  0.921700  0.165300  0.892400  1.0  -0.4599
  O  O525  1  0.816100  0.082200  0.769400  1.0  -0.7182
  O  O526  1  0.752600  0.121900  0.783200  1.0  -0.4669
  O  O527  1  0.168700  0.137000  0.013400  1.0  -0.8055
  O  O528  1  0.301900  0.155600  0.020300  1.0  -0.7548
  O  O529  1  0.348100  0.179200  0.969700  1.0  -0.7989
  O  O530  1  0.351700  0.138100  0.926100  1.0  -0.7331
  O  O531  1  0.225400  0.118500  0.917800  1.0  -0.7795
  O  O532  1  0.178800  0.094900  0.968400  1.0  -0.7534
  O  O533  1  0.052600  0.128200  0.985600  1.0  -0.8078
  O  O534  1  0.182200  0.190700  0.036900  1.0  -0.8357
  O  O535  1  0.300500  0.220600  0.009100  1.0  -0.7596
  O  O536  1  0.345100  0.204700  0.915000  1.0  -0.7939
  O  O537  1  0.258400  0.163000  0.879200  1.0  -0.7483
  O  O538  1  0.087400  0.117000  0.921200  1.0  -0.8045
  O  O539  1  0.043100  0.169900  0.940800  1.0  -0.804
  O  O540  1  0.172700  0.232200  0.992900  1.0  -0.7775
  O  O541  1  0.216400  0.217600  0.900200  1.0  -0.8152
  O  O542  1  0.078300  0.213900  0.903500  1.0  -0.7597
  O  O543  1  0.050400  0.224700  0.967000  1.0  -0.7588
  O  O544  1  0.164400  0.258000  0.937100  1.0  -0.7999
  O  O545  1  0.750300  0.285900  0.189000  1.0  -0.8031
  O  O546  1  0.618700  0.271600  0.194000  1.0  -0.7815
  O  O547  1  0.618300  0.206800  0.210100  1.0  -0.7455
  O  O548  1  0.726700  0.229200  0.169500  1.0  -0.8183
  O  O549  1  0.060500  0.231800  0.030300  1.0  -0.6326
  O  O550  1  0.107800  0.243200  0.074400  1.0  -0.4914
  O  O551  1  0.781500  0.273300  0.119000  1.0  -0.5762
  O  O552  1  0.863300  0.266800  0.150500  1.0  -0.6133
  O  O553  1  0.054300  0.115800  0.055800  1.0  -0.5388
  O  O554  1  0.039300  0.165400  0.048700  1.0  -0.6411
  O  O555  1  0.804400  0.158300  0.162900  1.0  -0.4593
  O  O556  1  0.864600  0.198900  0.156900  1.0  -0.6591
  O  O557  1  0.525600  0.374200  0.844600  1.0  -0.716
  O  O558  1  0.421700  0.392400  0.834700  1.0  -0.4584
  O  O559  1  0.316100  0.269400  0.917800  1.0  -0.7196
  O  O560  1  0.252600  0.283200  0.878100  1.0  -0.4677
  O  O561  1  0.168700  0.363000  0.486600  1.0  -0.807
  O  O562  1  0.301900  0.344400  0.479700  1.0  -0.7542
  O  O563  1  0.348100  0.320800  0.530300  1.0  -0.7993
  O  O564  1  0.351700  0.361900  0.573900  1.0  -0.7316
  O  O565  1  0.225400  0.381500  0.582200  1.0  -0.78
  O  O566  1  0.178800  0.405100  0.531600  1.0  -0.7508
  O  O567  1  0.052600  0.371800  0.514400  1.0  -0.8071
  O  O568  1  0.182200  0.309300  0.463100  1.0  -0.8368
  O  O569  1  0.300500  0.279400  0.490900  1.0  -0.7583
  O  O570  1  0.345100  0.295300  0.585000  1.0  -0.7943
  O  O571  1  0.258400  0.337000  0.620800  1.0  -0.7477
  O  O572  1  0.087400  0.383000  0.578800  1.0  -0.802
  O  O573  1  0.043100  0.330100  0.559200  1.0  -0.8038
  O  O574  1  0.172700  0.267800  0.507100  1.0  -0.7769
  O  O575  1  0.216400  0.282400  0.599800  1.0  -0.8156
  O  O576  1  0.078300  0.286100  0.596500  1.0  -0.7607
  O  O577  1  0.050400  0.275300  0.533000  1.0  -0.7582
  O  O578  1  0.164400  0.242000  0.562900  1.0  -0.8011
  O  O579  1  0.750300  0.214100  0.311000  1.0  -0.8027
  O  O580  1  0.618700  0.228400  0.306000  1.0  -0.7801
  O  O581  1  0.618300  0.293200  0.289900  1.0  -0.7442
  O  O582  1  0.726700  0.270800  0.330500  1.0  -0.8183
  O  O583  1  0.060500  0.268200  0.469700  1.0  -0.6342
  O  O584  1  0.107800  0.256800  0.425600  1.0  -0.491
  O  O585  1  0.781500  0.226700  0.381000  1.0  -0.5763
  O  O586  1  0.863300  0.233200  0.349500  1.0  -0.615
  O  O587  1  0.054300  0.384200  0.444200  1.0  -0.5386
  O  O588  1  0.039300  0.334600  0.451300  1.0  -0.6406
  O  O589  1  0.804400  0.341700  0.337100  1.0  -0.4586
  O  O590  1  0.864600  0.301100  0.343100  1.0  -0.6596
  O  O591  1  0.525600  0.125800  0.655400  1.0  -0.7165
  O  O592  1  0.421700  0.107600  0.665300  1.0  -0.4566
  O  O593  1  0.316100  0.230600  0.582200  1.0  -0.7184
  O  O594  1  0.252600  0.216800  0.621900  1.0  -0.4668
  O  O595  1  0.331300  0.486600  0.137000  1.0  -0.8067
  O  O596  1  0.198100  0.479700  0.155600  1.0  -0.7536
  O  O597  1  0.151900  0.530300  0.179200  1.0  -0.7998
  O  O598  1  0.148300  0.573900  0.138100  1.0  -0.7332
  O  O599  1  0.274600  0.582200  0.118500  1.0  -0.7817
  O  O600  1  0.321200  0.531600  0.094900  1.0  -0.7516
  O  O601  1  0.447400  0.514400  0.128200  1.0  -0.8107
  O  O602  1  0.317800  0.463100  0.190700  1.0  -0.8389
  O  O603  1  0.199500  0.490900  0.220600  1.0  -0.7586
  O  O604  1  0.154900  0.585000  0.204700  1.0  -0.7957
  O  O605  1  0.241600  0.620800  0.163000  1.0  -0.7529
  O  O606  1  0.412600  0.578800  0.117000  1.0  -0.8046
  O  O607  1  0.456900  0.559200  0.169900  1.0  -0.7998
  O  O608  1  0.327300  0.507100  0.232200  1.0  -0.7815
  O  O609  1  0.283600  0.599800  0.217600  1.0  -0.814
  O  O610  1  0.421700  0.596500  0.213900  1.0  -0.7601
  O  O611  1  0.449600  0.533000  0.224700  1.0  -0.7603
  O  O612  1  0.335600  0.562900  0.258000  1.0  -0.7976
  O  O613  1  0.749700  0.311000  0.285900  1.0  -0.8035
  O  O614  1  0.881300  0.306000  0.271600  1.0  -0.7809
  O  O615  1  0.881700  0.289900  0.206800  1.0  -0.754
  O  O616  1  0.773300  0.330500  0.229200  1.0  -0.8155
  O  O617  1  0.439500  0.469700  0.231800  1.0  -0.6406
  O  O618  1  0.392200  0.425600  0.243200  1.0  -0.49
  O  O619  1  0.718500  0.381000  0.273300  1.0  -0.5766
  O  O620  1  0.636700  0.349500  0.266800  1.0  -0.6168
  O  O621  1  0.445700  0.444200  0.115800  1.0  -0.5412
  O  O622  1  0.460700  0.451300  0.165400  1.0  -0.6392
  O  O623  1  0.695600  0.337100  0.158300  1.0  -0.4579
  O  O624  1  0.635400  0.343100  0.198900  1.0  -0.6564
  O  O625  1  0.974400  0.655400  0.374200  1.0  -0.7149
  O  O626  1  0.078300  0.665300  0.392400  1.0  -0.4625
  O  O627  1  0.183900  0.582200  0.269400  1.0  -0.718
  O  O628  1  0.247400  0.621900  0.283200  1.0  -0.4682
  O  O629  1  0.331300  0.013400  0.363000  1.0  -0.8083
  O  O630  1  0.198100  0.020300  0.344400  1.0  -0.7537
  O  O631  1  0.151900  0.969700  0.320800  1.0  -0.8008
  O  O632  1  0.148300  0.926100  0.361900  1.0  -0.7316
  O  O633  1  0.274600  0.917800  0.381500  1.0  -0.7818
  O  O634  1  0.321200  0.968400  0.405100  1.0  -0.7526
  O  O635  1  0.447400  0.985600  0.371800  1.0  -0.8094
  O  O636  1  0.317800  0.036900  0.309300  1.0  -0.8382
  O  O637  1  0.199500  0.009100  0.279400  1.0  -0.7575
  O  O638  1  0.154900  0.915000  0.295300  1.0  -0.7948
  O  O639  1  0.241600  0.879200  0.337000  1.0  -0.7528
  O  O640  1  0.412600  0.921200  0.383000  1.0  -0.8055
  O  O641  1  0.456900  0.940800  0.330100  1.0  -0.7998
  O  O642  1  0.327300  0.992900  0.267800  1.0  -0.7792
  O  O643  1  0.283600  0.900200  0.282400  1.0  -0.813
  O  O644  1  0.421700  0.903500  0.286100  1.0  -0.7612
  O  O645  1  0.449600  0.967000  0.275300  1.0  -0.7589
  O  O646  1  0.335600  0.937100  0.242000  1.0  -0.7985
  O  O647  1  0.749700  0.189000  0.214100  1.0  -0.8025
  O  O648  1  0.881300  0.194000  0.228400  1.0  -0.782
  O  O649  1  0.881700  0.210100  0.293200  1.0  -0.7542
  O  O650  1  0.773300  0.169500  0.270800  1.0  -0.8178
  O  O651  1  0.439500  0.030300  0.268200  1.0  -0.6382
  O  O652  1  0.392200  0.074400  0.256800  1.0  -0.4905
  O  O653  1  0.718500  0.119000  0.226700  1.0  -0.5769
  O  O654  1  0.636700  0.150500  0.233200  1.0  -0.6157
  O  O655  1  0.445700  0.055800  0.384200  1.0  -0.5391
  O  O656  1  0.460700  0.048700  0.334600  1.0  -0.6403
  O  O657  1  0.695600  0.162900  0.341700  1.0  -0.456
  O  O658  1  0.635400  0.156900  0.301100  1.0  -0.6585
  O  O659  1  0.974400  0.844600  0.125800  1.0  -0.7148
  O  O660  1  0.078300  0.834700  0.107600  1.0  -0.4582
  O  O661  1  0.183900  0.917800  0.230600  1.0  -0.7214
  O  O662  1  0.247400  0.878100  0.216800  1.0  -0.4665
  O  O663  1  0.831300  0.863000  0.986600  1.0  -0.8078
  O  O664  1  0.698100  0.844400  0.979700  1.0  -0.7533
  O  O665  1  0.651900  0.820800  0.030300  1.0  -0.8008
  O  O666  1  0.648300  0.861900  0.073900  1.0  -0.7322
  O  O667  1  0.774600  0.881500  0.082200  1.0  -0.779
  O  O668  1  0.821200  0.905100  0.031600  1.0  -0.7508
  O  O669  1  0.947400  0.871800  0.014400  1.0  -0.8081
  O  O670  1  0.817800  0.809300  0.963100  1.0  -0.8371
  O  O671  1  0.699500  0.779400  0.990900  1.0  -0.7584
  O  O672  1  0.654900  0.795300  0.085000  1.0  -0.7949
  O  O673  1  0.741600  0.837000  0.120800  1.0  -0.749
  O  O674  1  0.912600  0.883000  0.078800  1.0  -0.8025
  O  O675  1  0.956900  0.830100  0.059200  1.0  -0.7996
  O  O676  1  0.827300  0.767800  0.007100  1.0  -0.7768
  O  O677  1  0.783600  0.782400  0.099800  1.0  -0.8157
  O  O678  1  0.921700  0.786100  0.096500  1.0  -0.7604
  O  O679  1  0.949600  0.775300  0.033000  1.0  -0.7602
  O  O680  1  0.835600  0.742000  0.062900  1.0  -0.8009
  O  O681  1  0.249700  0.714100  0.811000  1.0  -0.8025
  O  O682  1  0.381300  0.728400  0.806000  1.0  -0.7811
  O  O683  1  0.381700  0.793200  0.789900  1.0  -0.7436
  O  O684  1  0.273300  0.770800  0.830500  1.0  -0.8185
  O  O685  1  0.939500  0.768200  0.969700  1.0  -0.6342
  O  O686  1  0.892200  0.756800  0.925600  1.0  -0.4945
  O  O687  1  0.218500  0.726700  0.881000  1.0  -0.5777
  O  O688  1  0.136700  0.733200  0.849500  1.0  -0.6161
  O  O689  1  0.945700  0.884200  0.944200  1.0  -0.5388
  O  O690  1  0.960700  0.834600  0.951300  1.0  -0.6407
  O  O691  1  0.195600  0.841700  0.837100  1.0  -0.458
  O  O692  1  0.135400  0.801100  0.843100  1.0  -0.6591
  O  O693  1  0.474400  0.625800  0.155400  1.0  -0.7155
  O  O694  1  0.578300  0.607600  0.165300  1.0  -0.4592
  O  O695  1  0.683900  0.730600  0.082200  1.0  -0.7182
  O  O696  1  0.747400  0.716800  0.121900  1.0  -0.468
  O  O697  1  0.831300  0.637000  0.513400  1.0  -0.8056
  O  O698  1  0.698100  0.655600  0.520300  1.0  -0.7529
  O  O699  1  0.651900  0.679200  0.469700  1.0  -0.7998
  O  O700  1  0.648300  0.638100  0.426100  1.0  -0.7328
  O  O701  1  0.774600  0.618500  0.417800  1.0  -0.7794
  O  O702  1  0.821200  0.594900  0.468400  1.0  -0.7534
  O  O703  1  0.947400  0.628200  0.485600  1.0  -0.8096
  O  O704  1  0.817800  0.690700  0.536900  1.0  -0.8367
  O  O705  1  0.699500  0.720600  0.509100  1.0  -0.7605
  O  O706  1  0.654900  0.704700  0.415000  1.0  -0.7943
  O  O707  1  0.741600  0.663000  0.379200  1.0  -0.7499
  O  O708  1  0.912600  0.617000  0.421200  1.0  -0.8052
  O  O709  1  0.956900  0.669900  0.440800  1.0  -0.7993
  O  O710  1  0.827300  0.732200  0.492900  1.0  -0.7768
  O  O711  1  0.783600  0.717600  0.400200  1.0  -0.8153
  O  O712  1  0.921700  0.713900  0.403500  1.0  -0.7591
  O  O713  1  0.949600  0.724700  0.467000  1.0  -0.7604
  O  O714  1  0.835600  0.758000  0.437100  1.0  -0.799
  O  O715  1  0.249700  0.785900  0.689000  1.0  -0.803
  O  O716  1  0.381300  0.771600  0.694000  1.0  -0.7819
  O  O717  1  0.381700  0.706800  0.710100  1.0  -0.7449
  O  O718  1  0.273300  0.729200  0.669500  1.0  -0.8181
  O  O719  1  0.939500  0.731800  0.530300  1.0  -0.6325
  O  O720  1  0.892200  0.743200  0.574400  1.0  -0.491
  O  O721  1  0.218500  0.773300  0.619000  1.0  -0.5768
  O  O722  1  0.136700  0.766800  0.650500  1.0  -0.6143
  O  O723  1  0.945700  0.615800  0.555800  1.0  -0.5397
  O  O724  1  0.960700  0.665400  0.548700  1.0  -0.641
  O  O725  1  0.195600  0.658300  0.662900  1.0  -0.4586
  O  O726  1  0.135400  0.698900  0.656900  1.0  -0.6591
  O  O727  1  0.474400  0.874200  0.344600  1.0  -0.7156
  O  O728  1  0.578300  0.892400  0.334700  1.0  -0.4585
  O  O729  1  0.683900  0.769400  0.417800  1.0  -0.7195
  O  O730  1  0.747400  0.783200  0.378100  1.0  -0.4667
  O  O731  1  0.096500  0.750000  0.750000  1.0  -0.7812
  O  O732  1  0.596500  0.250000  0.250000  1.0  -0.7812
  O  O733  1  0.903500  0.250000  0.250000  1.0  -0.7815
  O  O734  1  0.403500  0.750000  0.750000  1.0  -0.7815
