# generated using pymatgen
data_Zn19H60C156(NO4)12
_symmetry_space_group_name_H-M   'P 1'
_cell_length_a   37.26510000
_cell_length_b   37.26510000
_cell_length_c   37.26510000
_cell_angle_alpha   109.47100000
_cell_angle_beta   109.47100000
_cell_angle_gamma   109.47100000
_symmetry_Int_Tables_number   1
_chemical_formula_structural   Zn19H60C156(NO4)12
_chemical_formula_sum   'Zn76 H240 C624 N48 O192'
_cell_volume   39837.17466806
_cell_formula_units_Z   4
loop_
 _symmetry_equiv_pos_site_id
 _symmetry_equiv_pos_as_xyz
  1  'x, y, z'
loop_
 _atom_site_type_symbol
 _atom_site_label
 _atom_site_symmetry_multiplicity
 _atom_site_fract_x
 _atom_site_fract_y
 _atom_site_fract_z
 _atom_site_occupancy
 _atom_site_charge
  Zn  Zn1  1  0.490070  0.147190  0.002260  1.0  1.0487
  Zn  Zn2  1  0.751280  0.240020  0.245360  1.0  0.9464
  Zn  Zn3  1  0.644930  0.487810  0.497740  1.0  1.0388
  Zn  Zn4  1  0.494660  0.505920  0.254640  1.0  0.9462
  Zn  Zn5  1  0.855070  0.352810  0.842880  1.0  1.0474
  Zn  Zn6  1  0.005340  0.259980  0.011260  1.0  0.943
  Zn  Zn7  1  0.009930  0.012190  0.657120  1.0  1.0514
  Zn  Zn8  1  0.748720  0.994080  0.488740  1.0  0.9437
  Zn  Zn9  1  0.342880  0.855070  0.852810  1.0  1.0488
  Zn  Zn10  1  0.511260  0.005340  0.759980  1.0  0.9437
  Zn  Zn11  1  0.157120  0.009930  0.512190  1.0  1.0474
  Zn  Zn12  1  0.988740  0.748720  0.494080  1.0  0.9458
  Zn  Zn13  1  0.502260  0.490070  0.647190  1.0  1.0529
  Zn  Zn14  1  0.745360  0.751280  0.740020  1.0  0.9464
  Zn  Zn15  1  0.997740  0.644930  0.987810  1.0  1.0372
  Zn  Zn16  1  0.754640  0.494660  0.005920  1.0  0.9423
  Zn  Zn17  1  0.487810  0.997740  0.144930  1.0  1.0458
  Zn  Zn18  1  0.505920  0.754640  0.994660  1.0  0.9431
  Zn  Zn19  1  0.147190  0.502260  0.990070  1.0  1.0454
  Zn  Zn20  1  0.240020  0.745360  0.251280  1.0  0.9459
  Zn  Zn21  1  0.012190  0.157120  0.509930  1.0  1.0486
  Zn  Zn22  1  0.994080  0.988740  0.248720  1.0  0.9575
  Zn  Zn23  1  0.352810  0.342880  0.355070  1.0  1.0472
  Zn  Zn24  1  0.259980  0.511260  0.505340  1.0  0.9416
  Zn  Zn25  1  0.509930  0.852810  0.997740  1.0  1.0489
  Zn  Zn26  1  0.248720  0.759980  0.754640  1.0  0.9441
  Zn  Zn27  1  0.355070  0.512190  0.502260  1.0  1.0396
  Zn  Zn28  1  0.505340  0.494080  0.745360  1.0  0.9498
  Zn  Zn29  1  0.144930  0.647190  0.157120  1.0  1.0486
  Zn  Zn30  1  0.994660  0.740020  0.988740  1.0  0.9428
  Zn  Zn31  1  0.990070  0.987810  0.342880  1.0  1.0409
  Zn  Zn32  1  0.251280  0.005920  0.511260  1.0  0.9467
  Zn  Zn33  1  0.657120  0.144930  0.147190  1.0  1.0499
  Zn  Zn34  1  0.488740  0.994660  0.240020  1.0  0.9469
  Zn  Zn35  1  0.842880  0.990070  0.487810  1.0  1.0452
  Zn  Zn36  1  0.011260  0.251280  0.505920  1.0  0.9435
  Zn  Zn37  1  0.497740  0.509930  0.352810  1.0  1.0407
  Zn  Zn38  1  0.254640  0.248720  0.259980  1.0  0.9466
  Zn  Zn39  1  0.002260  0.355070  0.012190  1.0  1.039
  Zn  Zn40  1  0.245360  0.505340  0.994080  1.0  0.9467
  Zn  Zn41  1  0.512190  0.002260  0.855070  1.0  1.034
  Zn  Zn42  1  0.494080  0.245360  0.005340  1.0  0.944
  Zn  Zn43  1  0.852810  0.497740  0.009930  1.0  1.045
  Zn  Zn44  1  0.759980  0.254640  0.748720  1.0  0.9449
  Zn  Zn45  1  0.987810  0.842880  0.490070  1.0  1.05
  Zn  Zn46  1  0.005920  0.011260  0.751280  1.0  0.9619
  Zn  Zn47  1  0.647190  0.657120  0.644930  1.0  1.0485
  Zn  Zn48  1  0.740020  0.488740  0.494660  1.0  0.9438
  Zn  Zn49  1  0.741190  0.491190  0.250000  1.0  0.8422
  Zn  Zn50  1  0.758810  0.008810  0.750000  1.0  0.8426
  Zn  Zn51  1  0.250000  0.758810  0.508810  1.0  0.8422
  Zn  Zn52  1  0.750000  0.741190  0.991190  1.0  0.8424
  Zn  Zn53  1  0.491190  0.750000  0.241190  1.0  0.8431
  Zn  Zn54  1  0.008810  0.250000  0.258810  1.0  0.8421
  Zn  Zn55  1  0.258810  0.508810  0.750000  1.0  0.8426
  Zn  Zn56  1  0.241190  0.991190  0.250000  1.0  0.8422
  Zn  Zn57  1  0.750000  0.241190  0.491190  1.0  0.8424
  Zn  Zn58  1  0.250000  0.258810  0.008810  1.0  0.8422
  Zn  Zn59  1  0.508810  0.250000  0.758810  1.0  0.8421
  Zn  Zn60  1  0.991190  0.750000  0.741190  1.0  0.8432
  Zn  Zn61  1  0.000000  0.500000  0.166140  1.0  0.8319
  Zn  Zn62  1  0.000000  0.500000  0.262020  1.0  0.8904
  Zn  Zn63  1  0.833860  0.833860  0.333860  1.0  0.829
  Zn  Zn64  1  0.737980  0.737980  0.237980  1.0  0.8977
  Zn  Zn65  1  0.666140  0.000000  0.000000  1.0  0.8232
  Zn  Zn66  1  0.762020  0.000000  0.000000  1.0  0.8968
  Zn  Zn67  1  0.500000  0.666140  0.500000  1.0  0.8292
  Zn  Zn68  1  0.500000  0.762020  0.500000  1.0  0.8999
  Zn  Zn69  1  0.000000  0.500000  0.833860  1.0  0.8244
  Zn  Zn70  1  0.000000  0.500000  0.737980  1.0  0.8812
  Zn  Zn71  1  0.166140  0.166140  0.666140  1.0  0.83
  Zn  Zn72  1  0.262020  0.262020  0.762020  1.0  0.9007
  Zn  Zn73  1  0.333860  0.000000  0.000000  1.0  0.8296
  Zn  Zn74  1  0.237980  0.000000  0.000000  1.0  0.883
  Zn  Zn75  1  0.500000  0.333860  0.500000  1.0  0.8288
  Zn  Zn76  1  0.500000  0.237980  0.500000  1.0  0.8974
  H  H77  1  0.605300  0.211000  0.108300  1.0  0.0754
  H  H78  1  0.611900  0.324200  0.121700  1.0  0.0975
  H  H79  1  0.708300  0.325300  0.213800  1.0  0.1105
  H  H80  1  0.773400  0.406200  0.136000  1.0  0.1204
  H  H81  1  0.874600  0.494700  0.220500  1.0  0.1092
  H  H82  1  0.630600  0.345800  0.227200  1.0  0.1179
  H  H83  1  0.717300  0.345400  0.138300  1.0  0.1499
  H  H84  1  0.862300  0.580900  0.223600  1.0  0.1137
  H  H85  1  0.783100  0.489600  0.119900  1.0  0.109
  H  H86  1  0.894000  0.494800  0.120200  1.0  0.1027
  H  H87  1  0.602700  0.497000  0.391700  1.0  0.0752
  H  H88  1  0.702500  0.490200  0.378300  1.0  0.0976
  H  H89  1  0.611500  0.494500  0.286200  1.0  0.1087
  H  H90  1  0.770200  0.637400  0.364000  1.0  0.1183
  H  H91  1  0.774200  0.654100  0.279500  1.0  0.109
  H  H92  1  0.618600  0.403400  0.272800  1.0  0.1162
  H  H93  1  0.707100  0.579000  0.361700  1.0  0.15
  H  H94  1  0.857300  0.638700  0.276400  1.0  0.1143
  H  H95  1  0.869700  0.663200  0.380100  1.0  0.1084
  H  H96  1  0.874600  0.773800  0.379800  1.0  0.1039
  H  H97  1  0.897300  0.289000  0.894300  1.0  0.0745
  H  H98  1  0.797500  0.175800  0.787700  1.0  0.0973
  H  H99  1  0.888500  0.174700  0.883000  1.0  0.1104
  H  H100  1  0.729800  0.093800  0.867200  1.0  0.1187
  H  H101  1  0.725800  0.005300  0.879900  1.0  0.1094
  H  H102  1  0.881400  0.154200  0.784800  1.0  0.1158
  H  H103  1  0.792900  0.154600  0.871900  1.0  0.1504
  H  H104  1  0.642700  0.919100  0.781400  1.0  0.1155
  H  H105  1  0.630300  0.010400  0.793500  1.0  0.1091
  H  H106  1  0.625400  0.005200  0.899200  1.0  0.1026
  H  H107  1  0.894700  0.003000  0.605700  1.0  0.0745
  H  H108  1  0.888100  0.009800  0.712300  1.0  0.097
  H  H109  1  0.791700  0.005500  0.617000  1.0  0.1087
  H  H110  1  0.726600  0.862600  0.632800  1.0  0.1184
  H  H111  1  0.625400  0.845900  0.620100  1.0  0.1099
  H  H112  1  0.869400  0.096600  0.715200  1.0  0.1166
  H  H113  1  0.782700  0.921000  0.628100  1.0  0.1502
  H  H114  1  0.637700  0.861300  0.718600  1.0  0.1153
  H  H115  1  0.716900  0.836800  0.706500  1.0  0.1089
  H  H116  1  0.606000  0.726200  0.600800  1.0  0.1041
  H  H117  1  0.394300  0.897300  0.789000  1.0  0.0754
  H  H118  1  0.287700  0.797500  0.675800  1.0  0.0973
  H  H119  1  0.383000  0.888500  0.674700  1.0  0.1096
  H  H120  1  0.367200  0.729800  0.593800  1.0  0.1175
  H  H121  1  0.379900  0.725800  0.505300  1.0  0.1094
  H  H122  1  0.284800  0.881400  0.654200  1.0  0.1162
  H  H123  1  0.371900  0.792900  0.654600  1.0  0.148
  H  H124  1  0.281400  0.642700  0.419100  1.0  0.1135
  H  H125  1  0.293500  0.630300  0.510400  1.0  0.1092
  H  H126  1  0.399200  0.625400  0.505200  1.0  0.1028
  H  H127  1  0.105700  0.894700  0.503000  1.0  0.0748
  H  H128  1  0.212300  0.888100  0.509800  1.0  0.0972
  H  H129  1  0.117000  0.791700  0.505500  1.0  0.1108
  H  H130  1  0.132800  0.726600  0.362600  1.0  0.1182
  H  H131  1  0.120100  0.625400  0.345900  1.0  0.1099
  H  H132  1  0.215200  0.869400  0.596600  1.0  0.1165
  H  H133  1  0.128100  0.782700  0.421000  1.0  0.1484
  H  H134  1  0.218600  0.637700  0.361300  1.0  0.1135
  H  H135  1  0.206500  0.716900  0.336800  1.0  0.1087
  H  H136  1  0.100800  0.606000  0.226200  1.0  0.1025
  H  H137  1  0.608300  0.605300  0.711000  1.0  0.0753
  H  H138  1  0.621700  0.611900  0.824200  1.0  0.0974
  H  H139  1  0.713800  0.708300  0.825300  1.0  0.1107
  H  H140  1  0.636000  0.773400  0.906200  1.0  0.1174
  H  H141  1  0.720500  0.874600  0.994700  1.0  0.1094
  H  H142  1  0.727200  0.630600  0.845800  1.0  0.1151
  H  H143  1  0.638300  0.717300  0.845400  1.0  0.1489
  H  H144  1  0.723600  0.862300  0.080900  1.0  0.1151
  H  H145  1  0.619900  0.783100  0.989600  1.0  0.109
  H  H146  1  0.620200  0.894000  0.994800  1.0  0.1027
  H  H147  1  0.891700  0.602700  0.997000  1.0  0.0745
  H  H148  1  0.878300  0.702500  0.990200  1.0  0.0967
  H  H149  1  0.786200  0.611500  0.994500  1.0  0.1101
  H  H150  1  0.864000  0.770200  0.137400  1.0  0.1174
  H  H151  1  0.779500  0.774200  0.154100  1.0  0.1106
  H  H152  1  0.772800  0.618600  0.903400  1.0  0.116
  H  H153  1  0.861700  0.707100  0.079000  1.0  0.1483
  H  H154  1  0.776400  0.857300  0.138700  1.0  0.1139
  H  H155  1  0.880100  0.869700  0.163200  1.0  0.1091
  H  H156  1  0.879800  0.874600  0.273800  1.0  0.1025
  H  H157  1  0.497000  0.891700  0.102700  1.0  0.0752
  H  H158  1  0.490200  0.878300  0.202500  1.0  0.0978
  H  H159  1  0.494500  0.786200  0.111500  1.0  0.1115
  H  H160  1  0.637400  0.864000  0.270200  1.0  0.1182
  H  H161  1  0.654100  0.779500  0.274200  1.0  0.1092
  H  H162  1  0.403400  0.772800  0.118600  1.0  0.1152
  H  H163  1  0.579000  0.861700  0.207100  1.0  0.1482
  H  H164  1  0.638700  0.776400  0.357300  1.0  0.1132
  H  H165  1  0.663200  0.880100  0.369700  1.0  0.1094
  H  H166  1  0.773800  0.879800  0.374600  1.0  0.1032
  H  H167  1  0.211000  0.608300  0.105300  1.0  0.075
  H  H168  1  0.324200  0.621700  0.111900  1.0  0.097
  H  H169  1  0.325300  0.713800  0.208300  1.0  0.1104
  H  H170  1  0.406200  0.636000  0.273400  1.0  0.1175
  H  H171  1  0.494700  0.720500  0.374600  1.0  0.111
  H  H172  1  0.345800  0.727200  0.130600  1.0  0.1161
  H  H173  1  0.345400  0.638300  0.217300  1.0  0.1488
  H  H174  1  0.580900  0.723600  0.362300  1.0  0.1143
  H  H175  1  0.489600  0.619900  0.283100  1.0  0.1092
  H  H176  1  0.494800  0.620200  0.394000  1.0  0.1026
  H  H177  1  0.003000  0.105700  0.394700  1.0  0.0753
  H  H178  1  0.009800  0.212300  0.388100  1.0  0.0978
  H  H179  1  0.005500  0.117000  0.291700  1.0  0.1097
  H  H180  1  0.862600  0.132800  0.226600  1.0  0.1183
  H  H181  1  0.845900  0.120100  0.125400  1.0  0.1098
  H  H182  1  0.096600  0.215200  0.369400  1.0  0.1164
  H  H183  1  0.921000  0.128100  0.282700  1.0  0.1483
  H  H184  1  0.861300  0.218600  0.137700  1.0  0.1139
  H  H185  1  0.836800  0.206500  0.216900  1.0  0.1088
  H  H186  1  0.726200  0.100800  0.106000  1.0  0.103
  H  H187  1  0.289000  0.394300  0.397300  1.0  0.075
  H  H188  1  0.175800  0.287700  0.297500  1.0  0.097
  H  H189  1  0.174700  0.383000  0.388500  1.0  0.11
  H  H190  1  0.093800  0.367200  0.229800  1.0  0.1176
  H  H191  1  0.005300  0.379900  0.225800  1.0  0.11
  H  H192  1  0.154200  0.284800  0.381400  1.0  0.1163
  H  H193  1  0.154600  0.371900  0.292900  1.0  0.1494
  H  H194  1  0.919100  0.281400  0.142700  1.0  0.1141
  H  H195  1  0.010400  0.293500  0.130300  1.0  0.1089
  H  H196  1  0.005200  0.399200  0.125400  1.0  0.1027
  H  H197  1  0.394700  0.789000  0.891700  1.0  0.0745
  H  H198  1  0.388100  0.675800  0.878300  1.0  0.0972
  H  H199  1  0.291700  0.674700  0.786200  1.0  0.1096
  H  H200  1  0.226600  0.593800  0.864000  1.0  0.119
  H  H201  1  0.125400  0.505300  0.779500  1.0  0.1089
  H  H202  1  0.369400  0.654200  0.772800  1.0  0.1165
  H  H203  1  0.282700  0.654600  0.861700  1.0  0.1491
  H  H204  1  0.137700  0.419100  0.776400  1.0  0.1152
  H  H205  1  0.216900  0.510400  0.880100  1.0  0.1087
  H  H206  1  0.106000  0.505200  0.879800  1.0  0.1027
  H  H207  1  0.397300  0.503000  0.608300  1.0  0.0746
  H  H208  1  0.297500  0.509800  0.621700  1.0  0.0973
  H  H209  1  0.388500  0.505500  0.713800  1.0  0.1095
  H  H210  1  0.229800  0.362600  0.636000  1.0  0.1184
  H  H211  1  0.225800  0.345900  0.720500  1.0  0.1095
  H  H212  1  0.381400  0.596600  0.727200  1.0  0.1159
  H  H213  1  0.292900  0.421000  0.638300  1.0  0.1497
  H  H214  1  0.142700  0.361300  0.723600  1.0  0.1153
  H  H215  1  0.130300  0.336800  0.619900  1.0  0.109
  H  H216  1  0.125400  0.226200  0.620200  1.0  0.1041
  H  H217  1  0.102700  0.711000  0.105700  1.0  0.0755
  H  H218  1  0.202500  0.824200  0.212300  1.0  0.0974
  H  H219  1  0.111500  0.825300  0.117000  1.0  0.1098
  H  H220  1  0.270200  0.906200  0.132800  1.0  0.1198
  H  H221  1  0.274200  0.994700  0.120100  1.0  0.1099
  H  H222  1  0.118600  0.845800  0.215200  1.0  0.1171
  H  H223  1  0.207100  0.845400  0.128100  1.0  0.1497
  H  H224  1  0.357300  0.080900  0.218600  1.0  0.1141
  H  H225  1  0.369700  0.989600  0.206500  1.0  0.1078
  H  H226  1  0.374600  0.994800  0.100800  1.0  0.1028
  H  H227  1  0.105300  0.997000  0.394300  1.0  0.0753
  H  H228  1  0.111900  0.990200  0.287700  1.0  0.0971
  H  H229  1  0.208300  0.994500  0.383000  1.0  0.1101
  H  H230  1  0.273400  0.137400  0.367200  1.0  0.1181
  H  H231  1  0.374600  0.154100  0.379900  1.0  0.1101
  H  H232  1  0.130600  0.903400  0.284800  1.0  0.1167
  H  H233  1  0.217300  0.079000  0.371900  1.0  0.1507
  H  H234  1  0.362300  0.138700  0.281400  1.0  0.1142
  H  H235  1  0.283100  0.163200  0.293500  1.0  0.1092
  H  H236  1  0.394000  0.273800  0.399200  1.0  0.1039
  H  H237  1  0.605700  0.102700  0.211000  1.0  0.0753
  H  H238  1  0.712300  0.202500  0.324200  1.0  0.0973
  H  H239  1  0.617000  0.111500  0.325300  1.0  0.1103
  H  H240  1  0.632800  0.270200  0.406200  1.0  0.1174
  H  H241  1  0.620100  0.274200  0.494700  1.0  0.11
  H  H242  1  0.715200  0.118600  0.345800  1.0  0.1154
  H  H243  1  0.628100  0.207100  0.345400  1.0  0.1487
  H  H244  1  0.718600  0.357300  0.580900  1.0  0.1145
  H  H245  1  0.706500  0.369700  0.489600  1.0  0.1086
  H  H246  1  0.600800  0.374600  0.494800  1.0  0.1029
  H  H247  1  0.894300  0.105300  0.497000  1.0  0.0744
  H  H248  1  0.787700  0.111900  0.490200  1.0  0.0978
  H  H249  1  0.883000  0.208300  0.494500  1.0  0.1107
  H  H250  1  0.867200  0.273400  0.637400  1.0  0.1175
  H  H251  1  0.879900  0.374600  0.654100  1.0  0.1096
  H  H252  1  0.784800  0.130600  0.403400  1.0  0.1153
  H  H253  1  0.871900  0.217300  0.579000  1.0  0.1481
  H  H254  1  0.781400  0.362300  0.638700  1.0  0.1136
  H  H255  1  0.793500  0.283100  0.663200  1.0  0.1094
  H  H256  1  0.899200  0.394000  0.773800  1.0  0.1025
  H  H257  1  0.391700  0.394700  0.289000  1.0  0.0755
  H  H258  1  0.378300  0.388100  0.175800  1.0  0.0972
  H  H259  1  0.286200  0.291700  0.174700  1.0  0.1101
  H  H260  1  0.364000  0.226600  0.093800  1.0  0.1177
  H  H261  1  0.279500  0.125400  0.005300  1.0  0.1098
  H  H262  1  0.272800  0.369400  0.154200  1.0  0.1154
  H  H263  1  0.361700  0.282700  0.154600  1.0  0.1485
  H  H264  1  0.276400  0.137700  0.919100  1.0  0.1139
  H  H265  1  0.380100  0.216900  0.010400  1.0  0.1084
  H  H266  1  0.379800  0.106000  0.005200  1.0  0.1025
  H  H267  1  0.108300  0.397300  0.003000  1.0  0.0749
  H  H268  1  0.121700  0.297500  0.009800  1.0  0.098
  H  H269  1  0.213800  0.388500  0.005500  1.0  0.1109
  H  H270  1  0.136000  0.229800  0.862600  1.0  0.1183
  H  H271  1  0.220500  0.225800  0.845900  1.0  0.1108
  H  H272  1  0.227200  0.381400  0.096600  1.0  0.1177
  H  H273  1  0.138300  0.292900  0.921000  1.0  0.1482
  H  H274  1  0.223600  0.142700  0.861300  1.0  0.1131
  H  H275  1  0.119900  0.130300  0.836800  1.0  0.1088
  H  H276  1  0.120200  0.125400  0.726200  1.0  0.1031
  H  H277  1  0.503000  0.108300  0.897300  1.0  0.0756
  H  H278  1  0.509800  0.121700  0.797500  1.0  0.0973
  H  H279  1  0.505500  0.213800  0.888500  1.0  0.1112
  H  H280  1  0.362600  0.136000  0.729800  1.0  0.1187
  H  H281  1  0.345900  0.220500  0.725800  1.0  0.1102
  H  H282  1  0.596600  0.227200  0.881400  1.0  0.1143
  H  H283  1  0.421000  0.138300  0.792900  1.0  0.1493
  H  H284  1  0.361300  0.223600  0.642700  1.0  0.1141
  H  H285  1  0.336800  0.119900  0.630300  1.0  0.1087
  H  H286  1  0.226200  0.120200  0.625400  1.0  0.1029
  H  H287  1  0.789000  0.391700  0.894700  1.0  0.075
  H  H288  1  0.675800  0.378300  0.888100  1.0  0.0982
  H  H289  1  0.674700  0.286200  0.791700  1.0  0.1104
  H  H290  1  0.593800  0.364000  0.726600  1.0  0.1177
  H  H291  1  0.505300  0.279500  0.625400  1.0  0.11
  H  H292  1  0.654200  0.272800  0.869400  1.0  0.116
  H  H293  1  0.654600  0.361700  0.782700  1.0  0.148
  H  H294  1  0.419100  0.276400  0.637700  1.0  0.1141
  H  H295  1  0.510400  0.380100  0.716900  1.0  0.1087
  H  H296  1  0.505200  0.379800  0.606000  1.0  0.1029
  H  H297  1  0.997000  0.894300  0.605300  1.0  0.0752
  H  H298  1  0.990200  0.787700  0.611900  1.0  0.098
  H  H299  1  0.994500  0.883000  0.708300  1.0  0.1102
  H  H300  1  0.137400  0.867200  0.773400  1.0  0.1178
  H  H301  1  0.154100  0.879900  0.874600  1.0  0.1103
  H  H302  1  0.903400  0.784800  0.630600  1.0  0.1168
  H  H303  1  0.079000  0.871900  0.717300  1.0  0.148
  H  H304  1  0.138700  0.781400  0.862300  1.0  0.113
  H  H305  1  0.163200  0.793500  0.783100  1.0  0.1086
  H  H306  1  0.273800  0.899200  0.894000  1.0  0.1029
  H  H307  1  0.711000  0.605700  0.602700  1.0  0.0752
  H  H308  1  0.824200  0.712300  0.702500  1.0  0.0976
  H  H309  1  0.825300  0.617000  0.611500  1.0  0.1108
  H  H310  1  0.906200  0.632800  0.770200  1.0  0.1173
  H  H311  1  0.994700  0.620100  0.774200  1.0  0.1096
  H  H312  1  0.845800  0.715200  0.618600  1.0  0.1165
  H  H313  1  0.845400  0.628100  0.707100  1.0  0.1493
  H  H314  1  0.080900  0.718600  0.857300  1.0  0.1141
  H  H315  1  0.989600  0.706500  0.869700  1.0  0.1091
  H  H316  1  0.994800  0.600800  0.874600  1.0  0.1029
  C  C317  1  0.660300  0.263400  0.162300  1.0  -0.1932
  C  C318  1  0.620100  0.242200  0.124700  1.0  -0.0244
  C  C319  1  0.623300  0.308200  0.132300  1.0  -0.1456
  C  C320  1  0.660900  0.328200  0.168900  1.0  0.0992
  C  C321  1  0.681400  0.308700  0.186700  1.0  -0.0958
  C  C322  1  0.685100  0.377800  0.194700  1.0  -0.1158
  C  C323  1  0.679200  0.399800  0.228800  1.0  0.1848
  C  C324  1  0.681500  0.238100  0.174400  1.0  0.7333
  C  C325  1  0.719000  0.399100  0.187900  1.0  0.1376
  C  C326  1  0.760800  0.410000  0.154400  1.0  -0.1056
  C  C327  1  0.769900  0.451700  0.187600  1.0  0.1301
  C  C328  1  0.800400  0.491800  0.197400  1.0  -0.0384
  C  C329  1  0.808900  0.531000  0.226900  1.0  0.1421
  C  C330  1  0.864900  0.494100  0.193200  1.0  -0.111
  C  C331  1  0.645300  0.376300  0.237200  1.0  -0.1922
  C  C332  1  0.729200  0.376100  0.155100  1.0  -0.1045
  C  C333  1  0.824500  0.490600  0.172500  1.0  0.0318
  C  C334  1  0.843600  0.576600  0.235800  1.0  -0.1676
  C  C335  1  0.810300  0.490800  0.133500  1.0  -0.072
  C  C336  1  0.890800  0.496700  0.174500  1.0  -0.1662
  C  C337  1  0.876800  0.494900  0.134100  1.0  -0.0591
  C  C338  1  0.836700  0.493000  0.114500  1.0  -0.1049
  C  C339  1  0.600600  0.262100  0.109500  1.0  -0.0879
  C  C340  1  0.556300  0.237900  0.069400  1.0  0.7246
  C  C341  1  0.822600  0.495600  0.073000  1.0  0.7224
  C  C342  1  0.936200  0.503000  0.197200  1.0  0.6668
  C  C343  1  0.601100  0.498000  0.337700  1.0  -0.1876
  C  C344  1  0.617500  0.495400  0.375300  1.0  -0.0273
  C  C345  1  0.675900  0.491000  0.367700  1.0  -0.1452
  C  C346  1  0.659300  0.492000  0.331100  1.0  0.0974
  C  C347  1  0.622000  0.494700  0.313300  1.0  -0.0969
  C  C348  1  0.683100  0.490400  0.305300  1.0  -0.1159
  C  C349  1  0.671000  0.450400  0.271200  1.0  0.1856
  C  C350  1  0.563700  0.507100  0.325600  1.0  0.734
  C  C351  1  0.711200  0.531100  0.312100  1.0  0.1375
  C  C352  1  0.755600  0.606400  0.345600  1.0  -0.1028
  C  C353  1  0.764100  0.582300  0.312400  1.0  0.1282
  C  C354  1  0.794400  0.603000  0.302600  1.0  -0.0379
  C  C355  1  0.804100  0.582000  0.273100  1.0  0.1415
  C  C356  1  0.800900  0.671700  0.306800  1.0  -0.111
  C  C357  1  0.639100  0.408100  0.262800  1.0  -0.1927
  C  C358  1  0.721000  0.574100  0.344900  1.0  -0.1059
  C  C359  1  0.818100  0.652000  0.327500  1.0  0.0318
  C  C360  1  0.840800  0.607800  0.264200  1.0  -0.1672
  C  C361  1  0.857300  0.676800  0.366500  1.0  -0.0716
  C  C362  1  0.822200  0.716300  0.325500  1.0  -0.168
  C  C363  1  0.860800  0.742700  0.365900  1.0  -0.0563
  C  C364  1  0.878500  0.722200  0.385500  1.0  -0.1084
  C  C365  1  0.652600  0.491100  0.390500  1.0  -0.0831
  C  C366  1  0.668500  0.486900  0.430600  1.0  0.724
  C  C367  1  0.922600  0.749600  0.427000  1.0  0.7226
  C  C368  1  0.805800  0.739000  0.302800  1.0  0.6658
  C  C369  1  0.898900  0.236600  0.896900  1.0  -0.1924
  C  C370  1  0.882500  0.257800  0.877900  1.0  -0.0252
  C  C371  1  0.824100  0.191800  0.815100  1.0  -0.1447
  C  C372  1  0.840700  0.171800  0.832700  1.0  0.0992
  C  C373  1  0.878000  0.191300  0.872700  1.0  -0.0955
  C  C374  1  0.816900  0.122200  0.807300  1.0  -0.1166
  C  C375  1  0.829000  0.100200  0.779400  1.0  0.1875
  C  C376  1  0.936300  0.261900  0.943400  1.0  0.7331
  C  C377  1  0.788800  0.100900  0.819900  1.0  0.1365
  C  C378  1  0.744400  0.090000  0.850800  1.0  -0.1057
  C  C379  1  0.735900  0.048300  0.818200  1.0  0.1287
  C  C380  1  0.705600  0.008200  0.808600  1.0  -0.0377
  C  C381  1  0.695900  0.969000  0.777900  1.0  0.1433
  C  C382  1  0.699100  0.005900  0.870800  1.0  -0.1131
  C  C383  1  0.860900  0.123700  0.769000  1.0  -0.1939
  C  C384  1  0.779000  0.123900  0.853100  1.0  -0.1039
  C  C385  1  0.681900  0.009400  0.833900  1.0  0.0319
  C  C386  1  0.659200  0.923400  0.767000  1.0  -0.1685
  C  C387  1  0.642700  0.009200  0.819500  1.0  -0.0707
  C  C388  1  0.677800  0.003300  0.894100  1.0  -0.1641
  C  C389  1  0.639200  0.005100  0.881900  1.0  -0.0613
  C  C390  1  0.621500  0.007000  0.843700  1.0  -0.1053
  C  C391  1  0.847400  0.237900  0.838500  1.0  -0.089
  C  C392  1  0.831500  0.262100  0.818400  1.0  0.7242
  C  C393  1  0.577400  0.004400  0.827000  1.0  0.724
  C  C394  1  0.694200  0.997000  0.933200  1.0  0.6694
  C  C395  1  0.839700  0.002000  0.603100  1.0  -0.1843
  C  C396  1  0.879900  0.004600  0.622100  1.0  -0.0283
  C  C397  1  0.876700  0.009000  0.684900  1.0  -0.1431
  C  C398  1  0.839100  0.008000  0.667300  1.0  0.0978
  C  C399  1  0.818600  0.005300  0.627300  1.0  -0.0981
  C  C400  1  0.814900  0.009600  0.692700  1.0  -0.115
  C  C401  1  0.820800  0.049600  0.720600  1.0  0.1862
  C  C402  1  0.818500  0.992900  0.556600  1.0  0.7333
  C  C403  1  0.781000  0.968900  0.680100  1.0  0.1369
  C  C404  1  0.739200  0.893600  0.649200  1.0  -0.1026
  C  C405  1  0.730100  0.917700  0.681800  1.0  0.1289
  C  C406  1  0.699600  0.897000  0.691400  1.0  -0.0369
  C  C407  1  0.691100  0.918000  0.722100  1.0  0.1397
  C  C408  1  0.635100  0.828300  0.629200  1.0  -0.1117
  C  C409  1  0.854700  0.091900  0.731000  1.0  -0.1962
  C  C410  1  0.770800  0.925900  0.646900  1.0  -0.1059
  C  C411  1  0.675500  0.848000  0.666100  1.0  0.0316
  C  C412  1  0.656400  0.892200  0.733000  1.0  -0.1651
  C  C413  1  0.689700  0.823200  0.680500  1.0  -0.0716
  C  C414  1  0.609200  0.783700  0.605900  1.0  -0.1685
  C  C415  1  0.623200  0.757300  0.618100  1.0  -0.0546
  C  C416  1  0.663300  0.777800  0.656300  1.0  -0.1055
  C  C417  1  0.899400  0.008900  0.661500  1.0  -0.0863
  C  C418  1  0.943700  0.013100  0.681600  1.0  0.7248
  C  C419  1  0.677400  0.750400  0.673000  1.0  0.7217
  C  C420  1  0.563800  0.761000  0.566800  1.0  0.6676
  C  C421  1  0.396900  0.898900  0.736600  1.0  -0.1886
  C  C422  1  0.377900  0.882500  0.757800  1.0  -0.0279
  C  C423  1  0.315100  0.824100  0.691800  1.0  -0.1452
  C  C424  1  0.332700  0.840700  0.671800  1.0  0.0977
  C  C425  1  0.372700  0.878000  0.691300  1.0  -0.0987
  C  C426  1  0.307300  0.816900  0.622200  1.0  -0.1168
  C  C427  1  0.279400  0.829000  0.600200  1.0  0.1901
  C  C428  1  0.443400  0.936300  0.761900  1.0  0.7324
  C  C429  1  0.319900  0.788800  0.600900  1.0  0.1382
  C  C430  1  0.350800  0.744400  0.590000  1.0  -0.1027
  C  C431  1  0.318200  0.735900  0.548300  1.0  0.1289
  C  C432  1  0.308600  0.705600  0.508200  1.0  -0.0374
  C  C433  1  0.277900  0.695900  0.469000  1.0  0.141
  C  C434  1  0.370800  0.699100  0.505900  1.0  -0.1117
  C  C435  1  0.269000  0.860900  0.623700  1.0  -0.1925
  C  C436  1  0.353100  0.779000  0.623900  1.0  -0.1008
  C  C437  1  0.333900  0.681900  0.509400  1.0  0.0321
  C  C438  1  0.267000  0.659200  0.423400  1.0  -0.1681
  C  C439  1  0.319500  0.642700  0.509200  1.0  -0.0732
  C  C440  1  0.394100  0.677800  0.503300  1.0  -0.1681
  C  C441  1  0.381900  0.639200  0.505100  1.0  -0.058
  C  C442  1  0.343700  0.621500  0.507000  1.0  -0.1075
  C  C443  1  0.338500  0.847400  0.737900  1.0  -0.0832
  C  C444  1  0.318400  0.831500  0.762100  1.0  0.7241
  C  C445  1  0.327000  0.577400  0.504400  1.0  0.7231
  C  C446  1  0.433200  0.694200  0.497000  1.0  0.6677
  C  C447  1  0.103100  0.839700  0.502000  1.0  -0.191
  C  C448  1  0.122100  0.879900  0.504600  1.0  -0.0256
  C  C449  1  0.184900  0.876700  0.509000  1.0  -0.1461
  C  C450  1  0.167300  0.839100  0.508000  1.0  0.0973
  C  C451  1  0.127300  0.818600  0.505300  1.0  -0.0962
  C  C452  1  0.192700  0.814900  0.509600  1.0  -0.1157
  C  C453  1  0.220600  0.820800  0.549600  1.0  0.1871
  C  C454  1  0.056600  0.818500  0.492900  1.0  0.7339
  C  C455  1  0.180100  0.781000  0.468900  1.0  0.1378
  C  C456  1  0.149200  0.739200  0.393600  1.0  -0.1027
  C  C457  1  0.181800  0.730100  0.417700  1.0  0.1275
  C  C458  1  0.191400  0.699600  0.397000  1.0  -0.0381
  C  C459  1  0.222100  0.691100  0.418000  1.0  0.1404
  C  C460  1  0.129200  0.635100  0.328300  1.0  -0.1147
  C  C461  1  0.231000  0.854700  0.591900  1.0  -0.195
  C  C462  1  0.146900  0.770800  0.425900  1.0  -0.1053
  C  C463  1  0.166100  0.675500  0.348000  1.0  0.0312
  C  C464  1  0.233000  0.656400  0.392200  1.0  -0.1675
  C  C465  1  0.180500  0.689700  0.323200  1.0  -0.074
  C  C466  1  0.105900  0.609200  0.283700  1.0  -0.165
  C  C467  1  0.118100  0.623200  0.257300  1.0  -0.0573
  C  C468  1  0.156300  0.663300  0.277800  1.0  -0.1048
  C  C469  1  0.161500  0.899400  0.508900  1.0  -0.0856
  C  C470  1  0.181600  0.943700  0.513100  1.0  0.7252
  C  C471  1  0.173000  0.677400  0.250400  1.0  0.7233
  C  C472  1  0.066800  0.563800  0.261000  1.0  0.6689
  C  C473  1  0.662300  0.660300  0.763400  1.0  -0.1841
  C  C474  1  0.624700  0.620100  0.742200  1.0  -0.0255
  C  C475  1  0.632300  0.623300  0.808200  1.0  -0.1447
  C  C476  1  0.668900  0.660900  0.828200  1.0  0.099
  C  C477  1  0.686700  0.681400  0.808700  1.0  -0.0983
  C  C478  1  0.694700  0.685100  0.877800  1.0  -0.1137
  C  C479  1  0.728800  0.679200  0.899800  1.0  0.1856
  C  C480  1  0.674400  0.681500  0.738100  1.0  0.7327
  C  C481  1  0.687900  0.719000  0.899100  1.0  0.1371
  C  C482  1  0.654400  0.760800  0.910000  1.0  -0.1035
  C  C483  1  0.687600  0.769900  0.951700  1.0  0.1307
  C  C484  1  0.697400  0.800400  0.991800  1.0  -0.0371
  C  C485  1  0.726900  0.808900  0.031000  1.0  0.14
  C  C486  1  0.693200  0.864900  0.994100  1.0  -0.114
  C  C487  1  0.737200  0.645300  0.876300  1.0  -0.1902
  C  C488  1  0.655100  0.729200  0.876100  1.0  -0.1033
  C  C489  1  0.672500  0.824500  0.990600  1.0  0.0323
  C  C490  1  0.735800  0.843600  0.076600  1.0  -0.1663
  C  C491  1  0.633500  0.810300  0.990800  1.0  -0.0724
  C  C492  1  0.674500  0.890800  0.996700  1.0  -0.1639
  C  C493  1  0.634100  0.876800  0.994900  1.0  -0.0569
  C  C494  1  0.614500  0.836700  0.993000  1.0  -0.105
  C  C495  1  0.609500  0.600600  0.762100  1.0  -0.0857
  C  C496  1  0.569400  0.556300  0.737900  1.0  0.7256
  C  C497  1  0.573000  0.822600  0.995600  1.0  0.7226
  C  C498  1  0.697200  0.936200  0.003000  1.0  0.6671
  C  C499  1  0.837700  0.601100  0.998000  1.0  -0.192
  C  C500  1  0.875300  0.617500  0.995400  1.0  -0.026
  C  C501  1  0.867700  0.675900  0.991000  1.0  -0.1454
  C  C502  1  0.831100  0.659300  0.992000  1.0  0.0972
  C  C503  1  0.813300  0.622000  0.994700  1.0  -0.097
  C  C504  1  0.805300  0.683100  0.990400  1.0  -0.1169
  C  C505  1  0.771200  0.671000  0.950400  1.0  0.1879
  C  C506  1  0.825600  0.563700  0.007100  1.0  0.7324
  C  C507  1  0.812100  0.711200  0.031100  1.0  0.1368
  C  C508  1  0.845600  0.755600  0.106400  1.0  -0.1033
  C  C509  1  0.812400  0.764100  0.082300  1.0  0.1278
  C  C510  1  0.802600  0.794400  0.103000  1.0  -0.0381
  C  C511  1  0.773100  0.804100  0.082000  1.0  0.1423
  C  C512  1  0.806800  0.800900  0.171700  1.0  -0.1134
  C  C513  1  0.762800  0.639100  0.908100  1.0  -0.1956
  C  C514  1  0.844900  0.721000  0.074100  1.0  -0.1032
  C  C515  1  0.827500  0.818100  0.152000  1.0  0.032
  C  C516  1  0.764200  0.840800  0.107800  1.0  -0.165
  C  C517  1  0.866500  0.857300  0.176800  1.0  -0.0727
  C  C518  1  0.825500  0.822200  0.216300  1.0  -0.162
  C  C519  1  0.865900  0.860800  0.242700  1.0  -0.06
  C  C520  1  0.885500  0.878500  0.222200  1.0  -0.1058
  C  C521  1  0.890500  0.652600  0.991100  1.0  -0.0877
  C  C522  1  0.930600  0.668500  0.986900  1.0  0.7247
  C  C523  1  0.927000  0.922600  0.249600  1.0  0.7231
  C  C524  1  0.802800  0.805800  0.239000  1.0  0.6673
  C  C525  1  0.498000  0.837700  0.101100  1.0  -0.185
  C  C526  1  0.495400  0.875300  0.117500  1.0  -0.0276
  C  C527  1  0.491000  0.867700  0.175900  1.0  -0.1465
  C  C528  1  0.492000  0.831100  0.159300  1.0  0.0995
  C  C529  1  0.494700  0.813300  0.122000  1.0  -0.0985
  C  C530  1  0.490400  0.805300  0.183100  1.0  -0.1144
  C  C531  1  0.450400  0.771200  0.171000  1.0  0.1876
  C  C532  1  0.507100  0.825600  0.063700  1.0  0.7327
  C  C533  1  0.531100  0.812100  0.211200  1.0  0.1355
  C  C534  1  0.606400  0.845600  0.255600  1.0  -0.1056
  C  C535  1  0.582300  0.812400  0.264100  1.0  0.1297
  C  C536  1  0.603000  0.802600  0.294400  1.0  -0.0378
  C  C537  1  0.582000  0.773100  0.304100  1.0  0.1429
  C  C538  1  0.671700  0.806800  0.300900  1.0  -0.112
  C  C539  1  0.408100  0.762800  0.139100  1.0  -0.1907
  C  C540  1  0.574100  0.844900  0.221000  1.0  -0.1029
  C  C541  1  0.652000  0.827500  0.318100  1.0  0.0312
  C  C542  1  0.607800  0.764200  0.340800  1.0  -0.1629
  C  C543  1  0.676800  0.866500  0.357300  1.0  -0.0735
  C  C544  1  0.716300  0.825500  0.322200  1.0  -0.168
  C  C545  1  0.742700  0.865900  0.360800  1.0  -0.0585
  C  C546  1  0.722200  0.885500  0.378500  1.0  -0.1041
  C  C547  1  0.491100  0.890500  0.152600  1.0  -0.0868
  C  C548  1  0.486900  0.930600  0.168500  1.0  0.7245
  C  C549  1  0.749600  0.927000  0.422600  1.0  0.7235
  C  C550  1  0.739000  0.802800  0.305800  1.0  0.667
  C  C551  1  0.263400  0.662300  0.160300  1.0  -0.1904
  C  C552  1  0.242200  0.624700  0.120100  1.0  -0.0234
  C  C553  1  0.308200  0.632300  0.123300  1.0  -0.146
  C  C554  1  0.328200  0.668900  0.160900  1.0  0.0984
  C  C555  1  0.308700  0.686700  0.181400  1.0  -0.0955
  C  C556  1  0.377800  0.694700  0.185100  1.0  -0.116
  C  C557  1  0.399800  0.728800  0.179200  1.0  0.1842
  C  C558  1  0.238100  0.674400  0.181500  1.0  0.7327
  C  C559  1  0.399100  0.687900  0.219000  1.0  0.1369
  C  C560  1  0.410000  0.654400  0.260800  1.0  -0.1037
  C  C561  1  0.451700  0.687600  0.269900  1.0  0.1273
  C  C562  1  0.491800  0.697400  0.300400  1.0  -0.038
  C  C563  1  0.531000  0.726900  0.308900  1.0  0.1415
  C  C564  1  0.494100  0.693200  0.364900  1.0  -0.115
  C  C565  1  0.376300  0.737200  0.145300  1.0  -0.1915
  C  C566  1  0.376100  0.655100  0.229200  1.0  -0.1065
  C  C567  1  0.490600  0.672500  0.324500  1.0  0.0323
  C  C568  1  0.576600  0.735800  0.343600  1.0  -0.1616
  C  C569  1  0.490800  0.633500  0.310300  1.0  -0.0736
  C  C570  1  0.496700  0.674500  0.390800  1.0  -0.1627
  C  C571  1  0.494900  0.634100  0.376800  1.0  -0.0596
  C  C572  1  0.493000  0.614500  0.336700  1.0  -0.1044
  C  C573  1  0.262100  0.609500  0.100600  1.0  -0.088
  C  C574  1  0.237900  0.569400  0.056300  1.0  0.7238
  C  C575  1  0.495600  0.573000  0.322600  1.0  0.7226
  C  C576  1  0.503000  0.697200  0.436200  1.0  0.6693
  C  C577  1  0.002000  0.103100  0.339700  1.0  -0.1905
  C  C578  1  0.004600  0.122100  0.379900  1.0  -0.0279
  C  C579  1  0.009000  0.184900  0.376700  1.0  -0.1466
  C  C580  1  0.008000  0.167300  0.339100  1.0  0.0971
  C  C581  1  0.005300  0.127300  0.318600  1.0  -0.0973
  C  C582  1  0.009600  0.192700  0.314900  1.0  -0.1162
  C  C583  1  0.049600  0.220600  0.320800  1.0  0.1884
  C  C584  1  0.992900  0.056600  0.318500  1.0  0.7333
  C  C585  1  0.968900  0.180100  0.281000  1.0  0.1368
  C  C586  1  0.893600  0.149200  0.239200  1.0  -0.1031
  C  C587  1  0.917700  0.181800  0.230100  1.0  0.1295
  C  C588  1  0.897000  0.191400  0.199600  1.0  -0.037
  C  C589  1  0.918000  0.222100  0.191100  1.0  0.1396
  C  C590  1  0.828300  0.129200  0.135100  1.0  -0.1138
  C  C591  1  0.091900  0.231000  0.354700  1.0  -0.1931
  C  C592  1  0.925900  0.146900  0.270800  1.0  -0.1054
  C  C593  1  0.848000  0.166100  0.175500  1.0  0.0305
  C  C594  1  0.892200  0.233000  0.156400  1.0  -0.1642
  C  C595  1  0.823200  0.180500  0.189700  1.0  -0.0715
  C  C596  1  0.783700  0.105900  0.109200  1.0  -0.1628
  C  C597  1  0.757300  0.118100  0.123200  1.0  -0.0529
  C  C598  1  0.777800  0.156300  0.163300  1.0  -0.1075
  C  C599  1  0.008900  0.161500  0.399400  1.0  -0.0831
  C  C600  1  0.013100  0.181600  0.443700  1.0  0.7246
  C  C601  1  0.750400  0.173000  0.177400  1.0  0.7237
  C  C602  1  0.761000  0.066800  0.063800  1.0  0.6667
  C  C603  1  0.236600  0.396900  0.398900  1.0  -0.1916
  C  C604  1  0.257800  0.377900  0.382500  1.0  -0.027
  C  C605  1  0.191800  0.315100  0.324100  1.0  -0.144
  C  C606  1  0.171800  0.332700  0.340700  1.0  0.0969
  C  C607  1  0.191300  0.372700  0.378000  1.0  -0.099
  C  C608  1  0.122200  0.307300  0.316900  1.0  -0.1167
  C  C609  1  0.100200  0.279400  0.329000  1.0  0.1889
  C  C610  1  0.261900  0.443400  0.436300  1.0  0.734
  C  C611  1  0.100900  0.319900  0.288800  1.0  0.1379
  C  C612  1  0.090000  0.350800  0.244400  1.0  -0.1033
  C  C613  1  0.048300  0.318200  0.235900  1.0  0.1275
  C  C614  1  0.008200  0.308600  0.205600  1.0  -0.0385
  C  C615  1  0.969000  0.277900  0.195900  1.0  0.1406
  C  C616  1  0.005900  0.370800  0.199100  1.0  -0.116
  C  C617  1  0.123700  0.269000  0.360900  1.0  -0.1891
  C  C618  1  0.123900  0.353100  0.279000  1.0  -0.1063
  C  C619  1  0.009400  0.333900  0.181900  1.0  0.0315
  C  C620  1  0.923400  0.267000  0.159200  1.0  -0.1646
  C  C621  1  0.009200  0.319500  0.142700  1.0  -0.0731
  C  C622  1  0.003300  0.394100  0.177800  1.0  -0.1657
  C  C623  1  0.005100  0.381900  0.139200  1.0  -0.058
  C  C624  1  0.007000  0.343700  0.121500  1.0  -0.1049
  C  C625  1  0.237900  0.338500  0.347400  1.0  -0.086
  C  C626  1  0.262100  0.318400  0.331500  1.0  0.7249
  C  C627  1  0.004400  0.327000  0.077400  1.0  0.7232
  C  C628  1  0.997000  0.433200  0.194200  1.0  0.6671
  C  C629  1  0.339700  0.736600  0.837700  1.0  -0.1926
  C  C630  1  0.379900  0.757800  0.875300  1.0  -0.0236
  C  C631  1  0.376700  0.691800  0.867700  1.0  -0.1457
  C  C632  1  0.339100  0.671800  0.831100  1.0  0.099
  C  C633  1  0.318600  0.691300  0.813300  1.0  -0.0971
  C  C634  1  0.314900  0.622200  0.805300  1.0  -0.1168
  C  C635  1  0.320800  0.600200  0.771200  1.0  0.1873
  C  C636  1  0.318500  0.761900  0.825600  1.0  0.7341
  C  C637  1  0.281000  0.600900  0.812100  1.0  0.1385
  C  C638  1  0.239200  0.590000  0.845600  1.0  -0.1062
  C  C639  1  0.230100  0.548300  0.812400  1.0  0.1278
  C  C640  1  0.199600  0.508200  0.802600  1.0  -0.0375
  C  C641  1  0.191100  0.469000  0.773100  1.0  0.1423
  C  C642  1  0.135100  0.505900  0.806800  1.0  -0.1116
  C  C643  1  0.354700  0.623700  0.762800  1.0  -0.1945
  C  C644  1  0.270800  0.623900  0.844900  1.0  -0.1035
  C  C645  1  0.175500  0.509400  0.827500  1.0  0.0325
  C  C646  1  0.156400  0.423400  0.764200  1.0  -0.1683
  C  C647  1  0.189700  0.509200  0.866500  1.0  -0.072
  C  C648  1  0.109200  0.503300  0.825500  1.0  -0.1663
  C  C649  1  0.123200  0.505100  0.865900  1.0  -0.056
  C  C650  1  0.163300  0.507000  0.885500  1.0  -0.1052
  C  C651  1  0.399400  0.737900  0.890500  1.0  -0.0876
  C  C652  1  0.443700  0.762100  0.930600  1.0  0.7247
  C  C653  1  0.177400  0.504400  0.927000  1.0  0.7227
  C  C654  1  0.063800  0.497000  0.802800  1.0  0.6674
  C  C655  1  0.398900  0.502000  0.662300  1.0  -0.1871
  C  C656  1  0.382500  0.504600  0.624700  1.0  -0.0293
  C  C657  1  0.324100  0.509000  0.632300  1.0  -0.1452
  C  C658  1  0.340700  0.508000  0.668900  1.0  0.0982
  C  C659  1  0.378000  0.505300  0.686700  1.0  -0.094
  C  C660  1  0.316900  0.509600  0.694700  1.0  -0.1173
  C  C661  1  0.329000  0.549600  0.728800  1.0  0.187
  C  C662  1  0.436300  0.492900  0.674400  1.0  0.7336
  C  C663  1  0.288800  0.468900  0.687900  1.0  0.1373
  C  C664  1  0.244400  0.393600  0.654400  1.0  -0.103
  C  C665  1  0.235900  0.417700  0.687600  1.0  0.1288
  C  C666  1  0.205600  0.397000  0.697400  1.0  -0.0371
  C  C667  1  0.195900  0.418000  0.726900  1.0  0.1395
  C  C668  1  0.199100  0.328300  0.693200  1.0  -0.1117
  C  C669  1  0.360900  0.591900  0.737200  1.0  -0.1953
  C  C670  1  0.279000  0.425900  0.655100  1.0  -0.1062
  C  C671  1  0.181900  0.348000  0.672500  1.0  0.0325
  C  C672  1  0.159200  0.392200  0.735800  1.0  -0.1656
  C  C673  1  0.142700  0.323200  0.633500  1.0  -0.0721
  C  C674  1  0.177800  0.283700  0.674500  1.0  -0.1681
  C  C675  1  0.139200  0.257300  0.634100  1.0  -0.0549
  C  C676  1  0.121500  0.277800  0.614500  1.0  -0.108
  C  C677  1  0.347400  0.508900  0.609500  1.0  -0.0829
  C  C678  1  0.331500  0.513100  0.569400  1.0  0.7246
  C  C679  1  0.077400  0.250400  0.573000  1.0  0.7231
  C  C680  1  0.194200  0.261000  0.697200  1.0  0.6657
  C  C681  1  0.101100  0.763400  0.103100  1.0  -0.1933
  C  C682  1  0.117500  0.742200  0.122100  1.0  -0.0241
  C  C683  1  0.175900  0.808200  0.184900  1.0  -0.1444
  C  C684  1  0.159300  0.828200  0.167300  1.0  0.0993
  C  C685  1  0.122000  0.808700  0.127300  1.0  -0.0969
  C  C686  1  0.183100  0.877800  0.192700  1.0  -0.1156
  C  C687  1  0.171000  0.899800  0.220600  1.0  0.1869
  C  C688  1  0.063700  0.738100  0.056600  1.0  0.7335
  C  C689  1  0.211200  0.899100  0.180100  1.0  0.1365
  C  C690  1  0.255600  0.910000  0.149200  1.0  -0.1052
  C  C691  1  0.264100  0.951700  0.181800  1.0  0.1304
  C  C692  1  0.294400  0.991800  0.191400  1.0  -0.0382
  C  C693  1  0.304100  0.031000  0.222100  1.0  0.1402
  C  C694  1  0.300900  0.994100  0.129200  1.0  -0.1134
  C  C695  1  0.139100  0.876300  0.231000  1.0  -0.1916
  C  C696  1  0.221000  0.876100  0.146900  1.0  -0.1045
  C  C697  1  0.318100  0.990600  0.166100  1.0  0.0317
  C  C698  1  0.340800  0.076600  0.233000  1.0  -0.168
  C  C699  1  0.357300  0.990800  0.180500  1.0  -0.0704
  C  C700  1  0.322200  0.996700  0.105900  1.0  -0.1647
  C  C701  1  0.360800  0.994900  0.118100  1.0  -0.0613
  C  C702  1  0.378500  0.993000  0.156300  1.0  -0.105
  C  C703  1  0.152600  0.762100  0.161500  1.0  -0.0896
  C  C704  1  0.168500  0.737900  0.181600  1.0  0.7241
  C  C705  1  0.422600  0.995600  0.173000  1.0  0.7236
  C  C706  1  0.305800  0.003000  0.066800  1.0  0.6666
  C  C707  1  0.160300  0.998000  0.396900  1.0  -0.1846
  C  C708  1  0.120100  0.995400  0.377900  1.0  -0.0275
  C  C709  1  0.123300  0.991000  0.315100  1.0  -0.1425
  C  C710  1  0.160900  0.992000  0.332700  1.0  0.0988
  C  C711  1  0.181400  0.994700  0.372700  1.0  -0.097
  C  C712  1  0.185100  0.990400  0.307300  1.0  -0.1138
  C  C713  1  0.179200  0.950400  0.279400  1.0  0.1869
  C  C714  1  0.181500  0.007100  0.443400  1.0  0.7319
  C  C715  1  0.219000  0.031100  0.319900  1.0  0.1372
  C  C716  1  0.260800  0.106400  0.350800  1.0  -0.1024
  C  C717  1  0.269900  0.082300  0.318200  1.0  0.1282
  C  C718  1  0.300400  0.103000  0.308600  1.0  -0.0378
  C  C719  1  0.308900  0.082000  0.277900  1.0  0.1411
  C  C720  1  0.364900  0.171700  0.370800  1.0  -0.1117
  C  C721  1  0.145300  0.908100  0.269000  1.0  -0.1937
  C  C722  1  0.229200  0.074100  0.353100  1.0  -0.1071
  C  C723  1  0.324500  0.152000  0.333900  1.0  0.0315
  C  C724  1  0.343600  0.107800  0.267000  1.0  -0.1664
  C  C725  1  0.310300  0.176800  0.319500  1.0  -0.0726
  C  C726  1  0.390800  0.216300  0.394100  1.0  -0.1686
  C  C727  1  0.376800  0.242700  0.381900  1.0  -0.0563
  C  C728  1  0.336700  0.222200  0.343700  1.0  -0.1049
  C  C729  1  0.100600  0.991100  0.338500  1.0  -0.0872
  C  C730  1  0.056300  0.986900  0.318400  1.0  0.7255
  C  C731  1  0.322600  0.249600  0.327000  1.0  0.7218
  C  C732  1  0.436200  0.239000  0.433200  1.0  0.667
  C  C733  1  0.603100  0.101100  0.263400  1.0  -0.1912
  C  C734  1  0.622100  0.117500  0.242200  1.0  -0.0261
  C  C735  1  0.684900  0.175900  0.308200  1.0  -0.1466
  C  C736  1  0.667300  0.159300  0.328200  1.0  0.0976
  C  C737  1  0.627300  0.122000  0.308700  1.0  -0.0965
  C  C738  1  0.692700  0.183100  0.377800  1.0  -0.1166
  C  C739  1  0.720600  0.171000  0.399800  1.0  0.1857
  C  C740  1  0.556600  0.063700  0.238100  1.0  0.733
  C  C741  1  0.680100  0.211200  0.399100  1.0  0.1365
  C  C742  1  0.649200  0.255600  0.410000  1.0  -0.1042
  C  C743  1  0.681800  0.264100  0.451700  1.0  0.1308
  C  C744  1  0.691400  0.294400  0.491800  1.0  -0.0368
  C  C745  1  0.722100  0.304100  0.531000  1.0  0.1401
  C  C746  1  0.629200  0.300900  0.494100  1.0  -0.1141
  C  C747  1  0.731000  0.139100  0.376300  1.0  -0.1969
  C  C748  1  0.646900  0.221000  0.376100  1.0  -0.1037
  C  C749  1  0.666100  0.318100  0.490600  1.0  0.0321
  C  C750  1  0.733000  0.340800  0.576600  1.0  -0.1672
  C  C751  1  0.680500  0.357300  0.490800  1.0  -0.0737
  C  C752  1  0.605900  0.322200  0.496700  1.0  -0.1682
  C  C753  1  0.618100  0.360800  0.494900  1.0  -0.0562
  C  C754  1  0.656300  0.378500  0.493000  1.0  -0.1071
  C  C755  1  0.661500  0.152600  0.262100  1.0  -0.0823
  C  C756  1  0.681600  0.168500  0.237900  1.0  0.7246
  C  C757  1  0.673000  0.422600  0.495600  1.0  0.7239
  C  C758  1  0.566800  0.305800  0.503000  1.0  0.6668
  C  C759  1  0.896900  0.160300  0.498000  1.0  -0.1901
  C  C760  1  0.877900  0.120100  0.495400  1.0  -0.0252
  C  C761  1  0.815100  0.123300  0.491000  1.0  -0.1451
  C  C762  1  0.832700  0.160900  0.492000  1.0  0.0989
  C  C763  1  0.872700  0.181400  0.494700  1.0  -0.0972
  C  C764  1  0.807300  0.185100  0.490400  1.0  -0.1169
  C  C765  1  0.779400  0.179200  0.450400  1.0  0.1881
  C  C766  1  0.943400  0.181500  0.507100  1.0  0.7329
  C  C767  1  0.819900  0.219000  0.531100  1.0  0.1377
  C  C768  1  0.850800  0.260800  0.606400  1.0  -0.1035
  C  C769  1  0.818200  0.269900  0.582300  1.0  0.1292
  C  C770  1  0.808600  0.300400  0.603000  1.0  -0.0384
  C  C771  1  0.777900  0.308900  0.582000  1.0  0.1424
  C  C772  1  0.870800  0.364900  0.671700  1.0  -0.1142
  C  C773  1  0.769000  0.145300  0.408100  1.0  -0.1918
  C  C774  1  0.853100  0.229200  0.574100  1.0  -0.1033
  C  C775  1  0.833900  0.324500  0.652000  1.0  0.0323
  C  C776  1  0.767000  0.343600  0.607800  1.0  -0.1651
  C  C777  1  0.819500  0.310300  0.676800  1.0  -0.0739
  C  C778  1  0.894100  0.390800  0.716300  1.0  -0.1669
  C  C779  1  0.881900  0.376800  0.742700  1.0  -0.0592
  C  C780  1  0.843700  0.336700  0.722200  1.0  -0.1049
  C  C781  1  0.838500  0.100600  0.491100  1.0  -0.0864
  C  C782  1  0.818400  0.056300  0.486900  1.0  0.7256
  C  C783  1  0.827000  0.322600  0.749600  1.0  0.7225
  C  C784  1  0.933200  0.436200  0.739000  1.0  0.6682
  C  C785  1  0.337700  0.339700  0.236600  1.0  -0.1843
  C  C786  1  0.375300  0.379900  0.257800  1.0  -0.0277
  C  C787  1  0.367700  0.376700  0.191800  1.0  -0.1447
  C  C788  1  0.331100  0.339100  0.171800  1.0  0.0992
  C  C789  1  0.313300  0.318600  0.191300  1.0  -0.0971
  C  C790  1  0.305300  0.314900  0.122200  1.0  -0.1138
  C  C791  1  0.271200  0.320800  0.100200  1.0  0.1868
  C  C792  1  0.325600  0.318500  0.261900  1.0  0.7336
  C  C793  1  0.312100  0.281000  0.100900  1.0  0.138
  C  C794  1  0.345600  0.239200  0.090000  1.0  -0.1022
  C  C795  1  0.312400  0.230100  0.048300  1.0  0.1291
  C  C796  1  0.302600  0.199600  0.008200  1.0  -0.0374
  C  C797  1  0.273100  0.191100  0.969000  1.0  0.1417
  C  C798  1  0.306800  0.135100  0.005900  1.0  -0.1138
  C  C799  1  0.262800  0.354700  0.123700  1.0  -0.1902
  C  C800  1  0.344900  0.270800  0.123900  1.0  -0.1011
  C  C801  1  0.327500  0.175500  0.009400  1.0  0.0322
  C  C802  1  0.264200  0.156400  0.923400  1.0  -0.168
  C  C803  1  0.366500  0.189700  0.009200  1.0  -0.0716
  C  C804  1  0.325500  0.109200  0.003300  1.0  -0.1635
  C  C805  1  0.365900  0.123200  0.005100  1.0  -0.0575
  C  C806  1  0.385500  0.163300  0.007000  1.0  -0.1055
  C  C807  1  0.390500  0.399400  0.237900  1.0  -0.0871
  C  C808  1  0.430600  0.443700  0.262100  1.0  0.7253
  C  C809  1  0.427000  0.177400  0.004400  1.0  0.7225
  C  C810  1  0.302800  0.063800  0.997000  1.0  0.6682
  C  C811  1  0.162300  0.398900  0.002000  1.0  -0.1915
  C  C812  1  0.124700  0.382500  0.004600  1.0  -0.024
  C  C813  1  0.132300  0.324100  0.009000  1.0  -0.1438
  C  C814  1  0.168900  0.340700  0.008000  1.0  0.098
  C  C815  1  0.186700  0.378000  0.005300  1.0  -0.0987
  C  C816  1  0.194700  0.316900  0.009600  1.0  -0.1165
  C  C817  1  0.228800  0.329000  0.049600  1.0  0.1848
  C  C818  1  0.174400  0.436300  0.992900  1.0  0.7325
  C  C819  1  0.187900  0.288800  0.968900  1.0  0.1375
  C  C820  1  0.154400  0.244400  0.893600  1.0  -0.1028
  C  C821  1  0.187600  0.235900  0.917700  1.0  0.1276
  C  C822  1  0.197400  0.205600  0.897000  1.0  -0.0378
  C  C823  1  0.226900  0.195900  0.918000  1.0  0.1415
  C  C824  1  0.193200  0.199100  0.828300  1.0  -0.1142
  C  C825  1  0.237200  0.360900  0.091900  1.0  -0.197
  C  C826  1  0.155100  0.279000  0.925900  1.0  -0.1052
  C  C827  1  0.172500  0.181900  0.848000  1.0  0.0309
  C  C828  1  0.235800  0.159200  0.892200  1.0  -0.1662
  C  C829  1  0.133500  0.142700  0.823200  1.0  -0.0737
  C  C830  1  0.174500  0.177800  0.783700  1.0  -0.1636
  C  C831  1  0.134100  0.139200  0.757300  1.0  -0.0588
  C  C832  1  0.114500  0.121500  0.777800  1.0  -0.1055
  C  C833  1  0.109500  0.347400  0.008900  1.0  -0.0874
  C  C834  1  0.069400  0.331500  0.013100  1.0  0.7236
  C  C835  1  0.073000  0.077400  0.750400  1.0  0.7229
  C  C836  1  0.197200  0.194200  0.761000  1.0  0.6685
  C  C837  1  0.502000  0.162300  0.898900  1.0  -0.1846
  C  C838  1  0.504600  0.124700  0.882500  1.0  -0.0269
  C  C839  1  0.509000  0.132300  0.824100  1.0  -0.1438
  C  C840  1  0.508000  0.168900  0.840700  1.0  0.0994
  C  C841  1  0.505300  0.186700  0.878000  1.0  -0.098
  C  C842  1  0.509600  0.194700  0.816900  1.0  -0.1139
  C  C843  1  0.549600  0.228800  0.829000  1.0  0.1873
  C  C844  1  0.492900  0.174400  0.936300  1.0  0.7326
  C  C845  1  0.468900  0.187900  0.788800  1.0  0.1369
  C  C846  1  0.393600  0.154400  0.744400  1.0  -0.1053
  C  C847  1  0.417700  0.187600  0.735900  1.0  0.1299
  C  C848  1  0.397000  0.197400  0.705600  1.0  -0.0369
  C  C849  1  0.418000  0.226900  0.695900  1.0  0.1402
  C  C850  1  0.328300  0.193200  0.699100  1.0  -0.1128
  C  C851  1  0.591900  0.237200  0.860900  1.0  -0.1919
  C  C852  1  0.425900  0.155100  0.779000  1.0  -0.1036
  C  C853  1  0.348000  0.172500  0.681900  1.0  0.0307
  C  C854  1  0.392200  0.235800  0.659200  1.0  -0.1637
  C  C855  1  0.323200  0.133500  0.642700  1.0  -0.0747
  C  C856  1  0.283700  0.174500  0.677800  1.0  -0.1682
  C  C857  1  0.257300  0.134100  0.639200  1.0  -0.0556
  C  C858  1  0.277800  0.114500  0.621500  1.0  -0.1044
  C  C859  1  0.508900  0.109500  0.847400  1.0  -0.0871
  C  C860  1  0.513100  0.069400  0.831500  1.0  0.7253
  C  C861  1  0.250400  0.073000  0.577400  1.0  0.7226
  C  C862  1  0.261000  0.197200  0.694200  1.0  0.6681
  C  C863  1  0.736600  0.337700  0.839700  1.0  -0.1899
  C  C864  1  0.757800  0.375300  0.879900  1.0  -0.0261
  C  C865  1  0.691800  0.367700  0.876700  1.0  -0.1478
  C  C866  1  0.671800  0.331100  0.839100  1.0  0.0987
  C  C867  1  0.691300  0.313300  0.818600  1.0  -0.0955
  C  C868  1  0.622200  0.305300  0.814900  1.0  -0.1176
  C  C869  1  0.600200  0.271200  0.820800  1.0  0.1866
  C  C870  1  0.761900  0.325600  0.818500  1.0  0.7319
  C  C871  1  0.600900  0.312100  0.781000  1.0  0.1379
  C  C872  1  0.590000  0.345600  0.739200  1.0  -0.1038
  C  C873  1  0.548300  0.312400  0.730100  1.0  0.1286
  C  C874  1  0.508200  0.302600  0.699600  1.0  -0.0379
  C  C875  1  0.469000  0.273100  0.691100  1.0  0.1418
  C  C876  1  0.505900  0.306800  0.635100  1.0  -0.1131
  C  C877  1  0.623700  0.262800  0.854700  1.0  -0.1888
  C  C878  1  0.623900  0.344900  0.770800  1.0  -0.1057
  C  C879  1  0.509400  0.327500  0.675500  1.0  0.0312
  C  C880  1  0.423400  0.264200  0.656400  1.0  -0.164
  C  C881  1  0.509200  0.366500  0.689700  1.0  -0.0742
  C  C882  1  0.503300  0.325500  0.609200  1.0  -0.1643
  C  C883  1  0.505100  0.365900  0.623200  1.0  -0.0586
  C  C884  1  0.507000  0.385500  0.663300  1.0  -0.1039
  C  C885  1  0.737900  0.390500  0.899400  1.0  -0.0887
  C  C886  1  0.762100  0.430600  0.943700  1.0  0.7241
  C  C887  1  0.504400  0.427000  0.677400  1.0  0.7224
  C  C888  1  0.497000  0.302800  0.563800  1.0  0.6703
  C  C889  1  0.998000  0.896900  0.660300  1.0  -0.1896
  C  C890  1  0.995400  0.877900  0.620100  1.0  -0.0267
  C  C891  1  0.991000  0.815100  0.623300  1.0  -0.1457
  C  C892  1  0.992000  0.832700  0.660900  1.0  0.098
  C  C893  1  0.994700  0.872700  0.681400  1.0  -0.0973
  C  C894  1  0.990400  0.807300  0.685100  1.0  -0.1167
  C  C895  1  0.950400  0.779400  0.679200  1.0  0.1877
  C  C896  1  0.007100  0.943400  0.681500  1.0  0.7347
  C  C897  1  0.031100  0.819900  0.719000  1.0  0.136
  C  C898  1  0.106400  0.850800  0.760800  1.0  -0.1054
  C  C899  1  0.082300  0.818200  0.769900  1.0  0.1296
  C  C900  1  0.103000  0.808600  0.800400  1.0  -0.038
  C  C901  1  0.082000  0.777900  0.808900  1.0  0.141
  C  C902  1  0.171700  0.870800  0.864900  1.0  -0.1151
  C  C903  1  0.908100  0.769000  0.645300  1.0  -0.1928
  C  C904  1  0.074100  0.853100  0.729200  1.0  -0.1026
  C  C905  1  0.152000  0.833900  0.824500  1.0  0.0324
  C  C906  1  0.107800  0.767000  0.843600  1.0  -0.1638
  C  C907  1  0.176800  0.819500  0.810300  1.0  -0.0711
  C  C908  1  0.216300  0.894100  0.890800  1.0  -0.1648
  C  C909  1  0.242700  0.881900  0.876800  1.0  -0.0576
  C  C910  1  0.222200  0.843700  0.836700  1.0  -0.1074
  C  C911  1  0.991100  0.838500  0.600600  1.0  -0.0827
  C  C912  1  0.986900  0.818400  0.556300  1.0  0.7238
  C  C913  1  0.249600  0.827000  0.822600  1.0  0.7235
  C  C914  1  0.239000  0.933200  0.936200  1.0  0.6655
  C  C915  1  0.763400  0.603100  0.601100  1.0  -0.1938
  C  C916  1  0.742200  0.622100  0.617500  1.0  -0.0229
  C  C917  1  0.808200  0.684900  0.675900  1.0  -0.1456
  C  C918  1  0.828200  0.667300  0.659300  1.0  0.0981
  C  C919  1  0.808700  0.627300  0.622000  1.0  -0.0986
  C  C920  1  0.877800  0.692700  0.683100  1.0  -0.1158
  C  C921  1  0.899800  0.720600  0.671000  1.0  0.1834
  C  C922  1  0.738100  0.556600  0.563700  1.0  0.7337
  C  C923  1  0.899100  0.680100  0.711200  1.0  0.1382
  C  C924  1  0.910000  0.649200  0.755600  1.0  -0.1021
  C  C925  1  0.951700  0.681800  0.764100  1.0  0.1284
  C  C926  1  0.991800  0.691400  0.794400  1.0  -0.038
  C  C927  1  0.031000  0.722100  0.804100  1.0  0.1403
  C  C928  1  0.994100  0.629200  0.800900  1.0  -0.1144
  C  C929  1  0.876300  0.731000  0.639100  1.0  -0.1921
  C  C930  1  0.876100  0.646900  0.721000  1.0  -0.1065
  C  C931  1  0.990600  0.666100  0.818100  1.0  0.0322
  C  C932  1  0.076600  0.733000  0.840800  1.0  -0.1613
  C  C933  1  0.990800  0.680500  0.857300  1.0  -0.0717
  C  C934  1  0.996700  0.605900  0.822200  1.0  -0.1649
  C  C935  1  0.994900  0.618100  0.860800  1.0  -0.0582
  C  C936  1  0.993000  0.656300  0.878500  1.0  -0.1054
  C  C937  1  0.762100  0.661500  0.652600  1.0  -0.0858
  C  C938  1  0.737900  0.681600  0.668500  1.0  0.7252
  C  C939  1  0.995600  0.673000  0.922600  1.0  0.7228
  C  C940  1  0.003000  0.566800  0.805800  1.0  0.667
  N  N941  1  0.743500  0.443700  0.206400  1.0  -0.3665
  N  N942  1  0.737300  0.537100  0.293600  1.0  -0.3658
  N  N943  1  0.762700  0.056300  0.799800  1.0  -0.3655
  N  N944  1  0.756500  0.962900  0.700200  1.0  -0.3663
  N  N945  1  0.299800  0.762700  0.556300  1.0  -0.3675
  N  N946  1  0.200200  0.756500  0.462900  1.0  -0.3678
  N  N947  1  0.706400  0.743500  0.943700  1.0  -0.3683
  N  N948  1  0.793600  0.737300  0.037100  1.0  -0.3673
  N  N949  1  0.537100  0.793600  0.237300  1.0  -0.3652
  N  N950  1  0.443700  0.706400  0.243500  1.0  -0.3655
  N  N951  1  0.962900  0.200200  0.256500  1.0  -0.3651
  N  N952  1  0.056300  0.299800  0.262700  1.0  -0.3653
  N  N953  1  0.256500  0.556300  0.793600  1.0  -0.3657
  N  N954  1  0.262700  0.462900  0.706400  1.0  -0.3663
  N  N955  1  0.237300  0.943700  0.200200  1.0  -0.3666
  N  N956  1  0.243500  0.037100  0.299800  1.0  -0.3659
  N  N957  1  0.700200  0.237300  0.443700  1.0  -0.3676
  N  N958  1  0.799800  0.243500  0.537100  1.0  -0.3671
  N  N959  1  0.293600  0.256500  0.056300  1.0  -0.3673
  N  N960  1  0.206400  0.262700  0.962900  1.0  -0.3692
  N  N961  1  0.462900  0.206400  0.762700  1.0  -0.3655
  N  N962  1  0.556300  0.293600  0.756500  1.0  -0.3651
  N  N963  1  0.037100  0.799800  0.743500  1.0  -0.3654
  N  N964  1  0.943700  0.700200  0.737300  1.0  -0.3651
  N  N965  1  0.693900  0.443900  0.250000  1.0  -0.3704
  N  N966  1  0.787900  0.537900  0.250000  1.0  -0.3928
  N  N967  1  0.806100  0.056100  0.750000  1.0  -0.3709
  N  N968  1  0.712100  0.962100  0.750000  1.0  -0.3915
  N  N969  1  0.250000  0.806100  0.556100  1.0  -0.3704
  N  N970  1  0.250000  0.712100  0.462100  1.0  -0.3932
  N  N971  1  0.750000  0.693900  0.943900  1.0  -0.3721
  N  N972  1  0.750000  0.787900  0.037900  1.0  -0.3925
  N  N973  1  0.443900  0.750000  0.193900  1.0  -0.3736
  N  N974  1  0.537900  0.750000  0.287900  1.0  -0.3935
  N  N975  1  0.056100  0.250000  0.306100  1.0  -0.3715
  N  N976  1  0.962100  0.250000  0.212100  1.0  -0.3944
  N  N977  1  0.306100  0.556100  0.750000  1.0  -0.3709
  N  N978  1  0.212100  0.462100  0.750000  1.0  -0.3922
  N  N979  1  0.193900  0.943900  0.250000  1.0  -0.3704
  N  N980  1  0.287900  0.037900  0.250000  1.0  -0.392
  N  N981  1  0.750000  0.193900  0.443900  1.0  -0.3721
  N  N982  1  0.750000  0.287900  0.537900  1.0  -0.3917
  N  N983  1  0.250000  0.306100  0.056100  1.0  -0.3704
  N  N984  1  0.250000  0.212100  0.962100  1.0  -0.3939
  N  N985  1  0.556100  0.250000  0.806100  1.0  -0.3715
  N  N986  1  0.462100  0.250000  0.712100  1.0  -0.3951
  N  N987  1  0.943900  0.750000  0.693900  1.0  -0.3736
  N  N988  1  0.037900  0.750000  0.787900  1.0  -0.3928
  O  O989  1  0.537900  0.196000  0.048700  1.0  -0.6642
  O  O990  1  0.846100  0.495400  0.056500  1.0  -0.66
  O  O991  1  0.715600  0.258900  0.210900  1.0  -0.6491
  O  O992  1  0.788700  0.496700  0.057800  1.0  -0.6346
  O  O993  1  0.541800  0.260400  0.059200  1.0  -0.6054
  O  O994  1  0.947200  0.498200  0.229800  1.0  -0.6258
  O  O995  1  0.662400  0.197400  0.148600  1.0  -0.6773
  O  O996  1  0.959000  0.514100  0.180100  1.0  -0.6169
  O  O997  1  0.647300  0.489200  0.451300  1.0  -0.6653
  O  O998  1  0.938900  0.789600  0.443500  1.0  -0.6685
  O  O999  1  0.548000  0.504700  0.289100  1.0  -0.6473
  O  O1000  1  0.938900  0.730900  0.442200  1.0  -0.6321
  O  O1001  1  0.701200  0.482600  0.440800  1.0  -0.6049
  O  O1002  1  0.768400  0.717400  0.270200  1.0  -0.6279
  O  O1003  1  0.548800  0.513800  0.351400  1.0  -0.6726
  O  O1004  1  0.834000  0.778900  0.319900  1.0  -0.6197
  O  O1005  1  0.852700  0.304000  0.841900  1.0  -0.6646
  O  O1006  1  0.561100  0.004600  0.850700  1.0  -0.6561
  O  O1007  1  0.952000  0.241100  0.956700  1.0  -0.6495
  O  O1008  1  0.561100  0.003300  0.792000  1.0  -0.6299
  O  O1009  1  0.798800  0.239600  0.781400  1.0  -0.6045
  O  O1010  1  0.731600  0.001800  0.949000  1.0  -0.6297
  O  O1011  1  0.951200  0.302600  0.965000  1.0  -0.6771
  O  O1012  1  0.666000  0.985900  0.944900  1.0  -0.616
  O  O1013  1  0.962100  0.010800  0.658100  1.0  -0.6577
  O  O1014  1  0.653900  0.710400  0.649300  1.0  -0.6656
  O  O1015  1  0.784400  0.995300  0.543300  1.0  -0.6503
  O  O1016  1  0.711300  0.769100  0.708000  1.0  -0.6319
  O  O1017  1  0.958200  0.017400  0.718600  1.0  -0.6021
  O  O1018  1  0.552800  0.782600  0.551000  1.0  -0.6296
  O  O1019  1  0.837600  0.986200  0.535000  1.0  -0.6776
  O  O1020  1  0.541000  0.721100  0.555100  1.0  -0.6173
  O  O1021  1  0.341900  0.852700  0.804000  1.0  -0.6636
  O  O1022  1  0.350700  0.561100  0.504600  1.0  -0.6628
  O  O1023  1  0.456700  0.952000  0.741100  1.0  -0.6466
  O  O1024  1  0.292000  0.561100  0.503300  1.0  -0.6341
  O  O1025  1  0.281400  0.798800  0.739600  1.0  -0.6042
  O  O1026  1  0.449000  0.731600  0.501800  1.0  -0.6274
  O  O1027  1  0.465000  0.951200  0.802600  1.0  -0.6701
  O  O1028  1  0.444900  0.666000  0.485900  1.0  -0.6196
  O  O1029  1  0.158100  0.962100  0.510800  1.0  -0.6658
  O  O1030  1  0.149300  0.653900  0.210400  1.0  -0.666
  O  O1031  1  0.043300  0.784400  0.495300  1.0  -0.65
  O  O1032  1  0.208000  0.711300  0.269100  1.0  -0.6314
  O  O1033  1  0.218600  0.958200  0.517400  1.0  -0.6048
  O  O1034  1  0.051000  0.552800  0.282600  1.0  -0.626
  O  O1035  1  0.035000  0.837600  0.486200  1.0  -0.6776
  O  O1036  1  0.055100  0.541000  0.221100  1.0  -0.617
  O  O1037  1  0.548700  0.537900  0.696000  1.0  -0.658
  O  O1038  1  0.556500  0.846100  0.995400  1.0  -0.6675
  O  O1039  1  0.710900  0.715600  0.758900  1.0  -0.6494
  O  O1040  1  0.557800  0.788700  0.996700  1.0  -0.6335
  O  O1041  1  0.559200  0.541800  0.760400  1.0  -0.5998
  O  O1042  1  0.729800  0.947200  0.998200  1.0  -0.6281
  O  O1043  1  0.648600  0.662400  0.697400  1.0  -0.6762
  O  O1044  1  0.680100  0.959000  0.014100  1.0  -0.6175
  O  O1045  1  0.951300  0.647300  0.989200  1.0  -0.6672
  O  O1046  1  0.943500  0.938900  0.289600  1.0  -0.6581
  O  O1047  1  0.789100  0.548000  0.004700  1.0  -0.6485
  O  O1048  1  0.942200  0.938900  0.230900  1.0  -0.6307
  O  O1049  1  0.940800  0.701200  0.982600  1.0  -0.6049
  O  O1050  1  0.770200  0.768400  0.217400  1.0  -0.6294
  O  O1051  1  0.851400  0.548800  0.013800  1.0  -0.6759
  O  O1052  1  0.819900  0.834000  0.278900  1.0  -0.6192
  O  O1053  1  0.489200  0.951300  0.147300  1.0  -0.6579
  O  O1054  1  0.789600  0.943500  0.438900  1.0  -0.6629
  O  O1055  1  0.504700  0.789100  0.048000  1.0  -0.6489
  O  O1056  1  0.730900  0.942200  0.438900  1.0  -0.6332
  O  O1057  1  0.482600  0.940800  0.201200  1.0  -0.6019
  O  O1058  1  0.717400  0.770200  0.268400  1.0  -0.6287
  O  O1059  1  0.513800  0.851400  0.048800  1.0  -0.6787
  O  O1060  1  0.778900  0.819900  0.334000  1.0  -0.6194
  O  O1061  1  0.196000  0.548700  0.037900  1.0  -0.6664
  O  O1062  1  0.495400  0.556500  0.346100  1.0  -0.6565
  O  O1063  1  0.258900  0.710900  0.215600  1.0  -0.6493
  O  O1064  1  0.496700  0.557800  0.288700  1.0  -0.6319
  O  O1065  1  0.260400  0.559200  0.041800  1.0  -0.6044
  O  O1066  1  0.498200  0.729800  0.447200  1.0  -0.6298
  O  O1067  1  0.197400  0.648600  0.162400  1.0  -0.6765
  O  O1068  1  0.514100  0.680100  0.459000  1.0  -0.6177
  O  O1069  1  0.010800  0.158100  0.462100  1.0  -0.6631
  O  O1070  1  0.710400  0.149300  0.153900  1.0  -0.6641
  O  O1071  1  0.995300  0.043300  0.284400  1.0  -0.6458
  O  O1072  1  0.769100  0.208000  0.211300  1.0  -0.6335
  O  O1073  1  0.017400  0.218600  0.458200  1.0  -0.6052
  O  O1074  1  0.782600  0.051000  0.052800  1.0  -0.6284
  O  O1075  1  0.986200  0.035000  0.337600  1.0  -0.6747
  O  O1076  1  0.721100  0.055100  0.041000  1.0  -0.6182
  O  O1077  1  0.304000  0.341900  0.352700  1.0  -0.6668
  O  O1078  1  0.004600  0.350700  0.061100  1.0  -0.6655
  O  O1079  1  0.241100  0.456700  0.452000  1.0  -0.6486
  O  O1080  1  0.003300  0.292000  0.061100  1.0  -0.6316
  O  O1081  1  0.239600  0.281400  0.298800  1.0  -0.6053
  O  O1082  1  0.001800  0.449000  0.231600  1.0  -0.6244
  O  O1083  1  0.302600  0.465000  0.451200  1.0  -0.6755
  O  O1084  1  0.985900  0.444900  0.166000  1.0  -0.6158
  O  O1085  1  0.462100  0.804000  0.951300  1.0  -0.6658
  O  O1086  1  0.153900  0.504600  0.943500  1.0  -0.663
  O  O1087  1  0.284400  0.741100  0.789100  1.0  -0.6498
  O  O1088  1  0.211300  0.503300  0.942200  1.0  -0.6322
  O  O1089  1  0.458200  0.739600  0.940800  1.0  -0.6042
  O  O1090  1  0.052800  0.501800  0.770200  1.0  -0.6273
  O  O1091  1  0.337600  0.802600  0.851400  1.0  -0.68
  O  O1092  1  0.041000  0.485900  0.819900  1.0  -0.6161
  O  O1093  1  0.352700  0.510800  0.548700  1.0  -0.6656
  O  O1094  1  0.061100  0.210400  0.556500  1.0  -0.6657
  O  O1095  1  0.452000  0.495300  0.710900  1.0  -0.645
  O  O1096  1  0.061100  0.269100  0.557800  1.0  -0.6325
  O  O1097  1  0.298800  0.517400  0.559200  1.0  -0.6054
  O  O1098  1  0.231600  0.282600  0.729800  1.0  -0.6272
  O  O1099  1  0.451200  0.486200  0.648600  1.0  -0.6737
  O  O1100  1  0.166000  0.221100  0.680100  1.0  -0.6179
  O  O1101  1  0.147300  0.696000  0.158100  1.0  -0.6637
  O  O1102  1  0.438900  0.995400  0.149300  1.0  -0.657
  O  O1103  1  0.048000  0.758900  0.043300  1.0  -0.6499
  O  O1104  1  0.438900  0.996700  0.208000  1.0  -0.6292
  O  O1105  1  0.201200  0.760400  0.218600  1.0  -0.6037
  O  O1106  1  0.268400  0.998200  0.051000  1.0  -0.6285
  O  O1107  1  0.048800  0.697400  0.035000  1.0  -0.6773
  O  O1108  1  0.334000  0.014100  0.055100  1.0  -0.6172
  O  O1109  1  0.037900  0.989200  0.341900  1.0  -0.6595
  O  O1110  1  0.346100  0.289600  0.350700  1.0  -0.6679
  O  O1111  1  0.215600  0.004700  0.456700  1.0  -0.6501
  O  O1112  1  0.288700  0.230900  0.292000  1.0  -0.6326
  O  O1113  1  0.041800  0.982600  0.281400  1.0  -0.6041
  O  O1114  1  0.447200  0.217400  0.449000  1.0  -0.6278
  O  O1115  1  0.162400  0.013800  0.465000  1.0  -0.6754
  O  O1116  1  0.459000  0.278900  0.444900  1.0  -0.6207
  O  O1117  1  0.658100  0.147300  0.196000  1.0  -0.6624
  O  O1118  1  0.649300  0.438900  0.495400  1.0  -0.6653
  O  O1119  1  0.543300  0.048000  0.258900  1.0  -0.6457
  O  O1120  1  0.708000  0.438900  0.496700  1.0  -0.631
  O  O1121  1  0.718600  0.201200  0.260400  1.0  -0.6038
  O  O1122  1  0.551000  0.268400  0.498200  1.0  -0.6279
  O  O1123  1  0.535000  0.048800  0.197400  1.0  -0.6742
  O  O1124  1  0.555100  0.334000  0.514100  1.0  -0.6193
  O  O1125  1  0.841900  0.037900  0.489200  1.0  -0.6653
  O  O1126  1  0.850700  0.346100  0.789600  1.0  -0.6671
  O  O1127  1  0.956700  0.215600  0.504700  1.0  -0.6505
  O  O1128  1  0.792000  0.288700  0.730900  1.0  -0.6328
  O  O1129  1  0.781400  0.041800  0.482600  1.0  -0.6057
  O  O1130  1  0.949000  0.447200  0.717400  1.0  -0.6268
  O  O1131  1  0.965000  0.162400  0.513800  1.0  -0.677
  O  O1132  1  0.944900  0.459000  0.778900  1.0  -0.6168
  O  O1133  1  0.451300  0.462100  0.304000  1.0  -0.6598
  O  O1134  1  0.443500  0.153900  0.004600  1.0  -0.6663
  O  O1135  1  0.289100  0.284400  0.241100  1.0  -0.6499
  O  O1136  1  0.442200  0.211300  0.003300  1.0  -0.6331
  O  O1137  1  0.440800  0.458200  0.239600  1.0  -0.6032
  O  O1138  1  0.270200  0.052800  0.001800  1.0  -0.6291
  O  O1139  1  0.351400  0.337600  0.302600  1.0  -0.6783
  O  O1140  1  0.319900  0.041000  0.985900  1.0  -0.6177
  O  O1141  1  0.048700  0.352700  0.010800  1.0  -0.6668
  O  O1142  1  0.056500  0.061100  0.710400  1.0  -0.6588
  O  O1143  1  0.210900  0.452000  0.995300  1.0  -0.6495
  O  O1144  1  0.057800  0.061100  0.769100  1.0  -0.6284
  O  O1145  1  0.059200  0.298800  0.017400  1.0  -0.6037
  O  O1146  1  0.229800  0.231600  0.782600  1.0  -0.6276
  O  O1147  1  0.148600  0.451200  0.986200  1.0  -0.6757
  O  O1148  1  0.180100  0.166000  0.721100  1.0  -0.6175
  O  O1149  1  0.510800  0.048700  0.852700  1.0  -0.6591
  O  O1150  1  0.210400  0.056500  0.561100  1.0  -0.6649
  O  O1151  1  0.495300  0.210900  0.952000  1.0  -0.6495
  O  O1152  1  0.269100  0.057800  0.561100  1.0  -0.6318
  O  O1153  1  0.517400  0.059200  0.798800  1.0  -0.6051
  O  O1154  1  0.282600  0.229800  0.731600  1.0  -0.6264
  O  O1155  1  0.486200  0.148600  0.951200  1.0  -0.677
  O  O1156  1  0.221100  0.180100  0.666000  1.0  -0.6158
  O  O1157  1  0.804000  0.451300  0.962100  1.0  -0.6658
  O  O1158  1  0.504600  0.443500  0.653900  1.0  -0.6588
  O  O1159  1  0.741100  0.289100  0.784400  1.0  -0.6489
  O  O1160  1  0.503300  0.442200  0.711300  1.0  -0.6299
  O  O1161  1  0.739600  0.440800  0.958200  1.0  -0.6032
  O  O1162  1  0.501800  0.270200  0.552800  1.0  -0.6275
  O  O1163  1  0.802600  0.351400  0.837600  1.0  -0.6793
  O  O1164  1  0.485900  0.319900  0.541000  1.0  -0.6171
  O  O1165  1  0.989200  0.841900  0.537900  1.0  -0.6645
  O  O1166  1  0.289600  0.850700  0.846100  1.0  -0.6662
  O  O1167  1  0.004700  0.956700  0.715600  1.0  -0.6455
  O  O1168  1  0.230900  0.792000  0.788700  1.0  -0.6327
  O  O1169  1  0.982600  0.781400  0.541800  1.0  -0.605
  O  O1170  1  0.217400  0.949000  0.947200  1.0  -0.6297
  O  O1171  1  0.013800  0.965000  0.662400  1.0  -0.6738
  O  O1172  1  0.278900  0.944900  0.959000  1.0  -0.6193
  O  O1173  1  0.696000  0.658100  0.647300  1.0  -0.6643
  O  O1174  1  0.995400  0.649300  0.938900  1.0  -0.6652
  O  O1175  1  0.758900  0.543300  0.548000  1.0  -0.6489
  O  O1176  1  0.996700  0.708000  0.938900  1.0  -0.6324
  O  O1177  1  0.760400  0.718600  0.701200  1.0  -0.6048
  O  O1178  1  0.998200  0.551000  0.768400  1.0  -0.6262
  O  O1179  1  0.697400  0.535000  0.548800  1.0  -0.6748
  O  O1180  1  0.014100  0.555100  0.834000  1.0  -0.619
