# generated using pymatgen
data_Mn8H84C87(N15O7)2
_symmetry_space_group_name_H-M   'P 1'
_cell_length_a   19.37170000
_cell_length_b   19.37170000
_cell_length_c   52.61600000
_cell_angle_alpha   90.00000000
_cell_angle_beta   90.00000000
_cell_angle_gamma   120.00000000
_symmetry_Int_Tables_number   1
_chemical_formula_structural   Mn8H84C87(N15O7)2
_chemical_formula_sum   'Mn48 H504 C522 N180 O84'
_cell_volume   17099.52041306
_cell_formula_units_Z   6
loop_
 _symmetry_equiv_pos_site_id
 _symmetry_equiv_pos_as_xyz
  1  'x, y, z'
loop_
 _atom_site_type_symbol
 _atom_site_label
 _atom_site_symmetry_multiplicity
 _atom_site_fract_x
 _atom_site_fract_y
 _atom_site_fract_z
 _atom_site_occupancy
 _atom_site_charge
  Mn  Mn1  1  0.965050  0.890320  0.780830  1.0  0.9542
  Mn  Mn2  1  0.109680  0.074730  0.780830  1.0  0.9556
  Mn  Mn3  1  0.925270  0.034950  0.780830  1.0  0.9542
  Mn  Mn4  1  0.556990  0.298380  0.052510  1.0  0.9572
  Mn  Mn5  1  0.741400  0.443010  0.052510  1.0  0.9591
  Mn  Mn6  1  0.701620  0.258600  0.052510  1.0  0.9584
  Mn  Mn7  1  0.000000  0.000000  0.845020  1.0  0.8325
  Mn  Mn8  1  0.666667  0.333333  0.988310  1.0  0.8329
  Mn  Mn9  1  0.631720  0.223650  0.114160  1.0  0.9542
  Mn  Mn10  1  0.776350  0.408060  0.114160  1.0  0.9556
  Mn  Mn11  1  0.591940  0.368280  0.114160  1.0  0.9542
  Mn  Mn12  1  0.223650  0.631720  0.385840  1.0  0.957
  Mn  Mn13  1  0.408060  0.776350  0.385840  1.0  0.9589
  Mn  Mn14  1  0.368280  0.591940  0.385840  1.0  0.9583
  Mn  Mn15  1  0.666667  0.333333  0.178350  1.0  0.8323
  Mn  Mn16  1  0.333333  0.666667  0.321650  1.0  0.8332
  Mn  Mn17  1  0.298380  0.556990  0.447490  1.0  0.9545
  Mn  Mn18  1  0.443010  0.741400  0.447490  1.0  0.9558
  Mn  Mn19  1  0.258600  0.701620  0.447490  1.0  0.9543
  Mn  Mn20  1  0.890320  0.965050  0.719170  1.0  0.957
  Mn  Mn21  1  0.074730  0.109680  0.719170  1.0  0.9589
  Mn  Mn22  1  0.034950  0.925270  0.719170  1.0  0.9583
  Mn  Mn23  1  0.333333  0.666667  0.511690  1.0  0.8326
  Mn  Mn24  1  0.000000  0.000000  0.654980  1.0  0.8329
  Mn  Mn25  1  0.034950  0.109680  0.219170  1.0  0.9591
  Mn  Mn26  1  0.890320  0.925270  0.219170  1.0  0.9573
  Mn  Mn27  1  0.074730  0.965050  0.219170  1.0  0.9578
  Mn  Mn28  1  0.443010  0.701620  0.947490  1.0  0.9551
  Mn  Mn29  1  0.258600  0.556990  0.947490  1.0  0.9548
  Mn  Mn30  1  0.298380  0.741400  0.947490  1.0  0.9546
  Mn  Mn31  1  0.000000  0.000000  0.154980  1.0  0.8329
  Mn  Mn32  1  0.333333  0.666667  0.011690  1.0  0.8326
  Mn  Mn33  1  0.701620  0.443010  0.552510  1.0  0.9593
  Mn  Mn34  1  0.556990  0.258600  0.552510  1.0  0.9575
  Mn  Mn35  1  0.741400  0.298380  0.552510  1.0  0.9579
  Mn  Mn36  1  0.109680  0.034950  0.280830  1.0  0.9549
  Mn  Mn37  1  0.925270  0.890320  0.280830  1.0  0.9545
  Mn  Mn38  1  0.965050  0.074730  0.280830  1.0  0.9545
  Mn  Mn39  1  0.666667  0.333333  0.488310  1.0  0.8329
  Mn  Mn40  1  0.000000  0.000000  0.345020  1.0  0.8325
  Mn  Mn41  1  0.368280  0.776350  0.885840  1.0  0.9591
  Mn  Mn42  1  0.223650  0.591940  0.885840  1.0  0.9572
  Mn  Mn43  1  0.408060  0.631720  0.885840  1.0  0.9577
  Mn  Mn44  1  0.776350  0.368280  0.614160  1.0  0.9549
  Mn  Mn45  1  0.591940  0.223650  0.614160  1.0  0.9545
  Mn  Mn46  1  0.631720  0.408060  0.614160  1.0  0.9545
  Mn  Mn47  1  0.333333  0.666667  0.821650  1.0  0.8332
  Mn  Mn48  1  0.666667  0.333333  0.678350  1.0  0.8323
  H  H49  1  0.901100  0.651300  0.801400  1.0  0.1293
  H  H50  1  0.785000  0.550600  0.819700  1.0  0.1347
  H  H51  1  0.673400  0.566000  0.824200  1.0  0.1275
  H  H52  1  0.676000  0.679000  0.808900  1.0  0.1539
  H  H53  1  0.702900  0.835400  0.793400  1.0  0.1432
  H  H54  1  0.665600  0.746500  0.782600  1.0  0.1337
  H  H55  1  0.708600  0.820900  0.763700  1.0  0.1288
  H  H56  1  0.168900  0.025700  0.840400  1.0  0.091
  H  H57  1  0.265200  0.003300  0.858700  1.0  0.1443
  H  H58  1  0.125000  0.916300  0.920500  1.0  0.1494
  H  H59  1  0.031800  0.939100  0.900400  1.0  0.0991
  H  H60  1  0.294600  0.928600  0.891100  1.0  0.1088
  H  H61  1  0.244800  0.903500  0.917100  1.0  0.1057
  H  H62  1  0.358300  0.065400  0.903600  1.0  0.1119
  H  H63  1  0.348700  0.249800  0.801400  1.0  0.1285
  H  H64  1  0.449400  0.234400  0.819700  1.0  0.1315
  H  H65  1  0.434000  0.107400  0.824200  1.0  0.1273
  H  H66  1  0.321000  0.997000  0.808900  1.0  0.1536
  H  H67  1  0.164600  0.867500  0.793400  1.0  0.144
  H  H68  1  0.253500  0.919100  0.782600  1.0  0.1375
  H  H69  1  0.179100  0.887700  0.763700  1.0  0.1307
  H  H70  1  0.974300  0.143200  0.840400  1.0  0.0903
  H  H71  1  0.996700  0.261900  0.858700  1.0  0.1445
  H  H72  1  0.083700  0.208700  0.920500  1.0  0.1479
  H  H73  1  0.060900  0.092700  0.900400  1.0  0.0998
  H  H74  1  0.071400  0.366000  0.891100  1.0  0.1088
  H  H75  1  0.096500  0.341300  0.917100  1.0  0.1067
  H  H76  1  0.934600  0.292900  0.903600  1.0  0.1121
  H  H77  1  0.750200  0.098900  0.801400  1.0  0.1284
  H  H78  1  0.765600  0.215000  0.819700  1.0  0.1316
  H  H79  1  0.892600  0.326600  0.824200  1.0  0.1268
  H  H80  1  0.003000  0.324000  0.808900  1.0  0.154
  H  H81  1  0.132500  0.297100  0.793400  1.0  0.1434
  H  H82  1  0.080900  0.334400  0.782600  1.0  0.1321
  H  H83  1  0.112300  0.291400  0.763700  1.0  0.1299
  H  H84  1  0.856800  0.831100  0.840400  1.0  0.0902
  H  H85  1  0.738100  0.734800  0.858700  1.0  0.1435
  H  H86  1  0.791300  0.875000  0.920500  1.0  0.1477
  H  H87  1  0.907300  0.968200  0.900400  1.0  0.1042
  H  H88  1  0.634000  0.705400  0.891100  1.0  0.1092
  H  H89  1  0.658700  0.755200  0.917100  1.0  0.106
  H  H90  1  0.707100  0.641700  0.903600  1.0  0.1113
  H  H91  1  0.317970  0.234430  0.031930  1.0  0.1289
  H  H92  1  0.217270  0.118330  0.013630  1.0  0.1326
  H  H93  1  0.232670  0.006730  0.009130  1.0  0.1265
  H  H94  1  0.345670  0.009330  0.024430  1.0  0.1537
  H  H95  1  0.502070  0.036230  0.039930  1.0  0.1426
  H  H96  1  0.413170  0.998930  0.050730  1.0  0.1331
  H  H97  1  0.487570  0.041930  0.069630  1.0  0.1306
  H  H98  1  0.692370  0.502230  0.992930  1.0  0.0911
  H  H99  1  0.669970  0.598530  0.974630  1.0  0.1433
  H  H100  1  0.582970  0.458330  0.912830  1.0  0.1483
  H  H101  1  0.605770  0.365130  0.932930  1.0  0.1027
  H  H102  1  0.595270  0.627930  0.942230  1.0  0.1095
  H  H103  1  0.570170  0.578130  0.916230  1.0  0.1053
  H  H104  1  0.732070  0.691630  0.929730  1.0  0.1119
  H  H105  1  0.916470  0.682030  0.031930  1.0  0.1288
  H  H106  1  0.901070  0.782730  0.013630  1.0  0.1331
  H  H107  1  0.774070  0.767330  0.009130  1.0  0.1284
  H  H108  1  0.663670  0.654330  0.024430  1.0  0.1541
  H  H109  1  0.534170  0.497930  0.039930  1.0  0.1423
  H  H110  1  0.585770  0.586830  0.050730  1.0  0.1337
  H  H111  1  0.554370  0.512430  0.069630  1.0  0.1288
  H  H112  1  0.809870  0.307630  0.992930  1.0  0.0916
  H  H113  1  0.928570  0.330030  0.974630  1.0  0.1444
  H  H114  1  0.875370  0.417030  0.912830  1.0  0.1493
  H  H115  1  0.759370  0.394230  0.932930  1.0  0.0987
  H  H116  1  0.032670  0.404730  0.942230  1.0  0.1092
  H  H117  1  0.007970  0.429830  0.916230  1.0  0.1061
  H  H118  1  0.959570  0.267930  0.929730  1.0  0.1139
  H  H119  1  0.765570  0.083530  0.031930  1.0  0.1287
  H  H120  1  0.881670  0.098930  0.013630  1.0  0.132
  H  H121  1  0.993270  0.225930  0.009130  1.0  0.1274
  H  H122  1  0.990670  0.336330  0.024430  1.0  0.1534
  H  H123  1  0.963770  0.465830  0.039930  1.0  0.143
  H  H124  1  0.001070  0.414230  0.050730  1.0  0.137
  H  H125  1  0.958070  0.445630  0.069630  1.0  0.1308
  H  H126  1  0.497770  0.190130  0.992930  1.0  0.0907
  H  H127  1  0.401470  0.071430  0.974630  1.0  0.1445
  H  H128  1  0.541670  0.124630  0.912830  1.0  0.1485
  H  H129  1  0.634870  0.240630  0.932930  1.0  0.0986
  H  H130  1  0.372070  0.967330  0.942230  1.0  0.1093
  H  H131  1  0.421870  0.992030  0.916230  1.0  0.1055
  H  H132  1  0.308370  0.040430  0.929730  1.0  0.1126
  H  H133  1  0.567770  0.984630  0.134730  1.0  0.1293
  H  H134  1  0.451670  0.883930  0.153030  1.0  0.1335
  H  H135  1  0.340070  0.899330  0.157530  1.0  0.1276
  H  H136  1  0.342670  0.012330  0.142230  1.0  0.1539
  H  H137  1  0.369570  0.168730  0.126730  1.0  0.1432
  H  H138  1  0.332270  0.079830  0.115930  1.0  0.1337
  H  H139  1  0.375270  0.154230  0.097030  1.0  0.1288
  H  H140  1  0.835570  0.359030  0.173730  1.0  0.091
  H  H141  1  0.931870  0.336630  0.192030  1.0  0.1443
  H  H142  1  0.791670  0.249630  0.253830  1.0  0.1494
  H  H143  1  0.698470  0.272430  0.233730  1.0  0.0991
  H  H144  1  0.961270  0.261930  0.224430  1.0  0.1088
  H  H145  1  0.911470  0.236830  0.250430  1.0  0.1057
  H  H146  1  0.024970  0.398730  0.236930  1.0  0.1109
  H  H147  1  0.015370  0.583130  0.134730  1.0  0.1285
  H  H148  1  0.116070  0.567730  0.153030  1.0  0.1315
  H  H149  1  0.100670  0.440730  0.157530  1.0  0.1273
  H  H150  1  0.987670  0.330330  0.142230  1.0  0.1536
  H  H151  1  0.831270  0.200830  0.126730  1.0  0.144
  H  H152  1  0.920170  0.252430  0.115930  1.0  0.1376
  H  H153  1  0.845770  0.221030  0.097030  1.0  0.1307
  H  H154  1  0.640970  0.476530  0.173730  1.0  0.0903
  H  H155  1  0.663370  0.595230  0.192030  1.0  0.1445
  H  H156  1  0.750370  0.542030  0.253830  1.0  0.1479
  H  H157  1  0.727570  0.426030  0.233730  1.0  0.0998
  H  H158  1  0.738070  0.699330  0.224430  1.0  0.1088
  H  H159  1  0.763170  0.674630  0.250430  1.0  0.1067
  H  H160  1  0.601270  0.626230  0.236930  1.0  0.1114
  H  H161  1  0.416870  0.432230  0.134730  1.0  0.1284
  H  H162  1  0.432270  0.548330  0.153030  1.0  0.1327
  H  H163  1  0.559270  0.659930  0.157530  1.0  0.1268
  H  H164  1  0.669670  0.657330  0.142230  1.0  0.154
  H  H165  1  0.799170  0.630430  0.126730  1.0  0.1434
  H  H166  1  0.747570  0.667730  0.115930  1.0  0.1321
  H  H167  1  0.778970  0.624730  0.097030  1.0  0.1299
  H  H168  1  0.523470  0.164430  0.173730  1.0  0.0902
  H  H169  1  0.404770  0.068130  0.192030  1.0  0.1435
  H  H170  1  0.457970  0.208330  0.253830  1.0  0.1477
  H  H171  1  0.573970  0.301530  0.233730  1.0  0.1042
  H  H172  1  0.300670  0.038730  0.224430  1.0  0.1092
  H  H173  1  0.325370  0.088530  0.250430  1.0  0.106
  H  H174  1  0.373770  0.975030  0.236930  1.0  0.11
  H  H175  1  0.984630  0.567770  0.365270  1.0  0.1288
  H  H176  1  0.883930  0.451670  0.346970  1.0  0.1324
  H  H177  1  0.899330  0.340070  0.342470  1.0  0.1265
  H  H178  1  0.012330  0.342670  0.357770  1.0  0.1537
  H  H179  1  0.168730  0.369570  0.373270  1.0  0.1426
  H  H180  1  0.079830  0.332270  0.384070  1.0  0.133
  H  H181  1  0.154230  0.375270  0.402970  1.0  0.1306
  H  H182  1  0.359030  0.835570  0.326270  1.0  0.0911
  H  H183  1  0.336630  0.931870  0.307970  1.0  0.1433
  H  H184  1  0.249630  0.791670  0.246170  1.0  0.1482
  H  H185  1  0.272430  0.698470  0.266270  1.0  0.0986
  H  H186  1  0.261930  0.961270  0.275570  1.0  0.1091
  H  H187  1  0.236830  0.911470  0.249570  1.0  0.1053
  H  H188  1  0.398730  0.024970  0.263070  1.0  0.1112
  H  H189  1  0.583130  0.015370  0.365270  1.0  0.1288
  H  H190  1  0.567730  0.116070  0.346970  1.0  0.1324
  H  H191  1  0.440730  0.100670  0.342470  1.0  0.1284
  H  H192  1  0.330330  0.987670  0.357770  1.0  0.1541
  H  H193  1  0.200830  0.831270  0.373270  1.0  0.1422
  H  H194  1  0.252430  0.920170  0.384070  1.0  0.1338
  H  H195  1  0.221030  0.845770  0.402970  1.0  0.129
  H  H196  1  0.476530  0.640970  0.326270  1.0  0.0916
  H  H197  1  0.595230  0.663370  0.307970  1.0  0.1444
  H  H198  1  0.542030  0.750370  0.246170  1.0  0.1494
  H  H199  1  0.426030  0.727570  0.266270  1.0  0.0985
  H  H200  1  0.699330  0.738070  0.275570  1.0  0.1087
  H  H201  1  0.674630  0.763170  0.249570  1.0  0.1061
  H  H202  1  0.626230  0.601270  0.263070  1.0  0.1134
  H  H203  1  0.432230  0.416870  0.365270  1.0  0.1286
  H  H204  1  0.548330  0.432270  0.346970  1.0  0.1322
  H  H205  1  0.659930  0.559270  0.342470  1.0  0.1274
  H  H206  1  0.657330  0.669670  0.357770  1.0  0.1539
  H  H207  1  0.630430  0.799170  0.373270  1.0  0.1429
  H  H208  1  0.667730  0.747570  0.384070  1.0  0.1369
  H  H209  1  0.624730  0.778970  0.402970  1.0  0.1309
  H  H210  1  0.164430  0.523470  0.326270  1.0  0.0907
  H  H211  1  0.068130  0.404770  0.307970  1.0  0.1445
  H  H212  1  0.208330  0.457970  0.246170  1.0  0.1486
  H  H213  1  0.301530  0.573970  0.266270  1.0  0.1033
  H  H214  1  0.038730  0.300670  0.275570  1.0  0.1085
  H  H215  1  0.088530  0.325370  0.249570  1.0  0.1055
  H  H216  1  0.975030  0.373770  0.263070  1.0  0.1115
  H  H217  1  0.234430  0.317970  0.468070  1.0  0.1294
  H  H218  1  0.118330  0.217270  0.486370  1.0  0.1337
  H  H219  1  0.006730  0.232670  0.490870  1.0  0.1276
  H  H220  1  0.009330  0.345670  0.475570  1.0  0.1539
  H  H221  1  0.036230  0.502070  0.460070  1.0  0.1431
  H  H222  1  0.998930  0.413170  0.449270  1.0  0.1338
  H  H223  1  0.041930  0.487570  0.430370  1.0  0.129
  H  H224  1  0.502230  0.692370  0.507070  1.0  0.091
  H  H225  1  0.598530  0.669970  0.525370  1.0  0.1443
  H  H226  1  0.458330  0.582970  0.587170  1.0  0.1494
  H  H227  1  0.365130  0.605770  0.567070  1.0  0.1038
  H  H228  1  0.627930  0.595270  0.557770  1.0  0.1093
  H  H229  1  0.578130  0.570170  0.583770  1.0  0.1057
  H  H230  1  0.691630  0.732070  0.570270  1.0  0.1116
  H  H231  1  0.682030  0.916470  0.468070  1.0  0.1285
  H  H232  1  0.782730  0.901070  0.486370  1.0  0.1317
  H  H233  1  0.767330  0.774070  0.490870  1.0  0.1273
  H  H234  1  0.654330  0.663670  0.475570  1.0  0.1535
  H  H235  1  0.497930  0.534170  0.460070  1.0  0.144
  H  H236  1  0.586830  0.585770  0.449270  1.0  0.1375
  H  H237  1  0.512430  0.554370  0.430370  1.0  0.1304
  H  H238  1  0.307630  0.809870  0.507070  1.0  0.0904
  H  H239  1  0.330030  0.928570  0.525370  1.0  0.1445
  H  H240  1  0.417030  0.875370  0.587170  1.0  0.1478
  H  H241  1  0.394230  0.759370  0.567070  1.0  0.0999
  H  H242  1  0.404730  0.032670  0.557770  1.0  0.1093
  H  H243  1  0.429830  0.007970  0.583770  1.0  0.1067
  H  H244  1  0.267930  0.959570  0.570270  1.0  0.1119
  H  H245  1  0.083530  0.765570  0.468070  1.0  0.1284
  H  H246  1  0.098930  0.881670  0.486370  1.0  0.1326
  H  H247  1  0.225930  0.993270  0.490870  1.0  0.1268
  H  H248  1  0.336330  0.990670  0.475570  1.0  0.1533
  H  H249  1  0.465830  0.963770  0.460070  1.0  0.1435
  H  H250  1  0.414230  0.001070  0.449270  1.0  0.1322
  H  H251  1  0.445630  0.958070  0.430370  1.0  0.1297
  H  H252  1  0.190130  0.497770  0.507070  1.0  0.0902
  H  H253  1  0.071430  0.401470  0.525370  1.0  0.1435
  H  H254  1  0.124630  0.541670  0.587170  1.0  0.1476
  H  H255  1  0.240630  0.634870  0.567070  1.0  0.0995
  H  H256  1  0.967330  0.372070  0.557770  1.0  0.11
  H  H257  1  0.992030  0.421870  0.583770  1.0  0.106
  H  H258  1  0.040430  0.308370  0.570270  1.0  0.1114
  H  H259  1  0.651300  0.901100  0.698600  1.0  0.1288
  H  H260  1  0.550600  0.785000  0.680300  1.0  0.1338
  H  H261  1  0.566000  0.673400  0.675800  1.0  0.1265
  H  H262  1  0.679000  0.676000  0.691100  1.0  0.1537
  H  H263  1  0.835400  0.702900  0.706600  1.0  0.1426
  H  H264  1  0.746500  0.665600  0.717400  1.0  0.133
  H  H265  1  0.820900  0.708600  0.736300  1.0  0.1306
  H  H266  1  0.025700  0.168900  0.659600  1.0  0.0911
  H  H267  1  0.003300  0.265200  0.641300  1.0  0.1433
  H  H268  1  0.916300  0.125000  0.579500  1.0  0.1482
  H  H269  1  0.939100  0.031800  0.599600  1.0  0.0986
  H  H270  1  0.928600  0.294600  0.608900  1.0  0.1091
  H  H271  1  0.903500  0.244800  0.582900  1.0  0.1053
  H  H272  1  0.065400  0.358300  0.596400  1.0  0.112
  H  H273  1  0.249800  0.348700  0.698600  1.0  0.1288
  H  H274  1  0.234400  0.449400  0.680300  1.0  0.1325
  H  H275  1  0.107400  0.434000  0.675800  1.0  0.1284
  H  H276  1  0.997000  0.321000  0.691100  1.0  0.1541
  H  H277  1  0.867500  0.164600  0.706600  1.0  0.1422
  H  H278  1  0.919100  0.253500  0.717400  1.0  0.1337
  H  H279  1  0.887700  0.179100  0.736300  1.0  0.129
  H  H280  1  0.143200  0.974300  0.659600  1.0  0.0916
  H  H281  1  0.261900  0.996700  0.641300  1.0  0.1444
  H  H282  1  0.208700  0.083700  0.579500  1.0  0.1494
  H  H283  1  0.092700  0.060900  0.599600  1.0  0.0985
  H  H284  1  0.366000  0.071400  0.608900  1.0  0.1087
  H  H285  1  0.341300  0.096500  0.582900  1.0  0.1061
  H  H286  1  0.292900  0.934600  0.596400  1.0  0.1141
  H  H287  1  0.098900  0.750200  0.698600  1.0  0.1287
  H  H288  1  0.215000  0.765600  0.680300  1.0  0.131
  H  H289  1  0.326600  0.892600  0.675800  1.0  0.1274
  H  H290  1  0.324000  0.003000  0.691100  1.0  0.1539
  H  H291  1  0.297100  0.132500  0.706600  1.0  0.1429
  H  H292  1  0.334400  0.080900  0.717400  1.0  0.1369
  H  H293  1  0.291400  0.112300  0.736300  1.0  0.1309
  H  H294  1  0.831100  0.856800  0.659600  1.0  0.0907
  H  H295  1  0.734800  0.738100  0.641300  1.0  0.1445
  H  H296  1  0.875000  0.791300  0.579500  1.0  0.1486
  H  H297  1  0.968200  0.907300  0.599600  1.0  0.1033
  H  H298  1  0.705400  0.634000  0.608900  1.0  0.1085
  H  H299  1  0.755200  0.658700  0.582900  1.0  0.1055
  H  H300  1  0.641700  0.707100  0.596400  1.0  0.1126
  H  H301  1  0.098900  0.348700  0.198600  1.0  0.1288
  H  H302  1  0.215000  0.449400  0.180300  1.0  0.1349
  H  H303  1  0.326600  0.434000  0.175800  1.0  0.1283
  H  H304  1  0.324000  0.321000  0.191100  1.0  0.155
  H  H305  1  0.297100  0.164600  0.206600  1.0  0.143
  H  H306  1  0.334400  0.253500  0.217400  1.0  0.1337
  H  H307  1  0.291400  0.179100  0.236300  1.0  0.1291
  H  H308  1  0.831100  0.974300  0.159600  1.0  0.0914
  H  H309  1  0.734800  0.996700  0.141300  1.0  0.1444
  H  H310  1  0.875000  0.083700  0.079500  1.0  0.1499
  H  H311  1  0.968200  0.060900  0.099600  1.0  0.0985
  H  H312  1  0.705400  0.071400  0.108900  1.0  0.1089
  H  H313  1  0.755200  0.096500  0.082900  1.0  0.106
  H  H314  1  0.641700  0.934600  0.096400  1.0  0.1136
  H  H315  1  0.651300  0.750200  0.198600  1.0  0.1292
  H  H316  1  0.550600  0.765600  0.180300  1.0  0.1328
  H  H317  1  0.566000  0.892600  0.175800  1.0  0.1271
  H  H318  1  0.679000  0.003000  0.191100  1.0  0.1538
  H  H319  1  0.835400  0.132500  0.206600  1.0  0.1429
  H  H320  1  0.746500  0.080900  0.217400  1.0  0.1379
  H  H321  1  0.820900  0.112300  0.236300  1.0  0.1302
  H  H322  1  0.025700  0.856800  0.159600  1.0  0.0914
  H  H323  1  0.003300  0.738100  0.141300  1.0  0.1444
  H  H324  1  0.916300  0.791300  0.079500  1.0  0.1486
  H  H325  1  0.939100  0.907300  0.099600  1.0  0.0989
  H  H326  1  0.928600  0.634000  0.108900  1.0  0.1084
  H  H327  1  0.903500  0.658700  0.082900  1.0  0.1056
  H  H328  1  0.065400  0.707100  0.096400  1.0  0.1128
  H  H329  1  0.249800  0.901100  0.198600  1.0  0.1283
  H  H330  1  0.234400  0.785000  0.180300  1.0  0.1315
  H  H331  1  0.107400  0.673400  0.175800  1.0  0.1262
  H  H332  1  0.997000  0.676000  0.191100  1.0  0.1537
  H  H333  1  0.867500  0.702900  0.206600  1.0  0.1421
  H  H334  1  0.919100  0.665600  0.217400  1.0  0.1335
  H  H335  1  0.887700  0.708600  0.236300  1.0  0.1304
  H  H336  1  0.143200  0.168900  0.159600  1.0  0.0906
  H  H337  1  0.261900  0.265200  0.141300  1.0  0.1434
  H  H338  1  0.208700  0.125000  0.079500  1.0  0.1484
  H  H339  1  0.092700  0.031800  0.099600  1.0  0.103
  H  H340  1  0.366000  0.294600  0.108900  1.0  0.1085
  H  H341  1  0.341300  0.244800  0.082900  1.0  0.1052
  H  H342  1  0.292900  0.358300  0.096400  1.0  0.1123
  H  H343  1  0.682030  0.765570  0.968070  1.0  0.128
  H  H344  1  0.782730  0.881670  0.986370  1.0  0.1333
  H  H345  1  0.767330  0.993270  0.990870  1.0  0.1264
  H  H346  1  0.654330  0.990670  0.975570  1.0  0.1537
  H  H347  1  0.497930  0.963770  0.960070  1.0  0.143
  H  H348  1  0.586830  0.001070  0.949270  1.0  0.1327
  H  H349  1  0.512430  0.958070  0.930370  1.0  0.1302
  H  H350  1  0.307630  0.497770  0.007070  1.0  0.0901
  H  H351  1  0.330030  0.401470  0.025370  1.0  0.1438
  H  H352  1  0.417030  0.541670  0.087170  1.0  0.148
  H  H353  1  0.394230  0.634870  0.067070  1.0  0.104
  H  H354  1  0.404730  0.372070  0.057770  1.0  0.1096
  H  H355  1  0.429830  0.421870  0.083770  1.0  0.1062
  H  H356  1  0.267930  0.308370  0.070270  1.0  0.1111
  H  H357  1  0.083530  0.317970  0.968070  1.0  0.1282
  H  H358  1  0.098930  0.217270  0.986370  1.0  0.1336
  H  H359  1  0.225930  0.232670  0.990870  1.0  0.1283
  H  H360  1  0.336330  0.345670  0.975570  1.0  0.155
  H  H361  1  0.465830  0.502070  0.960070  1.0  0.1434
  H  H362  1  0.414230  0.413170  0.949270  1.0  0.1345
  H  H363  1  0.445630  0.487570  0.930370  1.0  0.1289
  H  H364  1  0.190130  0.692370  0.007070  1.0  0.0907
  H  H365  1  0.071430  0.669970  0.025370  1.0  0.1447
  H  H366  1  0.124630  0.582970  0.087170  1.0  0.1487
  H  H367  1  0.240630  0.605770  0.067070  1.0  0.0996
  H  H368  1  0.967330  0.595270  0.057770  1.0  0.11
  H  H369  1  0.992030  0.570170  0.083770  1.0  0.1059
  H  H370  1  0.040430  0.732070  0.070270  1.0  0.1115
  H  H371  1  0.234430  0.916470  0.968070  1.0  0.128
  H  H372  1  0.118330  0.901070  0.986370  1.0  0.1335
  H  H373  1  0.006730  0.774070  0.990870  1.0  0.1267
  H  H374  1  0.009330  0.663670  0.975570  1.0  0.1524
  H  H375  1  0.036230  0.534170  0.960070  1.0  0.144
  H  H376  1  0.998930  0.585770  0.949270  1.0  0.1378
  H  H377  1  0.041930  0.554370  0.930370  1.0  0.1304
  H  H378  1  0.502230  0.809870  0.007070  1.0  0.0906
  H  H379  1  0.598530  0.928570  0.025370  1.0  0.1444
  H  H380  1  0.458330  0.875370  0.087170  1.0  0.1481
  H  H381  1  0.365130  0.759370  0.067070  1.0  0.0994
  H  H382  1  0.627930  0.032670  0.057770  1.0  0.1096
  H  H383  1  0.578130  0.007970  0.083770  1.0  0.1058
  H  H384  1  0.691630  0.959570  0.070270  1.0  0.1117
  H  H385  1  0.765570  0.682030  0.531930  1.0  0.1288
  H  H386  1  0.881670  0.782730  0.513630  1.0  0.1337
  H  H387  1  0.993270  0.767330  0.509130  1.0  0.1283
  H  H388  1  0.990670  0.654330  0.524430  1.0  0.155
  H  H389  1  0.963770  0.497930  0.539930  1.0  0.143
  H  H390  1  0.001070  0.586830  0.550730  1.0  0.1338
  H  H391  1  0.958070  0.512430  0.569630  1.0  0.1292
  H  H392  1  0.497770  0.307630  0.492930  1.0  0.0915
  H  H393  1  0.401470  0.330030  0.474630  1.0  0.1444
  H  H394  1  0.541670  0.417030  0.412830  1.0  0.1499
  H  H395  1  0.634870  0.394230  0.432930  1.0  0.1029
  H  H396  1  0.372070  0.404730  0.442230  1.0  0.1094
  H  H397  1  0.421870  0.429830  0.416230  1.0  0.106
  H  H398  1  0.308370  0.267930  0.429730  1.0  0.1134
  H  H399  1  0.317970  0.083530  0.531930  1.0  0.1292
  H  H400  1  0.217270  0.098930  0.513630  1.0  0.1331
  H  H401  1  0.232670  0.225930  0.509130  1.0  0.1271
  H  H402  1  0.345670  0.336330  0.524430  1.0  0.1537
  H  H403  1  0.502070  0.465830  0.539930  1.0  0.1429
  H  H404  1  0.413170  0.414230  0.550730  1.0  0.1379
  H  H405  1  0.487570  0.445630  0.569630  1.0  0.13
  H  H406  1  0.692370  0.190130  0.492930  1.0  0.0914
  H  H407  1  0.669970  0.071430  0.474630  1.0  0.1444
  H  H408  1  0.582970  0.124630  0.412830  1.0  0.1486
  H  H409  1  0.605770  0.240630  0.432930  1.0  0.0991
  H  H410  1  0.595270  0.967330  0.442230  1.0  0.1089
  H  H411  1  0.570170  0.992030  0.416230  1.0  0.1056
  H  H412  1  0.732070  0.040430  0.429730  1.0  0.1125
  H  H413  1  0.916470  0.234430  0.531930  1.0  0.1283
  H  H414  1  0.901070  0.118330  0.513630  1.0  0.1323
  H  H415  1  0.774070  0.006730  0.509130  1.0  0.1262
  H  H416  1  0.663670  0.009330  0.524430  1.0  0.1531
  H  H417  1  0.534170  0.036230  0.539930  1.0  0.1422
  H  H418  1  0.585770  0.998930  0.550730  1.0  0.1336
  H  H419  1  0.554370  0.041930  0.569630  1.0  0.1303
  H  H420  1  0.809870  0.502230  0.492930  1.0  0.0906
  H  H421  1  0.928570  0.598530  0.474630  1.0  0.1434
  H  H422  1  0.875370  0.458330  0.412830  1.0  0.1484
  H  H423  1  0.759370  0.365130  0.432930  1.0  0.0984
  H  H424  1  0.032670  0.627930  0.442230  1.0  0.1092
  H  H425  1  0.007970  0.578130  0.416230  1.0  0.1052
  H  H426  1  0.959570  0.691630  0.429730  1.0  0.1123
  H  H427  1  0.348700  0.098900  0.301400  1.0  0.128
  H  H428  1  0.449400  0.215000  0.319700  1.0  0.1344
  H  H429  1  0.434000  0.326600  0.324200  1.0  0.1263
  H  H430  1  0.321000  0.324000  0.308900  1.0  0.1536
  H  H431  1  0.164600  0.297100  0.293400  1.0  0.143
  H  H432  1  0.253500  0.334400  0.282600  1.0  0.1326
  H  H433  1  0.179100  0.291400  0.263700  1.0  0.1301
  H  H434  1  0.974300  0.831100  0.340400  1.0  0.0901
  H  H435  1  0.996700  0.734800  0.358700  1.0  0.1438
  H  H436  1  0.083700  0.875000  0.420500  1.0  0.1481
  H  H437  1  0.060900  0.968200  0.400400  1.0  0.0997
  H  H438  1  0.071400  0.705400  0.391100  1.0  0.1091
  H  H439  1  0.096500  0.755200  0.417100  1.0  0.1062
  H  H440  1  0.934600  0.641700  0.403600  1.0  0.1113
  H  H441  1  0.750200  0.651300  0.301400  1.0  0.1282
  H  H442  1  0.765600  0.550600  0.319700  1.0  0.1325
  H  H443  1  0.892600  0.566000  0.324200  1.0  0.1283
  H  H444  1  0.003000  0.679000  0.308900  1.0  0.1551
  H  H445  1  0.132500  0.835400  0.293400  1.0  0.1434
  H  H446  1  0.080900  0.746500  0.282600  1.0  0.1345
  H  H447  1  0.112300  0.820900  0.263700  1.0  0.1291
  H  H448  1  0.856800  0.025700  0.340400  1.0  0.0907
  H  H449  1  0.738100  0.003300  0.358700  1.0  0.1447
  H  H450  1  0.791300  0.916300  0.420500  1.0  0.1488
  H  H451  1  0.907300  0.939100  0.400400  1.0  0.0996
  H  H452  1  0.634000  0.928600  0.391100  1.0  0.1095
  H  H453  1  0.658700  0.903500  0.417100  1.0  0.1058
  H  H454  1  0.707100  0.065400  0.403600  1.0  0.1118
  H  H455  1  0.901100  0.249800  0.301400  1.0  0.128
  H  H456  1  0.785000  0.234400  0.319700  1.0  0.1323
  H  H457  1  0.673400  0.107400  0.324200  1.0  0.1267
  H  H458  1  0.676000  0.997000  0.308900  1.0  0.153
  H  H459  1  0.702900  0.867500  0.293400  1.0  0.1439
  H  H460  1  0.665600  0.919100  0.282600  1.0  0.1377
  H  H461  1  0.708600  0.887700  0.263700  1.0  0.1305
  H  H462  1  0.168900  0.143200  0.340400  1.0  0.0906
  H  H463  1  0.265200  0.261900  0.358700  1.0  0.1444
  H  H464  1  0.125000  0.208700  0.420500  1.0  0.1482
  H  H465  1  0.031800  0.092700  0.400400  1.0  0.1044
  H  H466  1  0.294600  0.366000  0.391100  1.0  0.1088
  H  H467  1  0.244800  0.341300  0.417100  1.0  0.1058
  H  H468  1  0.358300  0.292900  0.403600  1.0  0.1116
  H  H469  1  0.432230  0.015370  0.865270  1.0  0.1288
  H  H470  1  0.548330  0.116070  0.846970  1.0  0.1336
  H  H471  1  0.659930  0.100670  0.842470  1.0  0.1283
  H  H472  1  0.657330  0.987670  0.857770  1.0  0.155
  H  H473  1  0.630430  0.831270  0.873270  1.0  0.143
  H  H474  1  0.667730  0.920170  0.884070  1.0  0.1337
  H  H475  1  0.624730  0.845770  0.902970  1.0  0.1291
  H  H476  1  0.164430  0.640970  0.826270  1.0  0.0914
  H  H477  1  0.068130  0.663370  0.807970  1.0  0.1444
  H  H478  1  0.208330  0.750370  0.746170  1.0  0.1499
  H  H479  1  0.301530  0.727570  0.766270  1.0  0.0985
  H  H480  1  0.038730  0.738070  0.775570  1.0  0.109
  H  H481  1  0.088530  0.763170  0.749570  1.0  0.106
  H  H482  1  0.975030  0.601270  0.763070  1.0  0.1126
  H  H483  1  0.984630  0.416870  0.865270  1.0  0.1292
  H  H484  1  0.883930  0.432270  0.846970  1.0  0.1326
  H  H485  1  0.899330  0.559270  0.842470  1.0  0.1271
  H  H486  1  0.012330  0.669670  0.857770  1.0  0.1538
  H  H487  1  0.168730  0.799170  0.873270  1.0  0.1429
  H  H488  1  0.079830  0.747570  0.884070  1.0  0.138
  H  H489  1  0.154230  0.778970  0.902970  1.0  0.1302
  H  H490  1  0.359030  0.523470  0.826270  1.0  0.0914
  H  H491  1  0.336630  0.404770  0.807970  1.0  0.1444
  H  H492  1  0.249630  0.457970  0.746170  1.0  0.1486
  H  H493  1  0.272430  0.573970  0.766270  1.0  0.0989
  H  H494  1  0.261930  0.300670  0.775570  1.0  0.1084
  H  H495  1  0.236830  0.325370  0.749570  1.0  0.1056
  H  H496  1  0.398730  0.373770  0.763070  1.0  0.1121
  H  H497  1  0.583130  0.567770  0.865270  1.0  0.1283
  H  H498  1  0.567730  0.451670  0.846970  1.0  0.1328
  H  H499  1  0.440730  0.340070  0.842470  1.0  0.1262
  H  H500  1  0.330330  0.342670  0.857770  1.0  0.1537
  H  H501  1  0.200830  0.369570  0.873270  1.0  0.1421
  H  H502  1  0.252430  0.332270  0.884070  1.0  0.1335
  H  H503  1  0.221030  0.375270  0.902970  1.0  0.1304
  H  H504  1  0.476530  0.835570  0.826270  1.0  0.0906
  H  H505  1  0.595230  0.931870  0.807970  1.0  0.1434
  H  H506  1  0.542030  0.791670  0.746170  1.0  0.1484
  H  H507  1  0.426030  0.698470  0.766270  1.0  0.103
  H  H508  1  0.699330  0.961270  0.775570  1.0  0.1085
  H  H509  1  0.674630  0.911470  0.749570  1.0  0.1052
  H  H510  1  0.626230  0.024970  0.763070  1.0  0.1111
  H  H511  1  0.015370  0.432230  0.634730  1.0  0.128
  H  H512  1  0.116070  0.548330  0.653030  1.0  0.1331
  H  H513  1  0.100670  0.659930  0.657530  1.0  0.1264
  H  H514  1  0.987670  0.657330  0.642230  1.0  0.1536
  H  H515  1  0.831270  0.630430  0.626730  1.0  0.143
  H  H516  1  0.920170  0.667730  0.615930  1.0  0.1326
  H  H517  1  0.845770  0.624730  0.597030  1.0  0.1301
  H  H518  1  0.640970  0.164430  0.673730  1.0  0.0901
  H  H519  1  0.663370  0.068130  0.692030  1.0  0.1438
  H  H520  1  0.750370  0.208330  0.753830  1.0  0.1481
  H  H521  1  0.727570  0.301530  0.733730  1.0  0.0997
  H  H522  1  0.738070  0.038730  0.724430  1.0  0.1091
  H  H523  1  0.763170  0.088530  0.750430  1.0  0.1062
  H  H524  1  0.601270  0.975030  0.736930  1.0  0.1103
  H  H525  1  0.416870  0.984630  0.634730  1.0  0.1282
  H  H526  1  0.432270  0.883930  0.653030  1.0  0.1325
  H  H527  1  0.559270  0.899330  0.657530  1.0  0.1284
  H  H528  1  0.669670  0.012330  0.642230  1.0  0.1551
  H  H529  1  0.799170  0.168730  0.626730  1.0  0.1434
  H  H530  1  0.747570  0.079830  0.615930  1.0  0.1346
  H  H531  1  0.778970  0.154230  0.597030  1.0  0.1292
  H  H532  1  0.523470  0.359030  0.673730  1.0  0.0907
  H  H533  1  0.404770  0.336630  0.692030  1.0  0.1447
  H  H534  1  0.457970  0.249630  0.753830  1.0  0.1488
  H  H535  1  0.573970  0.272430  0.733730  1.0  0.0996
  H  H536  1  0.300670  0.261930  0.724430  1.0  0.1095
  H  H537  1  0.325370  0.236830  0.750430  1.0  0.1058
  H  H538  1  0.373770  0.398730  0.736930  1.0  0.111
  H  H539  1  0.567770  0.583130  0.634730  1.0  0.128
  H  H540  1  0.451670  0.567730  0.653030  1.0  0.1334
  H  H541  1  0.340070  0.440730  0.657530  1.0  0.1267
  H  H542  1  0.342670  0.330330  0.642230  1.0  0.153
  H  H543  1  0.369570  0.200830  0.626730  1.0  0.1439
  H  H544  1  0.332270  0.252430  0.615930  1.0  0.1377
  H  H545  1  0.375270  0.221030  0.597030  1.0  0.1305
  H  H546  1  0.835570  0.476530  0.673730  1.0  0.0906
  H  H547  1  0.931870  0.595230  0.692030  1.0  0.1444
  H  H548  1  0.791670  0.542030  0.753830  1.0  0.1482
  H  H549  1  0.698470  0.426030  0.733730  1.0  0.1044
  H  H550  1  0.961270  0.699330  0.724430  1.0  0.1088
  H  H551  1  0.911470  0.674630  0.750430  1.0  0.1058
  H  H552  1  0.024970  0.626230  0.736930  1.0  0.1104
  C  C553  1  0.859200  0.727500  0.793430  1.0  0.3813
  C  C554  1  0.855600  0.657500  0.802750  1.0  -0.2259
  C  C555  1  0.786700  0.597700  0.813800  1.0  -0.0928
  C  C556  1  0.720200  0.606600  0.816260  1.0  -0.0657
  C  C557  1  0.722000  0.673800  0.807210  1.0  -0.1294
  C  C558  1  0.790400  0.735500  0.795360  1.0  -0.0494
  C  C559  1  0.787500  0.804500  0.785250  1.0  0.188
  C  C560  1  0.709300  0.801600  0.780880  1.0  -0.3165
  C  C561  1  0.159800  0.003600  0.857020  1.0  0.1994
  C  C562  1  0.217900  0.990300  0.867830  1.0  -0.1912
  C  C563  1  0.205900  0.958000  0.891790  1.0  0.1423
  C  C564  1  0.135600  0.939100  0.904000  1.0  -0.2084
  C  C565  1  0.080400  0.953600  0.891920  1.0  0.1794
  C  C566  1  0.269500  0.946000  0.904160  1.0  -0.1707
  C  C567  1  0.272500  0.131700  0.793430  1.0  0.3814
  C  C568  1  0.342500  0.198100  0.802750  1.0  -0.2258
  C  C569  1  0.402300  0.189000  0.813800  1.0  -0.0949
  C  C570  1  0.393400  0.113600  0.816260  1.0  -0.0675
  C  C571  1  0.326200  0.048200  0.807210  1.0  -0.1237
  C  C572  1  0.264500  0.054900  0.795360  1.0  -0.0504
  C  C573  1  0.195500  0.983000  0.785250  1.0  0.1857
  C  C574  1  0.198400  0.907700  0.780880  1.0  -0.3192
  C  C575  1  0.996400  0.156200  0.857020  1.0  0.1996
  C  C576  1  0.009700  0.227600  0.867830  1.0  -0.192
  C  C577  1  0.042000  0.247900  0.891790  1.0  0.1432
  C  C578  1  0.060900  0.196500  0.904000  1.0  -0.2122
  C  C579  1  0.046400  0.126800  0.891920  1.0  0.1797
  C  C580  1  0.054000  0.323500  0.904160  1.0  -0.1695
  C  C581  1  0.868300  0.140800  0.793430  1.0  0.3812
  C  C582  1  0.801900  0.144400  0.802750  1.0  -0.2251
  C  C583  1  0.811000  0.213300  0.813800  1.0  -0.0954
  C  C584  1  0.886400  0.279800  0.816260  1.0  -0.0677
  C  C585  1  0.951800  0.278000  0.807210  1.0  -0.1296
  C  C586  1  0.945100  0.209600  0.795360  1.0  -0.0497
  C  C587  1  0.017000  0.212500  0.785250  1.0  0.1863
  C  C588  1  0.092300  0.290700  0.780880  1.0  -0.3164
  C  C589  1  0.843800  0.840200  0.857020  1.0  0.1993
  C  C590  1  0.772400  0.782100  0.867830  1.0  -0.1914
  C  C591  1  0.752100  0.794100  0.891790  1.0  0.1419
  C  C592  1  0.803500  0.864400  0.904000  1.0  -0.2116
  C  C593  1  0.873200  0.919600  0.891920  1.0  0.1794
  C  C594  1  0.676500  0.730500  0.904160  1.0  -0.1683
  C  C595  1  0.394170  0.192530  0.039900  1.0  0.3822
  C  C596  1  0.324170  0.188930  0.030580  1.0  -0.2256
  C  C597  1  0.264370  0.120030  0.019530  1.0  -0.0944
  C  C598  1  0.273270  0.053530  0.017070  1.0  -0.066
  C  C599  1  0.340470  0.055330  0.026120  1.0  -0.1319
  C  C600  1  0.402170  0.123730  0.037970  1.0  -0.05
  C  C601  1  0.471170  0.120830  0.048080  1.0  0.1868
  C  C602  1  0.468270  0.042630  0.052450  1.0  -0.3173
  C  C603  1  0.670270  0.493130  0.976310  1.0  0.2003
  C  C604  1  0.656970  0.551230  0.965500  1.0  -0.1924
  C  C605  1  0.624670  0.539230  0.941540  1.0  0.1423
  C  C606  1  0.605770  0.468930  0.929330  1.0  -0.2135
  C  C607  1  0.620270  0.413730  0.941410  1.0  0.1779
  C  C608  1  0.612670  0.602830  0.929170  1.0  -0.1687
  C  C609  1  0.798370  0.605830  0.039900  1.0  0.3816
  C  C610  1  0.864770  0.675830  0.030580  1.0  -0.2269
  C  C611  1  0.855670  0.735630  0.019530  1.0  -0.0917
  C  C612  1  0.780270  0.726730  0.017070  1.0  -0.0682
  C  C613  1  0.714870  0.659530  0.026120  1.0  -0.1295
  C  C614  1  0.721570  0.597830  0.037970  1.0  -0.0503
  C  C615  1  0.649670  0.528830  0.048080  1.0  0.1875
  C  C616  1  0.574370  0.531730  0.052450  1.0  -0.3173
  C  C617  1  0.822870  0.329730  0.976310  1.0  0.2007
  C  C618  1  0.894270  0.343030  0.965500  1.0  -0.1934
  C  C619  1  0.914570  0.375330  0.941540  1.0  0.1419
  C  C620  1  0.863170  0.394230  0.929330  1.0  -0.2089
  C  C621  1  0.793470  0.379730  0.941410  1.0  0.1789
  C  C622  1  0.990170  0.387330  0.929170  1.0  -0.1703
  C  C623  1  0.807470  0.201630  0.039900  1.0  0.3823
  C  C624  1  0.811070  0.135230  0.030580  1.0  -0.2266
  C  C625  1  0.879970  0.144330  0.019530  1.0  -0.0952
  C  C626  1  0.946470  0.219730  0.017070  1.0  -0.0677
  C  C627  1  0.944670  0.285130  0.026120  1.0  -0.1247
  C  C628  1  0.876270  0.278430  0.037970  1.0  -0.0509
  C  C629  1  0.879170  0.350330  0.048080  1.0  0.1858
  C  C630  1  0.957370  0.425630  0.052450  1.0  -0.3187
  C  C631  1  0.506870  0.177130  0.976310  1.0  0.2005
  C  C632  1  0.448770  0.105730  0.965500  1.0  -0.1935
  C  C633  1  0.460770  0.085430  0.941540  1.0  0.1428
  C  C634  1  0.531070  0.136830  0.929330  1.0  -0.2127
  C  C635  1  0.586270  0.206530  0.941410  1.0  0.1789
  C  C636  1  0.397170  0.009830  0.929170  1.0  -0.17
  C  C637  1  0.333333  0.023020  0.916670  1.0  -0.0776
  C  C638  1  0.976980  0.310320  0.916670  1.0  -0.0755
  C  C639  1  0.689680  0.666667  0.916670  1.0  -0.0759
  C  C640  1  0.525870  0.060830  0.126760  1.0  0.3813
  C  C641  1  0.522270  0.990830  0.136080  1.0  -0.226
  C  C642  1  0.453370  0.931030  0.147130  1.0  -0.0932
  C  C643  1  0.386870  0.939930  0.149590  1.0  -0.0657
  C  C644  1  0.388670  0.007130  0.140540  1.0  -0.1294
  C  C645  1  0.457070  0.068830  0.128690  1.0  -0.0494
  C  C646  1  0.454170  0.137830  0.118580  1.0  0.188
  C  C647  1  0.375970  0.134930  0.114210  1.0  -0.3165
  C  C648  1  0.826470  0.336930  0.190350  1.0  0.1994
  C  C649  1  0.884570  0.323630  0.201160  1.0  -0.1912
  C  C650  1  0.872570  0.291330  0.225120  1.0  0.1421
  C  C651  1  0.802270  0.272430  0.237330  1.0  -0.2084
  C  C652  1  0.747070  0.286930  0.225250  1.0  0.1794
  C  C653  1  0.936170  0.279330  0.237490  1.0  -0.1716
  C  C654  1  0.939170  0.465030  0.126760  1.0  0.3814
  C  C655  1  0.009170  0.531430  0.136080  1.0  -0.2259
  C  C656  1  0.068970  0.522330  0.147130  1.0  -0.0953
  C  C657  1  0.060070  0.446930  0.149590  1.0  -0.0675
  C  C658  1  0.992870  0.381530  0.140540  1.0  -0.1237
  C  C659  1  0.931170  0.388230  0.128690  1.0  -0.0504
  C  C660  1  0.862170  0.316330  0.118580  1.0  0.1857
  C  C661  1  0.865070  0.241030  0.114210  1.0  -0.3192
  C  C662  1  0.663070  0.489530  0.190350  1.0  0.1996
  C  C663  1  0.676370  0.560930  0.201160  1.0  -0.1921
  C  C664  1  0.708670  0.581230  0.225120  1.0  0.1431
  C  C665  1  0.727570  0.529830  0.237330  1.0  -0.2122
  C  C666  1  0.713070  0.460130  0.225250  1.0  0.1797
  C  C667  1  0.720670  0.656830  0.237490  1.0  -0.1697
  C  C668  1  0.534970  0.474130  0.126760  1.0  0.3811
  C  C669  1  0.468570  0.477730  0.136080  1.0  -0.2252
  C  C670  1  0.477670  0.546630  0.147130  1.0  -0.0958
  C  C671  1  0.553070  0.613130  0.149590  1.0  -0.0677
  C  C672  1  0.618470  0.611330  0.140540  1.0  -0.1296
  C  C673  1  0.611770  0.542930  0.128690  1.0  -0.0497
  C  C674  1  0.683670  0.545830  0.118580  1.0  0.1863
  C  C675  1  0.758970  0.624030  0.114210  1.0  -0.3164
  C  C676  1  0.510470  0.173530  0.190350  1.0  0.1993
  C  C677  1  0.439070  0.115430  0.201160  1.0  -0.1914
  C  C678  1  0.418770  0.127430  0.225120  1.0  0.1419
  C  C679  1  0.470170  0.197730  0.237330  1.0  -0.2116
  C  C680  1  0.539870  0.252930  0.225250  1.0  0.1794
  C  C681  1  0.343170  0.063830  0.237490  1.0  -0.1685
  C  C682  1  0.060830  0.525870  0.373240  1.0  0.3821
  C  C683  1  0.990830  0.522270  0.363920  1.0  -0.2256
  C  C684  1  0.931030  0.453370  0.352870  1.0  -0.0949
  C  C685  1  0.939930  0.386870  0.350410  1.0  -0.066
  C  C686  1  0.007130  0.388670  0.359460  1.0  -0.1319
  C  C687  1  0.068830  0.457070  0.371310  1.0  -0.0499
  C  C688  1  0.137830  0.454170  0.381420  1.0  0.1868
  C  C689  1  0.134930  0.375970  0.385790  1.0  -0.3173
  C  C690  1  0.336930  0.826470  0.309650  1.0  0.2003
  C  C691  1  0.323630  0.884570  0.298840  1.0  -0.1924
  C  C692  1  0.291330  0.872570  0.274880  1.0  0.1427
  C  C693  1  0.272430  0.802270  0.262670  1.0  -0.2134
  C  C694  1  0.286930  0.747070  0.274750  1.0  0.1779
  C  C695  1  0.279330  0.936170  0.262510  1.0  -0.1695
  C  C696  1  0.465030  0.939170  0.373240  1.0  0.3816
  C  C697  1  0.531430  0.009170  0.363920  1.0  -0.2269
  C  C698  1  0.522330  0.068970  0.352870  1.0  -0.0919
  C  C699  1  0.446930  0.060070  0.350410  1.0  -0.0682
  C  C700  1  0.381530  0.992870  0.359460  1.0  -0.1295
  C  C701  1  0.388230  0.931170  0.371310  1.0  -0.0503
  C  C702  1  0.316330  0.862170  0.381420  1.0  0.1875
  C  C703  1  0.241030  0.865070  0.385790  1.0  -0.3173
  C  C704  1  0.489530  0.663070  0.309650  1.0  0.2007
  C  C705  1  0.560930  0.676370  0.298840  1.0  -0.1933
  C  C706  1  0.581230  0.708670  0.274880  1.0  0.1414
  C  C707  1  0.529830  0.727570  0.262670  1.0  -0.2089
  C  C708  1  0.460130  0.713070  0.274750  1.0  0.1789
  C  C709  1  0.656830  0.720670  0.262510  1.0  -0.1705
  C  C710  1  0.474130  0.534970  0.373240  1.0  0.3822
  C  C711  1  0.477730  0.468570  0.363920  1.0  -0.2266
  C  C712  1  0.546630  0.477670  0.352870  1.0  -0.0955
  C  C713  1  0.613130  0.553070  0.350410  1.0  -0.0677
  C  C714  1  0.611330  0.618470  0.359460  1.0  -0.1247
  C  C715  1  0.542930  0.611770  0.371310  1.0  -0.0509
  C  C716  1  0.545830  0.683670  0.381420  1.0  0.1858
  C  C717  1  0.624030  0.758970  0.385790  1.0  -0.3187
  C  C718  1  0.173530  0.510470  0.309650  1.0  0.2005
  C  C719  1  0.115430  0.439070  0.298840  1.0  -0.1936
  C  C720  1  0.127430  0.418770  0.274880  1.0  0.1422
  C  C721  1  0.197730  0.470170  0.262670  1.0  -0.2127
  C  C722  1  0.252930  0.539870  0.274750  1.0  0.1789
  C  C723  1  0.063830  0.343170  0.262510  1.0  -0.1702
  C  C724  1  0.000000  0.356350  0.250000  1.0  -0.0778
  C  C725  1  0.643650  0.643650  0.250000  1.0  -0.0755
  C  C726  1  0.356350  0.000000  0.250000  1.0  -0.0753
  C  C727  1  0.192530  0.394170  0.460100  1.0  0.3813
  C  C728  1  0.188930  0.324170  0.469420  1.0  -0.2258
  C  C729  1  0.120030  0.264370  0.480470  1.0  -0.0928
  C  C730  1  0.053530  0.273270  0.482930  1.0  -0.0657
  C  C731  1  0.055330  0.340470  0.473880  1.0  -0.1294
  C  C732  1  0.123730  0.402170  0.462030  1.0  -0.0494
  C  C733  1  0.120830  0.471170  0.451920  1.0  0.188
  C  C734  1  0.042630  0.468270  0.447550  1.0  -0.3165
  C  C735  1  0.493130  0.670270  0.523690  1.0  0.1994
  C  C736  1  0.551230  0.656970  0.534500  1.0  -0.1912
  C  C737  1  0.539230  0.624670  0.558460  1.0  0.1418
  C  C738  1  0.468930  0.605770  0.570670  1.0  -0.2085
  C  C739  1  0.413730  0.620270  0.558590  1.0  0.1794
  C  C740  1  0.602830  0.612670  0.570830  1.0  -0.1706
  C  C741  1  0.605830  0.798370  0.460100  1.0  0.3814
  C  C742  1  0.675830  0.864770  0.469420  1.0  -0.2258
  C  C743  1  0.735630  0.855670  0.480470  1.0  -0.0951
  C  C744  1  0.726730  0.780270  0.482930  1.0  -0.0675
  C  C745  1  0.659530  0.714870  0.473880  1.0  -0.1237
  C  C746  1  0.597830  0.721570  0.462030  1.0  -0.0504
  C  C747  1  0.528830  0.649670  0.451920  1.0  0.1858
  C  C748  1  0.531730  0.574370  0.447550  1.0  -0.3192
  C  C749  1  0.329730  0.822870  0.523690  1.0  0.1996
  C  C750  1  0.343030  0.894270  0.534500  1.0  -0.192
  C  C751  1  0.375330  0.914570  0.558460  1.0  0.1437
  C  C752  1  0.394230  0.863170  0.570670  1.0  -0.2122
  C  C753  1  0.379730  0.793470  0.558590  1.0  0.1797
  C  C754  1  0.387330  0.990170  0.570830  1.0  -0.1695
  C  C755  1  0.201630  0.807470  0.460100  1.0  0.3812
  C  C756  1  0.135230  0.811070  0.469420  1.0  -0.2251
  C  C757  1  0.144330  0.879970  0.480470  1.0  -0.0955
  C  C758  1  0.219730  0.946470  0.482930  1.0  -0.0677
  C  C759  1  0.285130  0.944670  0.473880  1.0  -0.1296
  C  C760  1  0.278430  0.876270  0.462030  1.0  -0.0497
  C  C761  1  0.350330  0.879170  0.451920  1.0  0.1864
  C  C762  1  0.425630  0.957370  0.447550  1.0  -0.3164
  C  C763  1  0.177130  0.506870  0.523690  1.0  0.1993
  C  C764  1  0.105730  0.448770  0.534500  1.0  -0.1914
  C  C765  1  0.085430  0.460770  0.558460  1.0  0.1423
  C  C766  1  0.136830  0.531070  0.570670  1.0  -0.2116
  C  C767  1  0.206530  0.586270  0.558590  1.0  0.1794
  C  C768  1  0.009830  0.397170  0.570830  1.0  -0.1683
  C  C769  1  0.727500  0.859200  0.706570  1.0  0.3822
  C  C770  1  0.657500  0.855600  0.697250  1.0  -0.2256
  C  C771  1  0.597700  0.786700  0.686200  1.0  -0.0944
  C  C772  1  0.606600  0.720200  0.683740  1.0  -0.066
  C  C773  1  0.673800  0.722000  0.692790  1.0  -0.1319
  C  C774  1  0.735500  0.790400  0.704640  1.0  -0.05
  C  C775  1  0.804500  0.787500  0.714750  1.0  0.1868
  C  C776  1  0.801600  0.709300  0.719120  1.0  -0.3173
  C  C777  1  0.003600  0.159800  0.642980  1.0  0.2003
  C  C778  1  0.990300  0.217900  0.632170  1.0  -0.1924
  C  C779  1  0.958000  0.205900  0.608210  1.0  0.1429
  C  C780  1  0.939100  0.135600  0.596000  1.0  -0.2134
  C  C781  1  0.953600  0.080400  0.608080  1.0  0.1779
  C  C782  1  0.946000  0.269500  0.595840  1.0  -0.1687
  C  C783  1  0.131700  0.272500  0.706570  1.0  0.3817
  C  C784  1  0.198100  0.342500  0.697250  1.0  -0.2267
  C  C785  1  0.189000  0.402300  0.686200  1.0  -0.0916
  C  C786  1  0.113600  0.393400  0.683740  1.0  -0.0682
  C  C787  1  0.048200  0.326200  0.692790  1.0  -0.1295
  C  C788  1  0.054900  0.264500  0.704640  1.0  -0.0503
  C  C789  1  0.983000  0.195500  0.714750  1.0  0.1875
  C  C790  1  0.907700  0.198400  0.719120  1.0  -0.3173
  C  C791  1  0.156200  0.996400  0.642980  1.0  0.2007
  C  C792  1  0.227600  0.009700  0.632170  1.0  -0.1933
  C  C793  1  0.247900  0.042000  0.608210  1.0  0.1414
  C  C794  1  0.196500  0.060900  0.596000  1.0  -0.2089
  C  C795  1  0.126800  0.046400  0.608080  1.0  0.1789
  C  C796  1  0.323500  0.054000  0.595840  1.0  -0.1703
  C  C797  1  0.140800  0.868300  0.706570  1.0  0.3821
  C  C798  1  0.144400  0.801900  0.697250  1.0  -0.2266
  C  C799  1  0.213300  0.811000  0.686200  1.0  -0.0951
  C  C800  1  0.279800  0.886400  0.683740  1.0  -0.0677
  C  C801  1  0.278000  0.951800  0.692790  1.0  -0.1247
  C  C802  1  0.209600  0.945100  0.704640  1.0  -0.0509
  C  C803  1  0.212500  0.017000  0.714750  1.0  0.1858
  C  C804  1  0.290700  0.092300  0.719120  1.0  -0.3187
  C  C805  1  0.840200  0.843800  0.642980  1.0  0.2005
  C  C806  1  0.782100  0.772400  0.632170  1.0  -0.1935
  C  C807  1  0.794100  0.752100  0.608210  1.0  0.1422
  C  C808  1  0.864400  0.803500  0.596000  1.0  -0.2127
  C  C809  1  0.919600  0.873200  0.608080  1.0  0.1789
  C  C810  1  0.730500  0.676500  0.595840  1.0  -0.17
  C  C811  1  0.023020  0.333333  0.583330  1.0  -0.0752
  C  C812  1  0.310320  0.976980  0.583330  1.0  -0.0755
  C  C813  1  0.666667  0.689680  0.583330  1.0  -0.0782
  C  C814  1  0.140800  0.272500  0.206570  1.0  0.3816
  C  C815  1  0.144400  0.342500  0.197250  1.0  -0.2266
  C  C816  1  0.213300  0.402300  0.186200  1.0  -0.0909
  C  C817  1  0.279800  0.393400  0.183740  1.0  -0.0677
  C  C818  1  0.278000  0.326200  0.192790  1.0  -0.1297
  C  C819  1  0.209600  0.264500  0.204640  1.0  -0.0508
  C  C820  1  0.212500  0.195500  0.214750  1.0  0.1873
  C  C821  1  0.290700  0.198400  0.219120  1.0  -0.3172
  C  C822  1  0.840200  0.996400  0.142980  1.0  0.2018
  C  C823  1  0.782100  0.009700  0.132170  1.0  -0.1936
  C  C824  1  0.794100  0.042000  0.108210  1.0  0.142
  C  C825  1  0.864400  0.060900  0.096000  1.0  -0.2102
  C  C826  1  0.919600  0.046400  0.108080  1.0  0.1792
  C  C827  1  0.730500  0.054000  0.095840  1.0  -0.1703
  C  C828  1  0.727500  0.868300  0.206570  1.0  0.383
  C  C829  1  0.657500  0.801900  0.197250  1.0  -0.2252
  C  C830  1  0.597700  0.811000  0.186200  1.0  -0.0943
  C  C831  1  0.606600  0.886400  0.183740  1.0  -0.0672
  C  C832  1  0.673800  0.951800  0.192790  1.0  -0.124
  C  C833  1  0.735500  0.945100  0.204640  1.0  -0.0504
  C  C834  1  0.804500  0.017000  0.214750  1.0  0.1853
  C  C835  1  0.801600  0.092300  0.219120  1.0  -0.317
  C  C836  1  0.003600  0.843800  0.142980  1.0  0.2006
  C  C837  1  0.990300  0.772400  0.132170  1.0  -0.195
  C  C838  1  0.958000  0.752100  0.108210  1.0  0.1426
  C  C839  1  0.939100  0.803500  0.096000  1.0  -0.2125
  C  C840  1  0.953600  0.873200  0.108080  1.0  0.179
  C  C841  1  0.946000  0.676500  0.095840  1.0  -0.1705
  C  C842  1  0.131700  0.859200  0.206570  1.0  0.3813
  C  C843  1  0.198100  0.855600  0.197250  1.0  -0.2263
  C  C844  1  0.189000  0.786700  0.186200  1.0  -0.0949
  C  C845  1  0.113600  0.720200  0.183740  1.0  -0.0687
  C  C846  1  0.048200  0.722000  0.192790  1.0  -0.1307
  C  C847  1  0.054900  0.790400  0.204640  1.0  -0.0501
  C  C848  1  0.983000  0.787500  0.214750  1.0  0.1873
  C  C849  1  0.907700  0.709300  0.219120  1.0  -0.317
  C  C850  1  0.156200  0.159800  0.142980  1.0  0.1999
  C  C851  1  0.227600  0.217900  0.132170  1.0  -0.191
  C  C852  1  0.247900  0.205900  0.108210  1.0  0.1425
  C  C853  1  0.196500  0.135600  0.096000  1.0  -0.2141
  C  C854  1  0.126800  0.080400  0.108080  1.0  0.1781
  C  C855  1  0.323500  0.269500  0.095840  1.0  -0.1714
  C  C856  1  0.605830  0.807470  0.960100  1.0  0.3802
  C  C857  1  0.675830  0.811070  0.969420  1.0  -0.2266
  C  C858  1  0.735630  0.879970  0.980470  1.0  -0.0958
  C  C859  1  0.726730  0.946470  0.982930  1.0  -0.0697
  C  C860  1  0.659530  0.944670  0.973880  1.0  -0.1298
  C  C861  1  0.597830  0.876270  0.962030  1.0  -0.0499
  C  C862  1  0.528830  0.879170  0.951920  1.0  0.1863
  C  C863  1  0.531730  0.957370  0.947550  1.0  -0.3168
  C  C864  1  0.329730  0.506870  0.023690  1.0  0.1986
  C  C865  1  0.343030  0.448770  0.034500  1.0  -0.19
  C  C866  1  0.375330  0.460770  0.058460  1.0  0.1426
  C  C867  1  0.394230  0.531070  0.070670  1.0  -0.212
  C  C868  1  0.379730  0.586270  0.058590  1.0  0.1779
  C  C869  1  0.387330  0.397170  0.070830  1.0  -0.1702
  C  C870  1  0.201630  0.394170  0.960100  1.0  0.3813
  C  C871  1  0.135230  0.324170  0.969420  1.0  -0.2252
  C  C872  1  0.144330  0.264370  0.980470  1.0  -0.0918
  C  C873  1  0.219730  0.273270  0.982930  1.0  -0.0668
  C  C874  1  0.285130  0.340470  0.973880  1.0  -0.1297
  C  C875  1  0.278430  0.402170  0.962030  1.0  -0.05
  C  C876  1  0.350330  0.471170  0.951920  1.0  0.1875
  C  C877  1  0.425630  0.468270  0.947550  1.0  -0.3168
  C  C878  1  0.177130  0.670270  0.023690  1.0  0.2002
  C  C879  1  0.105730  0.656970  0.034500  1.0  -0.1921
  C  C880  1  0.085430  0.624670  0.058460  1.0  0.1424
  C  C881  1  0.136830  0.605770  0.070670  1.0  -0.2104
  C  C882  1  0.206530  0.620270  0.058590  1.0  0.1801
  C  C883  1  0.009830  0.612670  0.070830  1.0  -0.1705
  C  C884  1  0.192530  0.798370  0.960100  1.0  0.3821
  C  C885  1  0.188930  0.864770  0.969420  1.0  -0.2246
  C  C886  1  0.120030  0.855670  0.980470  1.0  -0.0949
  C  C887  1  0.053530  0.780270  0.982930  1.0  -0.0685
  C  C888  1  0.055330  0.714870  0.973880  1.0  -0.1237
  C  C889  1  0.123730  0.721570  0.962030  1.0  -0.0499
  C  C890  1  0.120830  0.649670  0.951920  1.0  0.1856
  C  C891  1  0.042630  0.574370  0.947550  1.0  -0.3178
  C  C892  1  0.493130  0.822870  0.023690  1.0  0.2003
  C  C893  1  0.551230  0.894270  0.034500  1.0  -0.1938
  C  C894  1  0.539230  0.914570  0.058460  1.0  0.1437
  C  C895  1  0.468930  0.863170  0.070670  1.0  -0.212
  C  C896  1  0.413730  0.793470  0.058590  1.0  0.1801
  C  C897  1  0.602830  0.990170  0.070830  1.0  -0.1698
  C  C898  1  0.666667  0.976980  0.083330  1.0  -0.0767
  C  C899  1  0.023020  0.689680  0.083330  1.0  -0.0796
  C  C900  1  0.310320  0.333333  0.083330  1.0  -0.0747
  C  C901  1  0.807470  0.605830  0.539900  1.0  0.3817
  C  C902  1  0.811070  0.675830  0.530580  1.0  -0.2266
  C  C903  1  0.879970  0.735630  0.519530  1.0  -0.0909
  C  C904  1  0.946470  0.726730  0.517070  1.0  -0.0677
  C  C905  1  0.944670  0.659530  0.526120  1.0  -0.1297
  C  C906  1  0.876270  0.597830  0.537970  1.0  -0.0508
  C  C907  1  0.879170  0.528830  0.548080  1.0  0.1873
  C  C908  1  0.957370  0.531730  0.552450  1.0  -0.3171
  C  C909  1  0.506870  0.329730  0.476310  1.0  0.2018
  C  C910  1  0.448770  0.343030  0.465500  1.0  -0.1936
  C  C911  1  0.460770  0.375330  0.441540  1.0  0.1414
  C  C912  1  0.531070  0.394230  0.429330  1.0  -0.2102
  C  C913  1  0.586270  0.379730  0.441410  1.0  0.1791
  C  C914  1  0.397170  0.387330  0.429170  1.0  -0.1703
  C  C915  1  0.394170  0.201630  0.539900  1.0  0.3831
  C  C916  1  0.324170  0.135230  0.530580  1.0  -0.2252
  C  C917  1  0.264370  0.144330  0.519530  1.0  -0.0945
  C  C918  1  0.273270  0.219730  0.517070  1.0  -0.0672
  C  C919  1  0.340470  0.285130  0.526120  1.0  -0.124
  C  C920  1  0.402170  0.278430  0.537970  1.0  -0.0504
  C  C921  1  0.471170  0.350330  0.548080  1.0  0.1853
  C  C922  1  0.468270  0.425630  0.552450  1.0  -0.317
  C  C923  1  0.670270  0.177130  0.476310  1.0  0.2006
  C  C924  1  0.656970  0.105730  0.465500  1.0  -0.195
  C  C925  1  0.624670  0.085430  0.441540  1.0  0.143
  C  C926  1  0.605770  0.136830  0.429330  1.0  -0.2125
  C  C927  1  0.620270  0.206530  0.441410  1.0  0.179
  C  C928  1  0.612670  0.009830  0.429170  1.0  -0.1705
  C  C929  1  0.798370  0.192530  0.539900  1.0  0.3813
  C  C930  1  0.864770  0.188930  0.530580  1.0  -0.2262
  C  C931  1  0.855670  0.120030  0.519530  1.0  -0.0949
  C  C932  1  0.780270  0.053530  0.517070  1.0  -0.0687
  C  C933  1  0.714870  0.055330  0.526120  1.0  -0.1307
  C  C934  1  0.721570  0.123730  0.537970  1.0  -0.0501
  C  C935  1  0.649670  0.120830  0.548080  1.0  0.1873
  C  C936  1  0.574370  0.042630  0.552450  1.0  -0.317
  C  C937  1  0.822870  0.493130  0.476310  1.0  0.1999
  C  C938  1  0.894270  0.551230  0.465500  1.0  -0.191
  C  C939  1  0.914570  0.539230  0.441540  1.0  0.143
  C  C940  1  0.863170  0.468930  0.429330  1.0  -0.2141
  C  C941  1  0.793470  0.413730  0.441410  1.0  0.1781
  C  C942  1  0.990170  0.602830  0.429170  1.0  -0.1714
  C  C943  1  0.272500  0.140800  0.293430  1.0  0.3802
  C  C944  1  0.342500  0.144400  0.302750  1.0  -0.2266
  C  C945  1  0.402300  0.213300  0.313800  1.0  -0.0958
  C  C946  1  0.393400  0.279800  0.316260  1.0  -0.0697
  C  C947  1  0.326200  0.278000  0.307210  1.0  -0.1298
  C  C948  1  0.264500  0.209600  0.295360  1.0  -0.0499
  C  C949  1  0.195500  0.212500  0.285250  1.0  0.1863
  C  C950  1  0.198400  0.290700  0.280880  1.0  -0.3168
  C  C951  1  0.996400  0.840200  0.357020  1.0  0.1986
  C  C952  1  0.009700  0.782100  0.367830  1.0  -0.19
  C  C953  1  0.042000  0.794100  0.391790  1.0  0.1431
  C  C954  1  0.060900  0.864400  0.404000  1.0  -0.212
  C  C955  1  0.046400  0.919600  0.391920  1.0  0.1779
  C  C956  1  0.054000  0.730500  0.404160  1.0  -0.1703
  C  C957  1  0.868300  0.727500  0.293430  1.0  0.3814
  C  C958  1  0.801900  0.657500  0.302750  1.0  -0.2252
  C  C959  1  0.811000  0.597700  0.313800  1.0  -0.0916
  C  C960  1  0.886400  0.606600  0.316260  1.0  -0.0668
  C  C961  1  0.951800  0.673800  0.307210  1.0  -0.1297
  C  C962  1  0.945100  0.735500  0.295360  1.0  -0.05
  C  C963  1  0.017000  0.804500  0.285250  1.0  0.1874
  C  C964  1  0.092300  0.801600  0.280880  1.0  -0.3168
  C  C965  1  0.843800  0.003600  0.357020  1.0  0.2002
  C  C966  1  0.772400  0.990300  0.367830  1.0  -0.1921
  C  C967  1  0.752100  0.958000  0.391790  1.0  0.142
  C  C968  1  0.803500  0.939100  0.404000  1.0  -0.2104
  C  C969  1  0.873200  0.953600  0.391920  1.0  0.18
  C  C970  1  0.676500  0.946000  0.404160  1.0  -0.1705
  C  C971  1  0.859200  0.131700  0.293430  1.0  0.3821
  C  C972  1  0.855600  0.198100  0.302750  1.0  -0.2246
  C  C973  1  0.786700  0.189000  0.313800  1.0  -0.0948
  C  C974  1  0.720200  0.113600  0.316260  1.0  -0.0685
  C  C975  1  0.722000  0.048200  0.307210  1.0  -0.1237
  C  C976  1  0.790400  0.054900  0.295360  1.0  -0.0499
  C  C977  1  0.787500  0.983000  0.285250  1.0  0.1856
  C  C978  1  0.709300  0.907700  0.280880  1.0  -0.3178
  C  C979  1  0.159800  0.156200  0.357020  1.0  0.2003
  C  C980  1  0.217900  0.227600  0.367830  1.0  -0.1938
  C  C981  1  0.205900  0.247900  0.391790  1.0  0.1431
  C  C982  1  0.135600  0.196500  0.404000  1.0  -0.212
  C  C983  1  0.080400  0.126800  0.391920  1.0  0.1801
  C  C984  1  0.269500  0.323500  0.404160  1.0  -0.1697
  C  C985  1  0.976980  0.666667  0.416670  1.0  -0.0741
  C  C986  1  0.689680  0.023020  0.416670  1.0  -0.0797
  C  C987  1  0.333333  0.310320  0.416670  1.0  -0.0774
  C  C988  1  0.474130  0.939170  0.873240  1.0  0.3816
  C  C989  1  0.477730  0.009170  0.863920  1.0  -0.2267
  C  C990  1  0.546630  0.068970  0.852870  1.0  -0.0913
  C  C991  1  0.613130  0.060070  0.850410  1.0  -0.0677
  C  C992  1  0.611330  0.992870  0.859460  1.0  -0.1297
  C  C993  1  0.542930  0.931170  0.871310  1.0  -0.0508
  C  C994  1  0.545830  0.862170  0.881420  1.0  0.1873
  C  C995  1  0.624030  0.865070  0.885790  1.0  -0.3171
  C  C996  1  0.173530  0.663070  0.809650  1.0  0.2018
  C  C997  1  0.115430  0.676370  0.798840  1.0  -0.1936
  C  C998  1  0.127430  0.708670  0.774880  1.0  0.1418
  C  C999  1  0.197730  0.727570  0.762670  1.0  -0.2102
  C  C1000  1  0.252930  0.713070  0.774750  1.0  0.1791
  C  C1001  1  0.063830  0.720670  0.762510  1.0  -0.1711
  C  C1002  1  0.060830  0.534970  0.873240  1.0  0.3831
  C  C1003  1  0.990830  0.468570  0.863920  1.0  -0.2253
  C  C1004  1  0.931030  0.477670  0.852870  1.0  -0.0947
  C  C1005  1  0.939930  0.553070  0.850410  1.0  -0.0672
  C  C1006  1  0.007130  0.618470  0.859460  1.0  -0.124
  C  C1007  1  0.068830  0.611770  0.871310  1.0  -0.0503
  C  C1008  1  0.137830  0.683670  0.881420  1.0  0.1853
  C  C1009  1  0.134930  0.758970  0.885790  1.0  -0.317
  C  C1010  1  0.336930  0.510470  0.809650  1.0  0.2006
  C  C1011  1  0.323630  0.439070  0.798840  1.0  -0.195
  C  C1012  1  0.291330  0.418770  0.774880  1.0  0.1424
  C  C1013  1  0.272430  0.470170  0.762670  1.0  -0.2125
  C  C1014  1  0.286930  0.539870  0.774750  1.0  0.179
  C  C1015  1  0.279330  0.343170  0.762510  1.0  -0.1707
  C  C1016  1  0.465030  0.525870  0.873240  1.0  0.3812
  C  C1017  1  0.531430  0.522270  0.863920  1.0  -0.2263
  C  C1018  1  0.522330  0.453370  0.852870  1.0  -0.0952
  C  C1019  1  0.446930  0.386870  0.850410  1.0  -0.0687
  C  C1020  1  0.381530  0.388670  0.859460  1.0  -0.1307
  C  C1021  1  0.388230  0.457070  0.871310  1.0  -0.0501
  C  C1022  1  0.316330  0.454170  0.881420  1.0  0.1873
  C  C1023  1  0.241030  0.375970  0.885790  1.0  -0.317
  C  C1024  1  0.489530  0.826470  0.809650  1.0  0.1999
  C  C1025  1  0.560930  0.884570  0.798840  1.0  -0.191
  C  C1026  1  0.581230  0.872570  0.774880  1.0  0.1425
  C  C1027  1  0.529830  0.802270  0.762670  1.0  -0.2141
  C  C1028  1  0.460130  0.747070  0.774750  1.0  0.1781
  C  C1029  1  0.656830  0.936170  0.762510  1.0  -0.1716
  C  C1030  1  0.939170  0.474130  0.626760  1.0  0.3801
  C  C1031  1  0.009170  0.477730  0.636080  1.0  -0.2266
  C  C1032  1  0.068970  0.546630  0.647130  1.0  -0.0963
  C  C1033  1  0.060070  0.613130  0.649590  1.0  -0.0697
  C  C1034  1  0.992870  0.611330  0.640540  1.0  -0.1298
  C  C1035  1  0.931170  0.542930  0.628690  1.0  -0.0499
  C  C1036  1  0.862170  0.545830  0.618580  1.0  0.1863
  C  C1037  1  0.865070  0.624030  0.614210  1.0  -0.3168
  C  C1038  1  0.663070  0.173530  0.690350  1.0  0.1986
  C  C1039  1  0.676370  0.115430  0.701160  1.0  -0.19
  C  C1040  1  0.708670  0.127430  0.725120  1.0  0.1429
  C  C1041  1  0.727570  0.197730  0.737330  1.0  -0.212
  C  C1042  1  0.713070  0.252930  0.725250  1.0  0.1779
  C  C1043  1  0.720670  0.063830  0.737490  1.0  -0.1711
  C  C1044  1  0.534970  0.060830  0.626760  1.0  0.3813
  C  C1045  1  0.468570  0.990830  0.636080  1.0  -0.2252
  C  C1046  1  0.477670  0.931030  0.647130  1.0  -0.092
  C  C1047  1  0.553070  0.939930  0.649590  1.0  -0.0668
  C  C1048  1  0.618470  0.007130  0.640540  1.0  -0.1297
  C  C1049  1  0.611770  0.068830  0.628690  1.0  -0.05
  C  C1050  1  0.683670  0.137830  0.618580  1.0  0.1874
  C  C1051  1  0.758970  0.134930  0.614210  1.0  -0.3169
  C  C1052  1  0.510470  0.336930  0.690350  1.0  0.2002
  C  C1053  1  0.439070  0.323630  0.701160  1.0  -0.1921
  C  C1054  1  0.418770  0.291330  0.725120  1.0  0.142
  C  C1055  1  0.470170  0.272430  0.737330  1.0  -0.2104
  C  C1056  1  0.539870  0.286930  0.725250  1.0  0.18
  C  C1057  1  0.343170  0.279330  0.737490  1.0  -0.1706
  C  C1058  1  0.525870  0.465030  0.626760  1.0  0.382
  C  C1059  1  0.522270  0.531430  0.636080  1.0  -0.2246
  C  C1060  1  0.453370  0.522330  0.647130  1.0  -0.0952
  C  C1061  1  0.386870  0.446930  0.649590  1.0  -0.0685
  C  C1062  1  0.388670  0.381530  0.640540  1.0  -0.1237
  C  C1063  1  0.457070  0.388230  0.628690  1.0  -0.0499
  C  C1064  1  0.454170  0.316330  0.618580  1.0  0.1856
  C  C1065  1  0.375970  0.241030  0.614210  1.0  -0.3178
  C  C1066  1  0.826470  0.489530  0.690350  1.0  0.2003
  C  C1067  1  0.884570  0.560930  0.701160  1.0  -0.1938
  C  C1068  1  0.872570  0.581230  0.725120  1.0  0.1431
  C  C1069  1  0.802270  0.529830  0.737330  1.0  -0.212
  C  C1070  1  0.747070  0.460130  0.725250  1.0  0.1801
  C  C1071  1  0.936170  0.656830  0.737490  1.0  -0.1699
  C  C1072  1  0.643650  0.000000  0.750000  1.0  -0.0742
  C  C1073  1  0.356350  0.356350  0.750000  1.0  -0.0795
  C  C1074  1  0.000000  0.643650  0.750000  1.0  -0.0769
  N  N1075  1  0.995500  0.901900  0.821130  1.0  -0.5463
  N  N1076  1  0.009200  0.852900  0.830180  1.0  0.5566
  N  N1077  1  0.022200  0.805800  0.838930  1.0  -0.415
  N  N1078  1  0.853400  0.869300  0.779370  1.0  -0.3892
  N  N1079  1  0.092100  0.987200  0.868820  1.0  -0.3301
  N  N1080  1  0.098100  0.093600  0.821130  1.0  -0.5447
  N  N1081  1  0.147100  0.156300  0.830180  1.0  0.5566
  N  N1082  1  0.194200  0.216400  0.838930  1.0  -0.4203
  N  N1083  1  0.130700  0.984100  0.779370  1.0  -0.3916
  N  N1084  1  0.012800  0.104900  0.868820  1.0  -0.329
  N  N1085  1  0.906400  0.004500  0.821130  1.0  -0.5463
  N  N1086  1  0.843700  0.990800  0.830180  1.0  0.5571
  N  N1087  1  0.783600  0.977800  0.838930  1.0  -0.4152
  N  N1088  1  0.015900  0.146600  0.779370  1.0  -0.3914
  N  N1089  1  0.895100  0.907900  0.868820  1.0  -0.329
  N  N1090  1  0.568570  0.328830  0.012200  1.0  -0.5468
  N  N1091  1  0.519570  0.342530  0.003150  1.0  0.5578
  N  N1092  1  0.472470  0.355530  0.994400  1.0  -0.4147
  N  N1093  1  0.535970  0.186730  0.053960  1.0  -0.3912
  N  N1094  1  0.653870  0.425430  0.964510  1.0  -0.3282
  N  N1095  1  0.760270  0.431430  0.012200  1.0  -0.546
  N  N1096  1  0.822970  0.480430  0.003150  1.0  0.5573
  N  N1097  1  0.883070  0.527530  0.994400  1.0  -0.417
  N  N1098  1  0.650770  0.464030  0.053960  1.0  -0.3893
  N  N1099  1  0.771570  0.346130  0.964510  1.0  -0.3302
  N  N1100  1  0.671170  0.239730  0.012200  1.0  -0.5472
  N  N1101  1  0.657470  0.177030  0.003150  1.0  0.5578
  N  N1102  1  0.644470  0.116930  0.994400  1.0  -0.4168
  N  N1103  1  0.813270  0.349230  0.053960  1.0  -0.3924
  N  N1104  1  0.574570  0.228430  0.964510  1.0  -0.3282
  N  N1105  1  0.662170  0.235230  0.154460  1.0  -0.5463
  N  N1106  1  0.675870  0.186230  0.163510  1.0  0.5566
  N  N1107  1  0.688870  0.139130  0.172260  1.0  -0.415
  N  N1108  1  0.520070  0.202630  0.112700  1.0  -0.3892
  N  N1109  1  0.758770  0.320530  0.202150  1.0  -0.3301
  N  N1110  1  0.764770  0.426930  0.154460  1.0  -0.5447
  N  N1111  1  0.813770  0.489630  0.163510  1.0  0.5566
  N  N1112  1  0.860870  0.549730  0.172260  1.0  -0.4203
  N  N1113  1  0.797370  0.317430  0.112700  1.0  -0.3916
  N  N1114  1  0.679470  0.438230  0.202150  1.0  -0.329
  N  N1115  1  0.573070  0.337830  0.154460  1.0  -0.5463
  N  N1116  1  0.510370  0.324130  0.163510  1.0  0.5571
  N  N1117  1  0.450270  0.311130  0.172260  1.0  -0.4152
  N  N1118  1  0.682570  0.479930  0.112700  1.0  -0.3914
  N  N1119  1  0.561770  0.241230  0.202150  1.0  -0.329
  N  N1120  1  0.235230  0.662170  0.345540  1.0  -0.5468
  N  N1121  1  0.186230  0.675870  0.336490  1.0  0.5578
  N  N1122  1  0.139130  0.688870  0.327740  1.0  -0.4148
  N  N1123  1  0.202630  0.520070  0.387300  1.0  -0.3912
  N  N1124  1  0.320530  0.758770  0.297850  1.0  -0.3282
  N  N1125  1  0.426930  0.764770  0.345540  1.0  -0.546
  N  N1126  1  0.489630  0.813770  0.336490  1.0  0.5574
  N  N1127  1  0.549730  0.860870  0.327740  1.0  -0.4168
  N  N1128  1  0.317430  0.797370  0.387300  1.0  -0.3893
  N  N1129  1  0.438230  0.679470  0.297850  1.0  -0.3302
  N  N1130  1  0.337830  0.573070  0.345540  1.0  -0.5471
  N  N1131  1  0.324130  0.510370  0.336490  1.0  0.5578
  N  N1132  1  0.311130  0.450270  0.327740  1.0  -0.4168
  N  N1133  1  0.479930  0.682570  0.387300  1.0  -0.3924
  N  N1134  1  0.241230  0.561770  0.297850  1.0  -0.3282
  N  N1135  1  0.328830  0.568570  0.487800  1.0  -0.5463
  N  N1136  1  0.342530  0.519570  0.496850  1.0  0.5566
  N  N1137  1  0.355530  0.472470  0.505600  1.0  -0.415
  N  N1138  1  0.186730  0.535970  0.446040  1.0  -0.3892
  N  N1139  1  0.425430  0.653870  0.535490  1.0  -0.3301
  N  N1140  1  0.431430  0.760270  0.487800  1.0  -0.5446
  N  N1141  1  0.480430  0.822970  0.496850  1.0  0.5566
  N  N1142  1  0.527530  0.883070  0.505600  1.0  -0.4206
  N  N1143  1  0.464030  0.650770  0.446040  1.0  -0.3916
  N  N1144  1  0.346130  0.771570  0.535490  1.0  -0.329
  N  N1145  1  0.239730  0.671170  0.487800  1.0  -0.5464
  N  N1146  1  0.177030  0.657470  0.496850  1.0  0.5571
  N  N1147  1  0.116930  0.644470  0.505600  1.0  -0.4152
  N  N1148  1  0.349230  0.813270  0.446040  1.0  -0.3914
  N  N1149  1  0.228430  0.574570  0.535490  1.0  -0.329
  N  N1150  1  0.901900  0.995500  0.678870  1.0  -0.5468
  N  N1151  1  0.852900  0.009200  0.669820  1.0  0.5578
  N  N1152  1  0.805800  0.022200  0.661070  1.0  -0.4148
  N  N1153  1  0.869300  0.853400  0.720630  1.0  -0.3912
  N  N1154  1  0.987200  0.092100  0.631180  1.0  -0.3282
  N  N1155  1  0.093600  0.098100  0.678870  1.0  -0.546
  N  N1156  1  0.156300  0.147100  0.669820  1.0  0.5573
  N  N1157  1  0.216400  0.194200  0.661070  1.0  -0.4168
  N  N1158  1  0.984100  0.130700  0.720630  1.0  -0.3893
  N  N1159  1  0.104900  0.012800  0.631180  1.0  -0.3302
  N  N1160  1  0.004500  0.906400  0.678870  1.0  -0.5471
  N  N1161  1  0.990800  0.843700  0.669820  1.0  0.5578
  N  N1162  1  0.977800  0.783600  0.661070  1.0  -0.4168
  N  N1163  1  0.146600  0.015900  0.720630  1.0  -0.3924
  N  N1164  1  0.907900  0.895100  0.631180  1.0  -0.3282
  N  N1165  1  0.004500  0.098100  0.178870  1.0  -0.5458
  N  N1166  1  0.990800  0.147100  0.169820  1.0  0.558
  N  N1167  1  0.977800  0.194200  0.161070  1.0  -0.4165
  N  N1168  1  0.146600  0.130700  0.220630  1.0  -0.3911
  N  N1169  1  0.907900  0.012800  0.131180  1.0  -0.3282
  N  N1170  1  0.901900  0.906400  0.178870  1.0  -0.5472
  N  N1171  1  0.852900  0.843700  0.169820  1.0  0.5583
  N  N1172  1  0.805800  0.783600  0.161070  1.0  -0.4161
  N  N1173  1  0.869300  0.015900  0.220630  1.0  -0.3902
  N  N1174  1  0.987200  0.895100  0.131180  1.0  -0.3286
  N  N1175  1  0.093600  0.995500  0.178870  1.0  -0.5469
  N  N1176  1  0.156300  0.009200  0.169820  1.0  0.5575
  N  N1177  1  0.216400  0.022200  0.161070  1.0  -0.4139
  N  N1178  1  0.984100  0.853400  0.220630  1.0  -0.3916
  N  N1179  1  0.104900  0.092100  0.131180  1.0  -0.3296
  N  N1180  1  0.431430  0.671170  0.987800  1.0  -0.5463
  N  N1181  1  0.480430  0.657470  0.996850  1.0  0.5565
  N  N1182  1  0.527530  0.644470  0.005600  1.0  -0.4146
  N  N1183  1  0.464030  0.813270  0.946040  1.0  -0.392
  N  N1184  1  0.346130  0.574570  0.035490  1.0  -0.3297
  N  N1185  1  0.239730  0.568570  0.987800  1.0  -0.5464
  N  N1186  1  0.177030  0.519570  0.996850  1.0  0.5574
  N  N1187  1  0.116930  0.472470  0.005600  1.0  -0.4156
  N  N1188  1  0.349230  0.535970  0.946040  1.0  -0.3906
  N  N1189  1  0.228430  0.653870  0.035490  1.0  -0.3289
  N  N1190  1  0.328830  0.760270  0.987800  1.0  -0.5447
  N  N1191  1  0.342530  0.822970  0.996850  1.0  0.5569
  N  N1192  1  0.355530  0.883070  0.005600  1.0  -0.4198
  N  N1193  1  0.186730  0.650770  0.946040  1.0  -0.3901
  N  N1194  1  0.425430  0.771570  0.035490  1.0  -0.3297
  N  N1195  1  0.671170  0.431430  0.512200  1.0  -0.5458
  N  N1196  1  0.657470  0.480430  0.503150  1.0  0.5579
  N  N1197  1  0.644470  0.527530  0.494400  1.0  -0.4165
  N  N1198  1  0.813270  0.464030  0.553960  1.0  -0.3911
  N  N1199  1  0.574570  0.346130  0.464510  1.0  -0.3282
  N  N1200  1  0.568570  0.239730  0.512200  1.0  -0.5472
  N  N1201  1  0.519570  0.177030  0.503150  1.0  0.5583
  N  N1202  1  0.472470  0.116930  0.494400  1.0  -0.4164
  N  N1203  1  0.535970  0.349230  0.553960  1.0  -0.3902
  N  N1204  1  0.653870  0.228430  0.464510  1.0  -0.3286
  N  N1205  1  0.760270  0.328830  0.512200  1.0  -0.547
  N  N1206  1  0.822970  0.342530  0.503150  1.0  0.5575
  N  N1207  1  0.883070  0.355530  0.494400  1.0  -0.4139
  N  N1208  1  0.650770  0.186730  0.553960  1.0  -0.3916
  N  N1209  1  0.771570  0.425430  0.464510  1.0  -0.3296
  N  N1210  1  0.098100  0.004500  0.321130  1.0  -0.5464
  N  N1211  1  0.147100  0.990800  0.330180  1.0  0.5565
  N  N1212  1  0.194200  0.977800  0.338930  1.0  -0.4147
  N  N1213  1  0.130700  0.146600  0.279370  1.0  -0.392
  N  N1214  1  0.012800  0.907900  0.368820  1.0  -0.3297
  N  N1215  1  0.906400  0.901900  0.321130  1.0  -0.5464
  N  N1216  1  0.843700  0.852900  0.330180  1.0  0.5574
  N  N1217  1  0.783600  0.805800  0.338930  1.0  -0.4154
  N  N1218  1  0.015900  0.869300  0.279370  1.0  -0.3906
  N  N1219  1  0.895100  0.987200  0.368820  1.0  -0.3289
  N  N1220  1  0.995500  0.093600  0.321130  1.0  -0.5446
  N  N1221  1  0.009200  0.156300  0.330180  1.0  0.5569
  N  N1222  1  0.022200  0.216400  0.338930  1.0  -0.4198
  N  N1223  1  0.853400  0.984100  0.279370  1.0  -0.3901
  N  N1224  1  0.092100  0.104900  0.368820  1.0  -0.3297
  N  N1225  1  0.337830  0.764770  0.845540  1.0  -0.5458
  N  N1226  1  0.324130  0.813770  0.836490  1.0  0.558
  N  N1227  1  0.311130  0.860870  0.827740  1.0  -0.4165
  N  N1228  1  0.479930  0.797370  0.887300  1.0  -0.3911
  N  N1229  1  0.241230  0.679470  0.797850  1.0  -0.3282
  N  N1230  1  0.235230  0.573070  0.845540  1.0  -0.5472
  N  N1231  1  0.186230  0.510370  0.836490  1.0  0.5583
  N  N1232  1  0.139130  0.450270  0.827740  1.0  -0.4161
  N  N1233  1  0.202630  0.682570  0.887300  1.0  -0.3902
  N  N1234  1  0.320530  0.561770  0.797850  1.0  -0.3286
  N  N1235  1  0.426930  0.662170  0.845540  1.0  -0.5469
  N  N1236  1  0.489630  0.675870  0.836490  1.0  0.5575
  N  N1237  1  0.549730  0.688870  0.827740  1.0  -0.4139
  N  N1238  1  0.317430  0.520070  0.887300  1.0  -0.3916
  N  N1239  1  0.438230  0.758770  0.797850  1.0  -0.3296
  N  N1240  1  0.764770  0.337830  0.654460  1.0  -0.5463
  N  N1241  1  0.813770  0.324130  0.663510  1.0  0.5565
  N  N1242  1  0.860870  0.311130  0.672260  1.0  -0.4147
  N  N1243  1  0.797370  0.479930  0.612700  1.0  -0.392
  N  N1244  1  0.679470  0.241230  0.702150  1.0  -0.3297
  N  N1245  1  0.573070  0.235230  0.654460  1.0  -0.5464
  N  N1246  1  0.510370  0.186230  0.663510  1.0  0.5574
  N  N1247  1  0.450270  0.139130  0.672260  1.0  -0.4154
  N  N1248  1  0.682570  0.202630  0.612700  1.0  -0.3906
  N  N1249  1  0.561770  0.320530  0.702150  1.0  -0.3289
  N  N1250  1  0.662170  0.426930  0.654460  1.0  -0.5446
  N  N1251  1  0.675870  0.489630  0.663510  1.0  0.5569
  N  N1252  1  0.688870  0.549730  0.672260  1.0  -0.4198
  N  N1253  1  0.520070  0.317430  0.612700  1.0  -0.3901
  N  N1254  1  0.758770  0.438230  0.702150  1.0  -0.3297
  O  O1255  1  0.926190  0.780650  0.782350  1.0  -0.5531
  O  O1256  1  0.845280  0.930660  0.768960  1.0  -0.6354
  O  O1257  1  0.219350  0.145540  0.782350  1.0  -0.5538
  O  O1258  1  0.069340  0.914620  0.768960  1.0  -0.6344
  O  O1259  1  0.854460  0.073810  0.782350  1.0  -0.5531
  O  O1260  1  0.085380  0.154720  0.768960  1.0  -0.6347
  O  O1261  1  0.447320  0.259520  0.050980  1.0  -0.5522
  O  O1262  1  0.597330  0.178610  0.064370  1.0  -0.6349
  O  O1263  1  0.812210  0.552680  0.050980  1.0  -0.5533
  O  O1264  1  0.581290  0.402670  0.064370  1.0  -0.6349
  O  O1265  1  0.740480  0.187790  0.050980  1.0  -0.5537
  O  O1266  1  0.821390  0.418710  0.064370  1.0  -0.6341
  O  O1267  1  0.000000  0.000000  0.778410  1.0  -0.8295
  O  O1268  1  0.666667  0.333333  0.054920  1.0  -0.8298
  O  O1269  1  0.592860  0.113980  0.115680  1.0  -0.5531
  O  O1270  1  0.511950  0.263990  0.102290  1.0  -0.6353
  O  O1271  1  0.886020  0.478870  0.115680  1.0  -0.5538
  O  O1272  1  0.736010  0.247950  0.102290  1.0  -0.6343
  O  O1273  1  0.521130  0.407140  0.115680  1.0  -0.5531
  O  O1274  1  0.752050  0.488050  0.102290  1.0  -0.6346
  O  O1275  1  0.113980  0.592860  0.384320  1.0  -0.5524
  O  O1276  1  0.263990  0.511950  0.397710  1.0  -0.6349
  O  O1277  1  0.478870  0.886020  0.384320  1.0  -0.5535
  O  O1278  1  0.247950  0.736010  0.397710  1.0  -0.635
  O  O1279  1  0.407140  0.521130  0.384320  1.0  -0.5539
  O  O1280  1  0.488050  0.752050  0.397710  1.0  -0.6341
  O  O1281  1  0.666667  0.333333  0.111740  1.0  -0.8299
  O  O1282  1  0.333333  0.666667  0.388260  1.0  -0.8295
  O  O1283  1  0.259520  0.447320  0.449020  1.0  -0.5529
  O  O1284  1  0.178610  0.597330  0.435630  1.0  -0.6353
  O  O1285  1  0.552680  0.812210  0.449020  1.0  -0.5535
  O  O1286  1  0.402670  0.581290  0.435630  1.0  -0.6343
  O  O1287  1  0.187790  0.740480  0.449020  1.0  -0.5529
  O  O1288  1  0.418710  0.821390  0.435630  1.0  -0.6346
  O  O1289  1  0.780650  0.926190  0.717650  1.0  -0.5524
  O  O1290  1  0.930660  0.845280  0.731040  1.0  -0.635
  O  O1291  1  0.145540  0.219350  0.717650  1.0  -0.5536
  O  O1292  1  0.914620  0.069340  0.731040  1.0  -0.635
  O  O1293  1  0.073810  0.854460  0.717650  1.0  -0.554
  O  O1294  1  0.154720  0.085380  0.731040  1.0  -0.6342
  O  O1295  1  0.333333  0.666667  0.445080  1.0  -0.8294
  O  O1296  1  0.000000  0.000000  0.721590  1.0  -0.8297
  O  O1297  1  0.073810  0.219350  0.217650  1.0  -0.5539
  O  O1298  1  0.154720  0.069340  0.231040  1.0  -0.6356
  O  O1299  1  0.780650  0.854460  0.217650  1.0  -0.553
  O  O1300  1  0.930660  0.085380  0.231040  1.0  -0.6337
  O  O1301  1  0.145540  0.926190  0.217650  1.0  -0.5525
  O  O1302  1  0.914620  0.845280  0.231040  1.0  -0.6344
  O  O1303  1  0.552680  0.740480  0.949020  1.0  -0.5527
  O  O1304  1  0.402670  0.821390  0.935630  1.0  -0.6342
  O  O1305  1  0.187790  0.447320  0.949020  1.0  -0.553
  O  O1306  1  0.418710  0.597330  0.935630  1.0  -0.6358
  O  O1307  1  0.259520  0.812210  0.949020  1.0  -0.553
  O  O1308  1  0.178610  0.581290  0.935630  1.0  -0.6339
  O  O1309  1  0.000000  0.000000  0.221590  1.0  -0.8297
  O  O1310  1  0.333333  0.666667  0.945080  1.0  -0.8294
  O  O1311  1  0.740480  0.552680  0.550980  1.0  -0.5537
  O  O1312  1  0.821390  0.402670  0.564370  1.0  -0.6355
  O  O1313  1  0.447320  0.187790  0.550980  1.0  -0.5528
  O  O1314  1  0.597330  0.418710  0.564370  1.0  -0.6336
  O  O1315  1  0.812210  0.259520  0.550980  1.0  -0.5523
  O  O1316  1  0.581290  0.178610  0.564370  1.0  -0.6343
  O  O1317  1  0.219350  0.073810  0.282350  1.0  -0.5529
  O  O1318  1  0.069340  0.154720  0.268960  1.0  -0.6343
  O  O1319  1  0.854460  0.780650  0.282350  1.0  -0.5533
  O  O1320  1  0.085380  0.930660  0.268960  1.0  -0.6359
  O  O1321  1  0.926190  0.145540  0.282350  1.0  -0.5532
  O  O1322  1  0.845280  0.914620  0.268960  1.0  -0.634
  O  O1323  1  0.666667  0.333333  0.554920  1.0  -0.8298
  O  O1324  1  0.000000  0.000000  0.278410  1.0  -0.8295
  O  O1325  1  0.407140  0.886020  0.884320  1.0  -0.5539
  O  O1326  1  0.488050  0.736010  0.897710  1.0  -0.6355
  O  O1327  1  0.113980  0.521130  0.884320  1.0  -0.553
  O  O1328  1  0.263990  0.752050  0.897710  1.0  -0.6337
  O  O1329  1  0.478870  0.592860  0.884320  1.0  -0.5525
  O  O1330  1  0.247950  0.511950  0.897710  1.0  -0.6344
  O  O1331  1  0.886020  0.407140  0.615680  1.0  -0.5529
  O  O1332  1  0.736010  0.488050  0.602290  1.0  -0.6342
  O  O1333  1  0.521130  0.113980  0.615680  1.0  -0.5533
  O  O1334  1  0.752050  0.263990  0.602290  1.0  -0.6358
  O  O1335  1  0.592860  0.478870  0.615680  1.0  -0.5532
  O  O1336  1  0.511950  0.247950  0.602290  1.0  -0.634
  O  O1337  1  0.333333  0.666667  0.888260  1.0  -0.8295
  O  O1338  1  0.666667  0.333333  0.611740  1.0  -0.8299
