# generated using pymatgen
data_Cd4Ni4H161C168N8ClO24
_symmetry_space_group_name_H-M   'P 1'
_cell_length_a   11.85500000
_cell_length_b   23.23500000
_cell_length_c   36.74900000
_cell_angle_alpha   95.26000000
_cell_angle_beta   90.00000000
_cell_angle_gamma   90.00000000
_symmetry_Int_Tables_number   1
_chemical_formula_structural   Cd4Ni4H161C168N8ClO24
_chemical_formula_sum   'Cd8 Ni8 H322 C336 N16 Cl2 O48'
_cell_volume   10079.91941800
_cell_formula_units_Z   2
loop_
 _symmetry_equiv_pos_site_id
 _symmetry_equiv_pos_as_xyz
  1  'x, y, z'
loop_
 _atom_site_type_symbol
 _atom_site_label
 _atom_site_symmetry_multiplicity
 _atom_site_fract_x
 _atom_site_fract_y
 _atom_site_fract_z
 _atom_site_occupancy
 _atom_site_charge
  Cd  Cd1  1  0.338700  0.758430  0.253190  1.0  1.0317
  Cd  Cd2  1  0.016210  0.865170  0.283350  1.0  1.0188
  Cd  Cd3  1  0.368170  0.595840  0.225480  1.0  0.9185
  Cd  Cd4  1  0.781620  0.943430  0.229770  1.0  1.003
  Cd  Cd5  1  0.838700  0.241570  0.746810  1.0  1.0322
  Cd  Cd6  1  0.516210  0.134830  0.716650  1.0  1.0186
  Cd  Cd7  1  0.868170  0.404160  0.774520  1.0  0.9161
  Cd  Cd8  1  0.281620  0.056570  0.770230  1.0  1.0024
  Ni  Ni9  1  0.502200  0.584100  0.486330  1.0  0.6657
  Ni  Ni10  1  0.958810  0.913950  0.481990  1.0  0.6371
  Ni  Ni11  1  0.291720  0.578150  0.024460  1.0  0.5983
  Ni  Ni12  1  0.813450  0.919970  0.025150  1.0  0.6217
  Ni  Ni13  1  0.002200  0.415900  0.513670  1.0  0.6705
  Ni  Ni14  1  0.458810  0.086050  0.518010  1.0  0.6344
  Ni  Ni15  1  0.791720  0.421850  0.975540  1.0  0.6007
  Ni  Ni16  1  0.313450  0.080030  0.974850  1.0  0.6239
  H  H17  1  0.313300  0.611200  0.122800  1.0  0.1039
  H  H18  1  0.483500  0.469100  0.051500  1.0  0.0957
  H  H19  1  0.199200  0.680700  0.150500  1.0  0.1182
  H  H20  1  0.535400  0.461500  0.928600  1.0  0.1088
  H  H21  1  0.391600  0.566600  0.862300  1.0  0.1004
  H  H22  1  0.399900  0.526400  0.106400  1.0  0.1031
  H  H23  1  0.808400  0.815200  0.360800  1.0  0.1352
  H  H24  1  0.706300  0.481100  0.448000  1.0  0.0953
  H  H25  1  0.735600  0.493000  0.509400  1.0  0.0961
  H  H26  1  0.788700  0.926700  0.122700  1.0  0.0946
  H  H27  1  0.914400  0.992100  0.109800  1.0  0.0975
  H  H28  1  0.058100  0.950900  0.395000  1.0  0.1076
  H  H29  1  0.144400  0.017600  0.446400  1.0  0.099
  H  H30  1  0.146200  0.034700  0.506600  1.0  0.0963
  H  H31  1  0.012400  0.028300  0.053400  1.0  0.112
  H  H32  1  0.603200  0.529600  0.397900  1.0  0.0981
  H  H33  1  0.141800  0.748800  0.444000  1.0  0.1301
  H  H34  1  0.584700  0.751600  0.428100  1.0  0.1257
  H  H35  1  0.477900  0.754100  0.082800  1.0  0.1158
  H  H36  1  0.352500  0.669400  0.372200  1.0  0.1077
  H  H37  1  0.125500  0.771200  0.385200  1.0  0.1147
  H  H38  1  0.098100  0.757900  0.181200  1.0  0.1101
  H  H39  1  0.482700  0.463200  0.989100  1.0  0.0968
  H  H40  1  0.758800  0.478000  0.570100  1.0  0.1014
  H  H41  1  0.553100  0.737700  0.361500  1.0  0.0997
  H  H42  1  0.031200  0.011500  0.994300  1.0  0.0895
  H  H43  1  0.613100  0.462900  0.868100  1.0  0.094
  H  H44  1  0.472400  0.697500  0.127300  1.0  0.0956
  H  H45  1  0.844900  0.742500  0.047600  1.0  0.1107
  H  H46  1  0.864600  0.763400  0.008800  1.0  0.1131
  H  H47  1  0.927200  0.794100  0.042800  1.0  0.1263
  H  H48  1  0.651700  0.824500  0.325700  1.0  0.1003
  H  H49  1  0.108000  0.584700  0.899400  1.0  0.118
  H  H50  1  0.086400  0.650400  0.910900  1.0  0.1134
  H  H51  1  0.129900  0.610000  0.939800  1.0  0.113
  H  H52  1  0.945800  0.818000  0.144800  1.0  0.0807
  H  H53  1  0.567900  0.782000  0.173800  1.0  0.1199
  H  H54  1  0.689100  0.850300  0.147600  1.0  0.1195
  H  H55  1  0.899400  0.643800  0.020900  1.0  0.1174
  H  H56  1  0.013000  0.634900  0.999300  1.0  0.1158
  H  H57  1  0.915300  0.670900  0.983700  1.0  0.115
  H  H58  1  0.804800  0.462100  0.629800  1.0  0.1053
  H  H59  1  0.245900  0.716500  0.924100  1.0  0.1108
  H  H60  1  0.369700  0.692900  0.921100  1.0  0.1213
  H  H61  1  0.292000  0.677300  0.953300  1.0  0.1161
  H  H62  1  0.891600  0.503700  0.438300  1.0  0.102
  H  H63  1  0.897400  0.899900  0.861400  1.0  0.1149
  H  H64  1  0.081700  0.951100  0.641900  1.0  0.0967
  H  H65  1  0.281900  0.733200  0.332000  1.0  0.1064
  H  H66  1  0.904700  0.778900  0.919400  1.0  0.126
  H  H67  1  0.783300  0.752400  0.920300  1.0  0.1158
  H  H68  1  0.822800  0.798400  0.951600  1.0  0.1079
  H  H69  1  0.971300  0.761100  0.093200  1.0  0.1433
  H  H70  1  0.688700  0.488800  0.755600  1.0  0.3587
  H  H71  1  0.688800  0.516200  0.686700  1.0  0.1122
  H  H72  1  0.268200  0.064600  0.626400  1.0  0.1219
  H  H73  1  0.204100  0.046100  0.567300  1.0  0.0915
  H  H74  1  0.226800  0.448600  0.013300  1.0  0.1275
  H  H75  1  0.995700  0.942500  0.816900  1.0  0.1246
  H  H76  1  0.290400  0.768800  0.523700  1.0  0.1222
  H  H77  1  0.332600  0.708700  0.534400  1.0  0.1059
  H  H78  1  0.230400  0.739300  0.555100  1.0  0.1167
  H  H79  1  0.378200  0.429800  0.109900  1.0  0.1167
  H  H80  1  0.859100  0.805100  0.857100  1.0  0.1024
  H  H81  1  0.752600  0.842800  0.850600  1.0  0.1114
  H  H82  1  0.738000  0.779300  0.861000  1.0  0.1089
  H  H83  1  0.098000  0.624400  0.502400  1.0  0.1097
  H  H84  1  0.114800  0.652800  0.542500  1.0  0.1081
  H  H85  1  0.215700  0.621000  0.521600  1.0  0.1139
  H  H86  1  0.775400  0.716100  0.500100  1.0  0.1162
  H  H87  1  0.730100  0.744300  0.537700  1.0  0.1206
  H  H88  1  0.822100  0.776200  0.516300  1.0  0.1131
  H  H89  1  0.319100  0.585400  0.609800  1.0  0.1191
  H  H90  1  0.337300  0.613800  0.573100  1.0  0.111
  H  H91  1  0.289200  0.650700  0.607500  1.0  0.1186
  H  H92  1  0.088200  0.020400  0.869800  1.0  0.1111
  H  H93  1  0.214700  0.001300  0.680600  1.0  0.0996
  H  H94  1  0.617400  0.728000  0.999700  1.0  0.122
  H  H95  1  0.653200  0.788000  0.987100  1.0  0.1033
  H  H96  1  0.553900  0.753200  0.967300  1.0  0.1167
  H  H97  1  0.509900  0.691000  0.571000  1.0  0.1212
  H  H98  1  0.576000  0.705200  0.607600  1.0  0.1156
  H  H99  1  0.450900  0.726000  0.604200  1.0  0.116
  H  H100  1  0.093300  0.382100  0.028200  1.0  0.0886
  H  H101  1  0.758600  0.868800  0.605800  1.0  0.1105
  H  H102  1  0.796400  0.903100  0.573000  1.0  0.1112
  H  H103  1  0.788500  0.934700  0.612500  1.0  0.1162
  H  H104  1  0.583300  0.706600  0.478300  1.0  0.121
  H  H105  1  0.504600  0.760700  0.477400  1.0  0.1079
  H  H106  1  0.535300  0.737300  0.514800  1.0  0.1161
  H  H107  1  0.601100  0.832800  0.538400  1.0  0.1106
  H  H108  1  0.569200  0.856600  0.501200  1.0  0.1136
  H  H109  1  0.691500  0.865400  0.516900  1.0  0.1195
  H  H110  1  0.541800  0.446100  0.364900  1.0  0.1165
  H  H111  1  0.504800  0.528600  0.819800  1.0  0.1351
  H  H112  1  0.408300  0.865400  0.020000  1.0  0.119
  H  H113  1  0.426200  0.837300  0.980000  1.0  0.1069
  H  H114  1  0.523600  0.873100  0.000200  1.0  0.1108
  H  H115  1  0.886900  0.044300  0.480900  1.0  0.1043
  H  H116  1  0.593900  0.571900  0.648400  1.0  0.108
  H  H117  1  0.048900  0.051200  0.386800  1.0  0.1045
  H  H118  1  0.146400  0.716600  0.993700  1.0  0.1051
  H  H119  1  0.111300  0.778600  0.010300  1.0  0.1109
  H  H120  1  0.046300  0.748800  0.976500  1.0  0.1148
  H  H121  1  0.512800  0.618500  0.043600  1.0  0.1008
  H  H122  1  0.580400  0.530800  0.129600  1.0  0.1263
  H  H123  1  0.093400  0.775500  0.495400  1.0  0.1302
  H  H124  1  0.047800  0.744700  0.528600  1.0  0.1149
  H  H125  1  0.021400  0.719000  0.488600  1.0  0.0995
  H  H126  1  0.239400  0.944900  0.371700  1.0  0.1317
  H  H127  1  0.006800  0.658000  0.414600  1.0  0.1088
  H  H128  1  0.181200  0.873800  0.465100  1.0  0.1038
  H  H129  1  0.041200  0.819700  0.590400  1.0  0.1208
  H  H130  1  0.955100  0.831200  0.559500  1.0  0.1108
  H  H131  1  0.916500  0.797800  0.592500  1.0  0.116
  H  H132  1  0.452700  0.468600  0.469700  1.0  0.0928
  H  H133  1  0.927700  0.120500  0.370000  1.0  0.1223
  H  H134  1  0.419400  0.906700  0.371200  1.0  0.103
  H  H135  1  0.099200  0.340100  0.082200  1.0  0.117
  H  H136  1  0.681700  0.635400  0.438200  1.0  0.0973
  H  H137  1  0.426900  0.616400  0.664000  1.0  0.1094
  H  H138  1  0.406100  0.682100  0.659600  1.0  0.103
  H  H139  1  0.529500  0.658800  0.662600  1.0  0.0874
  H  H140  1  0.755900  0.574100  0.133800  1.0  0.1105
  H  H141  1  0.226400  0.610900  0.851200  1.0  0.1109
  H  H142  1  0.329800  0.652200  0.859200  1.0  0.1123
  H  H143  1  0.206700  0.676600  0.863300  1.0  0.1036
  H  H144  1  0.826100  0.693800  0.425600  1.0  0.0883
  H  H145  1  0.059900  0.014100  0.932500  1.0  0.1073
  H  H146  1  0.817200  0.633200  0.090500  1.0  0.1404
  H  H147  1  0.658200  0.863900  0.939300  1.0  0.1185
  H  H148  1  0.617100  0.815300  0.909900  1.0  0.1166
  H  H149  1  0.635400  0.878400  0.899200  1.0  0.1243
  H  H150  1  0.362100  0.836700  0.464000  1.0  0.092
  H  H151  1  0.783100  0.048300  0.031000  1.0  0.1067
  H  H152  1  0.690400  0.656800  0.046900  1.0  0.0967
  H  H153  1  0.673500  0.131700  0.035000  1.0  0.1055
  H  H154  1  0.489300  0.858600  0.418500  1.0  0.1183
  H  H155  1  0.824500  0.067500  0.139300  1.0  0.1166
  H  H156  1  0.024300  0.864400  0.648600  1.0  0.1096
  H  H157  1  0.898600  0.844200  0.650900  1.0  0.1132
  H  H158  1  0.929000  0.909700  0.659100  1.0  0.1192
  H  H159  1  0.241300  0.364200  0.123800  1.0  0.1167
  H  H160  1  0.039100  0.565500  0.432300  1.0  0.0848
  H  H161  1  0.016200  0.876300  0.053600  1.0  0.0959
  H  H162  1  0.436500  0.361000  0.358000  1.0  0.136
  H  H163  1  0.964900  0.867700  0.384600  1.0  0.104
  H  H164  1  0.467600  0.593700  0.388300  1.0  0.1047
  H  H165  1  0.760000  0.112000  0.463600  1.0  0.0994
  H  H166  1  0.773000  0.147200  0.406800  1.0  0.1192
  H  H167  1  0.358300  0.379800  0.464800  1.0  0.1223
  H  H168  1  0.350300  0.330500  0.408400  1.0  0.1012
  H  H169  1  0.660000  0.188100  0.090200  1.0  0.107
  H  H170  1  0.723500  0.153800  0.144300  1.0  0.134
  H  H171  1  0.320300  0.860600  0.100600  1.0  0.1411
  H  H172  1  0.156300  0.824200  0.072500  1.0  0.1036
  H  H173  1  0.306200  0.962300  0.110900  1.0  0.0886
  H  H174  1  0.351100  0.773800  0.037400  1.0  0.1088
  H  H175  1  0.428600  0.719300  0.029900  1.0  0.1046
  H  H176  1  0.370900  0.746800  0.997300  1.0  0.1116
  H  H177  1  0.199400  0.011300  0.072600  1.0  0.0955
  H  H178  1  0.813300  0.388800  0.877200  1.0  0.1028
  H  H179  1  0.983500  0.530900  0.948500  1.0  0.0956
  H  H180  1  0.699200  0.319300  0.849500  1.0  0.1175
  H  H181  1  0.035400  0.538500  0.071400  1.0  0.1095
  H  H182  1  0.891600  0.433400  0.137700  1.0  0.1003
  H  H183  1  0.899900  0.473600  0.893600  1.0  0.1039
  H  H184  1  0.308400  0.184800  0.639200  1.0  0.1349
  H  H185  1  0.206300  0.518900  0.552000  1.0  0.0964
  H  H186  1  0.235600  0.507000  0.490600  1.0  0.0956
  H  H187  1  0.288700  0.073300  0.877300  1.0  0.0948
  H  H188  1  0.414400  0.007900  0.890200  1.0  0.1
  H  H189  1  0.558100  0.049100  0.605000  1.0  0.1066
  H  H190  1  0.644400  0.982400  0.553600  1.0  0.0998
  H  H191  1  0.646200  0.965300  0.493400  1.0  0.0966
  H  H192  1  0.512400  0.971700  0.946600  1.0  0.1114
  H  H193  1  0.103200  0.470400  0.602100  1.0  0.0963
  H  H194  1  0.641800  0.251200  0.556000  1.0  0.1296
  H  H195  1  0.084700  0.248400  0.571900  1.0  0.1265
  H  H196  1  0.977900  0.245900  0.917200  1.0  0.1153
  H  H197  1  0.852500  0.330600  0.627800  1.0  0.1074
  H  H198  1  0.625500  0.228800  0.614800  1.0  0.1148
  H  H199  1  0.598100  0.242100  0.818800  1.0  0.1097
  H  H200  1  0.982700  0.536800  0.010900  1.0  0.0971
  H  H201  1  0.258800  0.522000  0.429900  1.0  0.1024
  H  H202  1  0.053100  0.262300  0.638500  1.0  0.1001
  H  H203  1  0.531200  0.988500  0.005700  1.0  0.0898
  H  H204  1  0.113100  0.537100  0.131900  1.0  0.0946
  H  H205  1  0.972400  0.302500  0.872700  1.0  0.0949
  H  H206  1  0.344900  0.257500  0.952400  1.0  0.1099
  H  H207  1  0.364600  0.236600  0.991200  1.0  0.1131
  H  H208  1  0.427200  0.205900  0.957200  1.0  0.1277
  H  H209  1  0.151700  0.175500  0.674300  1.0  0.1008
  H  H210  1  0.608000  0.415300  0.100600  1.0  0.117
  H  H211  1  0.586400  0.349600  0.089100  1.0  0.1152
  H  H212  1  0.629900  0.390000  0.060200  1.0  0.1126
  H  H213  1  0.445800  0.182000  0.855200  1.0  0.0792
  H  H214  1  0.067900  0.218000  0.826200  1.0  0.1219
  H  H215  1  0.189100  0.149700  0.852400  1.0  0.1199
  H  H216  1  0.399400  0.356200  0.979100  1.0  0.1175
  H  H217  1  0.513000  0.365100  0.000700  1.0  0.1158
  H  H218  1  0.415300  0.329100  0.016300  1.0  0.1167
  H  H219  1  0.304800  0.537900  0.370200  1.0  0.1052
  H  H220  1  0.745900  0.283500  0.075900  1.0  0.1121
  H  H221  1  0.869700  0.307100  0.078900  1.0  0.1204
  H  H222  1  0.792000  0.322700  0.046700  1.0  0.1167
  H  H223  1  0.391600  0.496300  0.561700  1.0  0.1018
  H  H224  1  0.397400  0.100100  0.138600  1.0  0.1141
  H  H225  1  0.581700  0.048900  0.358100  1.0  0.097
  H  H226  1  0.781900  0.266800  0.668000  1.0  0.107
  H  H227  1  0.404700  0.221100  0.080600  1.0  0.1276
  H  H228  1  0.283300  0.247600  0.079700  1.0  0.1173
  H  H229  1  0.322800  0.201600  0.048400  1.0  0.1072
  H  H230  1  0.471300  0.238900  0.906800  1.0  0.1437
  H  H231  1  0.188700  0.511200  0.244400  1.0  0.3587
  H  H232  1  0.188800  0.483800  0.313300  1.0  0.1128
  H  H233  1  0.768200  0.935400  0.373600  1.0  0.1231
  H  H234  1  0.704100  0.953900  0.432700  1.0  0.0912
  H  H235  1  0.726800  0.551400  0.986700  1.0  0.1274
  H  H236  1  0.495700  0.057500  0.183100  1.0  0.1251
  H  H237  1  0.790400  0.231200  0.476300  1.0  0.1214
  H  H238  1  0.832600  0.291300  0.465600  1.0  0.106
  H  H239  1  0.730400  0.260700  0.444900  1.0  0.1155
  H  H240  1  0.878200  0.570200  0.890100  1.0  0.1167
  H  H241  1  0.359100  0.194900  0.142900  1.0  0.1027
  H  H242  1  0.252600  0.157200  0.149400  1.0  0.1135
  H  H243  1  0.238000  0.220700  0.139000  1.0  0.109
  H  H244  1  0.598000  0.375600  0.497600  1.0  0.1078
  H  H245  1  0.614800  0.347200  0.457500  1.0  0.1072
  H  H246  1  0.715700  0.379000  0.478400  1.0  0.1137
  H  H247  1  0.275400  0.283900  0.499900  1.0  0.116
  H  H248  1  0.230100  0.255700  0.462300  1.0  0.1216
  H  H249  1  0.322100  0.223800  0.483700  1.0  0.1126
  H  H250  1  0.819100  0.414600  0.390200  1.0  0.1192
  H  H251  1  0.837300  0.386200  0.426900  1.0  0.1093
  H  H252  1  0.789200  0.349300  0.392500  1.0  0.1174
  H  H253  1  0.588200  0.979600  0.130200  1.0  0.1122
  H  H254  1  0.714700  0.998700  0.319400  1.0  0.1002
  H  H255  1  0.117400  0.272000  0.000300  1.0  0.1216
  H  H256  1  0.153200  0.212000  0.012900  1.0  0.103
  H  H257  1  0.053900  0.246800  0.032700  1.0  0.1159
  H  H258  1  0.009900  0.309000  0.429000  1.0  0.1233
  H  H259  1  0.076000  0.294800  0.392400  1.0  0.1163
  H  H260  1  0.950900  0.274000  0.395800  1.0  0.1144
  H  H261  1  0.593300  0.617900  0.971800  1.0  0.089
  H  H262  1  0.258600  0.131200  0.394200  1.0  0.1092
  H  H263  1  0.296400  0.096900  0.427000  1.0  0.1111
  H  H264  1  0.288500  0.065300  0.387500  1.0  0.1144
  H  H265  1  0.083300  0.293400  0.521700  1.0  0.1202
  H  H266  1  0.004600  0.239300  0.522600  1.0  0.1073
  H  H267  1  0.035300  0.262700  0.485200  1.0  0.1164
  H  H268  1  0.101100  0.167200  0.461600  1.0  0.1105
  H  H269  1  0.069200  0.143400  0.498800  1.0  0.1137
  H  H270  1  0.191500  0.134600  0.483100  1.0  0.1196
  H  H271  1  0.041800  0.553900  0.635100  1.0  0.1159
  H  H272  1  0.004800  0.471400  0.180200  1.0  0.1348
  H  H273  1  0.908300  0.134600  0.980000  1.0  0.1193
  H  H274  1  0.926200  0.162700  0.020000  1.0  0.1064
  H  H275  1  0.023600  0.126900  0.999800  1.0  0.1114
  H  H276  1  0.386900  0.955700  0.519100  1.0  0.1046
  H  H277  1  0.093900  0.428100  0.351600  1.0  0.1081
  H  H278  1  0.548900  0.948800  0.613200  1.0  0.104
  H  H279  1  0.646400  0.283400  0.006300  1.0  0.1051
  H  H280  1  0.611300  0.221400  0.989700  1.0  0.1099
  H  H281  1  0.546300  0.251200  0.023500  1.0  0.1145
  H  H282  1  0.012800  0.381500  0.956400  1.0  0.1004
  H  H283  1  0.080400  0.469200  0.870400  1.0  0.1271
  H  H284  1  0.593400  0.224500  0.504600  1.0  0.1294
  H  H285  1  0.547800  0.255300  0.471400  1.0  0.1163
  H  H286  1  0.521400  0.281000  0.511400  1.0  0.0989
  H  H287  1  0.739400  0.055100  0.628300  1.0  0.1308
  H  H288  1  0.506800  0.342000  0.585400  1.0  0.1112
  H  H289  1  0.681200  0.126200  0.534900  1.0  0.1024
  H  H290  1  0.541200  0.180300  0.409600  1.0  0.1216
  H  H291  1  0.455100  0.168800  0.440500  1.0  0.1114
  H  H292  1  0.416500  0.202200  0.407500  1.0  0.1166
  H  H293  1  0.952700  0.531400  0.530300  1.0  0.094
  H  H294  1  0.427700  0.879500  0.630000  1.0  0.1213
  H  H295  1  0.919400  0.093300  0.628800  1.0  0.1037
  H  H296  1  0.599200  0.659900  0.917800  1.0  0.1168
  H  H297  1  0.181700  0.364600  0.561800  1.0  0.0969
  H  H298  1  0.926900  0.383600  0.336000  1.0  0.109
  H  H299  1  0.906100  0.317900  0.340400  1.0  0.1031
  H  H300  1  0.029500  0.341200  0.337400  1.0  0.0873
  H  H301  1  0.255900  0.425900  0.866200  1.0  0.1108
  H  H302  1  0.726400  0.389100  0.148800  1.0  0.1127
  H  H303  1  0.829800  0.347800  0.140800  1.0  0.1125
  H  H304  1  0.706700  0.323400  0.136700  1.0  0.1046
  H  H305  1  0.326100  0.306200  0.574400  1.0  0.0877
  H  H306  1  0.559900  0.985900  0.067500  1.0  0.1073
  H  H307  1  0.317200  0.366800  0.909500  1.0  0.1403
  H  H308  1  0.158200  0.136100  0.060700  1.0  0.1197
  H  H309  1  0.117100  0.184700  0.090100  1.0  0.1194
  H  H310  1  0.135400  0.121600  0.100800  1.0  0.1234
  H  H311  1  0.862100  0.163300  0.536000  1.0  0.0916
  H  H312  1  0.283100  0.951700  0.969000  1.0  0.1064
  H  H313  1  0.190400  0.343200  0.953100  1.0  0.0964
  H  H314  1  0.173500  0.868300  0.965000  1.0  0.1052
  H  H315  1  0.989300  0.141400  0.581500  1.0  0.1185
  H  H316  1  0.324500  0.932500  0.860700  1.0  0.118
  H  H317  1  0.524300  0.135600  0.351400  1.0  0.1121
  H  H318  1  0.398600  0.155800  0.349100  1.0  0.1134
  H  H319  1  0.429000  0.090300  0.340900  1.0  0.1179
  H  H320  1  0.741300  0.635800  0.876200  1.0  0.1167
  H  H321  1  0.539100  0.434500  0.567700  1.0  0.0857
  H  H322  1  0.516200  0.123700  0.946400  1.0  0.0957
  H  H323  1  0.936500  0.639000  0.642000  1.0  0.1355
  H  H324  1  0.464900  0.132300  0.615400  1.0  0.1043
  H  H325  1  0.967600  0.406300  0.611700  1.0  0.1044
  H  H326  1  0.260000  0.888000  0.536400  1.0  0.0992
  H  H327  1  0.273000  0.852800  0.593200  1.0  0.1192
  H  H328  1  0.858300  0.620200  0.535200  1.0  0.1222
  H  H329  1  0.850300  0.669500  0.591600  1.0  0.1004
  H  H330  1  0.160000  0.811900  0.909800  1.0  0.1063
  H  H331  1  0.223500  0.846200  0.855700  1.0  0.1323
  H  H332  1  0.820300  0.139400  0.899400  1.0  0.1405
  H  H333  1  0.656300  0.175800  0.927500  1.0  0.104
  H  H334  1  0.806200  0.037700  0.889100  1.0  0.0881
  H  H335  1  0.851100  0.226200  0.962600  1.0  0.1088
  H  H336  1  0.928600  0.280700  0.970100  1.0  0.1038
  H  H337  1  0.870900  0.253200  0.002700  1.0  0.1119
  H  H338  1  0.699400  0.988700  0.927400  1.0  0.0951
  C  C339  1  0.147100  0.661600  0.061700  1.0  0.2642
  C  C340  1  0.080800  0.729000  0.128100  1.0  0.0687
  C  C341  1  0.282800  0.613100  0.099600  1.0  0.1363
  C  C342  1  0.410800  0.489300  0.052800  1.0  0.0551
  C  C343  1  0.164100  0.686700  0.128600  1.0  -0.1028
  C  C344  1  0.058800  0.704600  0.060500  1.0  0.0078
  C  C345  1  0.420400  0.515500  0.954300  1.0  -0.0871
  C  C346  1  0.339700  0.560500  0.948800  1.0  0.2591
  C  C347  1  0.486400  0.491500  0.924600  1.0  -0.1348
  C  C348  1  0.998500  0.714800  0.025500  1.0  0.1616
  C  C349  1  0.399700  0.554500  0.885600  1.0  -0.1388
  C  C350  1  0.333100  0.580200  0.912100  1.0  -0.0488
  C  C351  1  0.416500  0.540900  0.082800  1.0  0.0252
  C  C352  1  0.196700  0.652400  0.096300  1.0  -0.0409
  C  C353  1  0.842300  0.835300  0.415800  1.0  -0.0793
  C  C354  1  0.803300  0.829100  0.451400  1.0  0.3245
  C  C355  1  0.707100  0.793800  0.456400  1.0  0.0107
  C  C356  1  0.781300  0.811500  0.384200  1.0  -0.1392
  C  C357  1  0.680600  0.782600  0.389600  1.0  0.0558
  C  C358  1  0.675800  0.520400  0.448700  1.0  -0.0085
  C  C359  1  0.675800  0.518600  0.513800  1.0  0.0541
  C  C360  1  0.161400  0.792900  0.319400  1.0  0.7084
  C  C361  1  0.542600  0.590600  0.598800  1.0  0.0507
  C  C362  1  0.562300  0.574700  0.561600  1.0  0.2725
  C  C363  1  0.645300  0.533300  0.550700  1.0  0.0005
  C  C364  1  0.869200  0.914200  0.950400  1.0  0.2184
  C  C365  1  0.770900  0.914700  0.098600  1.0  0.0468
  C  C366  1  0.883800  0.994900  0.085200  1.0  -0.0071
  C  C367  1  0.077300  0.941700  0.419800  1.0  0.0342
  C  C368  1  0.011000  0.944900  0.556500  1.0  0.2784
  C  C369  1  0.070900  0.998300  0.446200  1.0  0.007
  C  C370  1  0.098700  0.004200  0.510800  1.0  0.0802
  C  C371  1  0.652700  0.851200  0.057800  1.0  0.3181
  C  C372  1  0.983500  0.989400  0.056200  1.0  0.0238
  C  C373  1  0.084000  0.991100  0.547400  1.0  -0.0569
  C  C374  1  0.369400  0.644500  0.423300  1.0  -0.0445
  C  C375  1  0.768500  0.562500  0.440900  1.0  0.0771
  C  C376  1  0.574800  0.521800  0.422100  1.0  0.0267
  C  C377  1  0.199400  0.722000  0.439100  1.0  -0.1654
  C  C378  1  0.564900  0.810100  0.054600  1.0  -0.0018
  C  C379  1  0.649400  0.773300  0.425100  1.0  -0.1029
  C  C380  1  0.240200  0.714600  0.403000  1.0  -0.0032
  C  C381  1  0.533200  0.782600  0.085300  1.0  -0.1336
  C  C382  1  0.332800  0.654300  0.459600  1.0  0.2948
  C  C383  1  0.324200  0.675600  0.395900  1.0  -0.1313
  C  C384  1  0.188100  0.749700  0.377000  1.0  -0.0693
  C  C385  1  0.058400  0.766200  0.160500  1.0  -0.076
  C  C386  1  0.435600  0.495000  0.988000  1.0  0.0871
  C  C387  1  0.705300  0.506000  0.577500  1.0  -0.2146
  C  C388  1  0.315300  0.446000  0.060600  1.0  0.0064
  C  C389  1  0.603300  0.768000  0.359400  1.0  -0.1075
  C  C390  1  0.976800  0.982600  0.991900  1.0  0.0923
  C  C391  1  0.505500  0.793500  0.017800  1.0  0.2062
  C  C392  1  0.559100  0.489500  0.862100  1.0  -0.0625
  C  C393  1  0.782100  0.835300  0.904300  1.0  0.216
  C  C394  1  0.491600  0.716100  0.149900  1.0  -0.2398
  C  C395  1  0.153800  0.006500  0.609500  1.0  0.0943
  C  C396  1  0.460300  0.637200  0.611200  1.0  0.1473
  C  C397  1  0.511800  0.464600  0.418500  1.0  0.0355
  C  C398  1  0.855300  0.890000  0.913000  1.0  -0.0199
  C  C399  1  0.899400  0.757800  0.031800  1.0  -0.3434
  C  C400  1  0.599600  0.795400  0.328600  1.0  -0.1748
  C  C401  1  0.133600  0.617900  0.914600  1.0  -0.3723
  C  C402  1  0.989100  0.810600  0.164900  1.0  -0.1215
  C  C403  1  0.547800  0.765300  0.150700  1.0  -0.0654
  C  C404  1  0.075000  0.954900  0.067000  1.0  0.1429
  C  C405  1  0.931500  0.883200  0.605600  1.0  0.1647
  C  C406  1  0.010100  0.931900  0.594000  1.0  -0.002
  C  C407  1  0.660000  0.839300  0.124500  1.0  -0.0985
  C  C408  1  0.952400  0.661400  0.005600  1.0  -0.3687
  C  C409  1  0.252800  0.631200  0.904900  1.0  0.2027
  C  C410  1  0.751800  0.488300  0.640000  1.0  -0.0631
  C  C411  1  0.458700  0.690100  0.182200  1.0  0.7586
  C  C412  1  0.293800  0.684300  0.928000  1.0  -0.3666
  C  C413  1  0.877100  0.542800  0.436900  1.0  -0.1389
  C  C414  1  0.910600  0.914900  0.885400  1.0  -0.1425
  C  C415  1  0.582400  0.796500  0.119900  1.0  0.0004
  C  C416  1  0.081000  0.961300  0.618000  1.0  -0.1138
  C  C417  1  0.220900  0.754600  0.341700  1.0  -0.1606
  C  C418  1  0.516800  0.781200  0.299500  1.0  0.7457
  C  C419  1  0.827500  0.786700  0.925900  1.0  -0.3702
  C  C420  1  0.030000  0.734600  0.093600  1.0  -0.1137
  C  C421  1  0.343300  0.058100  0.689400  1.0  0.6446
  C  C422  1  0.744400  0.492700  0.675300  1.0  -0.1311
  C  C423  1  0.229100  0.034500  0.635700  1.0  -0.0733
  C  C424  1  0.125800  0.999200  0.802800  1.0  0.6385
  C  C425  1  0.154100  0.018200  0.574200  1.0  -0.1529
  C  C426  1  0.821000  0.462000  0.697700  1.0  0.745
  C  C427  1  0.230400  0.432000  0.035400  1.0  -0.1631
  C  C428  1  0.652500  0.483700  0.804000  1.0  0.3203
  C  C429  1  0.045000  0.971100  0.826600  1.0  -0.1132
  C  C430  1  0.267500  0.732600  0.531900  1.0  -0.3512
  C  C431  1  0.320000  0.420300  0.093400  1.0  -0.1274
  C  C432  1  0.783000  0.813700  0.864700  1.0  -0.3707
  C  C433  1  0.150200  0.644600  0.519100  1.0  -0.374
  C  C434  1  0.756500  0.751900  0.513900  1.0  -0.3581
  C  C435  1  0.814100  0.048700  0.085100  1.0  0.0817
  C  C436  1  0.340300  0.620200  0.599300  1.0  -0.373
  C  C437  1  0.045000  0.987900  0.862500  1.0  -0.0731
  C  C438  1  0.256100  0.028100  0.668800  1.0  -0.0638
  C  C439  1  0.590600  0.762700  0.990400  1.0  -0.3752
  C  C440  1  0.503500  0.695600  0.597100  1.0  -0.3568
  C  C441  1  0.151200  0.392200  0.044700  1.0  -0.1057
  C  C442  1  0.806900  0.899000  0.598600  1.0  -0.365
  C  C443  1  0.562700  0.743200  0.490900  1.0  -0.3901
  C  C444  1  0.628200  0.839600  0.514600  1.0  -0.3619
  C  C445  1  0.185800  0.702000  0.503900  1.0  0.1916
  C  C446  1  0.504600  0.433200  0.384900  1.0  -0.0647
  C  C447  1  0.560700  0.504900  0.828000  1.0  -0.1875
  C  C448  1  0.462000  0.847100  0.003200  1.0  -0.3652
  C  C449  1  0.482300  0.510000  0.890200  1.0  -0.0188
  C  C450  1  0.664300  0.782200  0.494100  1.0  0.2208
  C  C451  1  0.894900  0.058700  0.458300  1.0  -0.1221
  C  C452  1  0.982500  0.039600  0.435800  1.0  0.0977
  C  C453  1  0.529200  0.568800  0.085000  1.0  0.0681
  C  C454  1  0.686600  0.519600  0.614100  1.0  0.0044
  C  C455  1  0.606200  0.561900  0.623700  1.0  -0.1326
  C  C456  1  0.192200  0.914200  0.419100  1.0  0.0466
  C  C457  1  0.990600  0.063500  0.402600  1.0  -0.1233
  C  C458  1  0.084100  0.742400  0.998900  1.0  -0.372
  C  C459  1  0.562600  0.607800  0.061400  1.0  -0.1372
  C  C460  1  0.602100  0.556100  0.112700  1.0  -0.155
  C  C461  1  0.076700  0.738800  0.504100  1.0  -0.382
  C  C462  1  0.263400  0.923800  0.390600  1.0  -0.1541
  C  C463  1  0.949100  0.635300  0.422800  1.0  -0.092
  C  C464  1  0.229700  0.881400  0.446200  1.0  -0.119
  C  C465  1  0.963900  0.828200  0.585300  1.0  -0.3706
  C  C466  1  0.452900  0.445800  0.447500  1.0  -0.1071
  C  C467  1  0.916900  0.104400  0.392000  1.0  -0.1371
  C  C468  1  0.372400  0.901100  0.390800  1.0  -0.0996
  C  C469  1  0.154200  0.366700  0.077100  1.0  -0.0466
  C  C470  1  0.753800  0.619800  0.435900  1.0  -0.1461
  C  C471  1  0.455200  0.649800  0.653400  1.0  -0.3502
  C  C472  1  0.708000  0.581800  0.114800  1.0  -0.0783
  C  C473  1  0.254000  0.643800  0.866300  1.0  -0.3584
  C  C474  1  0.841000  0.655000  0.427800  1.0  -0.1037
  C  C475  1  0.007700  0.984400  0.927800  1.0  -0.1385
  C  C476  1  0.698000  0.868000  0.092900  1.0  -0.1353
  C  C477  1  0.950400  0.962100  0.956800  1.0  -0.0929
  C  C478  1  0.986400  0.962000  0.891400  1.0  0.0846
  C  C479  1  0.744400  0.618100  0.089700  1.0  -0.1004
  C  C480  1  0.662500  0.849500  0.914100  1.0  -0.3779
  C  C481  1  0.339200  0.859400  0.445700  1.0  -0.0912
  C  C482  1  0.770400  0.068800  0.053600  1.0  -0.1007
  C  C483  1  0.669000  0.631200  0.063700  1.0  -0.0918
  C  C484  1  0.707500  0.119600  0.055800  1.0  -0.0847
  C  C485  1  0.414600  0.870700  0.418300  1.0  -0.1716
  C  C486  1  0.795500  0.081200  0.118200  1.0  -0.115
  C  C487  1  0.947200  0.874700  0.644400  1.0  -0.3425
  C  C488  1  0.238700  0.380900  0.101800  1.0  -0.0706
  C  C489  1  0.965700  0.579300  0.430800  1.0  -0.0862
  C  C490  1  0.077700  0.896100  0.064300  1.0  -0.1807
  C  C491  1  0.442600  0.382300  0.380600  1.0  -0.1785
  C  C492  1  0.937600  0.870200  0.408400  1.0  0.156
  C  C493  1  0.450500  0.601400  0.413000  1.0  0.0357
  C  C494  1  0.818100  0.099500  0.447700  1.0  -0.0557
  C  C495  1  0.826600  0.121500  0.414200  1.0  -0.1021
  C  C496  1  0.393600  0.393800  0.444800  1.0  -0.1704
  C  C497  1  0.390700  0.364900  0.411100  1.0  -0.0985
  C  C498  1  0.695700  0.152400  0.089400  1.0  -0.0888
  C  C499  1  0.735700  0.133200  0.121700  1.0  -0.1095
  C  C500  1  0.973600  0.847800  0.196600  1.0  0.7273
  C  C501  1  0.261600  0.883000  0.092800  1.0  -0.1049
  C  C502  1  0.164700  0.864100  0.076200  1.0  -0.1092
  C  C503  1  0.236800  0.693600  0.467100  1.0  0.0491
  C  C504  1  0.254700  0.942000  0.095500  1.0  -0.1113
  C  C505  1  0.405000  0.754900  0.020900  1.0  -0.3527
  C  C506  1  0.178500  0.974300  0.077600  1.0  -0.1332
  C  C507  1  0.647100  0.338400  0.938300  1.0  0.2637
  C  C508  1  0.580800  0.271000  0.871900  1.0  0.067
  C  C509  1  0.782800  0.386900  0.900400  1.0  0.1372
  C  C510  1  0.910800  0.510700  0.947200  1.0  0.0552
  C  C511  1  0.664100  0.313300  0.871400  1.0  -0.1006
  C  C512  1  0.558800  0.295400  0.939500  1.0  0.0071
  C  C513  1  0.920400  0.484500  0.045700  1.0  -0.0868
  C  C514  1  0.839700  0.439500  0.051200  1.0  0.2602
  C  C515  1  0.986400  0.508500  0.075400  1.0  -0.1338
  C  C516  1  0.498500  0.285200  0.974500  1.0  0.1606
  C  C517  1  0.899700  0.445500  0.114400  1.0  -0.1384
  C  C518  1  0.833100  0.419800  0.087900  1.0  -0.0472
  C  C519  1  0.916500  0.459100  0.917200  1.0  0.0241
  C  C520  1  0.696700  0.347600  0.903700  1.0  -0.0401
  C  C521  1  0.342300  0.164700  0.584200  1.0  -0.0791
  C  C522  1  0.303300  0.170900  0.548600  1.0  0.3251
  C  C523  1  0.207100  0.206200  0.543600  1.0  0.0108
  C  C524  1  0.281300  0.188500  0.615800  1.0  -0.139
  C  C525  1  0.180600  0.217400  0.610400  1.0  0.0567
  C  C526  1  0.175800  0.479600  0.551300  1.0  -0.0062
  C  C527  1  0.175800  0.481400  0.486200  1.0  0.0534
  C  C528  1  0.661400  0.207100  0.680600  1.0  0.7063
  C  C529  1  0.042600  0.409400  0.401200  1.0  0.052
  C  C530  1  0.062300  0.425300  0.438400  1.0  0.2718
  C  C531  1  0.145300  0.466700  0.449300  1.0  0.0009
  C  C532  1  0.369200  0.085800  0.049600  1.0  0.2202
  C  C533  1  0.270900  0.085300  0.901400  1.0  0.0463
  C  C534  1  0.383800  0.005100  0.914800  1.0  -0.0087
  C  C535  1  0.577300  0.058300  0.580200  1.0  0.0389
  C  C536  1  0.511000  0.055100  0.443500  1.0  0.2767
  C  C537  1  0.570900  0.001700  0.553800  1.0  0.0073
  C  C538  1  0.598700  0.995800  0.489200  1.0  0.0806
  C  C539  1  0.152700  0.148800  0.942200  1.0  0.3183
  C  C540  1  0.483500  0.010600  0.943800  1.0  0.0234
  C  C541  1  0.584000  0.008900  0.452600  1.0  -0.0575
  C  C542  1  0.869400  0.355500  0.576700  1.0  -0.0453
  C  C543  1  0.268500  0.437500  0.559100  1.0  0.0771
  C  C544  1  0.074800  0.478200  0.577900  1.0  0.0299
  C  C545  1  0.699400  0.278000  0.560900  1.0  -0.1658
  C  C546  1  0.064900  0.189900  0.945400  1.0  -0.0003
  C  C547  1  0.149400  0.226700  0.574900  1.0  -0.104
  C  C548  1  0.740200  0.285400  0.597000  1.0  -0.0004
  C  C549  1  0.033200  0.217400  0.914700  1.0  -0.135
  C  C550  1  0.832800  0.345700  0.540400  1.0  0.2938
  C  C551  1  0.824200  0.324400  0.604100  1.0  -0.131
  C  C552  1  0.688100  0.250300  0.623000  1.0  -0.0697
  C  C553  1  0.558400  0.233800  0.839500  1.0  -0.0753
  C  C554  1  0.935600  0.505000  0.012000  1.0  0.0864
  C  C555  1  0.205300  0.494000  0.422500  1.0  -0.2158
  C  C556  1  0.815300  0.554000  0.939400  1.0  0.0048
  C  C557  1  0.103300  0.232000  0.640600  1.0  -0.108
  C  C558  1  0.476800  0.017400  0.008100  1.0  0.0949
  C  C559  1  0.005500  0.206500  0.982200  1.0  0.2045
  C  C560  1  0.059100  0.510500  0.137900  1.0  -0.0642
  C  C561  1  0.282100  0.164700  0.095700  1.0  0.215
  C  C562  1  0.991600  0.283900  0.850100  1.0  -0.2404
  C  C563  1  0.653800  0.993500  0.390500  1.0  0.0922
  C  C564  1  0.960300  0.362800  0.388800  1.0  0.15
  C  C565  1  0.011800  0.535400  0.581500  1.0  0.0352
  C  C566  1  0.355300  0.110000  0.087000  1.0  -0.0198
  C  C567  1  0.399400  0.242200  0.968200  1.0  -0.3441
  C  C568  1  0.099600  0.204600  0.671400  1.0  -0.1759
  C  C569  1  0.633600  0.382100  0.085400  1.0  -0.3733
  C  C570  1  0.489100  0.189400  0.835100  1.0  -0.1235
  C  C571  1  0.047800  0.234700  0.849300  1.0  -0.0682
  C  C572  1  0.575000  0.045100  0.933000  1.0  0.1435
  C  C573  1  0.431500  0.116800  0.394400  1.0  0.1665
  C  C574  1  0.510100  0.068100  0.406000  1.0  -0.0039
  C  C575  1  0.160000  0.160700  0.875500  1.0  -0.0946
  C  C576  1  0.452400  0.338600  0.994400  1.0  -0.3696
  C  C577  1  0.752800  0.368800  0.095100  1.0  0.2007
  C  C578  1  0.251800  0.511700  0.360000  1.0  -0.0652
  C  C579  1  0.958700  0.309900  0.817800  1.0  0.7554
  C  C580  1  0.793800  0.315700  0.072000  1.0  -0.367
  C  C581  1  0.377100  0.457200  0.563100  1.0  -0.1372
  C  C582  1  0.410600  0.085100  0.114600  1.0  -0.1374
  C  C583  1  0.082400  0.203500  0.880100  1.0  -0.0034
  C  C584  1  0.581000  0.038700  0.382000  1.0  -0.119
  C  C585  1  0.720900  0.245400  0.658300  1.0  -0.1611
  C  C586  1  0.016800  0.218800  0.700500  1.0  0.7443
  C  C587  1  0.327500  0.213300  0.074100  1.0  -0.3713
  C  C588  1  0.530000  0.265400  0.906400  1.0  -0.1137
  C  C589  1  0.843300  0.941900  0.310600  1.0  0.64
  C  C590  1  0.244400  0.507300  0.324700  1.0  -0.1299
  C  C591  1  0.729100  0.965500  0.364300  1.0  -0.0759
  C  C592  1  0.625800  0.000800  0.197200  1.0  0.6393
  C  C593  1  0.654100  0.981800  0.425800  1.0  -0.1534
  C  C594  1  0.321000  0.538000  0.302300  1.0  0.7452
  C  C595  1  0.730400  0.568000  0.964600  1.0  -0.1648
  C  C596  1  0.152500  0.516300  0.196000  1.0  0.3201
  C  C597  1  0.545000  0.028900  0.173400  1.0  -0.1173
  C  C598  1  0.767500  0.267400  0.468100  1.0  -0.353
  C  C599  1  0.820000  0.579700  0.906600  1.0  -0.1252
  C  C600  1  0.283000  0.186300  0.135300  1.0  -0.373
  C  C601  1  0.650200  0.355400  0.480900  1.0  -0.3735
  C  C602  1  0.256500  0.248100  0.486100  1.0  -0.3586
  C  C603  1  0.314100  0.951300  0.914900  1.0  0.0802
  C  C604  1  0.840300  0.379800  0.400700  1.0  -0.3728
  C  C605  1  0.545000  0.012100  0.137500  1.0  -0.0741
  C  C606  1  0.756100  0.971900  0.331200  1.0  -0.0633
  C  C607  1  0.090600  0.237300  0.009600  1.0  -0.3747
  C  C608  1  0.003500  0.304400  0.402900  1.0  -0.3564
  C  C609  1  0.651200  0.607800  0.955300  1.0  -0.1062
  C  C610  1  0.306900  0.101000  0.401400  1.0  -0.3671
  C  C611  1  0.062700  0.256800  0.509100  1.0  -0.3892
  C  C612  1  0.128200  0.160400  0.485400  1.0  -0.3607
  C  C613  1  0.685800  0.298000  0.496100  1.0  0.1925
  C  C614  1  0.004600  0.566800  0.615100  1.0  -0.0632
  C  C615  1  0.060700  0.495100  0.172000  1.0  -0.1882
  C  C616  1  0.962000  0.152900  0.996800  1.0  -0.3658
  C  C617  1  0.982300  0.490000  0.109800  1.0  -0.0178
  C  C618  1  0.164300  0.217800  0.505900  1.0  0.2196
  C  C619  1  0.394900  0.941300  0.541700  1.0  -0.1212
  C  C620  1  0.482500  0.960400  0.564200  1.0  0.0983
  C  C621  1  0.029200  0.431200  0.915000  1.0  0.0687
  C  C622  1  0.186600  0.480400  0.385900  1.0  0.0015
  C  C623  1  0.106200  0.438100  0.376300  1.0  -0.1326
  C  C624  1  0.692200  0.085800  0.580900  1.0  0.0464
  C  C625  1  0.490600  0.936500  0.597400  1.0  -0.1251
  C  C626  1  0.584100  0.257600  0.001100  1.0  -0.3728
  C  C627  1  0.062600  0.392200  0.938600  1.0  -0.1371
  C  C628  1  0.102100  0.443900  0.887300  1.0  -0.1555
  C  C629  1  0.576700  0.261200  0.495900  1.0  -0.3831
  C  C630  1  0.763400  0.076200  0.609400  1.0  -0.1526
  C  C631  1  0.449100  0.364700  0.577200  1.0  -0.0888
  C  C632  1  0.729700  0.118600  0.553800  1.0  -0.1194
  C  C633  1  0.463900  0.171800  0.414700  1.0  -0.3692
  C  C634  1  0.952900  0.554200  0.552500  1.0  -0.106
  C  C635  1  0.416900  0.895600  0.608000  1.0  -0.1329
  C  C636  1  0.872400  0.098900  0.609200  1.0  -0.0969
  C  C637  1  0.654200  0.633300  0.922900  1.0  -0.0459
  C  C638  1  0.253800  0.380200  0.564100  1.0  -0.1465
  C  C639  1  0.955200  0.350200  0.346600  1.0  -0.35
  C  C640  1  0.208000  0.418200  0.885200  1.0  -0.0835
  C  C641  1  0.754000  0.356200  0.133700  1.0  -0.3591
  C  C642  1  0.341000  0.345000  0.572200  1.0  -0.1016
  C  C643  1  0.507700  0.015600  0.072200  1.0  -0.1382
  C  C644  1  0.198000  0.132000  0.907100  1.0  -0.1358
  C  C645  1  0.450400  0.037900  0.043200  1.0  -0.0934
  C  C646  1  0.486400  0.038000  0.108600  1.0  0.0861
  C  C647  1  0.244400  0.381900  0.910300  1.0  -0.1033
  C  C648  1  0.162500  0.150500  0.085900  1.0  -0.3763
  C  C649  1  0.839200  0.140600  0.554300  1.0  -0.0913
  C  C650  1  0.270400  0.931200  0.946400  1.0  -0.1006
  C  C651  1  0.169000  0.368800  0.936300  1.0  -0.0929
  C  C652  1  0.207500  0.880400  0.944200  1.0  -0.0853
  C  C653  1  0.914600  0.129300  0.581700  1.0  -0.1706
  C  C654  1  0.295500  0.918800  0.881800  1.0  -0.1173
  C  C655  1  0.447200  0.125300  0.355600  1.0  -0.345
  C  C656  1  0.738700  0.619100  0.898200  1.0  -0.0745
  C  C657  1  0.465700  0.420700  0.569200  1.0  -0.0855
  C  C658  1  0.577700  0.103900  0.935700  1.0  -0.1804
  C  C659  1  0.942600  0.617700  0.619400  1.0  -0.1785
  C  C660  1  0.437600  0.129800  0.591600  1.0  0.155
  C  C661  1  0.950500  0.398600  0.587000  1.0  0.0384
  C  C662  1  0.318100  0.900500  0.552300  1.0  -0.0543
  C  C663  1  0.326600  0.878500  0.585800  1.0  -0.1026
  C  C664  1  0.893600  0.606200  0.555200  1.0  -0.168
  C  C665  1  0.890700  0.635100  0.588900  1.0  -0.0943
  C  C666  1  0.195700  0.847600  0.910600  1.0  -0.0914
  C  C667  1  0.235700  0.866800  0.878300  1.0  -0.1124
  C  C668  1  0.473600  0.152200  0.803400  1.0  0.7284
  C  C669  1  0.761600  0.117000  0.907200  1.0  -0.1065
  C  C670  1  0.664700  0.135900  0.923800  1.0  -0.1076
  C  C671  1  0.736800  0.306400  0.532900  1.0  0.0492
  C  C672  1  0.754700  0.058000  0.904500  1.0  -0.1129
  C  C673  1  0.905000  0.245100  0.979100  1.0  -0.3521
  C  C674  1  0.678500  0.025700  0.922400  1.0  -0.1337
  N  N675  1  0.324700  0.579000  0.073800  1.0  -0.31
  N  N676  1  0.390400  0.515900  0.018100  1.0  -0.3453
  N  N677  1  0.051000  0.976700  0.483270  1.0  -0.2807
  N  N678  1  0.989100  0.905300  0.432900  1.0  -0.3433
  N  N679  1  0.502900  0.571700  0.436900  1.0  -0.2685
  N  N680  1  0.627300  0.538000  0.485300  1.0  -0.2888
  N  N681  1  0.816100  0.943000  0.074200  1.0  -0.3268
  N  N682  1  0.936100  0.967100  0.021900  1.0  -0.29
  N  N683  1  0.824700  0.421000  0.926200  1.0  -0.3116
  N  N684  1  0.890400  0.484100  0.981900  1.0  -0.3472
  N  N685  1  0.551000  0.023300  0.516730  1.0  -0.279
  N  N686  1  0.489100  0.094700  0.567100  1.0  -0.3411
  N  N687  1  0.002900  0.428300  0.563100  1.0  -0.2682
  N  N688  1  0.127300  0.462000  0.514700  1.0  -0.2881
  N  N689  1  0.316100  0.057000  0.925800  1.0  -0.3262
  N  N690  1  0.436100  0.032900  0.978100  1.0  -0.2895
  Cl  Cl691  1  0.211700  0.671740  0.243570  1.0  -0.4863
  Cl  Cl692  1  0.711700  0.328260  0.756430  1.0  -0.4863
  O  O693  1  0.184600  0.635400  0.031180  1.0  -0.5929
  O  O694  1  0.274100  0.582900  0.974530  1.0  -0.6118
  O  O695  1  0.854000  0.853600  0.480360  1.0  -0.5814
  O  O696  1  0.198600  0.800700  0.287600  1.0  -0.6923
  O  O697  1  0.800700  0.461800  0.732100  1.0  -0.6397
  O  O698  1  0.463600  0.716500  0.213340  1.0  -0.6718
  O  O699  1  0.729200  0.453400  0.810900  1.0  -0.6159
  O  O700  1  0.944800  0.917700  0.531540  1.0  -0.592
  O  O701  1  0.419700  0.638700  0.177300  1.0  -0.6098
  O  O702  1  0.066100  0.814300  0.328600  1.0  -0.5944
  O  O703  1  0.459600  0.735100  0.299290  1.0  -0.6632
  O  O704  1  0.375400  0.629200  0.486420  1.0  -0.5997
  O  O705  1  0.499900  0.598300  0.537120  1.0  -0.5764
  O  O706  1  0.493000  0.817000  0.277400  1.0  -0.5998
  O  O707  1  0.044600  0.849000  0.223730  1.0  -0.6298
  O  O708  1  0.135700  0.984300  0.771000  1.0  -0.5584
  O  O709  1  0.884700  0.877700  0.198900  1.0  -0.7098
  O  O710  1  0.692000  0.873800  0.028790  1.0  -0.5919
  O  O711  1  0.812500  0.894700  0.976210  1.0  -0.5762
  O  O712  1  0.374800  0.049300  0.720210  1.0  -0.6072
  O  O713  1  0.900100  0.432900  0.682600  1.0  -0.5155
  O  O714  1  0.636000  0.500400  0.768700  1.0  -0.4926
  O  O715  1  0.398200  0.094900  0.674400  1.0  -0.6132
  O  O716  1  0.180600  0.044800  0.816700  1.0  -0.6179
  O  O717  1  0.684600  0.364600  0.968820  1.0  -0.5927
  O  O718  1  0.774100  0.417100  0.025470  1.0  -0.6114
  O  O719  1  0.354000  0.146400  0.519640  1.0  -0.5819
  O  O720  1  0.698600  0.199300  0.712400  1.0  -0.6918
  O  O721  1  0.300700  0.538200  0.267900  1.0  -0.6414
  O  O722  1  0.963600  0.283500  0.786660  1.0  -0.6746
  O  O723  1  0.229200  0.546600  0.189100  1.0  -0.6175
  O  O724  1  0.444800  0.082300  0.468460  1.0  -0.5919
  O  O725  1  0.919700  0.361300  0.822700  1.0  -0.6095
  O  O726  1  0.566100  0.185700  0.671400  1.0  -0.5967
  O  O727  1  0.959600  0.264900  0.700710  1.0  -0.6628
  O  O728  1  0.875400  0.370800  0.513580  1.0  -0.6002
  O  O729  1  0.999900  0.401700  0.462880  1.0  -0.5772
  O  O730  1  0.993000  0.183000  0.722600  1.0  -0.599
  O  O731  1  0.544600  0.151000  0.776270  1.0  -0.6306
  O  O732  1  0.635700  0.015700  0.229000  1.0  -0.5609
  O  O733  1  0.384700  0.122300  0.801100  1.0  -0.7091
  O  O734  1  0.192000  0.126200  0.971210  1.0  -0.5911
  O  O735  1  0.312500  0.105300  0.023790  1.0  -0.5768
  O  O736  1  0.874800  0.950700  0.279790  1.0  -0.6085
  O  O737  1  0.400100  0.567100  0.317400  1.0  -0.5126
  O  O738  1  0.136000  0.499600  0.231300  1.0  -0.4931
  O  O739  1  0.898200  0.905100  0.325600  1.0  -0.6146
  O  O740  1  0.680600  0.955200  0.183300  1.0  -0.6151
