# generated using pymatgen
data_CdH21C27N7
_symmetry_space_group_name_H-M   'P 1'
_cell_length_a   25.70400000
_cell_length_b   25.70400000
_cell_length_c   25.70400000
_cell_angle_alpha   90.00000000
_cell_angle_beta   90.00000000
_cell_angle_gamma   90.00000000
_symmetry_Int_Tables_number   1
_chemical_formula_structural   CdH21C27N7
_chemical_formula_sum   'Cd16 H336 C432 N112'
_cell_volume   16982.52011366
_cell_formula_units_Z   16
loop_
 _symmetry_equiv_pos_site_id
 _symmetry_equiv_pos_as_xyz
  1  'x, y, z'
loop_
 _atom_site_type_symbol
 _atom_site_label
 _atom_site_symmetry_multiplicity
 _atom_site_fract_x
 _atom_site_fract_y
 _atom_site_fract_z
 _atom_site_occupancy
 _atom_site_charge
  Cd  Cd1  1  0.199490  0.800510  0.300510  1.0  0.5135
  Cd  Cd2  1  0.300510  0.199490  0.800510  1.0  0.5116
  Cd  Cd3  1  0.699490  0.699490  0.699490  1.0  0.513
  Cd  Cd4  1  0.800510  0.300510  0.199490  1.0  0.5123
  Cd  Cd5  1  0.800510  0.800510  0.699490  1.0  0.5123
  Cd  Cd6  1  0.300510  0.699490  0.300510  1.0  0.5116
  Cd  Cd7  1  0.699490  0.199490  0.199490  1.0  0.513
  Cd  Cd8  1  0.199490  0.300510  0.800510  1.0  0.5135
  Cd  Cd9  1  0.800510  0.199490  0.300510  1.0  0.5116
  Cd  Cd10  1  0.300510  0.300510  0.699490  1.0  0.5123
  Cd  Cd11  1  0.699490  0.800510  0.800510  1.0  0.5135
  Cd  Cd12  1  0.199490  0.699490  0.199490  1.0  0.513
  Cd  Cd13  1  0.199490  0.199490  0.699490  1.0  0.513
  Cd  Cd14  1  0.300510  0.800510  0.199490  1.0  0.5123
  Cd  Cd15  1  0.699490  0.300510  0.300510  1.0  0.5135
  Cd  Cd16  1  0.800510  0.699490  0.800510  1.0  0.5116
  H  H17  1  0.270300  0.814800  0.412500  1.0  0.0782
  H  H18  1  0.121200  0.799900  0.411200  1.0  0.0667
  H  H19  1  0.143800  0.803700  0.498700  1.0  0.0936
  H  H20  1  0.370100  0.824000  0.565100  1.0  0.0863
  H  H21  1  0.193100  0.834100  0.572700  1.0  0.1087
  H  H22  1  0.244600  0.851100  0.642400  1.0  0.0807
  H  H23  1  0.317800  0.807200  0.486600  1.0  0.0883
  H  H24  1  0.229700  0.185200  0.912500  1.0  0.0791
  H  H25  1  0.378800  0.200100  0.911200  1.0  0.0662
  H  H26  1  0.356200  0.196300  0.998700  1.0  0.0939
  H  H27  1  0.129900  0.176000  0.065100  1.0  0.0869
  H  H28  1  0.306900  0.165900  0.072700  1.0  0.1088
  H  H29  1  0.255400  0.148900  0.142400  1.0  0.0808
  H  H30  1  0.182200  0.192800  0.986600  1.0  0.0875
  H  H31  1  0.729700  0.314800  0.087500  1.0  0.0785
  H  H32  1  0.878800  0.299900  0.088800  1.0  0.0661
  H  H33  1  0.856200  0.303700  0.001300  1.0  0.0941
  H  H34  1  0.629900  0.324000  0.934900  1.0  0.0873
  H  H35  1  0.806900  0.334100  0.927300  1.0  0.1101
  H  H36  1  0.755400  0.351100  0.857600  1.0  0.0813
  H  H37  1  0.682200  0.307200  0.013400  1.0  0.0873
  H  H38  1  0.770300  0.685200  0.587500  1.0  0.0782
  H  H39  1  0.621200  0.700100  0.588800  1.0  0.0664
  H  H40  1  0.643800  0.696300  0.501300  1.0  0.0933
  H  H41  1  0.870100  0.676000  0.434900  1.0  0.086
  H  H42  1  0.693100  0.665900  0.427300  1.0  0.1096
  H  H43  1  0.744600  0.648900  0.357600  1.0  0.0816
  H  H44  1  0.817800  0.692800  0.513400  1.0  0.0889
  H  H45  1  0.412500  0.270300  0.814800  1.0  0.0775
  H  H46  1  0.411200  0.121200  0.799900  1.0  0.0669
  H  H47  1  0.498700  0.143800  0.803700  1.0  0.0952
  H  H48  1  0.565100  0.370100  0.824000  1.0  0.0836
  H  H49  1  0.572700  0.193100  0.834100  1.0  0.1099
  H  H50  1  0.642400  0.244600  0.851100  1.0  0.0816
  H  H51  1  0.486600  0.317800  0.807200  1.0  0.0884
  H  H52  1  0.912500  0.229700  0.185200  1.0  0.0775
  H  H53  1  0.911200  0.378800  0.200100  1.0  0.0672
  H  H54  1  0.998700  0.356200  0.196300  1.0  0.0951
  H  H55  1  0.065100  0.129900  0.176000  1.0  0.0868
  H  H56  1  0.072700  0.306900  0.165900  1.0  0.109
  H  H57  1  0.142400  0.255400  0.148900  1.0  0.0814
  H  H58  1  0.986600  0.182200  0.192800  1.0  0.0886
  H  H59  1  0.087500  0.729700  0.314800  1.0  0.0775
  H  H60  1  0.088800  0.878800  0.299900  1.0  0.0676
  H  H61  1  0.001300  0.856200  0.303700  1.0  0.0949
  H  H62  1  0.934900  0.629900  0.324000  1.0  0.0865
  H  H63  1  0.927300  0.806900  0.334100  1.0  0.1096
  H  H64  1  0.857600  0.755400  0.351100  1.0  0.081
  H  H65  1  0.013400  0.682200  0.307200  1.0  0.0895
  H  H66  1  0.587500  0.770300  0.685200  1.0  0.0772
  H  H67  1  0.588800  0.621200  0.700100  1.0  0.0673
  H  H68  1  0.501300  0.643800  0.696300  1.0  0.0952
  H  H69  1  0.434900  0.870100  0.676000  1.0  0.0847
  H  H70  1  0.427300  0.693100  0.665900  1.0  0.1098
  H  H71  1  0.357600  0.744600  0.648900  1.0  0.0816
  H  H72  1  0.513400  0.817800  0.692800  1.0  0.0891
  H  H73  1  0.814800  0.412500  0.270300  1.0  0.0767
  H  H74  1  0.799900  0.411200  0.121200  1.0  0.0684
  H  H75  1  0.803700  0.498700  0.143800  1.0  0.094
  H  H76  1  0.824000  0.565100  0.370100  1.0  0.0865
  H  H77  1  0.834100  0.572700  0.193100  1.0  0.1105
  H  H78  1  0.851100  0.642400  0.244600  1.0  0.0811
  H  H79  1  0.807200  0.486600  0.317800  1.0  0.0889
  H  H80  1  0.185200  0.912500  0.229700  1.0  0.0773
  H  H81  1  0.200100  0.911200  0.378800  1.0  0.0686
  H  H82  1  0.196300  0.998700  0.356200  1.0  0.0931
  H  H83  1  0.176000  0.065100  0.129900  1.0  0.0868
  H  H84  1  0.165900  0.072700  0.306900  1.0  0.1109
  H  H85  1  0.148900  0.142400  0.255400  1.0  0.0815
  H  H86  1  0.192800  0.986600  0.182200  1.0  0.0894
  H  H87  1  0.314800  0.087500  0.729700  1.0  0.0769
  H  H88  1  0.299900  0.088800  0.878800  1.0  0.0688
  H  H89  1  0.303700  0.001300  0.856200  1.0  0.0928
  H  H90  1  0.324000  0.934900  0.629900  1.0  0.0872
  H  H91  1  0.334100  0.927300  0.806900  1.0  0.1101
  H  H92  1  0.351100  0.857600  0.755400  1.0  0.0815
  H  H93  1  0.307200  0.013400  0.682200  1.0  0.0901
  H  H94  1  0.685200  0.587500  0.770300  1.0  0.0775
  H  H95  1  0.700100  0.588800  0.621200  1.0  0.0683
  H  H96  1  0.696300  0.501300  0.643800  1.0  0.094
  H  H97  1  0.676000  0.434900  0.870100  1.0  0.0859
  H  H98  1  0.665900  0.427300  0.693100  1.0  0.111
  H  H99  1  0.648900  0.357600  0.744600  1.0  0.0816
  H  H100  1  0.692800  0.513400  0.817800  1.0  0.0887
  H  H101  1  0.270300  0.314800  0.912500  1.0  0.0782
  H  H102  1  0.121200  0.299900  0.911200  1.0  0.0667
  H  H103  1  0.143800  0.303700  0.998700  1.0  0.0936
  H  H104  1  0.370100  0.324000  0.065100  1.0  0.0863
  H  H105  1  0.193100  0.334100  0.072700  1.0  0.1078
  H  H106  1  0.244600  0.351100  0.142400  1.0  0.0807
  H  H107  1  0.317800  0.307200  0.986600  1.0  0.0883
  H  H108  1  0.229700  0.685200  0.412500  1.0  0.0791
  H  H109  1  0.378800  0.700100  0.411200  1.0  0.0662
  H  H110  1  0.356200  0.696300  0.498700  1.0  0.0939
  H  H111  1  0.129900  0.676000  0.565100  1.0  0.0869
  H  H112  1  0.306900  0.665900  0.572700  1.0  0.1079
  H  H113  1  0.255400  0.648900  0.642400  1.0  0.0808
  H  H114  1  0.182200  0.692800  0.486600  1.0  0.0875
  H  H115  1  0.729700  0.814800  0.587500  1.0  0.0785
  H  H116  1  0.878800  0.799900  0.588800  1.0  0.0661
  H  H117  1  0.856200  0.803700  0.501300  1.0  0.0941
  H  H118  1  0.629900  0.824000  0.434900  1.0  0.0873
  H  H119  1  0.806900  0.834100  0.427300  1.0  0.1092
  H  H120  1  0.755400  0.851100  0.357600  1.0  0.0813
  H  H121  1  0.682200  0.807200  0.513400  1.0  0.0873
  H  H122  1  0.770300  0.185200  0.087500  1.0  0.0782
  H  H123  1  0.621200  0.200100  0.088800  1.0  0.0664
  H  H124  1  0.643800  0.196300  0.001300  1.0  0.0933
  H  H125  1  0.870100  0.176000  0.934900  1.0  0.086
  H  H126  1  0.693100  0.165900  0.927300  1.0  0.1086
  H  H127  1  0.744600  0.148900  0.857600  1.0  0.0816
  H  H128  1  0.817800  0.192800  0.013400  1.0  0.0889
  H  H129  1  0.412500  0.770300  0.314800  1.0  0.0774
  H  H130  1  0.411200  0.621200  0.299900  1.0  0.0669
  H  H131  1  0.498700  0.643800  0.303700  1.0  0.0951
  H  H132  1  0.565100  0.870100  0.324000  1.0  0.0836
  H  H133  1  0.572700  0.693100  0.334100  1.0  0.1099
  H  H134  1  0.642400  0.744600  0.351100  1.0  0.0816
  H  H135  1  0.486600  0.817800  0.307200  1.0  0.0884
  H  H136  1  0.912500  0.729700  0.685200  1.0  0.0775
  H  H137  1  0.911200  0.878800  0.700100  1.0  0.0672
  H  H138  1  0.998700  0.856200  0.696300  1.0  0.0953
  H  H139  1  0.065100  0.629900  0.676000  1.0  0.0868
  H  H140  1  0.072700  0.806900  0.665900  1.0  0.109
  H  H141  1  0.142400  0.755400  0.648900  1.0  0.0814
  H  H142  1  0.986600  0.682200  0.692800  1.0  0.0886
  H  H143  1  0.087500  0.229700  0.814800  1.0  0.0775
  H  H144  1  0.088800  0.378800  0.799900  1.0  0.0676
  H  H145  1  0.001300  0.356200  0.803700  1.0  0.0947
  H  H146  1  0.934900  0.129900  0.824000  1.0  0.0865
  H  H147  1  0.927300  0.306900  0.834100  1.0  0.1096
  H  H148  1  0.857600  0.255400  0.851100  1.0  0.081
  H  H149  1  0.013400  0.182200  0.807200  1.0  0.0895
  H  H150  1  0.587500  0.270300  0.185200  1.0  0.0772
  H  H151  1  0.588800  0.121200  0.200100  1.0  0.0673
  H  H152  1  0.501300  0.143800  0.196300  1.0  0.0953
  H  H153  1  0.434900  0.370100  0.176000  1.0  0.0847
  H  H154  1  0.427300  0.193100  0.165900  1.0  0.1098
  H  H155  1  0.357600  0.244600  0.148900  1.0  0.0816
  H  H156  1  0.513400  0.317800  0.192800  1.0  0.0891
  H  H157  1  0.814800  0.912500  0.770300  1.0  0.0767
  H  H158  1  0.799900  0.911200  0.621200  1.0  0.0684
  H  H159  1  0.803700  0.998700  0.643800  1.0  0.0939
  H  H160  1  0.824000  0.065100  0.870100  1.0  0.0865
  H  H161  1  0.834100  0.072700  0.693100  1.0  0.1105
  H  H162  1  0.851100  0.142400  0.744600  1.0  0.0811
  H  H163  1  0.807200  0.986600  0.817800  1.0  0.0889
  H  H164  1  0.185200  0.412500  0.729700  1.0  0.0774
  H  H165  1  0.200100  0.411200  0.878800  1.0  0.0686
  H  H166  1  0.196300  0.498700  0.856200  1.0  0.0933
  H  H167  1  0.176000  0.565100  0.629900  1.0  0.0868
  H  H168  1  0.165900  0.572700  0.806900  1.0  0.1109
  H  H169  1  0.148900  0.642400  0.755400  1.0  0.0815
  H  H170  1  0.192800  0.486600  0.682200  1.0  0.0894
  H  H171  1  0.314800  0.587500  0.229700  1.0  0.0769
  H  H172  1  0.299900  0.588800  0.378800  1.0  0.0688
  H  H173  1  0.303700  0.501300  0.356200  1.0  0.0926
  H  H174  1  0.324000  0.434900  0.129900  1.0  0.0872
  H  H175  1  0.334100  0.427300  0.306900  1.0  0.1101
  H  H176  1  0.351100  0.357600  0.255400  1.0  0.0815
  H  H177  1  0.307200  0.513400  0.182200  1.0  0.0901
  H  H178  1  0.685200  0.087500  0.270300  1.0  0.0775
  H  H179  1  0.700100  0.088800  0.121200  1.0  0.0683
  H  H180  1  0.696300  0.001300  0.143800  1.0  0.0941
  H  H181  1  0.676000  0.934900  0.370100  1.0  0.0859
  H  H182  1  0.665900  0.927300  0.193100  1.0  0.111
  H  H183  1  0.648900  0.857600  0.244600  1.0  0.0816
  H  H184  1  0.692800  0.013400  0.317800  1.0  0.0887
  H  H185  1  0.770300  0.814800  0.912500  1.0  0.0781
  H  H186  1  0.621200  0.799900  0.911200  1.0  0.0667
  H  H187  1  0.643800  0.803700  0.998700  1.0  0.0934
  H  H188  1  0.870100  0.824000  0.065100  1.0  0.0863
  H  H189  1  0.693100  0.834100  0.072700  1.0  0.1087
  H  H190  1  0.744600  0.851100  0.142400  1.0  0.0807
  H  H191  1  0.817800  0.807200  0.986600  1.0  0.0883
  H  H192  1  0.729700  0.185200  0.412500  1.0  0.0791
  H  H193  1  0.878800  0.200100  0.411200  1.0  0.0662
  H  H194  1  0.856200  0.196300  0.498700  1.0  0.0941
  H  H195  1  0.629900  0.176000  0.565100  1.0  0.0869
  H  H196  1  0.806900  0.165900  0.572700  1.0  0.1088
  H  H197  1  0.755400  0.148900  0.642400  1.0  0.0808
  H  H198  1  0.682200  0.192800  0.486600  1.0  0.0875
  H  H199  1  0.229700  0.314800  0.587500  1.0  0.0784
  H  H200  1  0.378800  0.299900  0.588800  1.0  0.0661
  H  H201  1  0.356200  0.303700  0.501300  1.0  0.0939
  H  H202  1  0.129900  0.324000  0.434900  1.0  0.0873
  H  H203  1  0.306900  0.334100  0.427300  1.0  0.11
  H  H204  1  0.255400  0.351100  0.357600  1.0  0.0813
  H  H205  1  0.182200  0.307200  0.513400  1.0  0.0873
  H  H206  1  0.270300  0.685200  0.087500  1.0  0.0783
  H  H207  1  0.121200  0.700100  0.088800  1.0  0.0664
  H  H208  1  0.143800  0.696300  0.001300  1.0  0.0935
  H  H209  1  0.370100  0.676000  0.934900  1.0  0.086
  H  H210  1  0.193100  0.665900  0.927300  1.0  0.1096
  H  H211  1  0.244600  0.648900  0.857600  1.0  0.0816
  H  H212  1  0.317800  0.692800  0.013400  1.0  0.0889
  H  H213  1  0.912500  0.270300  0.314800  1.0  0.0775
  H  H214  1  0.911200  0.121200  0.299900  1.0  0.0669
  H  H215  1  0.998700  0.143800  0.303700  1.0  0.0952
  H  H216  1  0.065100  0.370100  0.324000  1.0  0.0836
  H  H217  1  0.072700  0.193100  0.334100  1.0  0.1092
  H  H218  1  0.142400  0.244600  0.351100  1.0  0.0816
  H  H219  1  0.986600  0.317800  0.307200  1.0  0.0884
  H  H220  1  0.412500  0.229700  0.685200  1.0  0.0775
  H  H221  1  0.411200  0.378800  0.700100  1.0  0.0672
  H  H222  1  0.498700  0.356200  0.696300  1.0  0.0951
  H  H223  1  0.565100  0.129900  0.676000  1.0  0.0868
  H  H224  1  0.572700  0.306900  0.665900  1.0  0.1082
  H  H225  1  0.642400  0.255400  0.648900  1.0  0.0814
  H  H226  1  0.486600  0.182200  0.692800  1.0  0.0886
  H  H227  1  0.587500  0.729700  0.814800  1.0  0.0775
  H  H228  1  0.588800  0.878800  0.799900  1.0  0.0676
  H  H229  1  0.501300  0.856200  0.803700  1.0  0.0949
  H  H230  1  0.434900  0.629900  0.824000  1.0  0.0865
  H  H231  1  0.427300  0.806900  0.834100  1.0  0.1088
  H  H232  1  0.357600  0.755400  0.851100  1.0  0.081
  H  H233  1  0.513400  0.682200  0.807200  1.0  0.0895
  H  H234  1  0.087500  0.770300  0.185200  1.0  0.0772
  H  H235  1  0.088800  0.621200  0.200100  1.0  0.0673
  H  H236  1  0.001300  0.643800  0.196300  1.0  0.0952
  H  H237  1  0.934900  0.870100  0.176000  1.0  0.0847
  H  H238  1  0.927300  0.693100  0.165900  1.0  0.1092
  H  H239  1  0.857600  0.744600  0.148900  1.0  0.0816
  H  H240  1  0.013400  0.817800  0.192800  1.0  0.0891
  H  H241  1  0.314800  0.412500  0.770300  1.0  0.0767
  H  H242  1  0.299900  0.411200  0.621200  1.0  0.0684
  H  H243  1  0.303700  0.498700  0.643800  1.0  0.0939
  H  H244  1  0.324000  0.565100  0.870100  1.0  0.0865
  H  H245  1  0.334100  0.572700  0.693100  1.0  0.1098
  H  H246  1  0.351100  0.642400  0.744600  1.0  0.0811
  H  H247  1  0.307200  0.486600  0.817800  1.0  0.0889
  H  H248  1  0.685200  0.912500  0.729700  1.0  0.0774
  H  H249  1  0.700100  0.911200  0.878800  1.0  0.0686
  H  H250  1  0.696300  0.998700  0.856200  1.0  0.0933
  H  H251  1  0.676000  0.065100  0.629900  1.0  0.0868
  H  H252  1  0.665900  0.072700  0.806900  1.0  0.1101
  H  H253  1  0.648900  0.142400  0.755400  1.0  0.0815
  H  H254  1  0.692800  0.986600  0.682200  1.0  0.0894
  H  H255  1  0.814800  0.087500  0.229700  1.0  0.0769
  H  H256  1  0.799900  0.088800  0.378800  1.0  0.0688
  H  H257  1  0.803700  0.001300  0.356200  1.0  0.0926
  H  H258  1  0.824000  0.934900  0.129900  1.0  0.0872
  H  H259  1  0.834100  0.927300  0.306900  1.0  0.1093
  H  H260  1  0.851100  0.857600  0.255400  1.0  0.0815
  H  H261  1  0.807200  0.013400  0.182200  1.0  0.0901
  H  H262  1  0.185200  0.587500  0.270300  1.0  0.0775
  H  H263  1  0.200100  0.588800  0.121200  1.0  0.0683
  H  H264  1  0.196300  0.501300  0.143800  1.0  0.0941
  H  H265  1  0.176000  0.434900  0.370100  1.0  0.0859
  H  H266  1  0.165900  0.427300  0.193100  1.0  0.1103
  H  H267  1  0.148900  0.357600  0.244600  1.0  0.0816
  H  H268  1  0.192800  0.513400  0.317800  1.0  0.0887
  H  H269  1  0.770300  0.314800  0.412500  1.0  0.0781
  H  H270  1  0.621200  0.299900  0.411200  1.0  0.0667
  H  H271  1  0.643800  0.303700  0.498700  1.0  0.0934
  H  H272  1  0.870100  0.324000  0.565100  1.0  0.0863
  H  H273  1  0.693100  0.334100  0.572700  1.0  0.1078
  H  H274  1  0.744600  0.351100  0.642400  1.0  0.0807
  H  H275  1  0.817800  0.307200  0.486600  1.0  0.0883
  H  H276  1  0.729700  0.685200  0.912500  1.0  0.0791
  H  H277  1  0.878800  0.700100  0.911200  1.0  0.0662
  H  H278  1  0.856200  0.696300  0.998700  1.0  0.0941
  H  H279  1  0.629900  0.676000  0.065100  1.0  0.0869
  H  H280  1  0.806900  0.665900  0.072700  1.0  0.1079
  H  H281  1  0.755400  0.648900  0.142400  1.0  0.0808
  H  H282  1  0.682200  0.692800  0.986600  1.0  0.0875
  H  H283  1  0.229700  0.814800  0.087500  1.0  0.0784
  H  H284  1  0.378800  0.799900  0.088800  1.0  0.0661
  H  H285  1  0.356200  0.803700  0.001300  1.0  0.0939
  H  H286  1  0.129900  0.824000  0.934900  1.0  0.0873
  H  H287  1  0.306900  0.834100  0.927300  1.0  0.1091
  H  H288  1  0.255400  0.851100  0.857600  1.0  0.0813
  H  H289  1  0.182200  0.807200  0.013400  1.0  0.0873
  H  H290  1  0.270300  0.185200  0.587500  1.0  0.0783
  H  H291  1  0.121200  0.200100  0.588800  1.0  0.0664
  H  H292  1  0.143800  0.196300  0.501300  1.0  0.0935
  H  H293  1  0.370100  0.176000  0.434900  1.0  0.086
  H  H294  1  0.193100  0.165900  0.427300  1.0  0.1086
  H  H295  1  0.244600  0.148900  0.357600  1.0  0.0816
  H  H296  1  0.317800  0.192800  0.513400  1.0  0.0889
  H  H297  1  0.912500  0.770300  0.814800  1.0  0.0774
  H  H298  1  0.911200  0.621200  0.799900  1.0  0.0669
  H  H299  1  0.998700  0.643800  0.803700  1.0  0.0951
  H  H300  1  0.065100  0.870100  0.824000  1.0  0.0836
  H  H301  1  0.072700  0.693100  0.834100  1.0  0.1092
  H  H302  1  0.142400  0.744600  0.851100  1.0  0.0816
  H  H303  1  0.986600  0.817800  0.807200  1.0  0.0884
  H  H304  1  0.412500  0.729700  0.185200  1.0  0.0775
  H  H305  1  0.411200  0.878800  0.200100  1.0  0.0672
  H  H306  1  0.498700  0.856200  0.196300  1.0  0.0953
  H  H307  1  0.565100  0.629900  0.176000  1.0  0.0868
  H  H308  1  0.572700  0.806900  0.165900  1.0  0.1082
  H  H309  1  0.642400  0.755400  0.148900  1.0  0.0814
  H  H310  1  0.486600  0.682200  0.192800  1.0  0.0886
  H  H311  1  0.587500  0.229700  0.314800  1.0  0.0775
  H  H312  1  0.588800  0.378800  0.299900  1.0  0.0676
  H  H313  1  0.501300  0.356200  0.303700  1.0  0.0947
  H  H314  1  0.434900  0.129900  0.324000  1.0  0.0865
  H  H315  1  0.427300  0.306900  0.334100  1.0  0.1088
  H  H316  1  0.357600  0.255400  0.351100  1.0  0.081
  H  H317  1  0.513400  0.182200  0.307200  1.0  0.0895
  H  H318  1  0.087500  0.270300  0.685200  1.0  0.0772
  H  H319  1  0.088800  0.121200  0.700100  1.0  0.0673
  H  H320  1  0.001300  0.143800  0.696300  1.0  0.0953
  H  H321  1  0.934900  0.370100  0.676000  1.0  0.0847
  H  H322  1  0.927300  0.193100  0.665900  1.0  0.1093
  H  H323  1  0.857600  0.244600  0.648900  1.0  0.0816
  H  H324  1  0.013400  0.317800  0.692800  1.0  0.0891
  H  H325  1  0.314800  0.912500  0.270300  1.0  0.0767
  H  H326  1  0.299900  0.911200  0.121200  1.0  0.0684
  H  H327  1  0.303700  0.998700  0.143800  1.0  0.094
  H  H328  1  0.324000  0.065100  0.370100  1.0  0.0865
  H  H329  1  0.334100  0.072700  0.193100  1.0  0.1098
  H  H330  1  0.351100  0.142400  0.244600  1.0  0.0811
  H  H331  1  0.307200  0.986600  0.317800  1.0  0.0889
  H  H332  1  0.685200  0.412500  0.229700  1.0  0.0773
  H  H333  1  0.700100  0.411200  0.378800  1.0  0.0686
  H  H334  1  0.696300  0.498700  0.356200  1.0  0.0931
  H  H335  1  0.676000  0.565100  0.129900  1.0  0.0868
  H  H336  1  0.665900  0.572700  0.306900  1.0  0.1101
  H  H337  1  0.648900  0.642400  0.255400  1.0  0.0815
  H  H338  1  0.692800  0.486600  0.182200  1.0  0.0894
  H  H339  1  0.814800  0.587500  0.729700  1.0  0.0769
  H  H340  1  0.799900  0.588800  0.878800  1.0  0.0688
  H  H341  1  0.803700  0.501300  0.856200  1.0  0.0928
  H  H342  1  0.824000  0.434900  0.629900  1.0  0.0872
  H  H343  1  0.834100  0.427300  0.806900  1.0  0.1093
  H  H344  1  0.851100  0.357600  0.755400  1.0  0.0815
  H  H345  1  0.807200  0.513400  0.682200  1.0  0.0901
  H  H346  1  0.185200  0.087500  0.770300  1.0  0.0775
  H  H347  1  0.200100  0.088800  0.621200  1.0  0.0683
  H  H348  1  0.196300  0.001300  0.643800  1.0  0.094
  H  H349  1  0.176000  0.934900  0.870100  1.0  0.0859
  H  H350  1  0.165900  0.927300  0.693100  1.0  0.1103
  H  H351  1  0.148900  0.857600  0.744600  1.0  0.0816
  H  H352  1  0.192800  0.013400  0.817800  1.0  0.0887
  C  C353  1  0.235900  0.812300  0.423500  1.0  0.1408
  C  C354  1  0.155200  0.803000  0.423300  1.0  0.0394
  C  C355  1  0.166700  0.807000  0.470900  1.0  -0.0543
  C  C356  1  0.252000  0.825400  0.521400  1.0  0.1943
  C  C357  1  0.311900  0.839800  0.607300  1.0  0.265
  C  C358  1  0.334100  0.827400  0.566000  1.0  -0.1518
  C  C359  1  0.229100  0.834200  0.569200  1.0  -0.1824
  C  C360  1  0.259800  0.842800  0.610600  1.0  -0.1413
  C  C361  1  0.302400  0.817900  0.517600  1.0  -0.1787
  C  C362  1  0.264100  0.187700  0.923500  1.0  0.1399
  C  C363  1  0.344800  0.197000  0.923300  1.0  0.0416
  C  C364  1  0.333333  0.193000  0.970900  1.0  -0.0524
  C  C365  1  0.248000  0.174600  0.021400  1.0  0.1946
  C  C366  1  0.188100  0.160200  0.107300  1.0  0.2653
  C  C367  1  0.165900  0.172600  0.066000  1.0  -0.1515
  C  C368  1  0.270900  0.165800  0.069200  1.0  -0.1825
  C  C369  1  0.240200  0.157200  0.110600  1.0  -0.141
  C  C370  1  0.197600  0.182100  0.017600  1.0  -0.1801
  C  C371  1  0.764100  0.312300  0.076500  1.0  0.14
  C  C372  1  0.844800  0.303000  0.076700  1.0  0.041
  C  C373  1  0.833300  0.307000  0.029100  1.0  -0.0526
  C  C374  1  0.748000  0.325400  0.978600  1.0  0.195
  C  C375  1  0.688100  0.339800  0.892700  1.0  0.2663
  C  C376  1  0.665900  0.327400  0.934000  1.0  -0.1507
  C  C377  1  0.770900  0.334200  0.930800  1.0  -0.182
  C  C378  1  0.740200  0.342800  0.889400  1.0  -0.1397
  C  C379  1  0.697600  0.317900  0.982400  1.0  -0.1824
  C  C380  1  0.735900  0.687700  0.576500  1.0  0.14
  C  C381  1  0.655200  0.697000  0.576700  1.0  0.039
  C  C382  1  0.666667  0.693000  0.529100  1.0  -0.0555
  C  C383  1  0.752000  0.674600  0.478600  1.0  0.1937
  C  C384  1  0.811900  0.660200  0.392700  1.0  0.2667
  C  C385  1  0.834100  0.672600  0.434000  1.0  -0.1502
  C  C386  1  0.729100  0.665800  0.430800  1.0  -0.1826
  C  C387  1  0.759800  0.657200  0.389400  1.0  -0.1409
  C  C388  1  0.802400  0.682100  0.482400  1.0  -0.1788
  C  C389  1  0.423500  0.235900  0.812300  1.0  0.1389
  C  C390  1  0.423300  0.155200  0.803000  1.0  0.0401
  C  C391  1  0.470900  0.166700  0.807000  1.0  -0.054
  C  C392  1  0.521400  0.252000  0.825400  1.0  0.1959
  C  C393  1  0.607300  0.311900  0.839800  1.0  0.2619
  C  C394  1  0.566000  0.334100  0.827400  1.0  -0.153
  C  C395  1  0.569200  0.229100  0.834200  1.0  -0.189
  C  C396  1  0.610600  0.259800  0.842800  1.0  -0.1444
  C  C397  1  0.517600  0.302400  0.817900  1.0  -0.1869
  C  C398  1  0.923500  0.264100  0.187700  1.0  0.1389
  C  C399  1  0.923300  0.344800  0.197000  1.0  0.0407
  C  C400  1  0.970900  0.333333  0.193000  1.0  -0.0536
  C  C401  1  0.021400  0.248000  0.174600  1.0  0.1935
  C  C402  1  0.107300  0.188100  0.160200  1.0  0.2623
  C  C403  1  0.066000  0.165900  0.172600  1.0  -0.1532
  C  C404  1  0.069200  0.270900  0.165800  1.0  -0.1878
  C  C405  1  0.110600  0.240200  0.157200  1.0  -0.1439
  C  C406  1  0.017600  0.197600  0.182100  1.0  -0.1853
  C  C407  1  0.076500  0.764100  0.312300  1.0  0.1392
  C  C408  1  0.076700  0.844800  0.303000  1.0  0.0419
  C  C409  1  0.029100  0.833300  0.307000  1.0  -0.0551
  C  C410  1  0.978600  0.748000  0.325400  1.0  0.1958
  C  C411  1  0.892700  0.688100  0.339800  1.0  0.2614
  C  C412  1  0.934000  0.665900  0.327400  1.0  -0.1508
  C  C413  1  0.930800  0.770900  0.334200  1.0  -0.1899
  C  C414  1  0.889400  0.740200  0.342800  1.0  -0.1464
  C  C415  1  0.982400  0.697600  0.317900  1.0  -0.1859
  C  C416  1  0.576500  0.735900  0.687700  1.0  0.1391
  C  C417  1  0.576700  0.655200  0.697000  1.0  0.0419
  C  C418  1  0.529100  0.666667  0.693000  1.0  -0.0541
  C  C419  1  0.478600  0.752000  0.674600  1.0  0.192
  C  C420  1  0.392700  0.811900  0.660200  1.0  0.2628
  C  C421  1  0.434000  0.834100  0.672600  1.0  -0.1523
  C  C422  1  0.430800  0.729100  0.665800  1.0  -0.1896
  C  C423  1  0.389400  0.759800  0.657200  1.0  -0.1465
  C  C424  1  0.482400  0.802400  0.682100  1.0  -0.184
  C  C425  1  0.812300  0.423500  0.235900  1.0  0.1399
  C  C426  1  0.803000  0.423300  0.155200  1.0  0.0472
  C  C427  1  0.807000  0.470900  0.166700  1.0  -0.0536
  C  C428  1  0.825400  0.521400  0.252000  1.0  0.1944
  C  C429  1  0.839800  0.607300  0.311900  1.0  0.2666
  C  C430  1  0.827400  0.566000  0.334100  1.0  -0.1497
  C  C431  1  0.834200  0.569200  0.229100  1.0  -0.1803
  C  C432  1  0.842800  0.610600  0.259800  1.0  -0.1428
  C  C433  1  0.817900  0.517600  0.302400  1.0  -0.1758
  C  C434  1  0.187700  0.923500  0.264100  1.0  0.1392
  C  C435  1  0.197000  0.923300  0.344800  1.0  0.0464
  C  C436  1  0.193000  0.970900  0.333333  1.0  -0.0524
  C  C437  1  0.174600  0.021400  0.248000  1.0  0.1946
  C  C438  1  0.160200  0.107300  0.188100  1.0  0.2665
  C  C439  1  0.172600  0.066000  0.165900  1.0  -0.1496
  C  C440  1  0.165800  0.069200  0.270900  1.0  -0.1798
  C  C441  1  0.157200  0.110600  0.240200  1.0  -0.143
  C  C442  1  0.182100  0.017600  0.197600  1.0  -0.1818
  C  C443  1  0.312300  0.076500  0.764100  1.0  0.1396
  C  C444  1  0.303000  0.076700  0.844800  1.0  0.0458
  C  C445  1  0.307000  0.029100  0.833300  1.0  -0.0516
  C  C446  1  0.325400  0.978600  0.748000  1.0  0.1937
  C  C447  1  0.339800  0.892700  0.688100  1.0  0.2667
  C  C448  1  0.327400  0.934000  0.665900  1.0  -0.1496
  C  C449  1  0.334200  0.930800  0.770900  1.0  -0.1794
  C  C450  1  0.342800  0.889400  0.740200  1.0  -0.1429
  C  C451  1  0.317900  0.982400  0.697600  1.0  -0.1782
  C  C452  1  0.687700  0.576500  0.735900  1.0  0.1395
  C  C453  1  0.697000  0.576700  0.655200  1.0  0.0471
  C  C454  1  0.693000  0.529100  0.666667  1.0  -0.0543
  C  C455  1  0.674600  0.478600  0.752000  1.0  0.194
  C  C456  1  0.660200  0.392700  0.811900  1.0  0.2664
  C  C457  1  0.672600  0.434000  0.834100  1.0  -0.1502
  C  C458  1  0.665800  0.430800  0.729100  1.0  -0.1797
  C  C459  1  0.657200  0.389400  0.759800  1.0  -0.1449
  C  C460  1  0.682100  0.482400  0.802400  1.0  -0.182
  C  C461  1  0.235900  0.312300  0.923500  1.0  0.1408
  C  C462  1  0.155200  0.303000  0.923300  1.0  0.0394
  C  C463  1  0.166700  0.307000  0.970900  1.0  -0.0543
  C  C464  1  0.252000  0.325400  0.021400  1.0  0.1943
  C  C465  1  0.311900  0.339800  0.107300  1.0  0.265
  C  C466  1  0.334100  0.327400  0.066000  1.0  -0.1518
  C  C467  1  0.229100  0.334200  0.069200  1.0  -0.1824
  C  C468  1  0.259800  0.342800  0.110600  1.0  -0.1413
  C  C469  1  0.302400  0.317900  0.017600  1.0  -0.1787
  C  C470  1  0.264100  0.687700  0.423500  1.0  0.1399
  C  C471  1  0.344800  0.697000  0.423300  1.0  0.0416
  C  C472  1  0.333333  0.693000  0.470900  1.0  -0.0524
  C  C473  1  0.248000  0.674600  0.521400  1.0  0.1946
  C  C474  1  0.188100  0.660200  0.607300  1.0  0.2653
  C  C475  1  0.165900  0.672600  0.566000  1.0  -0.1515
  C  C476  1  0.270900  0.665800  0.569200  1.0  -0.1825
  C  C477  1  0.240200  0.657200  0.610600  1.0  -0.141
  C  C478  1  0.197600  0.682100  0.517600  1.0  -0.1801
  C  C479  1  0.764100  0.812300  0.576500  1.0  0.14
  C  C480  1  0.844800  0.803000  0.576700  1.0  0.041
  C  C481  1  0.833300  0.807000  0.529100  1.0  -0.0526
  C  C482  1  0.748000  0.825400  0.478600  1.0  0.195
  C  C483  1  0.688100  0.839800  0.392700  1.0  0.2663
  C  C484  1  0.665900  0.827400  0.434000  1.0  -0.1507
  C  C485  1  0.770900  0.834200  0.430800  1.0  -0.182
  C  C486  1  0.740200  0.842800  0.389400  1.0  -0.1397
  C  C487  1  0.697600  0.817900  0.482400  1.0  -0.1824
  C  C488  1  0.735900  0.187700  0.076500  1.0  0.14
  C  C489  1  0.655200  0.197000  0.076700  1.0  0.039
  C  C490  1  0.666667  0.193000  0.029100  1.0  -0.0555
  C  C491  1  0.752000  0.174600  0.978600  1.0  0.1937
  C  C492  1  0.811900  0.160200  0.892700  1.0  0.2667
  C  C493  1  0.834100  0.172600  0.934000  1.0  -0.1502
  C  C494  1  0.729100  0.165800  0.930800  1.0  -0.1826
  C  C495  1  0.759800  0.157200  0.889400  1.0  -0.1409
  C  C496  1  0.802400  0.182100  0.982400  1.0  -0.1788
  C  C497  1  0.423500  0.735900  0.312300  1.0  0.1385
  C  C498  1  0.423300  0.655200  0.303000  1.0  0.0403
  C  C499  1  0.470900  0.666667  0.307000  1.0  -0.055
  C  C500  1  0.521400  0.752000  0.325400  1.0  0.1959
  C  C501  1  0.607300  0.811900  0.339800  1.0  0.2619
  C  C502  1  0.566000  0.834100  0.327400  1.0  -0.153
  C  C503  1  0.569200  0.729100  0.334200  1.0  -0.189
  C  C504  1  0.610600  0.759800  0.342800  1.0  -0.1444
  C  C505  1  0.517600  0.802400  0.317900  1.0  -0.1869
  C  C506  1  0.923500  0.764100  0.687700  1.0  0.1392
  C  C507  1  0.923300  0.844800  0.697000  1.0  0.0406
  C  C508  1  0.970900  0.833300  0.693000  1.0  -0.0534
  C  C509  1  0.021400  0.748000  0.674600  1.0  0.1935
  C  C510  1  0.107300  0.688100  0.660200  1.0  0.2623
  C  C511  1  0.066000  0.665900  0.672600  1.0  -0.1532
  C  C512  1  0.069200  0.770900  0.665800  1.0  -0.1878
  C  C513  1  0.110600  0.740200  0.657200  1.0  -0.1439
  C  C514  1  0.017600  0.697600  0.682100  1.0  -0.1853
  C  C515  1  0.076500  0.264100  0.812300  1.0  0.1389
  C  C516  1  0.076700  0.344800  0.803000  1.0  0.0419
  C  C517  1  0.029100  0.333333  0.807000  1.0  -0.0553
  C  C518  1  0.978600  0.248000  0.825400  1.0  0.1958
  C  C519  1  0.892700  0.188100  0.839800  1.0  0.2614
  C  C520  1  0.934000  0.165900  0.827400  1.0  -0.1508
  C  C521  1  0.930800  0.270900  0.834200  1.0  -0.1899
  C  C522  1  0.889400  0.240200  0.842800  1.0  -0.1464
  C  C523  1  0.982400  0.197600  0.817900  1.0  -0.1859
  C  C524  1  0.576500  0.235900  0.187700  1.0  0.1394
  C  C525  1  0.576700  0.155200  0.197000  1.0  0.0418
  C  C526  1  0.529100  0.166700  0.193000  1.0  -0.053
  C  C527  1  0.478600  0.252000  0.174600  1.0  0.192
  C  C528  1  0.392700  0.311900  0.160200  1.0  0.2628
  C  C529  1  0.434000  0.334100  0.172600  1.0  -0.1523
  C  C530  1  0.430800  0.229100  0.165800  1.0  -0.1896
  C  C531  1  0.389400  0.259800  0.157200  1.0  -0.1465
  C  C532  1  0.482400  0.302400  0.182100  1.0  -0.184
  C  C533  1  0.812300  0.923500  0.735900  1.0  0.1395
  C  C534  1  0.803000  0.923300  0.655200  1.0  0.0474
  C  C535  1  0.807000  0.970900  0.666667  1.0  -0.0543
  C  C536  1  0.825400  0.021400  0.752000  1.0  0.1944
  C  C537  1  0.839800  0.107300  0.811900  1.0  0.2666
  C  C538  1  0.827400  0.066000  0.834100  1.0  -0.1497
  C  C539  1  0.834200  0.069200  0.729100  1.0  -0.1803
  C  C540  1  0.842800  0.110600  0.759800  1.0  -0.1428
  C  C541  1  0.817900  0.017600  0.802400  1.0  -0.1758
  C  C542  1  0.187700  0.423500  0.764100  1.0  0.1396
  C  C543  1  0.197000  0.423300  0.844800  1.0  0.0465
  C  C544  1  0.193000  0.470900  0.833300  1.0  -0.0515
  C  C545  1  0.174600  0.521400  0.748000  1.0  0.1946
  C  C546  1  0.160200  0.607300  0.688100  1.0  0.2665
  C  C547  1  0.172600  0.566000  0.665900  1.0  -0.1496
  C  C548  1  0.165800  0.569200  0.770900  1.0  -0.1798
  C  C549  1  0.157200  0.610600  0.740200  1.0  -0.143
  C  C550  1  0.182100  0.517600  0.697600  1.0  -0.1818
  C  C551  1  0.312300  0.576500  0.264100  1.0  0.1391
  C  C552  1  0.303000  0.576700  0.344800  1.0  0.0457
  C  C553  1  0.307000  0.529100  0.333333  1.0  -0.0527
  C  C554  1  0.325400  0.478600  0.248000  1.0  0.1937
  C  C555  1  0.339800  0.392700  0.188100  1.0  0.2667
  C  C556  1  0.327400  0.434000  0.165900  1.0  -0.1496
  C  C557  1  0.334200  0.430800  0.270900  1.0  -0.1794
  C  C558  1  0.342800  0.389400  0.240200  1.0  -0.1429
  C  C559  1  0.317900  0.482400  0.197600  1.0  -0.1782
  C  C560  1  0.687700  0.076500  0.235900  1.0  0.1399
  C  C561  1  0.697000  0.076700  0.155200  1.0  0.0469
  C  C562  1  0.693000  0.029100  0.166700  1.0  -0.0535
  C  C563  1  0.674600  0.978600  0.252000  1.0  0.194
  C  C564  1  0.660200  0.892700  0.311900  1.0  0.2664
  C  C565  1  0.672600  0.934000  0.334100  1.0  -0.1502
  C  C566  1  0.665800  0.930800  0.229100  1.0  -0.1797
  C  C567  1  0.657200  0.889400  0.259800  1.0  -0.1449
  C  C568  1  0.682100  0.982400  0.302400  1.0  -0.182
  C  C569  1  0.735900  0.812300  0.923500  1.0  0.1403
  C  C570  1  0.655200  0.803000  0.923300  1.0  0.0396
  C  C571  1  0.666667  0.807000  0.970900  1.0  -0.0553
  C  C572  1  0.752000  0.825400  0.021400  1.0  0.1943
  C  C573  1  0.811900  0.839800  0.107300  1.0  0.265
  C  C574  1  0.834100  0.827400  0.066000  1.0  -0.1518
  C  C575  1  0.729100  0.834200  0.069200  1.0  -0.1824
  C  C576  1  0.759800  0.842800  0.110600  1.0  -0.1413
  C  C577  1  0.802400  0.817900  0.017600  1.0  -0.1787
  C  C578  1  0.764100  0.187700  0.423500  1.0  0.1403
  C  C579  1  0.844800  0.197000  0.423300  1.0  0.0414
  C  C580  1  0.833300  0.193000  0.470900  1.0  -0.0518
  C  C581  1  0.748000  0.174600  0.521400  1.0  0.1946
  C  C582  1  0.688100  0.160200  0.607300  1.0  0.2653
  C  C583  1  0.665900  0.172600  0.566000  1.0  -0.1515
  C  C584  1  0.770900  0.165800  0.569200  1.0  -0.1825
  C  C585  1  0.740200  0.157200  0.610600  1.0  -0.141
  C  C586  1  0.697600  0.182100  0.517600  1.0  -0.1802
  C  C587  1  0.264100  0.312300  0.576500  1.0  0.1396
  C  C588  1  0.344800  0.303000  0.576700  1.0  0.0411
  C  C589  1  0.333333  0.307000  0.529100  1.0  -0.0535
  C  C590  1  0.248000  0.325400  0.478600  1.0  0.195
  C  C591  1  0.188100  0.339800  0.392700  1.0  0.2663
  C  C592  1  0.165900  0.327400  0.434000  1.0  -0.1507
  C  C593  1  0.270900  0.334200  0.430800  1.0  -0.182
  C  C594  1  0.240200  0.342800  0.389400  1.0  -0.1397
  C  C595  1  0.197600  0.317900  0.482400  1.0  -0.1824
  C  C596  1  0.235900  0.687700  0.076500  1.0  0.1404
  C  C597  1  0.155200  0.697000  0.076700  1.0  0.0388
  C  C598  1  0.166700  0.693000  0.029100  1.0  -0.0546
  C  C599  1  0.252000  0.674600  0.978600  1.0  0.1937
  C  C600  1  0.311900  0.660200  0.892700  1.0  0.2667
  C  C601  1  0.334100  0.672600  0.934000  1.0  -0.1502
  C  C602  1  0.229100  0.665800  0.930800  1.0  -0.1826
  C  C603  1  0.259800  0.657200  0.889400  1.0  -0.1409
  C  C604  1  0.302400  0.682100  0.982400  1.0  -0.179
  C  C605  1  0.923500  0.235900  0.312300  1.0  0.1389
  C  C606  1  0.923300  0.155200  0.303000  1.0  0.0401
  C  C607  1  0.970900  0.166700  0.307000  1.0  -0.054
  C  C608  1  0.021400  0.252000  0.325400  1.0  0.1959
  C  C609  1  0.107300  0.311900  0.339800  1.0  0.2619
  C  C610  1  0.066000  0.334100  0.327400  1.0  -0.153
  C  C611  1  0.069200  0.229100  0.334200  1.0  -0.189
  C  C612  1  0.110600  0.259800  0.342800  1.0  -0.1444
  C  C613  1  0.017600  0.302400  0.317900  1.0  -0.1869
  C  C614  1  0.423500  0.264100  0.687700  1.0  0.1389
  C  C615  1  0.423300  0.344800  0.697000  1.0  0.0407
  C  C616  1  0.470900  0.333333  0.693000  1.0  -0.0536
  C  C617  1  0.521400  0.248000  0.674600  1.0  0.1935
  C  C618  1  0.607300  0.188100  0.660200  1.0  0.2623
  C  C619  1  0.566000  0.165900  0.672600  1.0  -0.1532
  C  C620  1  0.569200  0.270900  0.665800  1.0  -0.1878
  C  C621  1  0.610600  0.240200  0.657200  1.0  -0.1439
  C  C622  1  0.517600  0.197600  0.682100  1.0  -0.1853
  C  C623  1  0.576500  0.764100  0.812300  1.0  0.1392
  C  C624  1  0.576700  0.844800  0.803000  1.0  0.0419
  C  C625  1  0.529100  0.833300  0.807000  1.0  -0.0551
  C  C626  1  0.478600  0.748000  0.825400  1.0  0.1958
  C  C627  1  0.392700  0.688100  0.839800  1.0  0.2614
  C  C628  1  0.434000  0.665900  0.827400  1.0  -0.1508
  C  C629  1  0.430800  0.770900  0.834200  1.0  -0.1899
  C  C630  1  0.389400  0.740200  0.842800  1.0  -0.1464
  C  C631  1  0.482400  0.697600  0.817900  1.0  -0.1859
  C  C632  1  0.076500  0.735900  0.187700  1.0  0.1391
  C  C633  1  0.076700  0.655200  0.197000  1.0  0.0419
  C  C634  1  0.029100  0.666667  0.193000  1.0  -0.0541
  C  C635  1  0.978600  0.752000  0.174600  1.0  0.192
  C  C636  1  0.892700  0.811900  0.160200  1.0  0.2628
  C  C637  1  0.934000  0.834100  0.172600  1.0  -0.1523
  C  C638  1  0.930800  0.729100  0.165800  1.0  -0.1896
  C  C639  1  0.889400  0.759800  0.157200  1.0  -0.1465
  C  C640  1  0.982400  0.802400  0.182100  1.0  -0.184
  C  C641  1  0.312300  0.423500  0.735900  1.0  0.1395
  C  C642  1  0.303000  0.423300  0.655200  1.0  0.0474
  C  C643  1  0.307000  0.470900  0.666667  1.0  -0.0543
  C  C644  1  0.325400  0.521400  0.752000  1.0  0.1944
  C  C645  1  0.339800  0.607300  0.811900  1.0  0.2666
  C  C646  1  0.327400  0.566000  0.834100  1.0  -0.1497
  C  C647  1  0.334200  0.569200  0.729100  1.0  -0.1803
  C  C648  1  0.342800  0.610600  0.759800  1.0  -0.1428
  C  C649  1  0.317900  0.517600  0.802400  1.0  -0.1758
  C  C650  1  0.687700  0.923500  0.764100  1.0  0.1396
  C  C651  1  0.697000  0.923300  0.844800  1.0  0.0465
  C  C652  1  0.693000  0.970900  0.833300  1.0  -0.0515
  C  C653  1  0.674600  0.021400  0.748000  1.0  0.1946
  C  C654  1  0.660200  0.107300  0.688100  1.0  0.2665
  C  C655  1  0.672600  0.066000  0.665900  1.0  -0.1496
  C  C656  1  0.665800  0.069200  0.770900  1.0  -0.1798
  C  C657  1  0.657200  0.110600  0.740200  1.0  -0.143
  C  C658  1  0.682100  0.017600  0.697600  1.0  -0.1818
  C  C659  1  0.812300  0.076500  0.264100  1.0  0.1392
  C  C660  1  0.803000  0.076700  0.344800  1.0  0.0457
  C  C661  1  0.807000  0.029100  0.333333  1.0  -0.0527
  C  C662  1  0.825400  0.978600  0.248000  1.0  0.1937
  C  C663  1  0.839800  0.892700  0.188100  1.0  0.2667
  C  C664  1  0.827400  0.934000  0.165900  1.0  -0.1496
  C  C665  1  0.834200  0.930800  0.270900  1.0  -0.1794
  C  C666  1  0.842800  0.889400  0.240200  1.0  -0.1429
  C  C667  1  0.817900  0.982400  0.197600  1.0  -0.1782
  C  C668  1  0.187700  0.576500  0.235900  1.0  0.1399
  C  C669  1  0.197000  0.576700  0.155200  1.0  0.0469
  C  C670  1  0.193000  0.529100  0.166700  1.0  -0.0535
  C  C671  1  0.174600  0.478600  0.252000  1.0  0.194
  C  C672  1  0.160200  0.392700  0.311900  1.0  0.2664
  C  C673  1  0.172600  0.434000  0.334100  1.0  -0.1502
  C  C674  1  0.165800  0.430800  0.229100  1.0  -0.1797
  C  C675  1  0.157200  0.389400  0.259800  1.0  -0.1449
  C  C676  1  0.182100  0.482400  0.302400  1.0  -0.1821
  C  C677  1  0.735900  0.312300  0.423500  1.0  0.1403
  C  C678  1  0.655200  0.303000  0.423300  1.0  0.0396
  C  C679  1  0.666667  0.307000  0.470900  1.0  -0.0553
  C  C680  1  0.752000  0.325400  0.521400  1.0  0.1943
  C  C681  1  0.811900  0.339800  0.607300  1.0  0.265
  C  C682  1  0.834100  0.327400  0.566000  1.0  -0.1518
  C  C683  1  0.729100  0.334200  0.569200  1.0  -0.1824
  C  C684  1  0.759800  0.342800  0.610600  1.0  -0.1413
  C  C685  1  0.802400  0.317900  0.517600  1.0  -0.1787
  C  C686  1  0.764100  0.687700  0.923500  1.0  0.1403
  C  C687  1  0.844800  0.697000  0.923300  1.0  0.0414
  C  C688  1  0.833300  0.693000  0.970900  1.0  -0.0518
  C  C689  1  0.748000  0.674600  0.021400  1.0  0.1946
  C  C690  1  0.688100  0.660200  0.107300  1.0  0.2653
  C  C691  1  0.665900  0.672600  0.066000  1.0  -0.1515
  C  C692  1  0.770900  0.665800  0.069200  1.0  -0.1825
  C  C693  1  0.740200  0.657200  0.110600  1.0  -0.141
  C  C694  1  0.697600  0.682100  0.017600  1.0  -0.1802
  C  C695  1  0.264100  0.812300  0.076500  1.0  0.1396
  C  C696  1  0.344800  0.803000  0.076700  1.0  0.0411
  C  C697  1  0.333333  0.807000  0.029100  1.0  -0.0535
  C  C698  1  0.248000  0.825400  0.978600  1.0  0.195
  C  C699  1  0.188100  0.839800  0.892700  1.0  0.2663
  C  C700  1  0.165900  0.827400  0.934000  1.0  -0.1507
  C  C701  1  0.270900  0.834200  0.930800  1.0  -0.182
  C  C702  1  0.240200  0.842800  0.889400  1.0  -0.1397
  C  C703  1  0.197600  0.817900  0.982400  1.0  -0.1824
  C  C704  1  0.235900  0.187700  0.576500  1.0  0.1404
  C  C705  1  0.155200  0.197000  0.576700  1.0  0.0388
  C  C706  1  0.166700  0.193000  0.529100  1.0  -0.0546
  C  C707  1  0.252000  0.174600  0.478600  1.0  0.1937
  C  C708  1  0.311900  0.160200  0.392700  1.0  0.2667
  C  C709  1  0.334100  0.172600  0.434000  1.0  -0.1502
  C  C710  1  0.229100  0.165800  0.430800  1.0  -0.1826
  C  C711  1  0.259800  0.157200  0.389400  1.0  -0.1409
  C  C712  1  0.302400  0.182100  0.482400  1.0  -0.179
  C  C713  1  0.923500  0.735900  0.812300  1.0  0.1385
  C  C714  1  0.923300  0.655200  0.803000  1.0  0.0403
  C  C715  1  0.970900  0.666667  0.807000  1.0  -0.055
  C  C716  1  0.021400  0.752000  0.825400  1.0  0.1959
  C  C717  1  0.107300  0.811900  0.839800  1.0  0.2619
  C  C718  1  0.066000  0.834100  0.827400  1.0  -0.153
  C  C719  1  0.069200  0.729100  0.834200  1.0  -0.189
  C  C720  1  0.110600  0.759800  0.842800  1.0  -0.1444
  C  C721  1  0.017600  0.802400  0.817900  1.0  -0.1869
  C  C722  1  0.423500  0.764100  0.187700  1.0  0.1392
  C  C723  1  0.423300  0.844800  0.197000  1.0  0.0406
  C  C724  1  0.470900  0.833300  0.193000  1.0  -0.0534
  C  C725  1  0.521400  0.748000  0.174600  1.0  0.1935
  C  C726  1  0.607300  0.688100  0.160200  1.0  0.2623
  C  C727  1  0.566000  0.665900  0.172600  1.0  -0.1532
  C  C728  1  0.569200  0.770900  0.165800  1.0  -0.1878
  C  C729  1  0.610600  0.740200  0.157200  1.0  -0.1439
  C  C730  1  0.517600  0.697600  0.182100  1.0  -0.1853
  C  C731  1  0.576500  0.264100  0.312300  1.0  0.1389
  C  C732  1  0.576700  0.344800  0.303000  1.0  0.0419
  C  C733  1  0.529100  0.333333  0.307000  1.0  -0.0553
  C  C734  1  0.478600  0.248000  0.325400  1.0  0.1958
  C  C735  1  0.392700  0.188100  0.339800  1.0  0.2614
  C  C736  1  0.434000  0.165900  0.327400  1.0  -0.1508
  C  C737  1  0.430800  0.270900  0.334200  1.0  -0.1899
  C  C738  1  0.389400  0.240200  0.342800  1.0  -0.1464
  C  C739  1  0.482400  0.197600  0.317900  1.0  -0.1859
  C  C740  1  0.076500  0.235900  0.687700  1.0  0.1394
  C  C741  1  0.076700  0.155200  0.697000  1.0  0.0418
  C  C742  1  0.029100  0.166700  0.693000  1.0  -0.053
  C  C743  1  0.978600  0.252000  0.674600  1.0  0.192
  C  C744  1  0.892700  0.311900  0.660200  1.0  0.2628
  C  C745  1  0.934000  0.334100  0.672600  1.0  -0.1523
  C  C746  1  0.930800  0.229100  0.665800  1.0  -0.1896
  C  C747  1  0.889400  0.259800  0.657200  1.0  -0.1465
  C  C748  1  0.982400  0.302400  0.682100  1.0  -0.184
  C  C749  1  0.312300  0.923500  0.235900  1.0  0.1399
  C  C750  1  0.303000  0.923300  0.155200  1.0  0.0472
  C  C751  1  0.307000  0.970900  0.166700  1.0  -0.0536
  C  C752  1  0.325400  0.021400  0.252000  1.0  0.1944
  C  C753  1  0.339800  0.107300  0.311900  1.0  0.2666
  C  C754  1  0.327400  0.066000  0.334100  1.0  -0.1497
  C  C755  1  0.334200  0.069200  0.229100  1.0  -0.1803
  C  C756  1  0.342800  0.110600  0.259800  1.0  -0.1428
  C  C757  1  0.317900  0.017600  0.302400  1.0  -0.1758
  C  C758  1  0.687700  0.423500  0.264100  1.0  0.1392
  C  C759  1  0.697000  0.423300  0.344800  1.0  0.0465
  C  C760  1  0.693000  0.470900  0.333333  1.0  -0.0524
  C  C761  1  0.674600  0.521400  0.248000  1.0  0.1946
  C  C762  1  0.660200  0.607300  0.188100  1.0  0.2665
  C  C763  1  0.672600  0.566000  0.165900  1.0  -0.1496
  C  C764  1  0.665800  0.569200  0.270900  1.0  -0.1798
  C  C765  1  0.657200  0.610600  0.240200  1.0  -0.143
  C  C766  1  0.682100  0.517600  0.197600  1.0  -0.1818
  C  C767  1  0.812300  0.576500  0.764100  1.0  0.1396
  C  C768  1  0.803000  0.576700  0.844800  1.0  0.0458
  C  C769  1  0.807000  0.529100  0.833300  1.0  -0.0516
  C  C770  1  0.825400  0.478600  0.748000  1.0  0.1937
  C  C771  1  0.839800  0.392700  0.688100  1.0  0.2667
  C  C772  1  0.827400  0.434000  0.665900  1.0  -0.1496
  C  C773  1  0.834200  0.430800  0.770900  1.0  -0.1794
  C  C774  1  0.842800  0.389400  0.740200  1.0  -0.1429
  C  C775  1  0.817900  0.482400  0.697600  1.0  -0.1782
  C  C776  1  0.187700  0.076500  0.735900  1.0  0.1395
  C  C777  1  0.197000  0.076700  0.655200  1.0  0.047
  C  C778  1  0.193000  0.029100  0.666667  1.0  -0.0543
  C  C779  1  0.174600  0.978600  0.752000  1.0  0.194
  C  C780  1  0.160200  0.892700  0.811900  1.0  0.2664
  C  C781  1  0.172600  0.934000  0.834100  1.0  -0.1502
  C  C782  1  0.165800  0.930800  0.729100  1.0  -0.1797
  C  C783  1  0.157200  0.889400  0.759800  1.0  -0.1449
  C  C784  1  0.182100  0.982400  0.802400  1.0  -0.182
  N  N785  1  0.197100  0.803500  0.391700  1.0  -0.3925
  N  N786  1  0.221200  0.817500  0.474500  1.0  -0.2442
  N  N787  1  0.302900  0.196500  0.891700  1.0  -0.3923
  N  N788  1  0.278800  0.182500  0.974500  1.0  -0.2437
  N  N789  1  0.802900  0.303500  0.108300  1.0  -0.3923
  N  N790  1  0.778800  0.317500  0.025500  1.0  -0.2436
  N  N791  1  0.697100  0.696500  0.608300  1.0  -0.3927
  N  N792  1  0.721200  0.682500  0.525500  1.0  -0.2432
  N  N793  1  0.391700  0.197100  0.803500  1.0  -0.3944
  N  N794  1  0.474500  0.221200  0.817500  1.0  -0.2409
  N  N795  1  0.891700  0.302900  0.196500  1.0  -0.3949
  N  N796  1  0.974500  0.278800  0.182500  1.0  -0.2433
  N  N797  1  0.108300  0.802900  0.303500  1.0  -0.3887
  N  N798  1  0.025500  0.778800  0.317500  1.0  -0.2408
  N  N799  1  0.608300  0.697100  0.696500  1.0  -0.3886
  N  N800  1  0.525500  0.721200  0.682500  1.0  -0.2423
  N  N801  1  0.803500  0.391700  0.197100  1.0  -0.3968
  N  N802  1  0.817500  0.474500  0.221200  1.0  -0.2448
  N  N803  1  0.196500  0.891700  0.302900  1.0  -0.3965
  N  N804  1  0.182500  0.974500  0.278800  1.0  -0.2445
  N  N805  1  0.303500  0.108300  0.802900  1.0  -0.3949
  N  N806  1  0.317500  0.025500  0.778800  1.0  -0.244
  N  N807  1  0.696500  0.608300  0.697100  1.0  -0.395
  N  N808  1  0.682500  0.525500  0.721200  1.0  -0.2451
  N  N809  1  0.343200  0.843200  0.656800  1.0  -0.202
  N  N810  1  0.656800  0.343200  0.843200  1.0  -0.2017
  N  N811  1  0.843200  0.656800  0.343200  1.0  -0.2013
  N  N812  1  0.156800  0.156800  0.156800  1.0  -0.2009
  N  N813  1  0.197100  0.303500  0.891700  1.0  -0.3925
  N  N814  1  0.221200  0.317500  0.974500  1.0  -0.2442
  N  N815  1  0.302900  0.696500  0.391700  1.0  -0.3923
  N  N816  1  0.278800  0.682500  0.474500  1.0  -0.2437
  N  N817  1  0.802900  0.803500  0.608300  1.0  -0.3923
  N  N818  1  0.778800  0.817500  0.525500  1.0  -0.2436
  N  N819  1  0.697100  0.196500  0.108300  1.0  -0.3927
  N  N820  1  0.721200  0.182500  0.025500  1.0  -0.2432
  N  N821  1  0.391700  0.697100  0.303500  1.0  -0.3945
  N  N822  1  0.474500  0.721200  0.317500  1.0  -0.2402
  N  N823  1  0.891700  0.802900  0.696500  1.0  -0.3948
  N  N824  1  0.974500  0.778800  0.682500  1.0  -0.2434
  N  N825  1  0.108300  0.302900  0.803500  1.0  -0.3888
  N  N826  1  0.025500  0.278800  0.817500  1.0  -0.2401
  N  N827  1  0.608300  0.197100  0.196500  1.0  -0.3884
  N  N828  1  0.525500  0.221200  0.182500  1.0  -0.2423
  N  N829  1  0.803500  0.891700  0.697100  1.0  -0.3969
  N  N830  1  0.817500  0.974500  0.721200  1.0  -0.2437
  N  N831  1  0.196500  0.391700  0.802900  1.0  -0.3963
  N  N832  1  0.182500  0.474500  0.778800  1.0  -0.2457
  N  N833  1  0.303500  0.608300  0.302900  1.0  -0.395
  N  N834  1  0.317500  0.525500  0.278800  1.0  -0.2429
  N  N835  1  0.696500  0.108300  0.197100  1.0  -0.3948
  N  N836  1  0.682500  0.025500  0.221200  1.0  -0.2463
  N  N837  1  0.656800  0.843200  0.343200  1.0  -0.2017
  N  N838  1  0.343200  0.343200  0.156800  1.0  -0.202
  N  N839  1  0.843200  0.156800  0.843200  1.0  -0.2013
  N  N840  1  0.156800  0.656800  0.656800  1.0  -0.2009
  N  N841  1  0.697100  0.803500  0.891700  1.0  -0.3926
  N  N842  1  0.721200  0.817500  0.974500  1.0  -0.2431
  N  N843  1  0.802900  0.196500  0.391700  1.0  -0.3923
  N  N844  1  0.778800  0.182500  0.474500  1.0  -0.2448
  N  N845  1  0.302900  0.303500  0.608300  1.0  -0.3924
  N  N846  1  0.278800  0.317500  0.525500  1.0  -0.2425
  N  N847  1  0.197100  0.696500  0.108300  1.0  -0.3926
  N  N848  1  0.221200  0.682500  0.025500  1.0  -0.2443
  N  N849  1  0.891700  0.197100  0.303500  1.0  -0.3944
  N  N850  1  0.974500  0.221200  0.317500  1.0  -0.2409
  N  N851  1  0.391700  0.302900  0.696500  1.0  -0.3949
  N  N852  1  0.474500  0.278800  0.682500  1.0  -0.2433
  N  N853  1  0.608300  0.802900  0.803500  1.0  -0.3887
  N  N854  1  0.525500  0.778800  0.817500  1.0  -0.2408
  N  N855  1  0.108300  0.697100  0.196500  1.0  -0.3886
  N  N856  1  0.025500  0.721200  0.182500  1.0  -0.2423
  N  N857  1  0.303500  0.391700  0.697100  1.0  -0.3969
  N  N858  1  0.317500  0.474500  0.721200  1.0  -0.2437
  N  N859  1  0.696500  0.891700  0.802900  1.0  -0.3963
  N  N860  1  0.682500  0.974500  0.778800  1.0  -0.2457
  N  N861  1  0.803500  0.108300  0.302900  1.0  -0.395
  N  N862  1  0.817500  0.025500  0.278800  1.0  -0.2429
  N  N863  1  0.196500  0.608300  0.197100  1.0  -0.3948
  N  N864  1  0.182500  0.525500  0.221200  1.0  -0.2463
  N  N865  1  0.656800  0.156800  0.656800  1.0  -0.2009
  N  N866  1  0.343200  0.656800  0.843200  1.0  -0.2013
  N  N867  1  0.843200  0.843200  0.156800  1.0  -0.202
  N  N868  1  0.156800  0.343200  0.343200  1.0  -0.2017
  N  N869  1  0.697100  0.303500  0.391700  1.0  -0.3926
  N  N870  1  0.721200  0.317500  0.474500  1.0  -0.2431
  N  N871  1  0.802900  0.696500  0.891700  1.0  -0.3923
  N  N872  1  0.778800  0.682500  0.974500  1.0  -0.2448
  N  N873  1  0.302900  0.803500  0.108300  1.0  -0.3924
  N  N874  1  0.278800  0.817500  0.025500  1.0  -0.2425
  N  N875  1  0.197100  0.196500  0.608300  1.0  -0.3926
  N  N876  1  0.221200  0.182500  0.525500  1.0  -0.2443
  N  N877  1  0.891700  0.697100  0.803500  1.0  -0.3945
  N  N878  1  0.974500  0.721200  0.817500  1.0  -0.2402
  N  N879  1  0.391700  0.802900  0.196500  1.0  -0.3948
  N  N880  1  0.474500  0.778800  0.182500  1.0  -0.2434
  N  N881  1  0.608300  0.302900  0.303500  1.0  -0.3888
  N  N882  1  0.525500  0.278800  0.317500  1.0  -0.2401
  N  N883  1  0.108300  0.197100  0.696500  1.0  -0.3884
  N  N884  1  0.025500  0.221200  0.682500  1.0  -0.2423
  N  N885  1  0.303500  0.891700  0.197100  1.0  -0.3968
  N  N886  1  0.317500  0.974500  0.221200  1.0  -0.2448
  N  N887  1  0.696500  0.391700  0.302900  1.0  -0.3965
  N  N888  1  0.682500  0.474500  0.278800  1.0  -0.2445
  N  N889  1  0.803500  0.608300  0.802900  1.0  -0.3949
  N  N890  1  0.817500  0.525500  0.778800  1.0  -0.244
  N  N891  1  0.196500  0.108300  0.697100  1.0  -0.395
  N  N892  1  0.182500  0.025500  0.721200  1.0  -0.2451
  N  N893  1  0.343200  0.156800  0.343200  1.0  -0.2013
  N  N894  1  0.656800  0.656800  0.156800  1.0  -0.2009
  N  N895  1  0.843200  0.343200  0.656800  1.0  -0.202
  N  N896  1  0.156800  0.843200  0.843200  1.0  -0.2017
