# generated using pymatgen
data_CdH21C27N7
_symmetry_space_group_name_H-M   'P 1'
_cell_length_a   25.39610000
_cell_length_b   25.39610000
_cell_length_c   25.39610000
_cell_angle_alpha   90.00000000
_cell_angle_beta   90.00000000
_cell_angle_gamma   90.00000000
_symmetry_Int_Tables_number   1
_chemical_formula_structural   CdH21C27N7
_chemical_formula_sum   'Cd16 H336 C432 N112'
_cell_volume   16379.51678694
_cell_formula_units_Z   16
loop_
 _symmetry_equiv_pos_site_id
 _symmetry_equiv_pos_as_xyz
  1  'x, y, z'
loop_
 _atom_site_type_symbol
 _atom_site_label
 _atom_site_symmetry_multiplicity
 _atom_site_fract_x
 _atom_site_fract_y
 _atom_site_fract_z
 _atom_site_occupancy
 _atom_site_charge
  Cd  Cd1  1  0.200110  0.299890  0.200110  1.0  0.6314
  Cd  Cd2  1  0.799890  0.799890  0.299890  1.0  0.6326
  Cd  Cd3  1  0.299890  0.700110  0.700110  1.0  0.6315
  Cd  Cd4  1  0.700110  0.200110  0.799890  1.0  0.6311
  Cd  Cd5  1  0.299890  0.200110  0.200110  1.0  0.6315
  Cd  Cd6  1  0.799890  0.299890  0.799890  1.0  0.6326
  Cd  Cd7  1  0.200110  0.799890  0.700110  1.0  0.6314
  Cd  Cd8  1  0.700110  0.700110  0.299890  1.0  0.6311
  Cd  Cd9  1  0.799890  0.700110  0.200110  1.0  0.6315
  Cd  Cd10  1  0.200110  0.200110  0.299890  1.0  0.6311
  Cd  Cd11  1  0.299890  0.799890  0.799890  1.0  0.6326
  Cd  Cd12  1  0.700110  0.299890  0.700110  1.0  0.6314
  Cd  Cd13  1  0.299890  0.299890  0.299890  1.0  0.6326
  Cd  Cd14  1  0.200110  0.700110  0.799890  1.0  0.6311
  Cd  Cd15  1  0.799890  0.200110  0.700110  1.0  0.6315
  Cd  Cd16  1  0.700110  0.799890  0.200110  1.0  0.6314
  H  H17  1  0.186400  0.412600  0.273700  1.0  0.0725
  H  H18  1  0.201000  0.414200  0.121700  1.0  0.0691
  H  H19  1  0.182400  0.501600  0.148700  1.0  0.0898
  H  H20  1  0.165200  0.568100  0.191800  1.0  0.0951
  H  H21  1  0.148300  0.643100  0.242600  1.0  0.0915
  H  H22  1  0.168700  0.557400  0.375800  1.0  0.0873
  H  H23  1  0.185500  0.482400  0.324900  1.0  0.0969
  H  H24  1  0.313600  0.587400  0.773700  1.0  0.0717
  H  H25  1  0.299000  0.585800  0.621700  1.0  0.0687
  H  H26  1  0.317600  0.498400  0.648700  1.0  0.0908
  H  H27  1  0.334800  0.431900  0.691800  1.0  0.095
  H  H28  1  0.351700  0.356900  0.742600  1.0  0.0914
  H  H29  1  0.331300  0.442600  0.875800  1.0  0.0866
  H  H30  1  0.314500  0.517600  0.824900  1.0  0.0955
  H  H31  1  0.813600  0.912600  0.226300  1.0  0.0722
  H  H32  1  0.799000  0.914200  0.378300  1.0  0.0696
  H  H33  1  0.817600  0.001600  0.351300  1.0  0.0904
  H  H34  1  0.834800  0.068100  0.308200  1.0  0.0934
  H  H35  1  0.851700  0.143100  0.257400  1.0  0.0915
  H  H36  1  0.831300  0.057400  0.124200  1.0  0.0875
  H  H37  1  0.814500  0.982400  0.175100  1.0  0.0971
  H  H38  1  0.686400  0.087400  0.726300  1.0  0.0727
  H  H39  1  0.701000  0.085800  0.878300  1.0  0.0697
  H  H40  1  0.682400  0.998400  0.851300  1.0  0.0915
  H  H41  1  0.665200  0.931900  0.808200  1.0  0.0941
  H  H42  1  0.648300  0.856900  0.757400  1.0  0.0914
  H  H43  1  0.668700  0.942600  0.624200  1.0  0.087
  H  H44  1  0.685500  0.017600  0.675100  1.0  0.0968
  H  H45  1  0.773700  0.186400  0.912600  1.0  0.0722
  H  H46  1  0.621700  0.201000  0.914200  1.0  0.0676
  H  H47  1  0.648700  0.182400  0.001600  1.0  0.0897
  H  H48  1  0.691800  0.165200  0.068100  1.0  0.0912
  H  H49  1  0.742600  0.148300  0.143100  1.0  0.0914
  H  H50  1  0.875800  0.168700  0.057400  1.0  0.0862
  H  H51  1  0.824900  0.185500  0.982400  1.0  0.0977
  H  H52  1  0.273700  0.313600  0.087400  1.0  0.0724
  H  H53  1  0.121700  0.299000  0.085800  1.0  0.0678
  H  H54  1  0.148700  0.317600  0.998400  1.0  0.088
  H  H55  1  0.191800  0.334800  0.931900  1.0  0.0917
  H  H56  1  0.242600  0.351700  0.856900  1.0  0.0921
  H  H57  1  0.375800  0.331300  0.942600  1.0  0.0855
  H  H58  1  0.324900  0.314500  0.017600  1.0  0.0974
  H  H59  1  0.726300  0.813600  0.412600  1.0  0.073
  H  H60  1  0.878300  0.799000  0.414200  1.0  0.068
  H  H61  1  0.851300  0.817600  0.501600  1.0  0.0889
  H  H62  1  0.808200  0.834800  0.568100  1.0  0.0922
  H  H63  1  0.757400  0.851700  0.643100  1.0  0.0914
  H  H64  1  0.624200  0.831300  0.557400  1.0  0.0855
  H  H65  1  0.675100  0.814500  0.482400  1.0  0.0968
  H  H66  1  0.226300  0.686400  0.587400  1.0  0.073
  H  H67  1  0.378300  0.701000  0.585800  1.0  0.068
  H  H68  1  0.351300  0.682400  0.498400  1.0  0.0885
  H  H69  1  0.308200  0.665200  0.431900  1.0  0.092
  H  H70  1  0.257400  0.648300  0.356900  1.0  0.0922
  H  H71  1  0.124200  0.668700  0.442600  1.0  0.0863
  H  H72  1  0.175100  0.685500  0.517600  1.0  0.0974
  H  H73  1  0.412600  0.773700  0.686400  1.0  0.0734
  H  H74  1  0.414200  0.621700  0.701000  1.0  0.0681
  H  H75  1  0.501600  0.648700  0.682400  1.0  0.0894
  H  H76  1  0.568100  0.691800  0.665200  1.0  0.0942
  H  H77  1  0.643100  0.742600  0.648300  1.0  0.0917
  H  H78  1  0.557400  0.875800  0.668700  1.0  0.0868
  H  H79  1  0.482400  0.824900  0.685500  1.0  0.0976
  H  H80  1  0.587400  0.273700  0.813600  1.0  0.0725
  H  H81  1  0.585800  0.121700  0.799000  1.0  0.0683
  H  H82  1  0.498400  0.148700  0.817600  1.0  0.0897
  H  H83  1  0.431900  0.191800  0.834800  1.0  0.0944
  H  H84  1  0.356900  0.242600  0.851700  1.0  0.0912
  H  H85  1  0.442600  0.375800  0.831300  1.0  0.0866
  H  H86  1  0.517600  0.324900  0.814500  1.0  0.0972
  H  H87  1  0.912600  0.726300  0.313600  1.0  0.0727
  H  H88  1  0.914200  0.878300  0.299000  1.0  0.0686
  H  H89  1  0.001600  0.851300  0.317600  1.0  0.09
  H  H90  1  0.068100  0.808200  0.334800  1.0  0.094
  H  H91  1  0.143100  0.757400  0.351700  1.0  0.0914
  H  H92  1  0.057400  0.624200  0.331300  1.0  0.0862
  H  H93  1  0.982400  0.675100  0.314500  1.0  0.0967
  H  H94  1  0.087400  0.226300  0.186400  1.0  0.0725
  H  H95  1  0.085800  0.378300  0.201000  1.0  0.0695
  H  H96  1  0.998400  0.351300  0.182400  1.0  0.0897
  H  H97  1  0.931900  0.308200  0.165200  1.0  0.0943
  H  H98  1  0.856900  0.257400  0.148300  1.0  0.0914
  H  H99  1  0.942600  0.124200  0.168700  1.0  0.0871
  H  H100  1  0.017600  0.175100  0.185500  1.0  0.0974
  H  H101  1  0.186400  0.912600  0.773700  1.0  0.0725
  H  H102  1  0.201000  0.914200  0.621700  1.0  0.0691
  H  H103  1  0.182400  0.001600  0.648700  1.0  0.0898
  H  H104  1  0.165200  0.068100  0.691800  1.0  0.0951
  H  H105  1  0.148300  0.143100  0.742600  1.0  0.0915
  H  H106  1  0.168700  0.057400  0.875800  1.0  0.0873
  H  H107  1  0.185500  0.982400  0.824900  1.0  0.0969
  H  H108  1  0.313600  0.087400  0.273700  1.0  0.0717
  H  H109  1  0.299000  0.085800  0.121700  1.0  0.0687
  H  H110  1  0.317600  0.998400  0.148700  1.0  0.0908
  H  H111  1  0.334800  0.931900  0.191800  1.0  0.095
  H  H112  1  0.351700  0.856900  0.242600  1.0  0.0914
  H  H113  1  0.331300  0.942600  0.375800  1.0  0.0866
  H  H114  1  0.314500  0.017600  0.324900  1.0  0.0955
  H  H115  1  0.813600  0.412600  0.726300  1.0  0.0722
  H  H116  1  0.799000  0.414200  0.878300  1.0  0.0696
  H  H117  1  0.817600  0.501600  0.851300  1.0  0.0904
  H  H118  1  0.834800  0.568100  0.808200  1.0  0.0934
  H  H119  1  0.851700  0.643100  0.757400  1.0  0.0915
  H  H120  1  0.831300  0.557400  0.624200  1.0  0.0875
  H  H121  1  0.814500  0.482400  0.675100  1.0  0.0971
  H  H122  1  0.686400  0.587400  0.226300  1.0  0.0727
  H  H123  1  0.701000  0.585800  0.378300  1.0  0.0697
  H  H124  1  0.682400  0.498400  0.351300  1.0  0.0915
  H  H125  1  0.665200  0.431900  0.308200  1.0  0.0941
  H  H126  1  0.648300  0.356900  0.257400  1.0  0.0914
  H  H127  1  0.668700  0.442600  0.124200  1.0  0.087
  H  H128  1  0.685500  0.517600  0.175100  1.0  0.0968
  H  H129  1  0.773700  0.686400  0.412600  1.0  0.0722
  H  H130  1  0.621700  0.701000  0.414200  1.0  0.0676
  H  H131  1  0.648700  0.682400  0.501600  1.0  0.0897
  H  H132  1  0.691800  0.665200  0.568100  1.0  0.09
  H  H133  1  0.742600  0.648300  0.643100  1.0  0.0914
  H  H134  1  0.875800  0.668700  0.557400  1.0  0.0862
  H  H135  1  0.824900  0.685500  0.482400  1.0  0.0977
  H  H136  1  0.273700  0.813600  0.587400  1.0  0.0724
  H  H137  1  0.121700  0.799000  0.585800  1.0  0.0678
  H  H138  1  0.148700  0.817600  0.498400  1.0  0.088
  H  H139  1  0.191800  0.834800  0.431900  1.0  0.0905
  H  H140  1  0.242600  0.851700  0.356900  1.0  0.0921
  H  H141  1  0.375800  0.831300  0.442600  1.0  0.0855
  H  H142  1  0.324900  0.814500  0.517600  1.0  0.0974
  H  H143  1  0.726300  0.313600  0.912600  1.0  0.073
  H  H144  1  0.878300  0.299000  0.914200  1.0  0.068
  H  H145  1  0.851300  0.317600  0.001600  1.0  0.0889
  H  H146  1  0.808200  0.334800  0.068100  1.0  0.0911
  H  H147  1  0.757400  0.351700  0.143100  1.0  0.0914
  H  H148  1  0.624200  0.331300  0.057400  1.0  0.0855
  H  H149  1  0.675100  0.314500  0.982400  1.0  0.0968
  H  H150  1  0.226300  0.186400  0.087400  1.0  0.073
  H  H151  1  0.378300  0.201000  0.085800  1.0  0.068
  H  H152  1  0.351300  0.182400  0.998400  1.0  0.0885
  H  H153  1  0.308200  0.165200  0.931900  1.0  0.0909
  H  H154  1  0.257400  0.148300  0.856900  1.0  0.0922
  H  H155  1  0.124200  0.168700  0.942600  1.0  0.0863
  H  H156  1  0.175100  0.185500  0.017600  1.0  0.0974
  H  H157  1  0.412600  0.273700  0.186400  1.0  0.0734
  H  H158  1  0.414200  0.121700  0.201000  1.0  0.0681
  H  H159  1  0.501600  0.148700  0.182400  1.0  0.0894
  H  H160  1  0.568100  0.191800  0.165200  1.0  0.0942
  H  H161  1  0.643100  0.242600  0.148300  1.0  0.0917
  H  H162  1  0.557400  0.375800  0.168700  1.0  0.0868
  H  H163  1  0.482400  0.324900  0.185500  1.0  0.0976
  H  H164  1  0.587400  0.773700  0.313600  1.0  0.0725
  H  H165  1  0.585800  0.621700  0.299000  1.0  0.0683
  H  H166  1  0.498400  0.648700  0.317600  1.0  0.0897
  H  H167  1  0.431900  0.691800  0.334800  1.0  0.0944
  H  H168  1  0.356900  0.742600  0.351700  1.0  0.0912
  H  H169  1  0.442600  0.875800  0.331300  1.0  0.0866
  H  H170  1  0.517600  0.824900  0.314500  1.0  0.0972
  H  H171  1  0.912600  0.226300  0.813600  1.0  0.0727
  H  H172  1  0.914200  0.378300  0.799000  1.0  0.0686
  H  H173  1  0.001600  0.351300  0.817600  1.0  0.09
  H  H174  1  0.068100  0.308200  0.834800  1.0  0.094
  H  H175  1  0.143100  0.257400  0.851700  1.0  0.0914
  H  H176  1  0.057400  0.124200  0.831300  1.0  0.0862
  H  H177  1  0.982400  0.175100  0.814500  1.0  0.0967
  H  H178  1  0.087400  0.726300  0.686400  1.0  0.0725
  H  H179  1  0.085800  0.878300  0.701000  1.0  0.0695
  H  H180  1  0.998400  0.851300  0.682400  1.0  0.0897
  H  H181  1  0.931900  0.808200  0.665200  1.0  0.0943
  H  H182  1  0.856900  0.757400  0.648300  1.0  0.0914
  H  H183  1  0.942600  0.624200  0.668700  1.0  0.0871
  H  H184  1  0.017600  0.675100  0.685500  1.0  0.0974
  H  H185  1  0.686400  0.412600  0.773700  1.0  0.0725
  H  H186  1  0.701000  0.414200  0.621700  1.0  0.0691
  H  H187  1  0.682400  0.501600  0.648700  1.0  0.0898
  H  H188  1  0.665200  0.568100  0.691800  1.0  0.094
  H  H189  1  0.648300  0.643100  0.742600  1.0  0.0915
  H  H190  1  0.668700  0.557400  0.875800  1.0  0.0873
  H  H191  1  0.685500  0.482400  0.824900  1.0  0.0969
  H  H192  1  0.813600  0.587400  0.273700  1.0  0.0717
  H  H193  1  0.799000  0.585800  0.121700  1.0  0.0687
  H  H194  1  0.817600  0.498400  0.148700  1.0  0.0908
  H  H195  1  0.834800  0.431900  0.191800  1.0  0.0939
  H  H196  1  0.851700  0.356900  0.242600  1.0  0.0914
  H  H197  1  0.831300  0.442600  0.375800  1.0  0.0866
  H  H198  1  0.814500  0.517600  0.324900  1.0  0.0955
  H  H199  1  0.313600  0.912600  0.726300  1.0  0.0722
  H  H200  1  0.299000  0.914200  0.878300  1.0  0.0696
  H  H201  1  0.317600  0.001600  0.851300  1.0  0.0904
  H  H202  1  0.334800  0.068100  0.808200  1.0  0.0924
  H  H203  1  0.351700  0.143100  0.757400  1.0  0.0915
  H  H204  1  0.331300  0.057400  0.624200  1.0  0.0875
  H  H205  1  0.314500  0.982400  0.675100  1.0  0.0971
  H  H206  1  0.186400  0.087400  0.226300  1.0  0.0727
  H  H207  1  0.201000  0.085800  0.378300  1.0  0.0697
  H  H208  1  0.182400  0.998400  0.351300  1.0  0.0915
  H  H209  1  0.165200  0.931900  0.308200  1.0  0.0931
  H  H210  1  0.148300  0.856900  0.257400  1.0  0.0914
  H  H211  1  0.168700  0.942600  0.124200  1.0  0.087
  H  H212  1  0.185500  0.017600  0.175100  1.0  0.0968
  H  H213  1  0.273700  0.186400  0.412600  1.0  0.0722
  H  H214  1  0.121700  0.201000  0.414200  1.0  0.0676
  H  H215  1  0.148700  0.182400  0.501600  1.0  0.0897
  H  H216  1  0.191800  0.165200  0.568100  1.0  0.0912
  H  H217  1  0.242600  0.148300  0.643100  1.0  0.0914
  H  H218  1  0.375800  0.168700  0.557400  1.0  0.0862
  H  H219  1  0.324900  0.185500  0.482400  1.0  0.0977
  H  H220  1  0.773700  0.313600  0.587400  1.0  0.0724
  H  H221  1  0.621700  0.299000  0.585800  1.0  0.0678
  H  H222  1  0.648700  0.317600  0.498400  1.0  0.088
  H  H223  1  0.691800  0.334800  0.431900  1.0  0.0917
  H  H224  1  0.742600  0.351700  0.356900  1.0  0.0921
  H  H225  1  0.875800  0.331300  0.442600  1.0  0.0855
  H  H226  1  0.824900  0.314500  0.517600  1.0  0.0974
  H  H227  1  0.226300  0.813600  0.912600  1.0  0.073
  H  H228  1  0.378300  0.799000  0.914200  1.0  0.068
  H  H229  1  0.351300  0.817600  0.001600  1.0  0.0889
  H  H230  1  0.308200  0.834800  0.068100  1.0  0.0922
  H  H231  1  0.257400  0.851700  0.143100  1.0  0.0914
  H  H232  1  0.124200  0.831300  0.057400  1.0  0.0855
  H  H233  1  0.175100  0.814500  0.982400  1.0  0.0968
  H  H234  1  0.726300  0.686400  0.087400  1.0  0.073
  H  H235  1  0.878300  0.701000  0.085800  1.0  0.068
  H  H236  1  0.851300  0.682400  0.998400  1.0  0.0885
  H  H237  1  0.808200  0.665200  0.931900  1.0  0.092
  H  H238  1  0.757400  0.648300  0.856900  1.0  0.0922
  H  H239  1  0.624200  0.668700  0.942600  1.0  0.0863
  H  H240  1  0.675100  0.685500  0.017600  1.0  0.0974
  H  H241  1  0.912600  0.773700  0.186400  1.0  0.0734
  H  H242  1  0.914200  0.621700  0.201000  1.0  0.0681
  H  H243  1  0.001600  0.648700  0.182400  1.0  0.0894
  H  H244  1  0.068100  0.691800  0.165200  1.0  0.0931
  H  H245  1  0.143100  0.742600  0.148300  1.0  0.0917
  H  H246  1  0.057400  0.875800  0.168700  1.0  0.0868
  H  H247  1  0.982400  0.824900  0.185500  1.0  0.0976
  H  H248  1  0.087400  0.273700  0.313600  1.0  0.0725
  H  H249  1  0.085800  0.121700  0.299000  1.0  0.0683
  H  H250  1  0.998400  0.148700  0.317600  1.0  0.0897
  H  H251  1  0.931900  0.191800  0.334800  1.0  0.0933
  H  H252  1  0.856900  0.242600  0.351700  1.0  0.0912
  H  H253  1  0.942600  0.375800  0.331300  1.0  0.0866
  H  H254  1  0.017600  0.324900  0.314500  1.0  0.0972
  H  H255  1  0.412600  0.726300  0.813600  1.0  0.0727
  H  H256  1  0.414200  0.878300  0.799000  1.0  0.0686
  H  H257  1  0.501600  0.851300  0.817600  1.0  0.09
  H  H258  1  0.568100  0.808200  0.834800  1.0  0.0931
  H  H259  1  0.643100  0.757400  0.851700  1.0  0.0914
  H  H260  1  0.557400  0.624200  0.831300  1.0  0.0862
  H  H261  1  0.482400  0.675100  0.814500  1.0  0.0967
  H  H262  1  0.587400  0.226300  0.686400  1.0  0.0725
  H  H263  1  0.585800  0.378300  0.701000  1.0  0.0695
  H  H264  1  0.498400  0.351300  0.682400  1.0  0.0897
  H  H265  1  0.431900  0.308200  0.665200  1.0  0.0933
  H  H266  1  0.356900  0.257400  0.648300  1.0  0.0914
  H  H267  1  0.442600  0.124200  0.668700  1.0  0.0871
  H  H268  1  0.517600  0.175100  0.685500  1.0  0.0974
  H  H269  1  0.686400  0.912600  0.273700  1.0  0.0725
  H  H270  1  0.701000  0.914200  0.121700  1.0  0.0691
  H  H271  1  0.682400  0.001600  0.148700  1.0  0.0898
  H  H272  1  0.665200  0.068100  0.191800  1.0  0.094
  H  H273  1  0.648300  0.143100  0.242600  1.0  0.0915
  H  H274  1  0.668700  0.057400  0.375800  1.0  0.0873
  H  H275  1  0.685500  0.982400  0.324900  1.0  0.0969
  H  H276  1  0.813600  0.087400  0.773700  1.0  0.0717
  H  H277  1  0.799000  0.085800  0.621700  1.0  0.0687
  H  H278  1  0.817600  0.998400  0.648700  1.0  0.0908
  H  H279  1  0.834800  0.931900  0.691800  1.0  0.0939
  H  H280  1  0.851700  0.856900  0.742600  1.0  0.0914
  H  H281  1  0.831300  0.942600  0.875800  1.0  0.0866
  H  H282  1  0.814500  0.017600  0.824900  1.0  0.0955
  H  H283  1  0.313600  0.412600  0.226300  1.0  0.0722
  H  H284  1  0.299000  0.414200  0.378300  1.0  0.0696
  H  H285  1  0.317600  0.501600  0.351300  1.0  0.0904
  H  H286  1  0.334800  0.568100  0.308200  1.0  0.0924
  H  H287  1  0.351700  0.643100  0.257400  1.0  0.0915
  H  H288  1  0.331300  0.557400  0.124200  1.0  0.0875
  H  H289  1  0.314500  0.482400  0.175100  1.0  0.0971
  H  H290  1  0.186400  0.587400  0.726300  1.0  0.0727
  H  H291  1  0.201000  0.585800  0.878300  1.0  0.0697
  H  H292  1  0.182400  0.498400  0.851300  1.0  0.0915
  H  H293  1  0.165200  0.431900  0.808200  1.0  0.0931
  H  H294  1  0.148300  0.356900  0.757400  1.0  0.0914
  H  H295  1  0.168700  0.442600  0.624200  1.0  0.087
  H  H296  1  0.185500  0.517600  0.675100  1.0  0.0968
  H  H297  1  0.273700  0.686400  0.912600  1.0  0.0722
  H  H298  1  0.121700  0.701000  0.914200  1.0  0.0676
  H  H299  1  0.148700  0.682400  0.001600  1.0  0.0897
  H  H300  1  0.191800  0.665200  0.068100  1.0  0.09
  H  H301  1  0.242600  0.648300  0.143100  1.0  0.0914
  H  H302  1  0.375800  0.668700  0.057400  1.0  0.0862
  H  H303  1  0.324900  0.685500  0.982400  1.0  0.0977
  H  H304  1  0.773700  0.813600  0.087400  1.0  0.0724
  H  H305  1  0.621700  0.799000  0.085800  1.0  0.0678
  H  H306  1  0.648700  0.817600  0.998400  1.0  0.088
  H  H307  1  0.691800  0.834800  0.931900  1.0  0.0905
  H  H308  1  0.742600  0.851700  0.856900  1.0  0.0921
  H  H309  1  0.875800  0.831300  0.942600  1.0  0.0855
  H  H310  1  0.824900  0.814500  0.017600  1.0  0.0974
  H  H311  1  0.226300  0.313600  0.412600  1.0  0.073
  H  H312  1  0.378300  0.299000  0.414200  1.0  0.068
  H  H313  1  0.351300  0.317600  0.501600  1.0  0.0889
  H  H314  1  0.308200  0.334800  0.568100  1.0  0.0911
  H  H315  1  0.257400  0.351700  0.643100  1.0  0.0914
  H  H316  1  0.124200  0.331300  0.557400  1.0  0.0855
  H  H317  1  0.175100  0.314500  0.482400  1.0  0.0968
  H  H318  1  0.726300  0.186400  0.587400  1.0  0.073
  H  H319  1  0.878300  0.201000  0.585800  1.0  0.068
  H  H320  1  0.851300  0.182400  0.498400  1.0  0.0885
  H  H321  1  0.808200  0.165200  0.431900  1.0  0.0909
  H  H322  1  0.757400  0.148300  0.356900  1.0  0.0922
  H  H323  1  0.624200  0.168700  0.442600  1.0  0.0863
  H  H324  1  0.675100  0.185500  0.517600  1.0  0.0974
  H  H325  1  0.912600  0.273700  0.686400  1.0  0.0734
  H  H326  1  0.914200  0.121700  0.701000  1.0  0.0681
  H  H327  1  0.001600  0.148700  0.682400  1.0  0.0894
  H  H328  1  0.068100  0.191800  0.665200  1.0  0.0931
  H  H329  1  0.143100  0.242600  0.648300  1.0  0.0917
  H  H330  1  0.057400  0.375800  0.668700  1.0  0.0868
  H  H331  1  0.982400  0.324900  0.685500  1.0  0.0976
  H  H332  1  0.087400  0.773700  0.813600  1.0  0.0725
  H  H333  1  0.085800  0.621700  0.799000  1.0  0.0683
  H  H334  1  0.998400  0.648700  0.817600  1.0  0.0897
  H  H335  1  0.931900  0.691800  0.834800  1.0  0.0933
  H  H336  1  0.856900  0.742600  0.851700  1.0  0.0912
  H  H337  1  0.942600  0.875800  0.831300  1.0  0.0866
  H  H338  1  0.017600  0.824900  0.814500  1.0  0.0972
  H  H339  1  0.412600  0.226300  0.313600  1.0  0.0727
  H  H340  1  0.414200  0.378300  0.299000  1.0  0.0686
  H  H341  1  0.501600  0.351300  0.317600  1.0  0.09
  H  H342  1  0.568100  0.308200  0.334800  1.0  0.0931
  H  H343  1  0.643100  0.257400  0.351700  1.0  0.0914
  H  H344  1  0.557400  0.124200  0.331300  1.0  0.0862
  H  H345  1  0.482400  0.175100  0.314500  1.0  0.0967
  H  H346  1  0.587400  0.726300  0.186400  1.0  0.0725
  H  H347  1  0.585800  0.878300  0.201000  1.0  0.0695
  H  H348  1  0.498400  0.851300  0.182400  1.0  0.0897
  H  H349  1  0.431900  0.808200  0.165200  1.0  0.0933
  H  H350  1  0.356900  0.757400  0.148300  1.0  0.0914
  H  H351  1  0.442600  0.624200  0.168700  1.0  0.0871
  H  H352  1  0.517600  0.675100  0.185500  1.0  0.0974
  C  C353  1  0.189000  0.423400  0.237900  1.0  0.1049
  C  C354  1  0.196000  0.424300  0.157400  1.0  0.0411
  C  C355  1  0.186600  0.472300  0.171500  1.0  -0.0674
  C  C356  1  0.177000  0.518200  0.253600  1.0  0.1067
  C  C357  1  0.165900  0.565900  0.229200  1.0  -0.1822
  C  C358  1  0.155900  0.610500  0.259300  1.0  -0.1428
  C  C359  1  0.156900  0.607300  0.314000  1.0  0.108
  C  C360  1  0.168000  0.559600  0.338400  1.0  -0.1526
  C  C361  1  0.178000  0.515000  0.308200  1.0  -0.1744
  C  C362  1  0.311000  0.576600  0.737900  1.0  0.1052
  C  C363  1  0.304000  0.575700  0.657400  1.0  0.0408
  C  C364  1  0.313400  0.527700  0.671500  1.0  -0.0673
  C  C365  1  0.323000  0.481800  0.753600  1.0  0.1077
  C  C366  1  0.334100  0.434100  0.729200  1.0  -0.1821
  C  C367  1  0.344100  0.389500  0.759300  1.0  -0.1422
  C  C368  1  0.343100  0.392700  0.814000  1.0  0.1081
  C  C369  1  0.332000  0.440400  0.838400  1.0  -0.1522
  C  C370  1  0.322000  0.485000  0.808200  1.0  -0.1718
  C  C371  1  0.811000  0.923400  0.262100  1.0  0.1046
  C  C372  1  0.804000  0.924300  0.342600  1.0  0.0402
  C  C373  1  0.813400  0.972300  0.328500  1.0  -0.0664
  C  C374  1  0.823000  0.018200  0.246400  1.0  0.1079
  C  C375  1  0.834100  0.065900  0.270800  1.0  -0.1842
  C  C376  1  0.844100  0.110500  0.240700  1.0  -0.141
  C  C377  1  0.843100  0.107300  0.186000  1.0  0.1087
  C  C378  1  0.832000  0.059600  0.161600  1.0  -0.1493
  C  C379  1  0.822000  0.015000  0.191800  1.0  -0.1713
  C  C380  1  0.689000  0.076600  0.762100  1.0  0.1035
  C  C381  1  0.696000  0.075700  0.842600  1.0  0.0403
  C  C382  1  0.686600  0.027700  0.828500  1.0  -0.067
  C  C383  1  0.677000  0.981800  0.746400  1.0  0.1067
  C  C384  1  0.665900  0.934100  0.770800  1.0  -0.1847
  C  C385  1  0.655900  0.889500  0.740700  1.0  -0.1425
  C  C386  1  0.656900  0.892700  0.686000  1.0  0.1077
  C  C387  1  0.668000  0.940400  0.661600  1.0  -0.1508
  C  C388  1  0.678000  0.985000  0.691800  1.0  -0.1754
  C  C389  1  0.737900  0.189000  0.923400  1.0  0.1057
  C  C390  1  0.657400  0.196000  0.924300  1.0  0.0376
  C  C391  1  0.671500  0.186600  0.972300  1.0  -0.0696
  C  C392  1  0.753600  0.177000  0.018200  1.0  0.109
  C  C393  1  0.729200  0.165900  0.065900  1.0  -0.1863
  C  C394  1  0.759300  0.155900  0.110500  1.0  -0.1409
  C  C395  1  0.814000  0.156900  0.107300  1.0  0.1074
  C  C396  1  0.838400  0.168000  0.059600  1.0  -0.152
  C  C397  1  0.808200  0.178000  0.015000  1.0  -0.1766
  C  C398  1  0.237900  0.311000  0.076600  1.0  0.1079
  C  C399  1  0.157400  0.304000  0.075700  1.0  0.0375
  C  C400  1  0.171500  0.313400  0.027700  1.0  -0.0706
  C  C401  1  0.253600  0.323000  0.981800  1.0  0.1078
  C  C402  1  0.229200  0.334100  0.934100  1.0  -0.1849
  C  C403  1  0.259300  0.344100  0.889500  1.0  -0.1411
  C  C404  1  0.314000  0.343100  0.892700  1.0  0.1075
  C  C405  1  0.338400  0.332000  0.940400  1.0  -0.1514
  C  C406  1  0.308200  0.322000  0.985000  1.0  -0.1767
  C  C407  1  0.762100  0.811000  0.423400  1.0  0.1043
  C  C408  1  0.842600  0.804000  0.424300  1.0  0.0375
  C  C409  1  0.828500  0.813400  0.472300  1.0  -0.066
  C  C410  1  0.746400  0.823000  0.518200  1.0  0.1078
  C  C411  1  0.770800  0.834100  0.565900  1.0  -0.1859
  C  C412  1  0.740700  0.844100  0.610500  1.0  -0.1415
  C  C413  1  0.686000  0.843100  0.607300  1.0  0.1072
  C  C414  1  0.661600  0.832000  0.559600  1.0  -0.152
  C  C415  1  0.691800  0.822000  0.515000  1.0  -0.1763
  C  C416  1  0.262100  0.689000  0.576600  1.0  0.1056
  C  C417  1  0.342600  0.696000  0.575700  1.0  0.0382
  C  C418  1  0.328500  0.686600  0.527700  1.0  -0.0684
  C  C419  1  0.246400  0.677000  0.481800  1.0  0.109
  C  C420  1  0.270800  0.665900  0.434100  1.0  -0.1849
  C  C421  1  0.240700  0.655900  0.389500  1.0  -0.1408
  C  C422  1  0.186000  0.656900  0.392700  1.0  0.1076
  C  C423  1  0.161600  0.668000  0.440400  1.0  -0.1517
  C  C424  1  0.191800  0.678000  0.485000  1.0  -0.1765
  C  C425  1  0.423400  0.737900  0.689000  1.0  0.1049
  C  C426  1  0.424300  0.657400  0.696000  1.0  0.0381
  C  C427  1  0.472300  0.671500  0.686600  1.0  -0.069
  C  C428  1  0.518200  0.753600  0.677000  1.0  0.1067
  C  C429  1  0.565900  0.729200  0.665900  1.0  -0.1878
  C  C430  1  0.610500  0.759300  0.655900  1.0  -0.1422
  C  C431  1  0.607300  0.814000  0.656900  1.0  0.1072
  C  C432  1  0.559600  0.838400  0.668000  1.0  -0.1517
  C  C433  1  0.515000  0.808200  0.678000  1.0  -0.1779
  C  C434  1  0.576600  0.237900  0.811000  1.0  0.1087
  C  C435  1  0.575700  0.157400  0.804000  1.0  0.0392
  C  C436  1  0.527700  0.171500  0.813400  1.0  -0.07
  C  C437  1  0.481800  0.253600  0.823000  1.0  0.1057
  C  C438  1  0.434100  0.229200  0.834100  1.0  -0.1882
  C  C439  1  0.389500  0.259300  0.844100  1.0  -0.1423
  C  C440  1  0.392700  0.314000  0.843100  1.0  0.1067
  C  C441  1  0.440400  0.338400  0.832000  1.0  -0.1522
  C  C442  1  0.485000  0.308200  0.822000  1.0  -0.1802
  C  C443  1  0.923400  0.762100  0.311000  1.0  0.1053
  C  C444  1  0.924300  0.842600  0.304000  1.0  0.0371
  C  C445  1  0.972300  0.828500  0.313400  1.0  -0.0672
  C  C446  1  0.018200  0.746400  0.323000  1.0  0.1063
  C  C447  1  0.065900  0.770800  0.334100  1.0  -0.1895
  C  C448  1  0.110500  0.740700  0.344100  1.0  -0.1421
  C  C449  1  0.107300  0.686000  0.343100  1.0  0.1069
  C  C450  1  0.059600  0.661600  0.332000  1.0  -0.1512
  C  C451  1  0.015000  0.691800  0.322000  1.0  -0.1794
  C  C452  1  0.076600  0.262100  0.189000  1.0  0.1073
  C  C453  1  0.075700  0.342600  0.196000  1.0  0.0384
  C  C454  1  0.027700  0.328500  0.186600  1.0  -0.0708
  C  C455  1  0.981800  0.246400  0.177000  1.0  0.1068
  C  C456  1  0.934100  0.270800  0.165900  1.0  -0.1886
  C  C457  1  0.889500  0.240700  0.155900  1.0  -0.1428
  C  C458  1  0.892700  0.186000  0.156900  1.0  0.1073
  C  C459  1  0.940400  0.161600  0.168000  1.0  -0.1504
  C  C460  1  0.985000  0.191800  0.178000  1.0  -0.1805
  C  C461  1  0.189000  0.923400  0.737900  1.0  0.1049
  C  C462  1  0.196000  0.924300  0.657400  1.0  0.0411
  C  C463  1  0.186600  0.972300  0.671500  1.0  -0.0674
  C  C464  1  0.177000  0.018200  0.753600  1.0  0.1067
  C  C465  1  0.165900  0.065900  0.729200  1.0  -0.1822
  C  C466  1  0.155900  0.110500  0.759300  1.0  -0.1428
  C  C467  1  0.156900  0.107300  0.814000  1.0  0.108
  C  C468  1  0.168000  0.059600  0.838400  1.0  -0.1526
  C  C469  1  0.178000  0.015000  0.808200  1.0  -0.1744
  C  C470  1  0.311000  0.076600  0.237900  1.0  0.1052
  C  C471  1  0.304000  0.075700  0.157400  1.0  0.0408
  C  C472  1  0.313400  0.027700  0.171500  1.0  -0.0673
  C  C473  1  0.323000  0.981800  0.253600  1.0  0.1077
  C  C474  1  0.334100  0.934100  0.229200  1.0  -0.1821
  C  C475  1  0.344100  0.889500  0.259300  1.0  -0.1422
  C  C476  1  0.343100  0.892700  0.314000  1.0  0.1081
  C  C477  1  0.332000  0.940400  0.338400  1.0  -0.1522
  C  C478  1  0.322000  0.985000  0.308200  1.0  -0.1718
  C  C479  1  0.811000  0.423400  0.762100  1.0  0.1046
  C  C480  1  0.804000  0.424300  0.842600  1.0  0.0402
  C  C481  1  0.813400  0.472300  0.828500  1.0  -0.0664
  C  C482  1  0.823000  0.518200  0.746400  1.0  0.1079
  C  C483  1  0.834100  0.565900  0.770800  1.0  -0.1842
  C  C484  1  0.844100  0.610500  0.740700  1.0  -0.141
  C  C485  1  0.843100  0.607300  0.686000  1.0  0.1087
  C  C486  1  0.832000  0.559600  0.661600  1.0  -0.1493
  C  C487  1  0.822000  0.515000  0.691800  1.0  -0.1713
  C  C488  1  0.689000  0.576600  0.262100  1.0  0.1035
  C  C489  1  0.696000  0.575700  0.342600  1.0  0.0403
  C  C490  1  0.686600  0.527700  0.328500  1.0  -0.067
  C  C491  1  0.677000  0.481800  0.246400  1.0  0.1067
  C  C492  1  0.665900  0.434100  0.270800  1.0  -0.1847
  C  C493  1  0.655900  0.389500  0.240700  1.0  -0.1425
  C  C494  1  0.656900  0.392700  0.186000  1.0  0.1077
  C  C495  1  0.668000  0.440400  0.161600  1.0  -0.1508
  C  C496  1  0.678000  0.485000  0.191800  1.0  -0.1754
  C  C497  1  0.737900  0.689000  0.423400  1.0  0.1057
  C  C498  1  0.657400  0.696000  0.424300  1.0  0.0376
  C  C499  1  0.671500  0.686600  0.472300  1.0  -0.0696
  C  C500  1  0.753600  0.677000  0.518200  1.0  0.109
  C  C501  1  0.729200  0.665900  0.565900  1.0  -0.1863
  C  C502  1  0.759300  0.655900  0.610500  1.0  -0.1409
  C  C503  1  0.814000  0.656900  0.607300  1.0  0.1074
  C  C504  1  0.838400  0.668000  0.559600  1.0  -0.152
  C  C505  1  0.808200  0.678000  0.515000  1.0  -0.1766
  C  C506  1  0.237900  0.811000  0.576600  1.0  0.1079
  C  C507  1  0.157400  0.804000  0.575700  1.0  0.0375
  C  C508  1  0.171500  0.813400  0.527700  1.0  -0.0706
  C  C509  1  0.253600  0.823000  0.481800  1.0  0.1078
  C  C510  1  0.229200  0.834100  0.434100  1.0  -0.1849
  C  C511  1  0.259300  0.844100  0.389500  1.0  -0.1411
  C  C512  1  0.314000  0.843100  0.392700  1.0  0.1075
  C  C513  1  0.338400  0.832000  0.440400  1.0  -0.1514
  C  C514  1  0.308200  0.822000  0.485000  1.0  -0.1767
  C  C515  1  0.762100  0.311000  0.923400  1.0  0.1043
  C  C516  1  0.842600  0.304000  0.924300  1.0  0.0375
  C  C517  1  0.828500  0.313400  0.972300  1.0  -0.066
  C  C518  1  0.746400  0.323000  0.018200  1.0  0.1078
  C  C519  1  0.770800  0.334100  0.065900  1.0  -0.1859
  C  C520  1  0.740700  0.344100  0.110500  1.0  -0.1415
  C  C521  1  0.686000  0.343100  0.107300  1.0  0.1072
  C  C522  1  0.661600  0.332000  0.059600  1.0  -0.152
  C  C523  1  0.691800  0.322000  0.015000  1.0  -0.1763
  C  C524  1  0.262100  0.189000  0.076600  1.0  0.1056
  C  C525  1  0.342600  0.196000  0.075700  1.0  0.0382
  C  C526  1  0.328500  0.186600  0.027700  1.0  -0.0684
  C  C527  1  0.246400  0.177000  0.981800  1.0  0.109
  C  C528  1  0.270800  0.165900  0.934100  1.0  -0.1849
  C  C529  1  0.240700  0.155900  0.889500  1.0  -0.1408
  C  C530  1  0.186000  0.156900  0.892700  1.0  0.1076
  C  C531  1  0.161600  0.168000  0.940400  1.0  -0.1517
  C  C532  1  0.191800  0.178000  0.985000  1.0  -0.1765
  C  C533  1  0.423400  0.237900  0.189000  1.0  0.1049
  C  C534  1  0.424300  0.157400  0.196000  1.0  0.0381
  C  C535  1  0.472300  0.171500  0.186600  1.0  -0.069
  C  C536  1  0.518200  0.253600  0.177000  1.0  0.1067
  C  C537  1  0.565900  0.229200  0.165900  1.0  -0.1878
  C  C538  1  0.610500  0.259300  0.155900  1.0  -0.1422
  C  C539  1  0.607300  0.314000  0.156900  1.0  0.1072
  C  C540  1  0.559600  0.338400  0.168000  1.0  -0.1517
  C  C541  1  0.515000  0.308200  0.178000  1.0  -0.1779
  C  C542  1  0.576600  0.737900  0.311000  1.0  0.1087
  C  C543  1  0.575700  0.657400  0.304000  1.0  0.0392
  C  C544  1  0.527700  0.671500  0.313400  1.0  -0.07
  C  C545  1  0.481800  0.753600  0.323000  1.0  0.1057
  C  C546  1  0.434100  0.729200  0.334100  1.0  -0.1882
  C  C547  1  0.389500  0.759300  0.344100  1.0  -0.1423
  C  C548  1  0.392700  0.814000  0.343100  1.0  0.1067
  C  C549  1  0.440400  0.838400  0.332000  1.0  -0.1522
  C  C550  1  0.485000  0.808200  0.322000  1.0  -0.1802
  C  C551  1  0.923400  0.262100  0.811000  1.0  0.1053
  C  C552  1  0.924300  0.342600  0.804000  1.0  0.0371
  C  C553  1  0.972300  0.328500  0.813400  1.0  -0.0672
  C  C554  1  0.018200  0.246400  0.823000  1.0  0.1063
  C  C555  1  0.065900  0.270800  0.834100  1.0  -0.1895
  C  C556  1  0.110500  0.240700  0.844100  1.0  -0.1421
  C  C557  1  0.107300  0.186000  0.843100  1.0  0.1069
  C  C558  1  0.059600  0.161600  0.832000  1.0  -0.1512
  C  C559  1  0.015000  0.191800  0.822000  1.0  -0.1794
  C  C560  1  0.076600  0.762100  0.689000  1.0  0.1073
  C  C561  1  0.075700  0.842600  0.696000  1.0  0.0384
  C  C562  1  0.027700  0.828500  0.686600  1.0  -0.0708
  C  C563  1  0.981800  0.746400  0.677000  1.0  0.1068
  C  C564  1  0.934100  0.770800  0.665900  1.0  -0.1886
  C  C565  1  0.889500  0.740700  0.655900  1.0  -0.1428
  C  C566  1  0.892700  0.686000  0.656900  1.0  0.1073
  C  C567  1  0.940400  0.661600  0.668000  1.0  -0.1504
  C  C568  1  0.985000  0.691800  0.678000  1.0  -0.1805
  C  C569  1  0.689000  0.423400  0.737900  1.0  0.1049
  C  C570  1  0.696000  0.424300  0.657400  1.0  0.0411
  C  C571  1  0.686600  0.472300  0.671500  1.0  -0.0674
  C  C572  1  0.677000  0.518200  0.753600  1.0  0.1067
  C  C573  1  0.665900  0.565900  0.729200  1.0  -0.1822
  C  C574  1  0.655900  0.610500  0.759300  1.0  -0.1428
  C  C575  1  0.656900  0.607300  0.814000  1.0  0.108
  C  C576  1  0.668000  0.559600  0.838400  1.0  -0.1526
  C  C577  1  0.678000  0.515000  0.808200  1.0  -0.1744
  C  C578  1  0.811000  0.576600  0.237900  1.0  0.1052
  C  C579  1  0.804000  0.575700  0.157400  1.0  0.0408
  C  C580  1  0.813400  0.527700  0.171500  1.0  -0.0673
  C  C581  1  0.823000  0.481800  0.253600  1.0  0.1077
  C  C582  1  0.834100  0.434100  0.229200  1.0  -0.1821
  C  C583  1  0.844100  0.389500  0.259300  1.0  -0.1422
  C  C584  1  0.843100  0.392700  0.314000  1.0  0.1081
  C  C585  1  0.832000  0.440400  0.338400  1.0  -0.1522
  C  C586  1  0.822000  0.485000  0.308200  1.0  -0.1718
  C  C587  1  0.311000  0.923400  0.762100  1.0  0.1046
  C  C588  1  0.304000  0.924300  0.842600  1.0  0.0402
  C  C589  1  0.313400  0.972300  0.828500  1.0  -0.0664
  C  C590  1  0.323000  0.018200  0.746400  1.0  0.1079
  C  C591  1  0.334100  0.065900  0.770800  1.0  -0.1842
  C  C592  1  0.344100  0.110500  0.740700  1.0  -0.141
  C  C593  1  0.343100  0.107300  0.686000  1.0  0.1087
  C  C594  1  0.332000  0.059600  0.661600  1.0  -0.1493
  C  C595  1  0.322000  0.015000  0.691800  1.0  -0.1713
  C  C596  1  0.189000  0.076600  0.262100  1.0  0.1035
  C  C597  1  0.196000  0.075700  0.342600  1.0  0.0403
  C  C598  1  0.186600  0.027700  0.328500  1.0  -0.067
  C  C599  1  0.177000  0.981800  0.246400  1.0  0.1067
  C  C600  1  0.165900  0.934100  0.270800  1.0  -0.1847
  C  C601  1  0.155900  0.889500  0.240700  1.0  -0.1425
  C  C602  1  0.156900  0.892700  0.186000  1.0  0.1077
  C  C603  1  0.168000  0.940400  0.161600  1.0  -0.1508
  C  C604  1  0.178000  0.985000  0.191800  1.0  -0.1754
  C  C605  1  0.237900  0.189000  0.423400  1.0  0.1057
  C  C606  1  0.157400  0.196000  0.424300  1.0  0.0376
  C  C607  1  0.171500  0.186600  0.472300  1.0  -0.0696
  C  C608  1  0.253600  0.177000  0.518200  1.0  0.109
  C  C609  1  0.229200  0.165900  0.565900  1.0  -0.1863
  C  C610  1  0.259300  0.155900  0.610500  1.0  -0.1409
  C  C611  1  0.314000  0.156900  0.607300  1.0  0.1074
  C  C612  1  0.338400  0.168000  0.559600  1.0  -0.152
  C  C613  1  0.308200  0.178000  0.515000  1.0  -0.1766
  C  C614  1  0.737900  0.311000  0.576600  1.0  0.1079
  C  C615  1  0.657400  0.304000  0.575700  1.0  0.0375
  C  C616  1  0.671500  0.313400  0.527700  1.0  -0.0706
  C  C617  1  0.753600  0.323000  0.481800  1.0  0.1078
  C  C618  1  0.729200  0.334100  0.434100  1.0  -0.1849
  C  C619  1  0.759300  0.344100  0.389500  1.0  -0.1411
  C  C620  1  0.814000  0.343100  0.392700  1.0  0.1075
  C  C621  1  0.838400  0.332000  0.440400  1.0  -0.1514
  C  C622  1  0.808200  0.322000  0.485000  1.0  -0.1767
  C  C623  1  0.262100  0.811000  0.923400  1.0  0.1043
  C  C624  1  0.342600  0.804000  0.924300  1.0  0.0375
  C  C625  1  0.328500  0.813400  0.972300  1.0  -0.066
  C  C626  1  0.246400  0.823000  0.018200  1.0  0.1078
  C  C627  1  0.270800  0.834100  0.065900  1.0  -0.1859
  C  C628  1  0.240700  0.844100  0.110500  1.0  -0.1415
  C  C629  1  0.186000  0.843100  0.107300  1.0  0.1072
  C  C630  1  0.161600  0.832000  0.059600  1.0  -0.152
  C  C631  1  0.191800  0.822000  0.015000  1.0  -0.1763
  C  C632  1  0.762100  0.689000  0.076600  1.0  0.1056
  C  C633  1  0.842600  0.696000  0.075700  1.0  0.0382
  C  C634  1  0.828500  0.686600  0.027700  1.0  -0.0684
  C  C635  1  0.746400  0.677000  0.981800  1.0  0.109
  C  C636  1  0.770800  0.665900  0.934100  1.0  -0.1849
  C  C637  1  0.740700  0.655900  0.889500  1.0  -0.1408
  C  C638  1  0.686000  0.656900  0.892700  1.0  0.1076
  C  C639  1  0.661600  0.668000  0.940400  1.0  -0.1517
  C  C640  1  0.691800  0.678000  0.985000  1.0  -0.1765
  C  C641  1  0.923400  0.737900  0.189000  1.0  0.1049
  C  C642  1  0.924300  0.657400  0.196000  1.0  0.0381
  C  C643  1  0.972300  0.671500  0.186600  1.0  -0.069
  C  C644  1  0.018200  0.753600  0.177000  1.0  0.1067
  C  C645  1  0.065900  0.729200  0.165900  1.0  -0.1878
  C  C646  1  0.110500  0.759300  0.155900  1.0  -0.1422
  C  C647  1  0.107300  0.814000  0.156900  1.0  0.1072
  C  C648  1  0.059600  0.838400  0.168000  1.0  -0.1517
  C  C649  1  0.015000  0.808200  0.178000  1.0  -0.1779
  C  C650  1  0.076600  0.237900  0.311000  1.0  0.1087
  C  C651  1  0.075700  0.157400  0.304000  1.0  0.0392
  C  C652  1  0.027700  0.171500  0.313400  1.0  -0.07
  C  C653  1  0.981800  0.253600  0.323000  1.0  0.1057
  C  C654  1  0.934100  0.229200  0.334100  1.0  -0.1882
  C  C655  1  0.889500  0.259300  0.344100  1.0  -0.1423
  C  C656  1  0.892700  0.314000  0.343100  1.0  0.1067
  C  C657  1  0.940400  0.338400  0.332000  1.0  -0.1522
  C  C658  1  0.985000  0.308200  0.322000  1.0  -0.1802
  C  C659  1  0.423400  0.762100  0.811000  1.0  0.1053
  C  C660  1  0.424300  0.842600  0.804000  1.0  0.0371
  C  C661  1  0.472300  0.828500  0.813400  1.0  -0.0672
  C  C662  1  0.518200  0.746400  0.823000  1.0  0.1063
  C  C663  1  0.565900  0.770800  0.834100  1.0  -0.1895
  C  C664  1  0.610500  0.740700  0.844100  1.0  -0.1421
  C  C665  1  0.607300  0.686000  0.843100  1.0  0.1069
  C  C666  1  0.559600  0.661600  0.832000  1.0  -0.1512
  C  C667  1  0.515000  0.691800  0.822000  1.0  -0.1794
  C  C668  1  0.576600  0.262100  0.689000  1.0  0.1073
  C  C669  1  0.575700  0.342600  0.696000  1.0  0.0384
  C  C670  1  0.527700  0.328500  0.686600  1.0  -0.0708
  C  C671  1  0.481800  0.246400  0.677000  1.0  0.1068
  C  C672  1  0.434100  0.270800  0.665900  1.0  -0.1886
  C  C673  1  0.389500  0.240700  0.655900  1.0  -0.1428
  C  C674  1  0.392700  0.186000  0.656900  1.0  0.1073
  C  C675  1  0.440400  0.161600  0.668000  1.0  -0.1504
  C  C676  1  0.485000  0.191800  0.678000  1.0  -0.1805
  C  C677  1  0.689000  0.923400  0.237900  1.0  0.1049
  C  C678  1  0.696000  0.924300  0.157400  1.0  0.0411
  C  C679  1  0.686600  0.972300  0.171500  1.0  -0.0674
  C  C680  1  0.677000  0.018200  0.253600  1.0  0.1067
  C  C681  1  0.665900  0.065900  0.229200  1.0  -0.1822
  C  C682  1  0.655900  0.110500  0.259300  1.0  -0.1428
  C  C683  1  0.656900  0.107300  0.314000  1.0  0.108
  C  C684  1  0.668000  0.059600  0.338400  1.0  -0.1526
  C  C685  1  0.678000  0.015000  0.308200  1.0  -0.1744
  C  C686  1  0.811000  0.076600  0.737900  1.0  0.1052
  C  C687  1  0.804000  0.075700  0.657400  1.0  0.0408
  C  C688  1  0.813400  0.027700  0.671500  1.0  -0.0673
  C  C689  1  0.823000  0.981800  0.753600  1.0  0.1077
  C  C690  1  0.834100  0.934100  0.729200  1.0  -0.1821
  C  C691  1  0.844100  0.889500  0.759300  1.0  -0.1422
  C  C692  1  0.843100  0.892700  0.814000  1.0  0.1081
  C  C693  1  0.832000  0.940400  0.838400  1.0  -0.1522
  C  C694  1  0.822000  0.985000  0.808200  1.0  -0.1718
  C  C695  1  0.311000  0.423400  0.262100  1.0  0.1046
  C  C696  1  0.304000  0.424300  0.342600  1.0  0.0402
  C  C697  1  0.313400  0.472300  0.328500  1.0  -0.0664
  C  C698  1  0.323000  0.518200  0.246400  1.0  0.1079
  C  C699  1  0.334100  0.565900  0.270800  1.0  -0.1842
  C  C700  1  0.344100  0.610500  0.240700  1.0  -0.141
  C  C701  1  0.343100  0.607300  0.186000  1.0  0.1087
  C  C702  1  0.332000  0.559600  0.161600  1.0  -0.1493
  C  C703  1  0.322000  0.515000  0.191800  1.0  -0.1713
  C  C704  1  0.189000  0.576600  0.762100  1.0  0.1035
  C  C705  1  0.196000  0.575700  0.842600  1.0  0.0403
  C  C706  1  0.186600  0.527700  0.828500  1.0  -0.067
  C  C707  1  0.177000  0.481800  0.746400  1.0  0.1067
  C  C708  1  0.165900  0.434100  0.770800  1.0  -0.1847
  C  C709  1  0.155900  0.389500  0.740700  1.0  -0.1425
  C  C710  1  0.156900  0.392700  0.686000  1.0  0.1077
  C  C711  1  0.168000  0.440400  0.661600  1.0  -0.1508
  C  C712  1  0.178000  0.485000  0.691800  1.0  -0.1754
  C  C713  1  0.237900  0.689000  0.923400  1.0  0.1057
  C  C714  1  0.157400  0.696000  0.924300  1.0  0.0376
  C  C715  1  0.171500  0.686600  0.972300  1.0  -0.0696
  C  C716  1  0.253600  0.677000  0.018200  1.0  0.109
  C  C717  1  0.229200  0.665900  0.065900  1.0  -0.1863
  C  C718  1  0.259300  0.655900  0.110500  1.0  -0.1409
  C  C719  1  0.314000  0.656900  0.107300  1.0  0.1074
  C  C720  1  0.338400  0.668000  0.059600  1.0  -0.152
  C  C721  1  0.308200  0.678000  0.015000  1.0  -0.1766
  C  C722  1  0.737900  0.811000  0.076600  1.0  0.1079
  C  C723  1  0.657400  0.804000  0.075700  1.0  0.0375
  C  C724  1  0.671500  0.813400  0.027700  1.0  -0.0706
  C  C725  1  0.753600  0.823000  0.981800  1.0  0.1078
  C  C726  1  0.729200  0.834100  0.934100  1.0  -0.1849
  C  C727  1  0.759300  0.844100  0.889500  1.0  -0.1411
  C  C728  1  0.814000  0.843100  0.892700  1.0  0.1075
  C  C729  1  0.838400  0.832000  0.940400  1.0  -0.1514
  C  C730  1  0.808200  0.822000  0.985000  1.0  -0.1767
  C  C731  1  0.262100  0.311000  0.423400  1.0  0.1043
  C  C732  1  0.342600  0.304000  0.424300  1.0  0.0375
  C  C733  1  0.328500  0.313400  0.472300  1.0  -0.066
  C  C734  1  0.246400  0.323000  0.518200  1.0  0.1078
  C  C735  1  0.270800  0.334100  0.565900  1.0  -0.1859
  C  C736  1  0.240700  0.344100  0.610500  1.0  -0.1415
  C  C737  1  0.186000  0.343100  0.607300  1.0  0.1072
  C  C738  1  0.161600  0.332000  0.559600  1.0  -0.152
  C  C739  1  0.191800  0.322000  0.515000  1.0  -0.1763
  C  C740  1  0.762100  0.189000  0.576600  1.0  0.1056
  C  C741  1  0.842600  0.196000  0.575700  1.0  0.0382
  C  C742  1  0.828500  0.186600  0.527700  1.0  -0.0684
  C  C743  1  0.746400  0.177000  0.481800  1.0  0.109
  C  C744  1  0.770800  0.165900  0.434100  1.0  -0.1849
  C  C745  1  0.740700  0.155900  0.389500  1.0  -0.1408
  C  C746  1  0.686000  0.156900  0.392700  1.0  0.1076
  C  C747  1  0.661600  0.168000  0.440400  1.0  -0.1517
  C  C748  1  0.691800  0.178000  0.485000  1.0  -0.1765
  C  C749  1  0.923400  0.237900  0.689000  1.0  0.1049
  C  C750  1  0.924300  0.157400  0.696000  1.0  0.0381
  C  C751  1  0.972300  0.171500  0.686600  1.0  -0.069
  C  C752  1  0.018200  0.253600  0.677000  1.0  0.1067
  C  C753  1  0.065900  0.229200  0.665900  1.0  -0.1878
  C  C754  1  0.110500  0.259300  0.655900  1.0  -0.1422
  C  C755  1  0.107300  0.314000  0.656900  1.0  0.1072
  C  C756  1  0.059600  0.338400  0.668000  1.0  -0.1517
  C  C757  1  0.015000  0.308200  0.678000  1.0  -0.1779
  C  C758  1  0.076600  0.737900  0.811000  1.0  0.1087
  C  C759  1  0.075700  0.657400  0.804000  1.0  0.0392
  C  C760  1  0.027700  0.671500  0.813400  1.0  -0.07
  C  C761  1  0.981800  0.753600  0.823000  1.0  0.1057
  C  C762  1  0.934100  0.729200  0.834100  1.0  -0.1882
  C  C763  1  0.889500  0.759300  0.844100  1.0  -0.1423
  C  C764  1  0.892700  0.814000  0.843100  1.0  0.1067
  C  C765  1  0.940400  0.838400  0.832000  1.0  -0.1522
  C  C766  1  0.985000  0.808200  0.822000  1.0  -0.1802
  C  C767  1  0.423400  0.262100  0.311000  1.0  0.1053
  C  C768  1  0.424300  0.342600  0.304000  1.0  0.0371
  C  C769  1  0.472300  0.328500  0.313400  1.0  -0.0672
  C  C770  1  0.518200  0.246400  0.323000  1.0  0.1063
  C  C771  1  0.565900  0.270800  0.334100  1.0  -0.1895
  C  C772  1  0.610500  0.240700  0.344100  1.0  -0.1421
  C  C773  1  0.607300  0.186000  0.343100  1.0  0.1069
  C  C774  1  0.559600  0.161600  0.332000  1.0  -0.1512
  C  C775  1  0.515000  0.191800  0.322000  1.0  -0.1794
  C  C776  1  0.576600  0.762100  0.189000  1.0  0.1073
  C  C777  1  0.575700  0.842600  0.196000  1.0  0.0384
  C  C778  1  0.527700  0.828500  0.186600  1.0  -0.0708
  C  C779  1  0.481800  0.746400  0.177000  1.0  0.1068
  C  C780  1  0.434100  0.770800  0.165900  1.0  -0.1886
  C  C781  1  0.389500  0.740700  0.155900  1.0  -0.1428
  C  C782  1  0.392700  0.686000  0.156900  1.0  0.1073
  C  C783  1  0.440400  0.661600  0.168000  1.0  -0.1504
  C  C784  1  0.485000  0.691800  0.178000  1.0  -0.1805
  N  N785  1  0.198000  0.389300  0.198200  1.0  -0.4542
  N  N786  1  0.184100  0.473000  0.222900  1.0  0.0899
  N  N787  1  0.302000  0.610700  0.698200  1.0  -0.4544
  N  N788  1  0.315900  0.527000  0.722900  1.0  0.0884
  N  N789  1  0.802000  0.889300  0.301800  1.0  -0.4544
  N  N790  1  0.815900  0.973000  0.277100  1.0  0.0871
  N  N791  1  0.698000  0.110700  0.801800  1.0  -0.4548
  N  N792  1  0.684100  0.027000  0.777100  1.0  0.0887
  N  N793  1  0.698200  0.198000  0.889300  1.0  -0.4548
  N  N794  1  0.722900  0.184100  0.973000  1.0  0.0889
  N  N795  1  0.198200  0.302000  0.110700  1.0  -0.4552
  N  N796  1  0.222900  0.315900  0.027000  1.0  0.0908
  N  N797  1  0.801800  0.802000  0.389300  1.0  -0.456
  N  N798  1  0.777100  0.815900  0.473000  1.0  0.0904
  N  N799  1  0.301800  0.698000  0.610700  1.0  -0.4552
  N  N800  1  0.277100  0.684100  0.527000  1.0  0.0878
  N  N801  1  0.389300  0.698200  0.698000  1.0  -0.4534
  N  N802  1  0.473000  0.722900  0.684100  1.0  0.0896
  N  N803  1  0.610700  0.198200  0.802000  1.0  -0.4496
  N  N804  1  0.527000  0.222900  0.815900  1.0  0.0884
  N  N805  1  0.889300  0.801800  0.302000  1.0  -0.4536
  N  N806  1  0.973000  0.777100  0.315900  1.0  0.0893
  N  N807  1  0.110700  0.301800  0.198000  1.0  -0.4497
  N  N808  1  0.027000  0.277100  0.184100  1.0  0.0875
  N  N809  1  0.155300  0.655300  0.344700  1.0  -0.24
  N  N810  1  0.844700  0.155300  0.155300  1.0  -0.2405
  N  N811  1  0.655300  0.844700  0.655300  1.0  -0.2407
  N  N812  1  0.344700  0.344700  0.844700  1.0  -0.2406
  N  N813  1  0.198000  0.889300  0.698200  1.0  -0.4542
  N  N814  1  0.184100  0.973000  0.722900  1.0  0.0899
  N  N815  1  0.302000  0.110700  0.198200  1.0  -0.4544
  N  N816  1  0.315900  0.027000  0.222900  1.0  0.0884
  N  N817  1  0.802000  0.389300  0.801800  1.0  -0.4544
  N  N818  1  0.815900  0.473000  0.777100  1.0  0.0871
  N  N819  1  0.698000  0.610700  0.301800  1.0  -0.4548
  N  N820  1  0.684100  0.527000  0.277100  1.0  0.0887
  N  N821  1  0.698200  0.698000  0.389300  1.0  -0.4548
  N  N822  1  0.722900  0.684100  0.473000  1.0  0.0889
  N  N823  1  0.198200  0.802000  0.610700  1.0  -0.4552
  N  N824  1  0.222900  0.815900  0.527000  1.0  0.0908
  N  N825  1  0.801800  0.302000  0.889300  1.0  -0.456
  N  N826  1  0.777100  0.315900  0.973000  1.0  0.0904
  N  N827  1  0.301800  0.198000  0.110700  1.0  -0.4552
  N  N828  1  0.277100  0.184100  0.027000  1.0  0.0878
  N  N829  1  0.389300  0.198200  0.198000  1.0  -0.4534
  N  N830  1  0.473000  0.222900  0.184100  1.0  0.0896
  N  N831  1  0.610700  0.698200  0.302000  1.0  -0.4496
  N  N832  1  0.527000  0.722900  0.315900  1.0  0.0884
  N  N833  1  0.889300  0.301800  0.802000  1.0  -0.4536
  N  N834  1  0.973000  0.277100  0.815900  1.0  0.0893
  N  N835  1  0.110700  0.801800  0.698000  1.0  -0.4497
  N  N836  1  0.027000  0.777100  0.684100  1.0  0.0875
  N  N837  1  0.155300  0.155300  0.844700  1.0  -0.24
  N  N838  1  0.844700  0.655300  0.655300  1.0  -0.2405
  N  N839  1  0.344700  0.844700  0.344700  1.0  -0.2406
  N  N840  1  0.655300  0.344700  0.155300  1.0  -0.2407
  N  N841  1  0.698000  0.389300  0.698200  1.0  -0.4542
  N  N842  1  0.684100  0.473000  0.722900  1.0  0.0899
  N  N843  1  0.802000  0.610700  0.198200  1.0  -0.4544
  N  N844  1  0.815900  0.527000  0.222900  1.0  0.0884
  N  N845  1  0.302000  0.889300  0.801800  1.0  -0.4544
  N  N846  1  0.315900  0.973000  0.777100  1.0  0.0871
  N  N847  1  0.198000  0.110700  0.301800  1.0  -0.4548
  N  N848  1  0.184100  0.027000  0.277100  1.0  0.0887
  N  N849  1  0.198200  0.198000  0.389300  1.0  -0.4548
  N  N850  1  0.222900  0.184100  0.473000  1.0  0.0889
  N  N851  1  0.698200  0.302000  0.610700  1.0  -0.4552
  N  N852  1  0.722900  0.315900  0.527000  1.0  0.0908
  N  N853  1  0.301800  0.802000  0.889300  1.0  -0.456
  N  N854  1  0.277100  0.815900  0.973000  1.0  0.0904
  N  N855  1  0.801800  0.698000  0.110700  1.0  -0.4552
  N  N856  1  0.777100  0.684100  0.027000  1.0  0.0878
  N  N857  1  0.889300  0.698200  0.198000  1.0  -0.4534
  N  N858  1  0.973000  0.722900  0.184100  1.0  0.0896
  N  N859  1  0.110700  0.198200  0.302000  1.0  -0.4496
  N  N860  1  0.027000  0.222900  0.315900  1.0  0.0884
  N  N861  1  0.389300  0.801800  0.802000  1.0  -0.4536
  N  N862  1  0.473000  0.777100  0.815900  1.0  0.0893
  N  N863  1  0.610700  0.301800  0.698000  1.0  -0.4497
  N  N864  1  0.527000  0.277100  0.684100  1.0  0.0875
  N  N865  1  0.844700  0.344700  0.344700  1.0  -0.2406
  N  N866  1  0.155300  0.844700  0.155300  1.0  -0.2407
  N  N867  1  0.344700  0.155300  0.655300  1.0  -0.2405
  N  N868  1  0.655300  0.655300  0.844700  1.0  -0.24
  N  N869  1  0.698000  0.889300  0.198200  1.0  -0.4542
  N  N870  1  0.684100  0.973000  0.222900  1.0  0.0899
  N  N871  1  0.802000  0.110700  0.698200  1.0  -0.4544
  N  N872  1  0.815900  0.027000  0.722900  1.0  0.0884
  N  N873  1  0.302000  0.389300  0.301800  1.0  -0.4544
  N  N874  1  0.315900  0.473000  0.277100  1.0  0.0871
  N  N875  1  0.198000  0.610700  0.801800  1.0  -0.4548
  N  N876  1  0.184100  0.527000  0.777100  1.0  0.0887
  N  N877  1  0.198200  0.698000  0.889300  1.0  -0.4548
  N  N878  1  0.222900  0.684100  0.973000  1.0  0.0889
  N  N879  1  0.698200  0.802000  0.110700  1.0  -0.4552
  N  N880  1  0.722900  0.815900  0.027000  1.0  0.0908
  N  N881  1  0.301800  0.302000  0.389300  1.0  -0.456
  N  N882  1  0.277100  0.315900  0.473000  1.0  0.0904
  N  N883  1  0.801800  0.198000  0.610700  1.0  -0.4552
  N  N884  1  0.777100  0.184100  0.527000  1.0  0.0878
  N  N885  1  0.889300  0.198200  0.698000  1.0  -0.4534
  N  N886  1  0.973000  0.222900  0.684100  1.0  0.0896
  N  N887  1  0.110700  0.698200  0.802000  1.0  -0.4496
  N  N888  1  0.027000  0.722900  0.815900  1.0  0.0884
  N  N889  1  0.389300  0.301800  0.302000  1.0  -0.4536
  N  N890  1  0.473000  0.277100  0.315900  1.0  0.0893
  N  N891  1  0.610700  0.801800  0.198000  1.0  -0.4497
  N  N892  1  0.527000  0.777100  0.184100  1.0  0.0875
  N  N893  1  0.844700  0.844700  0.844700  1.0  -0.2406
  N  N894  1  0.155300  0.344700  0.655300  1.0  -0.2407
  N  N895  1  0.655300  0.155300  0.344700  1.0  -0.24
  N  N896  1  0.344700  0.655300  0.155300  1.0  -0.2405
