# generated using pymatgen
data_Ni5H6C16N2O9
_symmetry_space_group_name_H-M   'P 1'
_cell_length_a   31.34000000
_cell_length_b   31.34000000
_cell_length_c   31.34000000
_cell_angle_alpha   90.00000000
_cell_angle_beta   90.00000000
_cell_angle_gamma   90.00000000
_symmetry_Int_Tables_number   1
_chemical_formula_structural   Ni5H6C16N2O9
_chemical_formula_sum   'Ni120 H144 C384 N48 O216'
_cell_volume   30782.01010400
_cell_formula_units_Z   24
loop_
 _symmetry_equiv_pos_site_id
 _symmetry_equiv_pos_as_xyz
  1  'x, y, z'
loop_
 _atom_site_type_symbol
 _atom_site_label
 _atom_site_symmetry_multiplicity
 _atom_site_fract_x
 _atom_site_fract_y
 _atom_site_fract_z
 _atom_site_occupancy
 _atom_site_charge
  Ni  Ni1  1  0.216100  0.036000  0.034200  1.0  0.7287
  Ni  Ni2  1  0.216100  0.536000  0.534200  1.0  0.7287
  Ni  Ni3  1  0.716100  0.036000  0.534200  1.0  0.7287
  Ni  Ni4  1  0.716100  0.536000  0.034200  1.0  0.7287
  Ni  Ni5  1  0.783900  0.964000  0.034200  1.0  0.7268
  Ni  Ni6  1  0.783900  0.464000  0.534200  1.0  0.7268
  Ni  Ni7  1  0.283900  0.964000  0.534200  1.0  0.7268
  Ni  Ni8  1  0.283900  0.464000  0.034200  1.0  0.7268
  Ni  Ni9  1  0.783900  0.036000  0.965800  1.0  0.729
  Ni  Ni10  1  0.783900  0.536000  0.465800  1.0  0.729
  Ni  Ni11  1  0.283900  0.036000  0.465800  1.0  0.729
  Ni  Ni12  1  0.283900  0.536000  0.965800  1.0  0.729
  Ni  Ni13  1  0.216100  0.964000  0.965800  1.0  0.7336
  Ni  Ni14  1  0.216100  0.464000  0.465800  1.0  0.7336
  Ni  Ni15  1  0.716100  0.964000  0.465800  1.0  0.7336
  Ni  Ni16  1  0.716100  0.464000  0.965800  1.0  0.7336
  Ni  Ni17  1  0.034200  0.216100  0.036000  1.0  0.7389
  Ni  Ni18  1  0.034200  0.716100  0.536000  1.0  0.7389
  Ni  Ni19  1  0.534200  0.216100  0.536000  1.0  0.7389
  Ni  Ni20  1  0.534200  0.716100  0.036000  1.0  0.7389
  Ni  Ni21  1  0.034200  0.783900  0.964000  1.0  0.7346
  Ni  Ni22  1  0.034200  0.283900  0.464000  1.0  0.7346
  Ni  Ni23  1  0.534200  0.783900  0.464000  1.0  0.7346
  Ni  Ni24  1  0.534200  0.283900  0.964000  1.0  0.7346
  Ni  Ni25  1  0.965800  0.783900  0.036000  1.0  0.7337
  Ni  Ni26  1  0.965800  0.283900  0.536000  1.0  0.7337
  Ni  Ni27  1  0.465800  0.783900  0.536000  1.0  0.7337
  Ni  Ni28  1  0.465800  0.283900  0.036000  1.0  0.7337
  Ni  Ni29  1  0.965800  0.216100  0.964000  1.0  0.7395
  Ni  Ni30  1  0.965800  0.716100  0.464000  1.0  0.7395
  Ni  Ni31  1  0.465800  0.216100  0.464000  1.0  0.7395
  Ni  Ni32  1  0.465800  0.716100  0.964000  1.0  0.7395
  Ni  Ni33  1  0.036000  0.034200  0.216100  1.0  0.7275
  Ni  Ni34  1  0.036000  0.534200  0.716100  1.0  0.7275
  Ni  Ni35  1  0.536000  0.034200  0.716100  1.0  0.7275
  Ni  Ni36  1  0.536000  0.534200  0.216100  1.0  0.7275
  Ni  Ni37  1  0.964000  0.034200  0.783900  1.0  0.7267
  Ni  Ni38  1  0.964000  0.534200  0.283900  1.0  0.7267
  Ni  Ni39  1  0.464000  0.034200  0.283900  1.0  0.7267
  Ni  Ni40  1  0.464000  0.534200  0.783900  1.0  0.7267
  Ni  Ni41  1  0.036000  0.965800  0.783900  1.0  0.7287
  Ni  Ni42  1  0.036000  0.465800  0.283900  1.0  0.7287
  Ni  Ni43  1  0.536000  0.965800  0.283900  1.0  0.7287
  Ni  Ni44  1  0.536000  0.465800  0.783900  1.0  0.7287
  Ni  Ni45  1  0.964000  0.965800  0.216100  1.0  0.7321
  Ni  Ni46  1  0.964000  0.465800  0.716100  1.0  0.7321
  Ni  Ni47  1  0.464000  0.965800  0.716100  1.0  0.7321
  Ni  Ni48  1  0.464000  0.465800  0.216100  1.0  0.7321
  Ni  Ni49  1  0.783900  0.964000  0.965800  1.0  0.7296
  Ni  Ni50  1  0.783900  0.464000  0.465800  1.0  0.7296
  Ni  Ni51  1  0.283900  0.964000  0.465800  1.0  0.7296
  Ni  Ni52  1  0.283900  0.464000  0.965800  1.0  0.7296
  Ni  Ni53  1  0.216100  0.036000  0.965800  1.0  0.7328
  Ni  Ni54  1  0.216100  0.536000  0.465800  1.0  0.7328
  Ni  Ni55  1  0.716100  0.036000  0.465800  1.0  0.7328
  Ni  Ni56  1  0.716100  0.536000  0.965800  1.0  0.7328
  Ni  Ni57  1  0.216100  0.964000  0.034200  1.0  0.7304
  Ni  Ni58  1  0.216100  0.464000  0.534200  1.0  0.7304
  Ni  Ni59  1  0.716100  0.964000  0.534200  1.0  0.7304
  Ni  Ni60  1  0.716100  0.464000  0.034200  1.0  0.7304
  Ni  Ni61  1  0.783900  0.036000  0.034200  1.0  0.7264
  Ni  Ni62  1  0.783900  0.536000  0.534200  1.0  0.7264
  Ni  Ni63  1  0.283900  0.036000  0.534200  1.0  0.7264
  Ni  Ni64  1  0.283900  0.536000  0.034200  1.0  0.7264
  Ni  Ni65  1  0.965800  0.783900  0.964000  1.0  0.7357
  Ni  Ni66  1  0.965800  0.283900  0.464000  1.0  0.7357
  Ni  Ni67  1  0.465800  0.783900  0.464000  1.0  0.7357
  Ni  Ni68  1  0.465800  0.283900  0.964000  1.0  0.7357
  Ni  Ni69  1  0.965800  0.216100  0.036000  1.0  0.7381
  Ni  Ni70  1  0.965800  0.716100  0.536000  1.0  0.7381
  Ni  Ni71  1  0.465800  0.216100  0.536000  1.0  0.7381
  Ni  Ni72  1  0.465800  0.716100  0.036000  1.0  0.7381
  Ni  Ni73  1  0.034200  0.216100  0.964000  1.0  0.7397
  Ni  Ni74  1  0.034200  0.716100  0.464000  1.0  0.7397
  Ni  Ni75  1  0.534200  0.216100  0.464000  1.0  0.7397
  Ni  Ni76  1  0.534200  0.716100  0.964000  1.0  0.7397
  Ni  Ni77  1  0.034200  0.783900  0.036000  1.0  0.7338
  Ni  Ni78  1  0.034200  0.283900  0.536000  1.0  0.7338
  Ni  Ni79  1  0.534200  0.783900  0.536000  1.0  0.7338
  Ni  Ni80  1  0.534200  0.283900  0.036000  1.0  0.7338
  Ni  Ni81  1  0.964000  0.965800  0.783900  1.0  0.7262
  Ni  Ni82  1  0.964000  0.465800  0.283900  1.0  0.7262
  Ni  Ni83  1  0.464000  0.965800  0.283900  1.0  0.7262
  Ni  Ni84  1  0.464000  0.465800  0.783900  1.0  0.7262
  Ni  Ni85  1  0.036000  0.965800  0.216100  1.0  0.7304
  Ni  Ni86  1  0.036000  0.465800  0.716100  1.0  0.7304
  Ni  Ni87  1  0.536000  0.965800  0.716100  1.0  0.7304
  Ni  Ni88  1  0.536000  0.465800  0.216100  1.0  0.7304
  Ni  Ni89  1  0.964000  0.034200  0.216100  1.0  0.7299
  Ni  Ni90  1  0.964000  0.534200  0.716100  1.0  0.7299
  Ni  Ni91  1  0.464000  0.034200  0.716100  1.0  0.7299
  Ni  Ni92  1  0.464000  0.534200  0.216100  1.0  0.7299
  Ni  Ni93  1  0.036000  0.034200  0.783900  1.0  0.7292
  Ni  Ni94  1  0.036000  0.534200  0.283900  1.0  0.7292
  Ni  Ni95  1  0.536000  0.034200  0.283900  1.0  0.7292
  Ni  Ni96  1  0.536000  0.534200  0.783900  1.0  0.7292
  Ni  Ni97  1  0.321470  0.000000  0.000000  1.0  0.885
  Ni  Ni98  1  0.321470  0.500000  0.500000  1.0  0.885
  Ni  Ni99  1  0.821470  0.000000  0.500000  1.0  0.885
  Ni  Ni100  1  0.821470  0.500000  0.000000  1.0  0.885
  Ni  Ni101  1  0.678530  0.000000  0.000000  1.0  0.8818
  Ni  Ni102  1  0.678530  0.500000  0.500000  1.0  0.8818
  Ni  Ni103  1  0.178530  0.000000  0.500000  1.0  0.8818
  Ni  Ni104  1  0.178530  0.500000  0.000000  1.0  0.8818
  Ni  Ni105  1  0.000000  0.321470  0.000000  1.0  0.8887
  Ni  Ni106  1  0.000000  0.821470  0.500000  1.0  0.8887
  Ni  Ni107  1  0.500000  0.321470  0.500000  1.0  0.8887
  Ni  Ni108  1  0.500000  0.821470  0.000000  1.0  0.8887
  Ni  Ni109  1  0.000000  0.678530  0.000000  1.0  0.8861
  Ni  Ni110  1  0.000000  0.178530  0.500000  1.0  0.8861
  Ni  Ni111  1  0.500000  0.678530  0.500000  1.0  0.8861
  Ni  Ni112  1  0.500000  0.178530  0.000000  1.0  0.8861
  Ni  Ni113  1  0.000000  0.000000  0.321470  1.0  0.8827
  Ni  Ni114  1  0.000000  0.500000  0.821470  1.0  0.8827
  Ni  Ni115  1  0.500000  0.000000  0.821470  1.0  0.8827
  Ni  Ni116  1  0.500000  0.500000  0.321470  1.0  0.8827
  Ni  Ni117  1  0.000000  0.000000  0.678530  1.0  0.8831
  Ni  Ni118  1  0.000000  0.500000  0.178530  1.0  0.8831
  Ni  Ni119  1  0.500000  0.000000  0.178530  1.0  0.8831
  Ni  Ni120  1  0.500000  0.500000  0.678530  1.0  0.8831
  H  H121  1  0.368000  0.120800  0.000000  1.0  0.1402
  H  H122  1  0.243400  0.155300  0.000000  1.0  0.1522
  H  H123  1  0.335600  0.246000  0.000000  1.0  0.1474
  H  H124  1  0.368000  0.620800  0.500000  1.0  0.1402
  H  H125  1  0.243400  0.655300  0.500000  1.0  0.1522
  H  H126  1  0.335600  0.746000  0.500000  1.0  0.1474
  H  H127  1  0.868000  0.120800  0.500000  1.0  0.1402
  H  H128  1  0.743400  0.155300  0.500000  1.0  0.1522
  H  H129  1  0.835600  0.246000  0.500000  1.0  0.1474
  H  H130  1  0.868000  0.620800  0.000000  1.0  0.1402
  H  H131  1  0.743400  0.655300  0.000000  1.0  0.1522
  H  H132  1  0.835600  0.746000  0.000000  1.0  0.1474
  H  H133  1  0.632000  0.879200  0.000000  1.0  0.1404
  H  H134  1  0.756600  0.844700  0.000000  1.0  0.1521
  H  H135  1  0.664400  0.754000  0.000000  1.0  0.1476
  H  H136  1  0.632000  0.379200  0.500000  1.0  0.1404
  H  H137  1  0.756600  0.344700  0.500000  1.0  0.1521
  H  H138  1  0.664400  0.254000  0.500000  1.0  0.1476
  H  H139  1  0.132000  0.879200  0.500000  1.0  0.1404
  H  H140  1  0.256600  0.844700  0.500000  1.0  0.1521
  H  H141  1  0.164400  0.754000  0.500000  1.0  0.1476
  H  H142  1  0.132000  0.379200  0.000000  1.0  0.1404
  H  H143  1  0.256600  0.344700  0.000000  1.0  0.1521
  H  H144  1  0.164400  0.254000  0.000000  1.0  0.1476
  H  H145  1  0.632000  0.120800  0.000000  1.0  0.1404
  H  H146  1  0.756600  0.155300  0.000000  1.0  0.1521
  H  H147  1  0.664400  0.246000  0.000000  1.0  0.1477
  H  H148  1  0.632000  0.620800  0.500000  1.0  0.1404
  H  H149  1  0.756600  0.655300  0.500000  1.0  0.1521
  H  H150  1  0.664400  0.746000  0.500000  1.0  0.1477
  H  H151  1  0.132000  0.120800  0.500000  1.0  0.1404
  H  H152  1  0.256600  0.155300  0.500000  1.0  0.1521
  H  H153  1  0.164400  0.246000  0.500000  1.0  0.1477
  H  H154  1  0.132000  0.620800  0.000000  1.0  0.1404
  H  H155  1  0.256600  0.655300  0.000000  1.0  0.1521
  H  H156  1  0.164400  0.746000  0.000000  1.0  0.1477
  H  H157  1  0.368000  0.879200  0.000000  1.0  0.1404
  H  H158  1  0.243400  0.844700  0.000000  1.0  0.1523
  H  H159  1  0.335600  0.754000  0.000000  1.0  0.1475
  H  H160  1  0.368000  0.379200  0.500000  1.0  0.1404
  H  H161  1  0.243400  0.344700  0.500000  1.0  0.1523
  H  H162  1  0.335600  0.254000  0.500000  1.0  0.1475
  H  H163  1  0.868000  0.879200  0.500000  1.0  0.1404
  H  H164  1  0.743400  0.844700  0.500000  1.0  0.1523
  H  H165  1  0.835600  0.754000  0.500000  1.0  0.1475
  H  H166  1  0.868000  0.379200  0.000000  1.0  0.1404
  H  H167  1  0.743400  0.344700  0.000000  1.0  0.1523
  H  H168  1  0.835600  0.254000  0.000000  1.0  0.1475
  H  H169  1  0.000000  0.368000  0.120800  1.0  0.1423
  H  H170  1  0.000000  0.243400  0.155300  1.0  0.1539
  H  H171  1  0.000000  0.335600  0.246000  1.0  0.1465
  H  H172  1  0.000000  0.868000  0.620800  1.0  0.1423
  H  H173  1  0.000000  0.743400  0.655300  1.0  0.1539
  H  H174  1  0.000000  0.835600  0.746000  1.0  0.1465
  H  H175  1  0.500000  0.368000  0.620800  1.0  0.1423
  H  H176  1  0.500000  0.243400  0.655300  1.0  0.1539
  H  H177  1  0.500000  0.335600  0.746000  1.0  0.1465
  H  H178  1  0.500000  0.868000  0.120800  1.0  0.1423
  H  H179  1  0.500000  0.743400  0.155300  1.0  0.1539
  H  H180  1  0.500000  0.835600  0.246000  1.0  0.1465
  H  H181  1  0.000000  0.632000  0.879200  1.0  0.1424
  H  H182  1  0.000000  0.756600  0.844700  1.0  0.1532
  H  H183  1  0.000000  0.664400  0.754000  1.0  0.1468
  H  H184  1  0.000000  0.132000  0.379200  1.0  0.1424
  H  H185  1  0.000000  0.256600  0.344700  1.0  0.1532
  H  H186  1  0.000000  0.164400  0.254000  1.0  0.1468
  H  H187  1  0.500000  0.632000  0.379200  1.0  0.1424
  H  H188  1  0.500000  0.756600  0.344700  1.0  0.1532
  H  H189  1  0.500000  0.664400  0.254000  1.0  0.1468
  H  H190  1  0.500000  0.132000  0.879200  1.0  0.1424
  H  H191  1  0.500000  0.256600  0.844700  1.0  0.1532
  H  H192  1  0.500000  0.164400  0.754000  1.0  0.1468
  H  H193  1  0.000000  0.632000  0.120800  1.0  0.1421
  H  H194  1  0.000000  0.756600  0.155300  1.0  0.1533
  H  H195  1  0.000000  0.664400  0.246000  1.0  0.1465
  H  H196  1  0.000000  0.132000  0.620800  1.0  0.1421
  H  H197  1  0.000000  0.256600  0.655300  1.0  0.1533
  H  H198  1  0.000000  0.164400  0.746000  1.0  0.1465
  H  H199  1  0.500000  0.632000  0.620800  1.0  0.1421
  H  H200  1  0.500000  0.756600  0.655300  1.0  0.1533
  H  H201  1  0.500000  0.664400  0.746000  1.0  0.1465
  H  H202  1  0.500000  0.132000  0.120800  1.0  0.1421
  H  H203  1  0.500000  0.256600  0.155300  1.0  0.1533
  H  H204  1  0.500000  0.164400  0.246000  1.0  0.1465
  H  H205  1  0.000000  0.368000  0.879200  1.0  0.1424
  H  H206  1  0.000000  0.243400  0.844700  1.0  0.1536
  H  H207  1  0.000000  0.335600  0.754000  1.0  0.1467
  H  H208  1  0.000000  0.868000  0.379200  1.0  0.1424
  H  H209  1  0.000000  0.743400  0.344700  1.0  0.1536
  H  H210  1  0.000000  0.835600  0.254000  1.0  0.1467
  H  H211  1  0.500000  0.368000  0.379200  1.0  0.1424
  H  H212  1  0.500000  0.243400  0.344700  1.0  0.1536
  H  H213  1  0.500000  0.335600  0.254000  1.0  0.1467
  H  H214  1  0.500000  0.868000  0.879200  1.0  0.1424
  H  H215  1  0.500000  0.743400  0.844700  1.0  0.1536
  H  H216  1  0.500000  0.835600  0.754000  1.0  0.1467
  H  H217  1  0.120800  0.000000  0.368000  1.0  0.1417
  H  H218  1  0.155300  0.000000  0.243400  1.0  0.1541
  H  H219  1  0.246000  0.000000  0.335600  1.0  0.1474
  H  H220  1  0.120800  0.500000  0.868000  1.0  0.1417
  H  H221  1  0.155300  0.500000  0.743400  1.0  0.1541
  H  H222  1  0.246000  0.500000  0.835600  1.0  0.1474
  H  H223  1  0.620800  0.000000  0.868000  1.0  0.1417
  H  H224  1  0.655300  0.000000  0.743400  1.0  0.1541
  H  H225  1  0.746000  0.000000  0.835600  1.0  0.1474
  H  H226  1  0.620800  0.500000  0.368000  1.0  0.1417
  H  H227  1  0.655300  0.500000  0.243400  1.0  0.1541
  H  H228  1  0.746000  0.500000  0.335600  1.0  0.1474
  H  H229  1  0.879200  0.000000  0.632000  1.0  0.1417
  H  H230  1  0.844700  0.000000  0.756600  1.0  0.1527
  H  H231  1  0.754000  0.000000  0.664400  1.0  0.1479
  H  H232  1  0.879200  0.500000  0.132000  1.0  0.1417
  H  H233  1  0.844700  0.500000  0.256600  1.0  0.1527
  H  H234  1  0.754000  0.500000  0.164400  1.0  0.1479
  H  H235  1  0.379200  0.000000  0.132000  1.0  0.1417
  H  H236  1  0.344700  0.000000  0.256600  1.0  0.1527
  H  H237  1  0.254000  0.000000  0.164400  1.0  0.1479
  H  H238  1  0.379200  0.500000  0.632000  1.0  0.1417
  H  H239  1  0.344700  0.500000  0.756600  1.0  0.1527
  H  H240  1  0.254000  0.500000  0.664400  1.0  0.1479
  H  H241  1  0.120800  0.000000  0.632000  1.0  0.1416
  H  H242  1  0.155300  0.000000  0.756600  1.0  0.1528
  H  H243  1  0.246000  0.000000  0.664400  1.0  0.1473
  H  H244  1  0.120800  0.500000  0.132000  1.0  0.1416
  H  H245  1  0.155300  0.500000  0.256600  1.0  0.1528
  H  H246  1  0.246000  0.500000  0.164400  1.0  0.1473
  H  H247  1  0.620800  0.000000  0.132000  1.0  0.1416
  H  H248  1  0.655300  0.000000  0.256600  1.0  0.1528
  H  H249  1  0.746000  0.000000  0.164400  1.0  0.1473
  H  H250  1  0.620800  0.500000  0.632000  1.0  0.1416
  H  H251  1  0.655300  0.500000  0.756600  1.0  0.1528
  H  H252  1  0.746000  0.500000  0.664400  1.0  0.1473
  H  H253  1  0.879200  0.000000  0.368000  1.0  0.1417
  H  H254  1  0.844700  0.000000  0.243400  1.0  0.1542
  H  H255  1  0.754000  0.000000  0.335600  1.0  0.1478
  H  H256  1  0.879200  0.500000  0.868000  1.0  0.1417
  H  H257  1  0.844700  0.500000  0.743400  1.0  0.1542
  H  H258  1  0.754000  0.500000  0.835600  1.0  0.1478
  H  H259  1  0.379200  0.000000  0.868000  1.0  0.1417
  H  H260  1  0.344700  0.000000  0.743400  1.0  0.1542
  H  H261  1  0.254000  0.000000  0.835600  1.0  0.1478
  H  H262  1  0.379200  0.500000  0.368000  1.0  0.1417
  H  H263  1  0.344700  0.500000  0.243400  1.0  0.1542
  H  H264  1  0.254000  0.500000  0.335600  1.0  0.1478
  C  C265  1  0.358600  0.185200  0.000000  1.0  -0.1339
  C  C266  1  0.346800  0.142400  0.000000  1.0  0.0286
  C  C267  1  0.303800  0.131300  0.000000  1.0  -0.0474
  C  C268  1  0.272700  0.162900  0.000000  1.0  -0.0204
  C  C269  1  0.284500  0.205700  0.000000  1.0  0.0119
  C  C270  1  0.327500  0.216800  0.000000  1.0  -0.044
  C  C271  1  0.403400  0.203600  0.000000  1.0  0.7006
  C  C272  1  0.285700  0.084900  0.000000  1.0  0.3437
  C  C273  1  0.358600  0.685200  0.500000  1.0  -0.1339
  C  C274  1  0.346800  0.642400  0.500000  1.0  0.0286
  C  C275  1  0.303800  0.631300  0.500000  1.0  -0.0474
  C  C276  1  0.272700  0.662900  0.500000  1.0  -0.0204
  C  C277  1  0.284500  0.705700  0.500000  1.0  0.0119
  C  C278  1  0.327500  0.716800  0.500000  1.0  -0.044
  C  C279  1  0.403400  0.703600  0.500000  1.0  0.7006
  C  C280  1  0.285700  0.584900  0.500000  1.0  0.3437
  C  C281  1  0.858600  0.185200  0.500000  1.0  -0.1339
  C  C282  1  0.846800  0.142400  0.500000  1.0  0.0286
  C  C283  1  0.803800  0.131300  0.500000  1.0  -0.0474
  C  C284  1  0.772700  0.162900  0.500000  1.0  -0.0204
  C  C285  1  0.784500  0.205700  0.500000  1.0  0.0119
  C  C286  1  0.827500  0.216800  0.500000  1.0  -0.044
  C  C287  1  0.903400  0.203600  0.500000  1.0  0.7006
  C  C288  1  0.785700  0.084900  0.500000  1.0  0.3437
  C  C289  1  0.858600  0.685200  0.000000  1.0  -0.1339
  C  C290  1  0.846800  0.642400  0.000000  1.0  0.0286
  C  C291  1  0.803800  0.631300  0.000000  1.0  -0.0474
  C  C292  1  0.772700  0.662900  0.000000  1.0  -0.0204
  C  C293  1  0.784500  0.705700  0.000000  1.0  0.0119
  C  C294  1  0.827500  0.716800  0.000000  1.0  -0.044
  C  C295  1  0.903400  0.703600  0.000000  1.0  0.7006
  C  C296  1  0.785700  0.584900  0.000000  1.0  0.3437
  C  C297  1  0.641400  0.814800  0.000000  1.0  -0.1333
  C  C298  1  0.653200  0.857600  0.000000  1.0  0.0275
  C  C299  1  0.696200  0.868700  0.000000  1.0  -0.0474
  C  C300  1  0.727300  0.837100  0.000000  1.0  -0.0176
  C  C301  1  0.715500  0.794300  0.000000  1.0  0.0117
  C  C302  1  0.672500  0.783200  0.000000  1.0  -0.0418
  C  C303  1  0.596600  0.796400  0.000000  1.0  0.7003
  C  C304  1  0.714300  0.915100  0.000000  1.0  0.3434
  C  C305  1  0.641400  0.314800  0.500000  1.0  -0.1333
  C  C306  1  0.653200  0.357600  0.500000  1.0  0.0275
  C  C307  1  0.696200  0.368700  0.500000  1.0  -0.0474
  C  C308  1  0.727300  0.337100  0.500000  1.0  -0.0176
  C  C309  1  0.715500  0.294300  0.500000  1.0  0.0117
  C  C310  1  0.672500  0.283200  0.500000  1.0  -0.0418
  C  C311  1  0.596600  0.296400  0.500000  1.0  0.7003
  C  C312  1  0.714300  0.415100  0.500000  1.0  0.3434
  C  C313  1  0.141400  0.814800  0.500000  1.0  -0.1333
  C  C314  1  0.153200  0.857600  0.500000  1.0  0.0275
  C  C315  1  0.196200  0.868700  0.500000  1.0  -0.0474
  C  C316  1  0.227300  0.837100  0.500000  1.0  -0.0176
  C  C317  1  0.215500  0.794300  0.500000  1.0  0.0117
  C  C318  1  0.172500  0.783200  0.500000  1.0  -0.0418
  C  C319  1  0.096600  0.796400  0.500000  1.0  0.7003
  C  C320  1  0.214300  0.915100  0.500000  1.0  0.3434
  C  C321  1  0.141400  0.314800  0.000000  1.0  -0.1333
  C  C322  1  0.153200  0.357600  0.000000  1.0  0.0275
  C  C323  1  0.196200  0.368700  0.000000  1.0  -0.0474
  C  C324  1  0.227300  0.337100  0.000000  1.0  -0.0176
  C  C325  1  0.215500  0.294300  0.000000  1.0  0.0117
  C  C326  1  0.172500  0.283200  0.000000  1.0  -0.0418
  C  C327  1  0.096600  0.296400  0.000000  1.0  0.7003
  C  C328  1  0.214300  0.415100  0.000000  1.0  0.3434
  C  C329  1  0.641400  0.185200  0.000000  1.0  -0.1331
  C  C330  1  0.653200  0.142400  0.000000  1.0  0.0289
  C  C331  1  0.696200  0.131300  0.000000  1.0  -0.0472
  C  C332  1  0.727300  0.162900  0.000000  1.0  -0.0177
  C  C333  1  0.715500  0.205700  0.000000  1.0  0.0121
  C  C334  1  0.672500  0.216800  0.000000  1.0  -0.0442
  C  C335  1  0.596600  0.203600  0.000000  1.0  0.7003
  C  C336  1  0.714300  0.084900  0.000000  1.0  0.3439
  C  C337  1  0.641400  0.685200  0.500000  1.0  -0.1331
  C  C338  1  0.653200  0.642400  0.500000  1.0  0.0289
  C  C339  1  0.696200  0.631300  0.500000  1.0  -0.0472
  C  C340  1  0.727300  0.662900  0.500000  1.0  -0.0177
  C  C341  1  0.715500  0.705700  0.500000  1.0  0.0121
  C  C342  1  0.672500  0.716800  0.500000  1.0  -0.0442
  C  C343  1  0.596600  0.703600  0.500000  1.0  0.7003
  C  C344  1  0.714300  0.584900  0.500000  1.0  0.3439
  C  C345  1  0.141400  0.185200  0.500000  1.0  -0.1331
  C  C346  1  0.153200  0.142400  0.500000  1.0  0.0289
  C  C347  1  0.196200  0.131300  0.500000  1.0  -0.0472
  C  C348  1  0.227300  0.162900  0.500000  1.0  -0.0177
  C  C349  1  0.215500  0.205700  0.500000  1.0  0.0121
  C  C350  1  0.172500  0.216800  0.500000  1.0  -0.0442
  C  C351  1  0.096600  0.203600  0.500000  1.0  0.7003
  C  C352  1  0.214300  0.084900  0.500000  1.0  0.3439
  C  C353  1  0.141400  0.685200  0.000000  1.0  -0.1331
  C  C354  1  0.153200  0.642400  0.000000  1.0  0.0289
  C  C355  1  0.196200  0.631300  0.000000  1.0  -0.0472
  C  C356  1  0.227300  0.662900  0.000000  1.0  -0.0177
  C  C357  1  0.215500  0.705700  0.000000  1.0  0.0121
  C  C358  1  0.172500  0.716800  0.000000  1.0  -0.0442
  C  C359  1  0.096600  0.703600  0.000000  1.0  0.7003
  C  C360  1  0.214300  0.584900  0.000000  1.0  0.3439
  C  C361  1  0.358600  0.814800  0.000000  1.0  -0.134
  C  C362  1  0.346800  0.857600  0.000000  1.0  0.027
  C  C363  1  0.303800  0.868700  0.000000  1.0  -0.0473
  C  C364  1  0.272700  0.837100  0.000000  1.0  -0.0206
  C  C365  1  0.284500  0.794300  0.000000  1.0  0.0111
  C  C366  1  0.327500  0.783200  0.000000  1.0  -0.0416
  C  C367  1  0.403400  0.796400  0.000000  1.0  0.7006
  C  C368  1  0.285700  0.915100  0.000000  1.0  0.3432
  C  C369  1  0.358600  0.314800  0.500000  1.0  -0.134
  C  C370  1  0.346800  0.357600  0.500000  1.0  0.027
  C  C371  1  0.303800  0.368700  0.500000  1.0  -0.0473
  C  C372  1  0.272700  0.337100  0.500000  1.0  -0.0206
  C  C373  1  0.284500  0.294300  0.500000  1.0  0.0111
  C  C374  1  0.327500  0.283200  0.500000  1.0  -0.0416
  C  C375  1  0.403400  0.296400  0.500000  1.0  0.7006
  C  C376  1  0.285700  0.415100  0.500000  1.0  0.3432
  C  C377  1  0.858600  0.814800  0.500000  1.0  -0.134
  C  C378  1  0.846800  0.857600  0.500000  1.0  0.027
  C  C379  1  0.803800  0.868700  0.500000  1.0  -0.0473
  C  C380  1  0.772700  0.837100  0.500000  1.0  -0.0206
  C  C381  1  0.784500  0.794300  0.500000  1.0  0.0111
  C  C382  1  0.827500  0.783200  0.500000  1.0  -0.0416
  C  C383  1  0.903400  0.796400  0.500000  1.0  0.7006
  C  C384  1  0.785700  0.915100  0.500000  1.0  0.3432
  C  C385  1  0.858600  0.314800  0.000000  1.0  -0.134
  C  C386  1  0.846800  0.357600  0.000000  1.0  0.027
  C  C387  1  0.803800  0.368700  0.000000  1.0  -0.0473
  C  C388  1  0.772700  0.337100  0.000000  1.0  -0.0206
  C  C389  1  0.784500  0.294300  0.000000  1.0  0.0111
  C  C390  1  0.827500  0.283200  0.000000  1.0  -0.0416
  C  C391  1  0.903400  0.296400  0.000000  1.0  0.7006
  C  C392  1  0.785700  0.415100  0.000000  1.0  0.3432
  C  C393  1  0.000000  0.358600  0.185200  1.0  -0.1328
  C  C394  1  0.000000  0.346800  0.142400  1.0  0.0242
  C  C395  1  0.000000  0.303800  0.131300  1.0  -0.048
  C  C396  1  0.000000  0.272700  0.162900  1.0  -0.0206
  C  C397  1  0.000000  0.284500  0.205700  1.0  0.0099
  C  C398  1  0.000000  0.327500  0.216800  1.0  -0.0437
  C  C399  1  0.000000  0.403400  0.203600  1.0  0.7046
  C  C400  1  0.000000  0.285700  0.084900  1.0  0.3466
  C  C401  1  0.000000  0.858600  0.685200  1.0  -0.1328
  C  C402  1  0.000000  0.846800  0.642400  1.0  0.0242
  C  C403  1  0.000000  0.803800  0.631300  1.0  -0.048
  C  C404  1  0.000000  0.772700  0.662900  1.0  -0.0206
  C  C405  1  0.000000  0.784500  0.705700  1.0  0.0099
  C  C406  1  0.000000  0.827500  0.716800  1.0  -0.0437
  C  C407  1  0.000000  0.903400  0.703600  1.0  0.7046
  C  C408  1  0.000000  0.785700  0.584900  1.0  0.3466
  C  C409  1  0.500000  0.358600  0.685200  1.0  -0.1328
  C  C410  1  0.500000  0.346800  0.642400  1.0  0.0242
  C  C411  1  0.500000  0.303800  0.631300  1.0  -0.048
  C  C412  1  0.500000  0.272700  0.662900  1.0  -0.0206
  C  C413  1  0.500000  0.284500  0.705700  1.0  0.0099
  C  C414  1  0.500000  0.327500  0.716800  1.0  -0.0437
  C  C415  1  0.500000  0.403400  0.703600  1.0  0.7046
  C  C416  1  0.500000  0.285700  0.584900  1.0  0.3466
  C  C417  1  0.500000  0.858600  0.185200  1.0  -0.1328
  C  C418  1  0.500000  0.846800  0.142400  1.0  0.0242
  C  C419  1  0.500000  0.803800  0.131300  1.0  -0.048
  C  C420  1  0.500000  0.772700  0.162900  1.0  -0.0206
  C  C421  1  0.500000  0.784500  0.205700  1.0  0.0099
  C  C422  1  0.500000  0.827500  0.216800  1.0  -0.0437
  C  C423  1  0.500000  0.903400  0.203600  1.0  0.7046
  C  C424  1  0.500000  0.785700  0.084900  1.0  0.3466
  C  C425  1  0.000000  0.641400  0.814800  1.0  -0.1327
  C  C426  1  0.000000  0.653200  0.857600  1.0  0.0268
  C  C427  1  0.000000  0.696200  0.868700  1.0  -0.0488
  C  C428  1  0.000000  0.727300  0.837100  1.0  -0.0211
  C  C429  1  0.000000  0.715500  0.794300  1.0  0.0119
  C  C430  1  0.000000  0.672500  0.783200  1.0  -0.0427
  C  C431  1  0.000000  0.596600  0.796400  1.0  0.7032
  C  C432  1  0.000000  0.714300  0.915100  1.0  0.3454
  C  C433  1  0.000000  0.141400  0.314800  1.0  -0.1327
  C  C434  1  0.000000  0.153200  0.357600  1.0  0.0268
  C  C435  1  0.000000  0.196200  0.368700  1.0  -0.0488
  C  C436  1  0.000000  0.227300  0.337100  1.0  -0.0211
  C  C437  1  0.000000  0.215500  0.294300  1.0  0.0119
  C  C438  1  0.000000  0.172500  0.283200  1.0  -0.0427
  C  C439  1  0.000000  0.096600  0.296400  1.0  0.7032
  C  C440  1  0.000000  0.214300  0.415100  1.0  0.3454
  C  C441  1  0.500000  0.641400  0.314800  1.0  -0.1327
  C  C442  1  0.500000  0.653200  0.357600  1.0  0.0268
  C  C443  1  0.500000  0.696200  0.368700  1.0  -0.0488
  C  C444  1  0.500000  0.727300  0.337100  1.0  -0.0211
  C  C445  1  0.500000  0.715500  0.294300  1.0  0.0119
  C  C446  1  0.500000  0.672500  0.283200  1.0  -0.0427
  C  C447  1  0.500000  0.596600  0.296400  1.0  0.7032
  C  C448  1  0.500000  0.714300  0.415100  1.0  0.3454
  C  C449  1  0.500000  0.141400  0.814800  1.0  -0.1327
  C  C450  1  0.500000  0.153200  0.857600  1.0  0.0268
  C  C451  1  0.500000  0.196200  0.868700  1.0  -0.0488
  C  C452  1  0.500000  0.227300  0.837100  1.0  -0.0211
  C  C453  1  0.500000  0.215500  0.794300  1.0  0.0119
  C  C454  1  0.500000  0.172500  0.783200  1.0  -0.0427
  C  C455  1  0.500000  0.096600  0.796400  1.0  0.7032
  C  C456  1  0.500000  0.214300  0.915100  1.0  0.3454
  C  C457  1  0.000000  0.641400  0.185200  1.0  -0.1327
  C  C458  1  0.000000  0.653200  0.142400  1.0  0.0251
  C  C459  1  0.000000  0.696200  0.131300  1.0  -0.0477
  C  C460  1  0.000000  0.727300  0.162900  1.0  -0.0213
  C  C461  1  0.000000  0.715500  0.205700  1.0  0.0113
  C  C462  1  0.000000  0.672500  0.216800  1.0  -0.0435
  C  C463  1  0.000000  0.596600  0.203600  1.0  0.703
  C  C464  1  0.000000  0.714300  0.084900  1.0  0.3465
  C  C465  1  0.000000  0.141400  0.685200  1.0  -0.1327
  C  C466  1  0.000000  0.153200  0.642400  1.0  0.0251
  C  C467  1  0.000000  0.196200  0.631300  1.0  -0.0477
  C  C468  1  0.000000  0.227300  0.662900  1.0  -0.0213
  C  C469  1  0.000000  0.215500  0.705700  1.0  0.0113
  C  C470  1  0.000000  0.172500  0.716800  1.0  -0.0435
  C  C471  1  0.000000  0.096600  0.703600  1.0  0.703
  C  C472  1  0.000000  0.214300  0.584900  1.0  0.3465
  C  C473  1  0.500000  0.641400  0.685200  1.0  -0.1327
  C  C474  1  0.500000  0.653200  0.642400  1.0  0.0251
  C  C475  1  0.500000  0.696200  0.631300  1.0  -0.0477
  C  C476  1  0.500000  0.727300  0.662900  1.0  -0.0213
  C  C477  1  0.500000  0.715500  0.705700  1.0  0.0113
  C  C478  1  0.500000  0.672500  0.716800  1.0  -0.0435
  C  C479  1  0.500000  0.596600  0.703600  1.0  0.703
  C  C480  1  0.500000  0.714300  0.584900  1.0  0.3465
  C  C481  1  0.500000  0.141400  0.185200  1.0  -0.1327
  C  C482  1  0.500000  0.153200  0.142400  1.0  0.0251
  C  C483  1  0.500000  0.196200  0.131300  1.0  -0.0477
  C  C484  1  0.500000  0.227300  0.162900  1.0  -0.0213
  C  C485  1  0.500000  0.215500  0.205700  1.0  0.0113
  C  C486  1  0.500000  0.172500  0.216800  1.0  -0.0435
  C  C487  1  0.500000  0.096600  0.203600  1.0  0.703
  C  C488  1  0.500000  0.214300  0.084900  1.0  0.3465
  C  C489  1  0.000000  0.358600  0.814800  1.0  -0.1327
  C  C490  1  0.000000  0.346800  0.857600  1.0  0.0237
  C  C491  1  0.000000  0.303800  0.868700  1.0  -0.0488
  C  C492  1  0.000000  0.272700  0.837100  1.0  -0.0207
  C  C493  1  0.000000  0.284500  0.794300  1.0  0.01
  C  C494  1  0.000000  0.327500  0.783200  1.0  -0.0433
  C  C495  1  0.000000  0.403400  0.796400  1.0  0.7047
  C  C496  1  0.000000  0.285700  0.915100  1.0  0.3454
  C  C497  1  0.000000  0.858600  0.314800  1.0  -0.1327
  C  C498  1  0.000000  0.846800  0.357600  1.0  0.0237
  C  C499  1  0.000000  0.803800  0.368700  1.0  -0.0488
  C  C500  1  0.000000  0.772700  0.337100  1.0  -0.0207
  C  C501  1  0.000000  0.784500  0.294300  1.0  0.01
  C  C502  1  0.000000  0.827500  0.283200  1.0  -0.0433
  C  C503  1  0.000000  0.903400  0.296400  1.0  0.7047
  C  C504  1  0.000000  0.785700  0.415100  1.0  0.3454
  C  C505  1  0.500000  0.358600  0.314800  1.0  -0.1327
  C  C506  1  0.500000  0.346800  0.357600  1.0  0.0237
  C  C507  1  0.500000  0.303800  0.368700  1.0  -0.0488
  C  C508  1  0.500000  0.272700  0.337100  1.0  -0.0207
  C  C509  1  0.500000  0.284500  0.294300  1.0  0.01
  C  C510  1  0.500000  0.327500  0.283200  1.0  -0.0433
  C  C511  1  0.500000  0.403400  0.296400  1.0  0.7047
  C  C512  1  0.500000  0.285700  0.415100  1.0  0.3454
  C  C513  1  0.500000  0.858600  0.814800  1.0  -0.1327
  C  C514  1  0.500000  0.846800  0.857600  1.0  0.0237
  C  C515  1  0.500000  0.803800  0.868700  1.0  -0.0488
  C  C516  1  0.500000  0.772700  0.837100  1.0  -0.0207
  C  C517  1  0.500000  0.784500  0.794300  1.0  0.01
  C  C518  1  0.500000  0.827500  0.783200  1.0  -0.0433
  C  C519  1  0.500000  0.903400  0.796400  1.0  0.7047
  C  C520  1  0.500000  0.785700  0.915100  1.0  0.3454
  C  C521  1  0.185200  0.000000  0.358600  1.0  -0.134
  C  C522  1  0.142400  0.000000  0.346800  1.0  0.0261
  C  C523  1  0.131300  0.000000  0.303800  1.0  -0.0478
  C  C524  1  0.162900  0.000000  0.272700  1.0  -0.0196
  C  C525  1  0.205700  0.000000  0.284500  1.0  0.009
  C  C526  1  0.216800  0.000000  0.327500  1.0  -0.0397
  C  C527  1  0.203600  0.000000  0.403400  1.0  0.7053
  C  C528  1  0.084900  0.000000  0.285700  1.0  0.3428
  C  C529  1  0.185200  0.500000  0.858600  1.0  -0.134
  C  C530  1  0.142400  0.500000  0.846800  1.0  0.0261
  C  C531  1  0.131300  0.500000  0.803800  1.0  -0.0478
  C  C532  1  0.162900  0.500000  0.772700  1.0  -0.0196
  C  C533  1  0.205700  0.500000  0.784500  1.0  0.009
  C  C534  1  0.216800  0.500000  0.827500  1.0  -0.0397
  C  C535  1  0.203600  0.500000  0.903400  1.0  0.7053
  C  C536  1  0.084900  0.500000  0.785700  1.0  0.3428
  C  C537  1  0.685200  0.000000  0.858600  1.0  -0.134
  C  C538  1  0.642400  0.000000  0.846800  1.0  0.0261
  C  C539  1  0.631300  0.000000  0.803800  1.0  -0.0478
  C  C540  1  0.662900  0.000000  0.772700  1.0  -0.0196
  C  C541  1  0.705700  0.000000  0.784500  1.0  0.009
  C  C542  1  0.716800  0.000000  0.827500  1.0  -0.0397
  C  C543  1  0.703600  0.000000  0.903400  1.0  0.7053
  C  C544  1  0.584900  0.000000  0.785700  1.0  0.3428
  C  C545  1  0.685200  0.500000  0.358600  1.0  -0.134
  C  C546  1  0.642400  0.500000  0.346800  1.0  0.0261
  C  C547  1  0.631300  0.500000  0.303800  1.0  -0.0478
  C  C548  1  0.662900  0.500000  0.272700  1.0  -0.0196
  C  C549  1  0.705700  0.500000  0.284500  1.0  0.009
  C  C550  1  0.716800  0.500000  0.327500  1.0  -0.0397
  C  C551  1  0.703600  0.500000  0.403400  1.0  0.7053
  C  C552  1  0.584900  0.500000  0.285700  1.0  0.3428
  C  C553  1  0.814800  0.000000  0.641400  1.0  -0.1332
  C  C554  1  0.857600  0.000000  0.653200  1.0  0.0259
  C  C555  1  0.868700  0.000000  0.696200  1.0  -0.0487
  C  C556  1  0.837100  0.000000  0.727300  1.0  -0.0189
  C  C557  1  0.794300  0.000000  0.715500  1.0  0.0087
  C  C558  1  0.783200  0.000000  0.672500  1.0  -0.0422
  C  C559  1  0.796400  0.000000  0.596600  1.0  0.7049
  C  C560  1  0.915100  0.000000  0.714300  1.0  0.3438
  C  C561  1  0.814800  0.500000  0.141400  1.0  -0.1332
  C  C562  1  0.857600  0.500000  0.153200  1.0  0.0259
  C  C563  1  0.868700  0.500000  0.196200  1.0  -0.0487
  C  C564  1  0.837100  0.500000  0.227300  1.0  -0.0189
  C  C565  1  0.794300  0.500000  0.215500  1.0  0.0087
  C  C566  1  0.783200  0.500000  0.172500  1.0  -0.0422
  C  C567  1  0.796400  0.500000  0.096600  1.0  0.7049
  C  C568  1  0.915100  0.500000  0.214300  1.0  0.3438
  C  C569  1  0.314800  0.000000  0.141400  1.0  -0.1332
  C  C570  1  0.357600  0.000000  0.153200  1.0  0.0259
  C  C571  1  0.368700  0.000000  0.196200  1.0  -0.0487
  C  C572  1  0.337100  0.000000  0.227300  1.0  -0.0189
  C  C573  1  0.294300  0.000000  0.215500  1.0  0.0087
  C  C574  1  0.283200  0.000000  0.172500  1.0  -0.0422
  C  C575  1  0.296400  0.000000  0.096600  1.0  0.7049
  C  C576  1  0.415100  0.000000  0.214300  1.0  0.3438
  C  C577  1  0.314800  0.500000  0.641400  1.0  -0.1332
  C  C578  1  0.357600  0.500000  0.653200  1.0  0.0259
  C  C579  1  0.368700  0.500000  0.696200  1.0  -0.0487
  C  C580  1  0.337100  0.500000  0.727300  1.0  -0.0189
  C  C581  1  0.294300  0.500000  0.715500  1.0  0.0087
  C  C582  1  0.283200  0.500000  0.672500  1.0  -0.0422
  C  C583  1  0.296400  0.500000  0.596600  1.0  0.7049
  C  C584  1  0.415100  0.500000  0.714300  1.0  0.3438
  C  C585  1  0.185200  0.000000  0.641400  1.0  -0.1335
  C  C586  1  0.142400  0.000000  0.653200  1.0  0.0258
  C  C587  1  0.131300  0.000000  0.696200  1.0  -0.0478
  C  C588  1  0.162900  0.000000  0.727300  1.0  -0.0199
  C  C589  1  0.205700  0.000000  0.715500  1.0  0.0084
  C  C590  1  0.216800  0.000000  0.672500  1.0  -0.0396
  C  C591  1  0.203600  0.000000  0.596600  1.0  0.705
  C  C592  1  0.084900  0.000000  0.714300  1.0  0.3431
  C  C593  1  0.185200  0.500000  0.141400  1.0  -0.1335
  C  C594  1  0.142400  0.500000  0.153200  1.0  0.0258
  C  C595  1  0.131300  0.500000  0.196200  1.0  -0.0478
  C  C596  1  0.162900  0.500000  0.227300  1.0  -0.0199
  C  C597  1  0.205700  0.500000  0.215500  1.0  0.0084
  C  C598  1  0.216800  0.500000  0.172500  1.0  -0.0396
  C  C599  1  0.203600  0.500000  0.096600  1.0  0.705
  C  C600  1  0.084900  0.500000  0.214300  1.0  0.3431
  C  C601  1  0.685200  0.000000  0.141400  1.0  -0.1335
  C  C602  1  0.642400  0.000000  0.153200  1.0  0.0258
  C  C603  1  0.631300  0.000000  0.196200  1.0  -0.0478
  C  C604  1  0.662900  0.000000  0.227300  1.0  -0.0199
  C  C605  1  0.705700  0.000000  0.215500  1.0  0.0084
  C  C606  1  0.716800  0.000000  0.172500  1.0  -0.0396
  C  C607  1  0.703600  0.000000  0.096600  1.0  0.705
  C  C608  1  0.584900  0.000000  0.214300  1.0  0.3431
  C  C609  1  0.685200  0.500000  0.641400  1.0  -0.1335
  C  C610  1  0.642400  0.500000  0.653200  1.0  0.0258
  C  C611  1  0.631300  0.500000  0.696200  1.0  -0.0478
  C  C612  1  0.662900  0.500000  0.727300  1.0  -0.0199
  C  C613  1  0.705700  0.500000  0.715500  1.0  0.0084
  C  C614  1  0.716800  0.500000  0.672500  1.0  -0.0396
  C  C615  1  0.703600  0.500000  0.596600  1.0  0.705
  C  C616  1  0.584900  0.500000  0.714300  1.0  0.3431
  C  C617  1  0.814800  0.000000  0.358600  1.0  -0.1339
  C  C618  1  0.857600  0.000000  0.346800  1.0  0.0267
  C  C619  1  0.868700  0.000000  0.303800  1.0  -0.0485
  C  C620  1  0.837100  0.000000  0.272700  1.0  -0.0195
  C  C621  1  0.794300  0.000000  0.284500  1.0  0.0091
  C  C622  1  0.783200  0.000000  0.327500  1.0  -0.0424
  C  C623  1  0.796400  0.000000  0.403400  1.0  0.7052
  C  C624  1  0.915100  0.000000  0.285700  1.0  0.3437
  C  C625  1  0.814800  0.500000  0.858600  1.0  -0.1339
  C  C626  1  0.857600  0.500000  0.846800  1.0  0.0267
  C  C627  1  0.868700  0.500000  0.803800  1.0  -0.0485
  C  C628  1  0.837100  0.500000  0.772700  1.0  -0.0195
  C  C629  1  0.794300  0.500000  0.784500  1.0  0.0091
  C  C630  1  0.783200  0.500000  0.827500  1.0  -0.0424
  C  C631  1  0.796400  0.500000  0.903400  1.0  0.7052
  C  C632  1  0.915100  0.500000  0.785700  1.0  0.3437
  C  C633  1  0.314800  0.000000  0.858600  1.0  -0.1339
  C  C634  1  0.357600  0.000000  0.846800  1.0  0.0267
  C  C635  1  0.368700  0.000000  0.803800  1.0  -0.0485
  C  C636  1  0.337100  0.000000  0.772700  1.0  -0.0195
  C  C637  1  0.294300  0.000000  0.784500  1.0  0.0091
  C  C638  1  0.283200  0.000000  0.827500  1.0  -0.0424
  C  C639  1  0.296400  0.000000  0.903400  1.0  0.7052
  C  C640  1  0.415100  0.000000  0.785700  1.0  0.3437
  C  C641  1  0.314800  0.500000  0.358600  1.0  -0.1339
  C  C642  1  0.357600  0.500000  0.346800  1.0  0.0267
  C  C643  1  0.368700  0.500000  0.303800  1.0  -0.0485
  C  C644  1  0.337100  0.500000  0.272700  1.0  -0.0195
  C  C645  1  0.294300  0.500000  0.284500  1.0  0.0091
  C  C646  1  0.283200  0.500000  0.327500  1.0  -0.0424
  C  C647  1  0.296400  0.500000  0.403400  1.0  0.7052
  C  C648  1  0.415100  0.500000  0.285700  1.0  0.3437
  N  N649  1  0.243900  0.231300  0.000000  1.0  -0.2508
  N  N650  1  0.243900  0.731300  0.500000  1.0  -0.2508
  N  N651  1  0.743900  0.231300  0.500000  1.0  -0.2508
  N  N652  1  0.743900  0.731300  0.000000  1.0  -0.2508
  N  N653  1  0.756100  0.768700  0.000000  1.0  -0.2486
  N  N654  1  0.756100  0.268700  0.500000  1.0  -0.2486
  N  N655  1  0.256100  0.768700  0.500000  1.0  -0.2486
  N  N656  1  0.256100  0.268700  0.000000  1.0  -0.2486
  N  N657  1  0.756100  0.231300  0.000000  1.0  -0.2488
  N  N658  1  0.756100  0.731300  0.500000  1.0  -0.2488
  N  N659  1  0.256100  0.231300  0.500000  1.0  -0.2488
  N  N660  1  0.256100  0.731300  0.000000  1.0  -0.2488
  N  N661  1  0.243900  0.768700  0.000000  1.0  -0.2503
  N  N662  1  0.243900  0.268700  0.500000  1.0  -0.2503
  N  N663  1  0.743900  0.768700  0.500000  1.0  -0.2503
  N  N664  1  0.743900  0.268700  0.000000  1.0  -0.2503
  N  N665  1  0.000000  0.243900  0.231300  1.0  -0.2496
  N  N666  1  0.000000  0.743900  0.731300  1.0  -0.2496
  N  N667  1  0.500000  0.243900  0.731300  1.0  -0.2496
  N  N668  1  0.500000  0.743900  0.231300  1.0  -0.2496
  N  N669  1  0.000000  0.756100  0.768700  1.0  -0.2481
  N  N670  1  0.000000  0.256100  0.268700  1.0  -0.2481
  N  N671  1  0.500000  0.756100  0.268700  1.0  -0.2481
  N  N672  1  0.500000  0.256100  0.768700  1.0  -0.2481
  N  N673  1  0.000000  0.756100  0.231300  1.0  -0.2499
  N  N674  1  0.000000  0.256100  0.731300  1.0  -0.2499
  N  N675  1  0.500000  0.756100  0.731300  1.0  -0.2499
  N  N676  1  0.500000  0.256100  0.231300  1.0  -0.2499
  N  N677  1  0.000000  0.243900  0.768700  1.0  -0.2469
  N  N678  1  0.000000  0.743900  0.268700  1.0  -0.2469
  N  N679  1  0.500000  0.243900  0.268700  1.0  -0.2469
  N  N680  1  0.500000  0.743900  0.768700  1.0  -0.2469
  N  N681  1  0.231300  0.000000  0.243900  1.0  -0.2527
  N  N682  1  0.231300  0.500000  0.743900  1.0  -0.2527
  N  N683  1  0.731300  0.000000  0.743900  1.0  -0.2527
  N  N684  1  0.731300  0.500000  0.243900  1.0  -0.2527
  N  N685  1  0.768700  0.000000  0.756100  1.0  -0.2491
  N  N686  1  0.768700  0.500000  0.256100  1.0  -0.2491
  N  N687  1  0.268700  0.000000  0.256100  1.0  -0.2491
  N  N688  1  0.268700  0.500000  0.756100  1.0  -0.2491
  N  N689  1  0.231300  0.000000  0.756100  1.0  -0.2516
  N  N690  1  0.231300  0.500000  0.256100  1.0  -0.2516
  N  N691  1  0.731300  0.000000  0.256100  1.0  -0.2516
  N  N692  1  0.731300  0.500000  0.756100  1.0  -0.2516
  N  N693  1  0.768700  0.000000  0.243900  1.0  -0.2514
  N  N694  1  0.768700  0.500000  0.743900  1.0  -0.2514
  N  N695  1  0.268700  0.000000  0.743900  1.0  -0.2514
  N  N696  1  0.268700  0.500000  0.243900  1.0  -0.2514
  O  O697  1  0.255000  0.000000  0.000000  1.0  -0.8262
  O  O698  1  0.255000  0.500000  0.500000  1.0  -0.8262
  O  O699  1  0.755000  0.000000  0.500000  1.0  -0.8262
  O  O700  1  0.755000  0.500000  0.000000  1.0  -0.8262
  O  O701  1  0.745000  0.000000  0.000000  1.0  -0.8268
  O  O702  1  0.745000  0.500000  0.500000  1.0  -0.8268
  O  O703  1  0.245000  0.000000  0.500000  1.0  -0.8268
  O  O704  1  0.245000  0.500000  0.000000  1.0  -0.8268
  O  O705  1  0.000000  0.255000  0.000000  1.0  -0.8269
  O  O706  1  0.000000  0.755000  0.500000  1.0  -0.8269
  O  O707  1  0.500000  0.255000  0.500000  1.0  -0.8269
  O  O708  1  0.500000  0.755000  0.000000  1.0  -0.8269
  O  O709  1  0.000000  0.745000  0.000000  1.0  -0.8286
  O  O710  1  0.000000  0.245000  0.500000  1.0  -0.8286
  O  O711  1  0.500000  0.745000  0.500000  1.0  -0.8286
  O  O712  1  0.500000  0.245000  0.000000  1.0  -0.8286
  O  O713  1  0.000000  0.000000  0.255000  1.0  -0.8266
  O  O714  1  0.000000  0.500000  0.755000  1.0  -0.8266
  O  O715  1  0.500000  0.000000  0.755000  1.0  -0.8266
  O  O716  1  0.500000  0.500000  0.255000  1.0  -0.8266
  O  O717  1  0.000000  0.000000  0.745000  1.0  -0.8259
  O  O718  1  0.000000  0.500000  0.245000  1.0  -0.8259
  O  O719  1  0.500000  0.000000  0.245000  1.0  -0.8259
  O  O720  1  0.500000  0.500000  0.745000  1.0  -0.8259
  O  O721  1  0.325500  0.064400  0.000000  1.0  -0.5804
  O  O722  1  0.432300  0.177300  0.000000  1.0  -0.5939
  O  O723  1  0.408400  0.244100  0.000000  1.0  -0.6871
  O  O724  1  0.252600  0.059800  0.000000  1.0  -0.6662
  O  O725  1  0.325500  0.564400  0.500000  1.0  -0.5804
  O  O726  1  0.432300  0.677300  0.500000  1.0  -0.5939
  O  O727  1  0.408400  0.744100  0.500000  1.0  -0.6871
  O  O728  1  0.252600  0.559800  0.500000  1.0  -0.6662
  O  O729  1  0.825500  0.064400  0.500000  1.0  -0.5804
  O  O730  1  0.932300  0.177300  0.500000  1.0  -0.5939
  O  O731  1  0.908400  0.244100  0.500000  1.0  -0.6871
  O  O732  1  0.752600  0.059800  0.500000  1.0  -0.6662
  O  O733  1  0.825500  0.564400  0.000000  1.0  -0.5804
  O  O734  1  0.932300  0.677300  0.000000  1.0  -0.5939
  O  O735  1  0.908400  0.744100  0.000000  1.0  -0.6871
  O  O736  1  0.752600  0.559800  0.000000  1.0  -0.6662
  O  O737  1  0.674500  0.935600  0.000000  1.0  -0.5792
  O  O738  1  0.567700  0.822700  0.000000  1.0  -0.5925
  O  O739  1  0.591600  0.755900  0.000000  1.0  -0.6863
  O  O740  1  0.747400  0.940200  0.000000  1.0  -0.6681
  O  O741  1  0.674500  0.435600  0.500000  1.0  -0.5792
  O  O742  1  0.567700  0.322700  0.500000  1.0  -0.5925
  O  O743  1  0.591600  0.255900  0.500000  1.0  -0.6863
  O  O744  1  0.747400  0.440200  0.500000  1.0  -0.6681
  O  O745  1  0.174500  0.935600  0.500000  1.0  -0.5792
  O  O746  1  0.067700  0.822700  0.500000  1.0  -0.5925
  O  O747  1  0.091600  0.755900  0.500000  1.0  -0.6863
  O  O748  1  0.247400  0.940200  0.500000  1.0  -0.6681
  O  O749  1  0.174500  0.435600  0.000000  1.0  -0.5792
  O  O750  1  0.067700  0.322700  0.000000  1.0  -0.5925
  O  O751  1  0.091600  0.255900  0.000000  1.0  -0.6863
  O  O752  1  0.247400  0.440200  0.000000  1.0  -0.6681
  O  O753  1  0.674500  0.064400  0.000000  1.0  -0.5796
  O  O754  1  0.567700  0.177300  0.000000  1.0  -0.5938
  O  O755  1  0.591600  0.244100  0.000000  1.0  -0.6859
  O  O756  1  0.747400  0.059800  0.000000  1.0  -0.6688
  O  O757  1  0.674500  0.564400  0.500000  1.0  -0.5796
  O  O758  1  0.567700  0.677300  0.500000  1.0  -0.5938
  O  O759  1  0.591600  0.744100  0.500000  1.0  -0.6859
  O  O760  1  0.747400  0.559800  0.500000  1.0  -0.6688
  O  O761  1  0.174500  0.064400  0.500000  1.0  -0.5796
  O  O762  1  0.067700  0.177300  0.500000  1.0  -0.5938
  O  O763  1  0.091600  0.244100  0.500000  1.0  -0.6859
  O  O764  1  0.247400  0.059800  0.500000  1.0  -0.6688
  O  O765  1  0.174500  0.564400  0.000000  1.0  -0.5796
  O  O766  1  0.067700  0.677300  0.000000  1.0  -0.5938
  O  O767  1  0.091600  0.744100  0.000000  1.0  -0.6859
  O  O768  1  0.247400  0.559800  0.000000  1.0  -0.6688
  O  O769  1  0.325500  0.935600  0.000000  1.0  -0.5805
  O  O770  1  0.432300  0.822700  0.000000  1.0  -0.5943
  O  O771  1  0.408400  0.755900  0.000000  1.0  -0.686
  O  O772  1  0.252600  0.940200  0.000000  1.0  -0.6672
  O  O773  1  0.325500  0.435600  0.500000  1.0  -0.5805
  O  O774  1  0.432300  0.322700  0.500000  1.0  -0.5943
  O  O775  1  0.408400  0.255900  0.500000  1.0  -0.686
  O  O776  1  0.252600  0.440200  0.500000  1.0  -0.6672
  O  O777  1  0.825500  0.935600  0.500000  1.0  -0.5805
  O  O778  1  0.932300  0.822700  0.500000  1.0  -0.5943
  O  O779  1  0.908400  0.755900  0.500000  1.0  -0.686
  O  O780  1  0.752600  0.940200  0.500000  1.0  -0.6672
  O  O781  1  0.825500  0.435600  0.000000  1.0  -0.5805
  O  O782  1  0.932300  0.322700  0.000000  1.0  -0.5943
  O  O783  1  0.908400  0.255900  0.000000  1.0  -0.686
  O  O784  1  0.752600  0.440200  0.000000  1.0  -0.6672
  O  O785  1  0.000000  0.325500  0.064400  1.0  -0.5794
  O  O786  1  0.000000  0.432300  0.177300  1.0  -0.5906
  O  O787  1  0.000000  0.408400  0.244100  1.0  -0.6864
  O  O788  1  0.000000  0.252600  0.059800  1.0  -0.6641
  O  O789  1  0.000000  0.825500  0.564400  1.0  -0.5794
  O  O790  1  0.000000  0.932300  0.677300  1.0  -0.5906
  O  O791  1  0.000000  0.908400  0.744100  1.0  -0.6864
  O  O792  1  0.000000  0.752600  0.559800  1.0  -0.6641
  O  O793  1  0.500000  0.325500  0.564400  1.0  -0.5794
  O  O794  1  0.500000  0.432300  0.677300  1.0  -0.5906
  O  O795  1  0.500000  0.408400  0.744100  1.0  -0.6864
  O  O796  1  0.500000  0.252600  0.559800  1.0  -0.6641
  O  O797  1  0.500000  0.825500  0.064400  1.0  -0.5794
  O  O798  1  0.500000  0.932300  0.177300  1.0  -0.5906
  O  O799  1  0.500000  0.908400  0.244100  1.0  -0.6864
  O  O800  1  0.500000  0.752600  0.059800  1.0  -0.6641
  O  O801  1  0.000000  0.674500  0.935600  1.0  -0.581
  O  O802  1  0.000000  0.567700  0.822700  1.0  -0.5923
  O  O803  1  0.000000  0.591600  0.755900  1.0  -0.6875
  O  O804  1  0.000000  0.747400  0.940200  1.0  -0.6636
  O  O805  1  0.000000  0.174500  0.435600  1.0  -0.581
  O  O806  1  0.000000  0.067700  0.322700  1.0  -0.5923
  O  O807  1  0.000000  0.091600  0.255900  1.0  -0.6875
  O  O808  1  0.000000  0.247400  0.440200  1.0  -0.6636
  O  O809  1  0.500000  0.674500  0.435600  1.0  -0.581
  O  O810  1  0.500000  0.567700  0.322700  1.0  -0.5923
  O  O811  1  0.500000  0.591600  0.255900  1.0  -0.6875
  O  O812  1  0.500000  0.747400  0.440200  1.0  -0.6636
  O  O813  1  0.500000  0.174500  0.935600  1.0  -0.581
  O  O814  1  0.500000  0.067700  0.822700  1.0  -0.5923
  O  O815  1  0.500000  0.091600  0.755900  1.0  -0.6875
  O  O816  1  0.500000  0.247400  0.940200  1.0  -0.6636
  O  O817  1  0.000000  0.674500  0.064400  1.0  -0.5811
  O  O818  1  0.000000  0.567700  0.177300  1.0  -0.5914
  O  O819  1  0.000000  0.591600  0.244100  1.0  -0.6864
  O  O820  1  0.000000  0.747400  0.059800  1.0  -0.6636
  O  O821  1  0.000000  0.174500  0.564400  1.0  -0.5811
  O  O822  1  0.000000  0.067700  0.677300  1.0  -0.5914
  O  O823  1  0.000000  0.091600  0.744100  1.0  -0.6864
  O  O824  1  0.000000  0.247400  0.559800  1.0  -0.6636
  O  O825  1  0.500000  0.674500  0.564400  1.0  -0.5811
  O  O826  1  0.500000  0.567700  0.677300  1.0  -0.5914
  O  O827  1  0.500000  0.591600  0.744100  1.0  -0.6864
  O  O828  1  0.500000  0.747400  0.559800  1.0  -0.6636
  O  O829  1  0.500000  0.174500  0.064400  1.0  -0.5811
  O  O830  1  0.500000  0.067700  0.177300  1.0  -0.5914
  O  O831  1  0.500000  0.091600  0.244100  1.0  -0.6864
  O  O832  1  0.500000  0.247400  0.059800  1.0  -0.6636
  O  O833  1  0.000000  0.325500  0.935600  1.0  -0.579
  O  O834  1  0.000000  0.432300  0.822700  1.0  -0.5921
  O  O835  1  0.000000  0.408400  0.755900  1.0  -0.6878
  O  O836  1  0.000000  0.252600  0.940200  1.0  -0.6645
  O  O837  1  0.000000  0.825500  0.435600  1.0  -0.579
  O  O838  1  0.000000  0.932300  0.322700  1.0  -0.5921
  O  O839  1  0.000000  0.908400  0.255900  1.0  -0.6878
  O  O840  1  0.000000  0.752600  0.440200  1.0  -0.6645
  O  O841  1  0.500000  0.325500  0.435600  1.0  -0.579
  O  O842  1  0.500000  0.432300  0.322700  1.0  -0.5921
  O  O843  1  0.500000  0.408400  0.255900  1.0  -0.6878
  O  O844  1  0.500000  0.252600  0.440200  1.0  -0.6645
  O  O845  1  0.500000  0.825500  0.935600  1.0  -0.579
  O  O846  1  0.500000  0.932300  0.822700  1.0  -0.5921
  O  O847  1  0.500000  0.908400  0.755900  1.0  -0.6878
  O  O848  1  0.500000  0.752600  0.940200  1.0  -0.6645
  O  O849  1  0.064400  0.000000  0.325500  1.0  -0.581
  O  O850  1  0.177300  0.000000  0.432300  1.0  -0.5934
  O  O851  1  0.244100  0.000000  0.408400  1.0  -0.685
  O  O852  1  0.059800  0.000000  0.252600  1.0  -0.6645
  O  O853  1  0.064400  0.500000  0.825500  1.0  -0.581
  O  O854  1  0.177300  0.500000  0.932300  1.0  -0.5934
  O  O855  1  0.244100  0.500000  0.908400  1.0  -0.685
  O  O856  1  0.059800  0.500000  0.752600  1.0  -0.6645
  O  O857  1  0.564400  0.000000  0.825500  1.0  -0.581
  O  O858  1  0.677300  0.000000  0.932300  1.0  -0.5934
  O  O859  1  0.744100  0.000000  0.908400  1.0  -0.685
  O  O860  1  0.559800  0.000000  0.752600  1.0  -0.6645
  O  O861  1  0.564400  0.500000  0.325500  1.0  -0.581
  O  O862  1  0.677300  0.500000  0.432300  1.0  -0.5934
  O  O863  1  0.744100  0.500000  0.408400  1.0  -0.685
  O  O864  1  0.559800  0.500000  0.252600  1.0  -0.6645
  O  O865  1  0.935600  0.000000  0.674500  1.0  -0.5819
  O  O866  1  0.822700  0.000000  0.567700  1.0  -0.5942
  O  O867  1  0.755900  0.000000  0.591600  1.0  -0.685
  O  O868  1  0.940200  0.000000  0.747400  1.0  -0.6646
  O  O869  1  0.935600  0.500000  0.174500  1.0  -0.5819
  O  O870  1  0.822700  0.500000  0.067700  1.0  -0.5942
  O  O871  1  0.755900  0.500000  0.091600  1.0  -0.685
  O  O872  1  0.940200  0.500000  0.247400  1.0  -0.6646
  O  O873  1  0.435600  0.000000  0.174500  1.0  -0.5819
  O  O874  1  0.322700  0.000000  0.067700  1.0  -0.5942
  O  O875  1  0.255900  0.000000  0.091600  1.0  -0.685
  O  O876  1  0.440200  0.000000  0.247400  1.0  -0.6646
  O  O877  1  0.435600  0.500000  0.674500  1.0  -0.5819
  O  O878  1  0.322700  0.500000  0.567700  1.0  -0.5942
  O  O879  1  0.255900  0.500000  0.591600  1.0  -0.685
  O  O880  1  0.440200  0.500000  0.747400  1.0  -0.6646
  O  O881  1  0.064400  0.000000  0.674500  1.0  -0.5823
  O  O882  1  0.177300  0.000000  0.567700  1.0  -0.593
  O  O883  1  0.244100  0.000000  0.591600  1.0  -0.6854
  O  O884  1  0.059800  0.000000  0.747400  1.0  -0.6649
  O  O885  1  0.064400  0.500000  0.174500  1.0  -0.5823
  O  O886  1  0.177300  0.500000  0.067700  1.0  -0.593
  O  O887  1  0.244100  0.500000  0.091600  1.0  -0.6854
  O  O888  1  0.059800  0.500000  0.247400  1.0  -0.6649
  O  O889  1  0.564400  0.000000  0.174500  1.0  -0.5823
  O  O890  1  0.677300  0.000000  0.067700  1.0  -0.593
  O  O891  1  0.744100  0.000000  0.091600  1.0  -0.6854
  O  O892  1  0.559800  0.000000  0.247400  1.0  -0.6649
  O  O893  1  0.564400  0.500000  0.674500  1.0  -0.5823
  O  O894  1  0.677300  0.500000  0.567700  1.0  -0.593
  O  O895  1  0.744100  0.500000  0.591600  1.0  -0.6854
  O  O896  1  0.559800  0.500000  0.747400  1.0  -0.6649
  O  O897  1  0.935600  0.000000  0.325500  1.0  -0.5812
  O  O898  1  0.822700  0.000000  0.432300  1.0  -0.5949
  O  O899  1  0.755900  0.000000  0.408400  1.0  -0.6845
  O  O900  1  0.940200  0.000000  0.252600  1.0  -0.6639
  O  O901  1  0.935600  0.500000  0.825500  1.0  -0.5812
  O  O902  1  0.822700  0.500000  0.932300  1.0  -0.5949
  O  O903  1  0.755900  0.500000  0.908400  1.0  -0.6845
  O  O904  1  0.940200  0.500000  0.752600  1.0  -0.6639
  O  O905  1  0.435600  0.000000  0.825500  1.0  -0.5812
  O  O906  1  0.322700  0.000000  0.932300  1.0  -0.5949
  O  O907  1  0.255900  0.000000  0.908400  1.0  -0.6845
  O  O908  1  0.440200  0.000000  0.752600  1.0  -0.6639
  O  O909  1  0.435600  0.500000  0.325500  1.0  -0.5812
  O  O910  1  0.322700  0.500000  0.432300  1.0  -0.5949
  O  O911  1  0.255900  0.500000  0.408400  1.0  -0.6845
  O  O912  1  0.440200  0.500000  0.252600  1.0  -0.6639
