# generated using pymatgen
data_ZnH12C22IN9
_symmetry_space_group_name_H-M   'P 1'
_cell_length_a   44.00600000
_cell_length_b   44.00600000
_cell_length_c   28.26700000
_cell_angle_alpha   90.00000000
_cell_angle_beta   90.00000000
_cell_angle_gamma   120.00000000
_symmetry_Int_Tables_number   1
_chemical_formula_structural   ZnH12C22IN9
_chemical_formula_sum   'Zn36 H432 C792 I36 N324'
_cell_volume   47406.09030151
_cell_formula_units_Z   36
loop_
 _symmetry_equiv_pos_site_id
 _symmetry_equiv_pos_as_xyz
  1  'x, y, z'
loop_
 _atom_site_type_symbol
 _atom_site_label
 _atom_site_symmetry_multiplicity
 _atom_site_fract_x
 _atom_site_fract_y
 _atom_site_fract_z
 _atom_site_occupancy
 _atom_site_charge
  Zn  Zn1  1  0.492840  0.645560  0.806900  1.0  0.7372
  Zn  Zn2  1  0.159500  0.978900  0.140230  1.0  0.7371
  Zn  Zn3  1  0.826170  0.312230  0.473570  1.0  0.7369
  Zn  Zn4  1  0.354440  0.847270  0.806900  1.0  0.7276
  Zn  Zn5  1  0.021100  0.180610  0.140230  1.0  0.7275
  Zn  Zn6  1  0.687770  0.513940  0.473570  1.0  0.7278
  Zn  Zn7  1  0.152730  0.507160  0.806900  1.0  0.7346
  Zn  Zn8  1  0.819390  0.840500  0.140230  1.0  0.7354
  Zn  Zn9  1  0.486060  0.173830  0.473570  1.0  0.7346
  Zn  Zn10  1  0.354440  0.507160  0.306900  1.0  0.737
  Zn  Zn11  1  0.021100  0.840500  0.640230  1.0  0.7369
  Zn  Zn12  1  0.687770  0.173830  0.973570  1.0  0.7367
  Zn  Zn13  1  0.152730  0.645560  0.306900  1.0  0.7358
  Zn  Zn14  1  0.819390  0.978900  0.640230  1.0  0.7357
  Zn  Zn15  1  0.486060  0.312230  0.973570  1.0  0.7363
  Zn  Zn16  1  0.492840  0.847270  0.306900  1.0  0.7274
  Zn  Zn17  1  0.159500  0.180610  0.640230  1.0  0.7276
  Zn  Zn18  1  0.826170  0.513940  0.973570  1.0  0.7274
  Zn  Zn19  1  0.645560  0.492840  0.693100  1.0  0.7342
  Zn  Zn20  1  0.312230  0.826170  0.026430  1.0  0.7339
  Zn  Zn21  1  0.978900  0.159500  0.359770  1.0  0.7342
  Zn  Zn22  1  0.847270  0.354440  0.693100  1.0  0.7378
  Zn  Zn23  1  0.513940  0.687770  0.026430  1.0  0.7379
  Zn  Zn24  1  0.180610  0.021100  0.359770  1.0  0.7376
  Zn  Zn25  1  0.507160  0.152730  0.693100  1.0  0.7256
  Zn  Zn26  1  0.173830  0.486060  0.026430  1.0  0.7257
  Zn  Zn27  1  0.840500  0.819390  0.359770  1.0  0.7259
  Zn  Zn28  1  0.507160  0.354440  0.193100  1.0  0.736
  Zn  Zn29  1  0.173830  0.687770  0.526430  1.0  0.7357
  Zn  Zn30  1  0.840500  0.021100  0.859770  1.0  0.7359
  Zn  Zn31  1  0.645560  0.152730  0.193100  1.0  0.7255
  Zn  Zn32  1  0.312230  0.486060  0.526430  1.0  0.7257
  Zn  Zn33  1  0.978900  0.819390  0.859770  1.0  0.7254
  Zn  Zn34  1  0.847270  0.492840  0.193100  1.0  0.737
  Zn  Zn35  1  0.513940  0.826170  0.526430  1.0  0.7371
  Zn  Zn36  1  0.180610  0.159500  0.859770  1.0  0.7373
  H  H37  1  0.545300  0.715800  0.772000  1.0  0.0668
  H  H38  1  0.601700  0.760200  0.784600  1.0  0.1119
  H  H39  1  0.609800  0.701600  0.888800  1.0  0.1068
  H  H40  1  0.553300  0.656700  0.869800  1.0  0.0681
  H  H41  1  0.833600  0.964600  0.738200  1.0  0.078
  H  H42  1  0.806900  0.924300  0.798000  1.0  0.1139
  H  H43  1  0.722100  0.871600  0.712800  1.0  0.1164
  H  H44  1  0.750900  0.913200  0.655700  1.0  0.0751
  H  H45  1  0.754100  0.788500  0.090900  1.0  0.0673
  H  H46  1  0.724900  0.781300  0.021000  1.0  0.0986
  H  H47  1  0.799500  0.876700  0.981900  1.0  0.1091
  H  H48  1  0.827400  0.881500  0.054600  1.0  0.0787
  H  H49  1  0.211970  0.049130  0.105330  1.0  0.0668
  H  H50  1  0.268370  0.093530  0.117930  1.0  0.1119
  H  H51  1  0.276470  0.034930  0.222130  1.0  0.1068
  H  H52  1  0.219970  0.990030  0.203130  1.0  0.0681
  H  H53  1  0.500270  0.297930  0.071530  1.0  0.078
  H  H54  1  0.473570  0.257630  0.131330  1.0  0.1139
  H  H55  1  0.388770  0.204930  0.046130  1.0  0.1164
  H  H56  1  0.417570  0.246530  0.989030  1.0  0.0751
  H  H57  1  0.420770  0.121830  0.424230  1.0  0.0673
  H  H58  1  0.391570  0.114630  0.354330  1.0  0.0986
  H  H59  1  0.466170  0.210030  0.315230  1.0  0.1091
  H  H60  1  0.494070  0.214830  0.387930  1.0  0.0785
  H  H61  1  0.878630  0.382470  0.438670  1.0  0.0668
  H  H62  1  0.935030  0.426870  0.451270  1.0  0.1119
  H  H63  1  0.943130  0.368270  0.555470  1.0  0.1068
  H  H64  1  0.886630  0.323370  0.536470  1.0  0.068
  H  H65  1  0.166930  0.631270  0.404870  1.0  0.0781
  H  H66  1  0.140230  0.590970  0.464670  1.0  0.1139
  H  H67  1  0.055430  0.538270  0.379470  1.0  0.1164
  H  H68  1  0.084230  0.579870  0.322370  1.0  0.0751
  H  H69  1  0.087430  0.455170  0.757570  1.0  0.0673
  H  H70  1  0.058230  0.447970  0.687670  1.0  0.0985
  H  H71  1  0.132830  0.543370  0.648570  1.0  0.1091
  H  H72  1  0.160730  0.548170  0.721270  1.0  0.0787
  H  H73  1  0.284200  0.829500  0.772000  1.0  0.0672
  H  H74  1  0.239800  0.841500  0.784600  1.0  0.1127
  H  H75  1  0.298400  0.908200  0.888800  1.0  0.1076
  H  H76  1  0.343300  0.896600  0.869800  1.0  0.0683
  H  H77  1  0.035400  0.869000  0.738200  1.0  0.0798
  H  H78  1  0.075700  0.882600  0.798000  1.0  0.1163
  H  H79  1  0.128400  0.850500  0.712800  1.0  0.1149
  H  H80  1  0.086800  0.837700  0.655700  1.0  0.0752
  H  H81  1  0.211500  0.965600  0.090900  1.0  0.0671
  H  H82  1  0.218700  0.943600  0.021000  1.0  0.0985
  H  H83  1  0.123300  0.922800  0.981900  1.0  0.1085
  H  H84  1  0.118500  0.945900  0.054600  1.0  0.08
  H  H85  1  0.950870  0.162830  0.105330  1.0  0.0672
  H  H86  1  0.906470  0.174830  0.117930  1.0  0.1127
  H  H87  1  0.965070  0.241530  0.222130  1.0  0.1077
  H  H88  1  0.009970  0.229930  0.203130  1.0  0.0683
  H  H89  1  0.702070  0.202330  0.071530  1.0  0.0798
  H  H90  1  0.742370  0.215930  0.131330  1.0  0.1163
  H  H91  1  0.795070  0.183830  0.046130  1.0  0.1149
  H  H92  1  0.753470  0.171030  0.989030  1.0  0.0752
  H  H93  1  0.878170  0.298930  0.424230  1.0  0.0672
  H  H94  1  0.885370  0.276930  0.354330  1.0  0.0993
  H  H95  1  0.789970  0.256130  0.315230  1.0  0.1085
  H  H96  1  0.785170  0.279230  0.387930  1.0  0.0805
  H  H97  1  0.617530  0.496170  0.438670  1.0  0.0672
  H  H98  1  0.573130  0.508170  0.451270  1.0  0.1127
  H  H99  1  0.631730  0.574870  0.555470  1.0  0.1076
  H  H100  1  0.676630  0.563270  0.536470  1.0  0.0683
  H  H101  1  0.368730  0.535670  0.404870  1.0  0.0798
  H  H102  1  0.409030  0.549270  0.464670  1.0  0.1161
  H  H103  1  0.461730  0.517170  0.379470  1.0  0.1149
  H  H104  1  0.420130  0.504370  0.322370  1.0  0.0752
  H  H105  1  0.544830  0.632270  0.757570  1.0  0.0671
  H  H106  1  0.552030  0.610270  0.687670  1.0  0.0993
  H  H107  1  0.456630  0.589470  0.648570  1.0  0.1085
  H  H108  1  0.451830  0.612570  0.721270  1.0  0.0801
  H  H109  1  0.170500  0.454700  0.772000  1.0  0.067
  H  H110  1  0.158500  0.398300  0.784600  1.0  0.1115
  H  H111  1  0.091800  0.390200  0.888800  1.0  0.1068
  H  H112  1  0.103400  0.446700  0.869800  1.0  0.0679
  H  H113  1  0.131000  0.166400  0.738200  1.0  0.0779
  H  H114  1  0.117400  0.193100  0.798000  1.0  0.115
  H  H115  1  0.149500  0.277900  0.712800  1.0  0.1155
  H  H116  1  0.162300  0.249100  0.655700  1.0  0.0732
  H  H117  1  0.034400  0.245900  0.090900  1.0  0.0666
  H  H118  1  0.056400  0.275100  0.021000  1.0  0.0991
  H  H119  1  0.077200  0.200500  0.981900  1.0  0.109
  H  H120  1  0.054100  0.172600  0.054600  1.0  0.079
  H  H121  1  0.837170  0.788030  0.105330  1.0  0.067
  H  H122  1  0.825170  0.731630  0.117930  1.0  0.1115
  H  H123  1  0.758470  0.723530  0.222130  1.0  0.1066
  H  H124  1  0.770070  0.780030  0.203130  1.0  0.0679
  H  H125  1  0.797670  0.499730  0.071530  1.0  0.0779
  H  H126  1  0.784070  0.526430  0.131330  1.0  0.115
  H  H127  1  0.816170  0.611230  0.046130  1.0  0.1155
  H  H128  1  0.828970  0.582430  0.989030  1.0  0.0732
  H  H129  1  0.701070  0.579230  0.424230  1.0  0.0666
  H  H130  1  0.723070  0.608430  0.354330  1.0  0.0995
  H  H131  1  0.743870  0.533830  0.315230  1.0  0.109
  H  H132  1  0.720770  0.505930  0.387930  1.0  0.0794
  H  H133  1  0.503830  0.121370  0.438670  1.0  0.067
  H  H134  1  0.491830  0.064970  0.451270  1.0  0.1115
  H  H135  1  0.425130  0.056870  0.555470  1.0  0.1068
  H  H136  1  0.436730  0.113370  0.536470  1.0  0.0679
  H  H137  1  0.464330  0.833070  0.404870  1.0  0.0778
  H  H138  1  0.450730  0.859770  0.464670  1.0  0.1149
  H  H139  1  0.482830  0.944570  0.379470  1.0  0.1155
  H  H140  1  0.495630  0.915770  0.322370  1.0  0.0732
  H  H141  1  0.367730  0.912570  0.757570  1.0  0.0666
  H  H142  1  0.389730  0.941770  0.687670  1.0  0.0996
  H  H143  1  0.410530  0.867170  0.648570  1.0  0.109
  H  H144  1  0.387430  0.839270  0.721270  1.0  0.0791
  H  H145  1  0.284200  0.454700  0.272000  1.0  0.0671
  H  H146  1  0.239800  0.398300  0.284600  1.0  0.1122
  H  H147  1  0.298400  0.390200  0.388800  1.0  0.1072
  H  H148  1  0.343300  0.446700  0.369800  1.0  0.0678
  H  H149  1  0.035400  0.166400  0.238200  1.0  0.0782
  H  H150  1  0.075700  0.193100  0.298000  1.0  0.1138
  H  H151  1  0.128400  0.277900  0.212800  1.0  0.1148
  H  H152  1  0.086800  0.249100  0.155700  1.0  0.0733
  H  H153  1  0.211500  0.245900  0.590900  1.0  0.066
  H  H154  1  0.218700  0.275100  0.521000  1.0  0.0997
  H  H155  1  0.123300  0.200500  0.481900  1.0  0.1089
  H  H156  1  0.118500  0.172600  0.554600  1.0  0.0788
  H  H157  1  0.950870  0.788030  0.605330  1.0  0.0671
  H  H158  1  0.906470  0.731630  0.617930  1.0  0.1122
  H  H159  1  0.965070  0.723530  0.722130  1.0  0.1072
  H  H160  1  0.009970  0.780030  0.703130  1.0  0.0678
  H  H161  1  0.702070  0.499730  0.571530  1.0  0.0782
  H  H162  1  0.742370  0.526430  0.631330  1.0  0.1138
  H  H163  1  0.795070  0.611230  0.546130  1.0  0.1148
  H  H164  1  0.753470  0.582430  0.489030  1.0  0.0733
  H  H165  1  0.878170  0.579230  0.924230  1.0  0.066
  H  H166  1  0.885370  0.608430  0.854330  1.0  0.0997
  H  H167  1  0.789970  0.533830  0.815230  1.0  0.1089
  H  H168  1  0.785170  0.505930  0.887930  1.0  0.0786
  H  H169  1  0.617530  0.121370  0.938670  1.0  0.0671
  H  H170  1  0.573130  0.064970  0.951270  1.0  0.1122
  H  H171  1  0.631730  0.056870  0.055470  1.0  0.1072
  H  H172  1  0.676630  0.113370  0.036470  1.0  0.0678
  H  H173  1  0.368730  0.833070  0.904870  1.0  0.0783
  H  H174  1  0.409030  0.859770  0.964670  1.0  0.1137
  H  H175  1  0.461730  0.944570  0.879470  1.0  0.1148
  H  H176  1  0.420130  0.915770  0.822370  1.0  0.0733
  H  H177  1  0.544830  0.912570  0.257570  1.0  0.066
  H  H178  1  0.552030  0.941770  0.187670  1.0  0.0996
  H  H179  1  0.456630  0.867170  0.148570  1.0  0.1089
  H  H180  1  0.451830  0.839270  0.221270  1.0  0.0788
  H  H181  1  0.170500  0.715800  0.272000  1.0  0.0666
  H  H182  1  0.158500  0.760200  0.284600  1.0  0.1118
  H  H183  1  0.091800  0.701600  0.388800  1.0  0.1066
  H  H184  1  0.103400  0.656700  0.369800  1.0  0.0688
  H  H185  1  0.131000  0.964600  0.238200  1.0  0.0782
  H  H186  1  0.117400  0.924300  0.298000  1.0  0.1143
  H  H187  1  0.149500  0.871600  0.212800  1.0  0.1158
  H  H188  1  0.162300  0.913200  0.155700  1.0  0.0757
  H  H189  1  0.034400  0.788500  0.590900  1.0  0.0674
  H  H190  1  0.056400  0.781300  0.521000  1.0  0.0989
  H  H191  1  0.077200  0.876700  0.481900  1.0  0.109
  H  H192  1  0.054100  0.881500  0.554600  1.0  0.0782
  H  H193  1  0.837170  0.049130  0.605330  1.0  0.0666
  H  H194  1  0.825170  0.093530  0.617930  1.0  0.1118
  H  H195  1  0.758470  0.034930  0.722130  1.0  0.1067
  H  H196  1  0.770070  0.990030  0.703130  1.0  0.0688
  H  H197  1  0.797670  0.297930  0.571530  1.0  0.0783
  H  H198  1  0.784070  0.257630  0.631330  1.0  0.1143
  H  H199  1  0.816170  0.204930  0.546130  1.0  0.1158
  H  H200  1  0.828970  0.246530  0.489030  1.0  0.0757
  H  H201  1  0.701070  0.121830  0.924230  1.0  0.0674
  H  H202  1  0.723070  0.114630  0.854330  1.0  0.099
  H  H203  1  0.743870  0.210030  0.815230  1.0  0.109
  H  H204  1  0.720770  0.214830  0.887930  1.0  0.0786
  H  H205  1  0.503830  0.382470  0.938670  1.0  0.0666
  H  H206  1  0.491830  0.426870  0.951270  1.0  0.1118
  H  H207  1  0.425130  0.368270  0.055470  1.0  0.1066
  H  H208  1  0.436730  0.323370  0.036470  1.0  0.0688
  H  H209  1  0.464330  0.631270  0.904870  1.0  0.0782
  H  H210  1  0.450730  0.590970  0.964670  1.0  0.1142
  H  H211  1  0.482830  0.538270  0.879470  1.0  0.1158
  H  H212  1  0.495630  0.579870  0.822370  1.0  0.0757
  H  H213  1  0.367730  0.455170  0.257570  1.0  0.0674
  H  H214  1  0.389730  0.447970  0.187670  1.0  0.099
  H  H215  1  0.410530  0.543370  0.148570  1.0  0.109
  H  H216  1  0.387430  0.548170  0.221270  1.0  0.0783
  H  H217  1  0.545300  0.829500  0.272000  1.0  0.0672
  H  H218  1  0.601700  0.841500  0.284600  1.0  0.1127
  H  H219  1  0.609800  0.908200  0.388800  1.0  0.1074
  H  H220  1  0.553300  0.896600  0.369800  1.0  0.0684
  H  H221  1  0.833600  0.869000  0.238200  1.0  0.0788
  H  H222  1  0.806900  0.882600  0.298000  1.0  0.1156
  H  H223  1  0.722100  0.850500  0.212800  1.0  0.1137
  H  H224  1  0.750900  0.837700  0.155700  1.0  0.0752
  H  H225  1  0.754100  0.965600  0.590900  1.0  0.0675
  H  H226  1  0.724900  0.943600  0.521000  1.0  0.0989
  H  H227  1  0.799500  0.922800  0.481900  1.0  0.1089
  H  H228  1  0.827400  0.945900  0.554600  1.0  0.0794
  H  H229  1  0.211970  0.162830  0.605330  1.0  0.0672
  H  H230  1  0.268370  0.174830  0.617930  1.0  0.1127
  H  H231  1  0.276470  0.241530  0.722130  1.0  0.1072
  H  H232  1  0.219970  0.229930  0.703130  1.0  0.0684
  H  H233  1  0.500270  0.202330  0.571530  1.0  0.0788
  H  H234  1  0.473570  0.215930  0.631330  1.0  0.1156
  H  H235  1  0.388770  0.183830  0.546130  1.0  0.1137
  H  H236  1  0.417570  0.171030  0.489030  1.0  0.0751
  H  H237  1  0.420770  0.298930  0.924230  1.0  0.0675
  H  H238  1  0.391570  0.276930  0.854330  1.0  0.0988
  H  H239  1  0.466170  0.256130  0.815230  1.0  0.1089
  H  H240  1  0.494070  0.279230  0.887930  1.0  0.0798
  H  H241  1  0.878630  0.496170  0.938670  1.0  0.0672
  H  H242  1  0.935030  0.508170  0.951270  1.0  0.1127
  H  H243  1  0.943130  0.574870  0.055470  1.0  0.1074
  H  H244  1  0.886630  0.563270  0.036470  1.0  0.0684
  H  H245  1  0.166930  0.535670  0.904870  1.0  0.0787
  H  H246  1  0.140230  0.549270  0.964670  1.0  0.1155
  H  H247  1  0.055430  0.517170  0.879470  1.0  0.1137
  H  H248  1  0.084230  0.504370  0.822370  1.0  0.0752
  H  H249  1  0.087430  0.632270  0.257570  1.0  0.0675
  H  H250  1  0.058230  0.610270  0.187670  1.0  0.0989
  H  H251  1  0.132830  0.589470  0.148570  1.0  0.1089
  H  H252  1  0.160730  0.612570  0.221270  1.0  0.0795
  H  H253  1  0.715800  0.545300  0.728000  1.0  0.0676
  H  H254  1  0.760200  0.601700  0.715400  1.0  0.1122
  H  H255  1  0.701600  0.609800  0.611200  1.0  0.1073
  H  H256  1  0.656700  0.553300  0.630200  1.0  0.0676
  H  H257  1  0.964600  0.833600  0.761800  1.0  0.0774
  H  H258  1  0.924300  0.806900  0.702000  1.0  0.1141
  H  H259  1  0.871600  0.722100  0.787200  1.0  0.1154
  H  H260  1  0.913200  0.750900  0.844300  1.0  0.0732
  H  H261  1  0.788500  0.754100  0.409100  1.0  0.067
  H  H262  1  0.781300  0.724900  0.479000  1.0  0.0989
  H  H263  1  0.876700  0.799500  0.518100  1.0  0.1088
  H  H264  1  0.881500  0.827400  0.445400  1.0  0.0791
  H  H265  1  0.382470  0.878630  0.061330  1.0  0.0676
  H  H266  1  0.426870  0.935030  0.048730  1.0  0.1123
  H  H267  1  0.368270  0.943130  0.944530  1.0  0.1073
  H  H268  1  0.323370  0.886630  0.963530  1.0  0.0676
  H  H269  1  0.631270  0.166930  0.095130  1.0  0.0775
  H  H270  1  0.590970  0.140230  0.035330  1.0  0.1141
  H  H271  1  0.538270  0.055430  0.120530  1.0  0.1154
  H  H272  1  0.579870  0.084230  0.177630  1.0  0.0732
  H  H273  1  0.455170  0.087430  0.742430  1.0  0.067
  H  H274  1  0.447970  0.058230  0.812330  1.0  0.0988
  H  H275  1  0.543370  0.132830  0.851430  1.0  0.1088
  H  H276  1  0.548170  0.160730  0.778730  1.0  0.079
  H  H277  1  0.049130  0.211970  0.394670  1.0  0.0676
  H  H278  1  0.093530  0.268370  0.382070  1.0  0.1122
  H  H279  1  0.034930  0.276470  0.277870  1.0  0.1073
  H  H280  1  0.990030  0.219970  0.296870  1.0  0.0676
  H  H281  1  0.297930  0.500270  0.428470  1.0  0.0774
  H  H282  1  0.257630  0.473570  0.368670  1.0  0.1141
  H  H283  1  0.204930  0.388770  0.453870  1.0  0.1154
  H  H284  1  0.246530  0.417570  0.510970  1.0  0.0733
  H  H285  1  0.121830  0.420770  0.075770  1.0  0.067
  H  H286  1  0.114630  0.391570  0.145670  1.0  0.0989
  H  H287  1  0.210030  0.466170  0.184770  1.0  0.1088
  H  H288  1  0.214830  0.494070  0.112070  1.0  0.0788
  H  H289  1  0.829500  0.284200  0.728000  1.0  0.0679
  H  H290  1  0.841500  0.239800  0.715400  1.0  0.1127
  H  H291  1  0.908200  0.298400  0.611200  1.0  0.1073
  H  H292  1  0.896600  0.343300  0.630200  1.0  0.0681
  H  H293  1  0.869000  0.035400  0.761800  1.0  0.0781
  H  H294  1  0.882600  0.075700  0.702000  1.0  0.1141
  H  H295  1  0.850500  0.128400  0.787200  1.0  0.1168
  H  H296  1  0.837700  0.086800  0.844300  1.0  0.0753
  H  H297  1  0.965600  0.211500  0.409100  1.0  0.0679
  H  H298  1  0.943600  0.218700  0.479000  1.0  0.0995
  H  H299  1  0.922800  0.123300  0.518100  1.0  0.1084
  H  H300  1  0.945900  0.118500  0.445400  1.0  0.0786
  H  H301  1  0.496170  0.617530  0.061330  1.0  0.0678
  H  H302  1  0.508170  0.573130  0.048730  1.0  0.1127
  H  H303  1  0.574870  0.631730  0.944530  1.0  0.1073
  H  H304  1  0.563270  0.676630  0.963530  1.0  0.0681
  H  H305  1  0.535670  0.368730  0.095130  1.0  0.0781
  H  H306  1  0.549270  0.409030  0.035330  1.0  0.114
  H  H307  1  0.517170  0.461730  0.120530  1.0  0.1168
  H  H308  1  0.504370  0.420130  0.177630  1.0  0.0753
  H  H309  1  0.632270  0.544830  0.742430  1.0  0.0679
  H  H310  1  0.610270  0.552030  0.812330  1.0  0.0996
  H  H311  1  0.589470  0.456630  0.851430  1.0  0.1084
  H  H312  1  0.612570  0.451830  0.778730  1.0  0.0786
  H  H313  1  0.162830  0.950870  0.394670  1.0  0.0679
  H  H314  1  0.174830  0.906470  0.382070  1.0  0.1127
  H  H315  1  0.241530  0.965070  0.277870  1.0  0.1073
  H  H316  1  0.229930  0.009970  0.296870  1.0  0.0681
  H  H317  1  0.202330  0.702070  0.428470  1.0  0.0782
  H  H318  1  0.215930  0.742370  0.368670  1.0  0.1141
  H  H319  1  0.183830  0.795070  0.453870  1.0  0.1168
  H  H320  1  0.171030  0.753470  0.510970  1.0  0.0753
  H  H321  1  0.298930  0.878170  0.075770  1.0  0.068
  H  H322  1  0.276930  0.885370  0.145670  1.0  0.0996
  H  H323  1  0.256130  0.789970  0.184770  1.0  0.1084
  H  H324  1  0.279230  0.785170  0.112070  1.0  0.079
  H  H325  1  0.454700  0.170500  0.728000  1.0  0.0674
  H  H326  1  0.398300  0.158500  0.715400  1.0  0.1134
  H  H327  1  0.390200  0.091800  0.611200  1.0  0.1076
  H  H328  1  0.446700  0.103400  0.630200  1.0  0.0678
  H  H329  1  0.166400  0.131000  0.761800  1.0  0.0792
  H  H330  1  0.193100  0.117400  0.702000  1.0  0.115
  H  H331  1  0.277900  0.149500  0.787200  1.0  0.1143
  H  H332  1  0.249100  0.162300  0.844300  1.0  0.0746
  H  H333  1  0.245900  0.034400  0.409100  1.0  0.0679
  H  H334  1  0.275100  0.056400  0.479000  1.0  0.0994
  H  H335  1  0.200500  0.077200  0.518100  1.0  0.1082
  H  H336  1  0.172600  0.054100  0.445400  1.0  0.0796
  H  H337  1  0.121370  0.503830  0.061330  1.0  0.0674
  H  H338  1  0.064970  0.491830  0.048730  1.0  0.1134
  H  H339  1  0.056870  0.425130  0.944530  1.0  0.1076
  H  H340  1  0.113370  0.436730  0.963530  1.0  0.0678
  H  H341  1  0.833070  0.464330  0.095130  1.0  0.0791
  H  H342  1  0.859770  0.450730  0.035330  1.0  0.1149
  H  H343  1  0.944570  0.482830  0.120530  1.0  0.1143
  H  H344  1  0.915770  0.495630  0.177630  1.0  0.0746
  H  H345  1  0.912570  0.367730  0.742430  1.0  0.0679
  H  H346  1  0.941770  0.389730  0.812330  1.0  0.0994
  H  H347  1  0.867170  0.410530  0.851430  1.0  0.1082
  H  H348  1  0.839270  0.387430  0.778730  1.0  0.0797
  H  H349  1  0.788030  0.837170  0.394670  1.0  0.0674
  H  H350  1  0.731630  0.825170  0.382070  1.0  0.1134
  H  H351  1  0.723530  0.758470  0.277870  1.0  0.1074
  H  H352  1  0.780030  0.770070  0.296870  1.0  0.0678
  H  H353  1  0.499730  0.797670  0.428470  1.0  0.0792
  H  H354  1  0.526430  0.784070  0.368670  1.0  0.115
  H  H355  1  0.611230  0.816170  0.453870  1.0  0.1143
  H  H356  1  0.582430  0.828970  0.510970  1.0  0.0746
  H  H357  1  0.579230  0.701070  0.075770  1.0  0.0679
  H  H358  1  0.608430  0.723070  0.145670  1.0  0.0993
  H  H359  1  0.533830  0.743870  0.184770  1.0  0.1082
  H  H360  1  0.505930  0.720770  0.112070  1.0  0.08
  H  H361  1  0.454700  0.284200  0.228000  1.0  0.0672
  H  H362  1  0.398300  0.239800  0.215400  1.0  0.1124
  H  H363  1  0.390200  0.298400  0.111200  1.0  0.1069
  H  H364  1  0.446700  0.343300  0.130200  1.0  0.0684
  H  H365  1  0.166400  0.035400  0.261800  1.0  0.078
  H  H366  1  0.193100  0.075700  0.202000  1.0  0.1139
  H  H367  1  0.277900  0.128400  0.287200  1.0  0.1163
  H  H368  1  0.249100  0.086800  0.344300  1.0  0.0752
  H  H369  1  0.245900  0.211500  0.909100  1.0  0.0674
  H  H370  1  0.275100  0.218700  0.979000  1.0  0.0997
  H  H371  1  0.200500  0.123300  0.018100  1.0  0.1084
  H  H372  1  0.172600  0.118500  0.945400  1.0  0.0786
  H  H373  1  0.121370  0.617530  0.561330  1.0  0.0672
  H  H374  1  0.064970  0.573130  0.548730  1.0  0.1124
  H  H375  1  0.056870  0.631730  0.444530  1.0  0.1069
  H  H376  1  0.113370  0.676630  0.463530  1.0  0.0683
  H  H377  1  0.833070  0.368730  0.595130  1.0  0.0781
  H  H378  1  0.859770  0.409030  0.535330  1.0  0.1138
  H  H379  1  0.944570  0.461730  0.620530  1.0  0.1163
  H  H380  1  0.915770  0.420130  0.677630  1.0  0.0752
  H  H381  1  0.912570  0.544830  0.242430  1.0  0.0674
  H  H382  1  0.941770  0.552030  0.312330  1.0  0.0996
  H  H383  1  0.867170  0.456630  0.351430  1.0  0.1084
  H  H384  1  0.839270  0.451830  0.278730  1.0  0.0786
  H  H385  1  0.788030  0.950870  0.894670  1.0  0.0672
  H  H386  1  0.731630  0.906470  0.882070  1.0  0.1124
  H  H387  1  0.723530  0.965070  0.777870  1.0  0.1068
  H  H388  1  0.780030  0.009970  0.796870  1.0  0.0684
  H  H389  1  0.499730  0.702070  0.928470  1.0  0.078
  H  H390  1  0.526430  0.742370  0.868670  1.0  0.1139
  H  H391  1  0.611230  0.795070  0.953870  1.0  0.1163
  H  H392  1  0.582430  0.753470  0.010970  1.0  0.0753
  H  H393  1  0.579230  0.878170  0.575770  1.0  0.0675
  H  H394  1  0.608430  0.885370  0.645670  1.0  0.0997
  H  H395  1  0.533830  0.789970  0.684770  1.0  0.1084
  H  H396  1  0.505930  0.785170  0.612070  1.0  0.0784
  H  H397  1  0.715800  0.170500  0.228000  1.0  0.0677
  H  H398  1  0.760200  0.158500  0.215400  1.0  0.1136
  H  H399  1  0.701600  0.091800  0.111200  1.0  0.1076
  H  H400  1  0.656700  0.103400  0.130200  1.0  0.0676
  H  H401  1  0.964600  0.131000  0.261800  1.0  0.0779
  H  H402  1  0.924300  0.117400  0.202000  1.0  0.1152
  H  H403  1  0.871600  0.149500  0.287200  1.0  0.1146
  H  H404  1  0.913200  0.162300  0.344300  1.0  0.0752
  H  H405  1  0.788500  0.034400  0.909100  1.0  0.068
  H  H406  1  0.781300  0.056400  0.979000  1.0  0.0983
  H  H407  1  0.876700  0.077200  0.018100  1.0  0.1087
  H  H408  1  0.881500  0.054100  0.945400  1.0  0.0795
  H  H409  1  0.382470  0.503830  0.561330  1.0  0.0677
  H  H410  1  0.426870  0.491830  0.548730  1.0  0.1136
  H  H411  1  0.368270  0.425130  0.444530  1.0  0.1076
  H  H412  1  0.323370  0.436730  0.463530  1.0  0.0676
  H  H413  1  0.631270  0.464330  0.595130  1.0  0.0779
  H  H414  1  0.590970  0.450730  0.535330  1.0  0.1151
  H  H415  1  0.538270  0.482830  0.620530  1.0  0.1146
  H  H416  1  0.579870  0.495630  0.677630  1.0  0.0752
  H  H417  1  0.455170  0.367730  0.242430  1.0  0.068
  H  H418  1  0.447970  0.389730  0.312330  1.0  0.099
  H  H419  1  0.543370  0.410530  0.351430  1.0  0.1087
  H  H420  1  0.548170  0.387430  0.278730  1.0  0.0795
  H  H421  1  0.049130  0.837170  0.894670  1.0  0.0677
  H  H422  1  0.093530  0.825170  0.882070  1.0  0.1136
  H  H423  1  0.034930  0.758470  0.777870  1.0  0.1076
  H  H424  1  0.990030  0.770070  0.796870  1.0  0.0676
  H  H425  1  0.297930  0.797670  0.928470  1.0  0.078
  H  H426  1  0.257630  0.784070  0.868670  1.0  0.1152
  H  H427  1  0.204930  0.816170  0.953870  1.0  0.1146
  H  H428  1  0.246530  0.828970  0.010970  1.0  0.0752
  H  H429  1  0.121830  0.701070  0.575770  1.0  0.0681
  H  H430  1  0.114630  0.723070  0.645670  1.0  0.099
  H  H431  1  0.210030  0.743870  0.684770  1.0  0.1087
  H  H432  1  0.214830  0.720770  0.612070  1.0  0.0799
  H  H433  1  0.829500  0.545300  0.228000  1.0  0.068
  H  H434  1  0.841500  0.601700  0.215400  1.0  0.1129
  H  H435  1  0.908200  0.609800  0.111200  1.0  0.1076
  H  H436  1  0.896600  0.553300  0.130200  1.0  0.0677
  H  H437  1  0.869000  0.833600  0.261800  1.0  0.0781
  H  H438  1  0.882600  0.806900  0.202000  1.0  0.1134
  H  H439  1  0.850500  0.722100  0.287200  1.0  0.1145
  H  H440  1  0.837700  0.750900  0.344300  1.0  0.0727
  H  H441  1  0.965600  0.754100  0.909100  1.0  0.067
  H  H442  1  0.943600  0.724900  0.979000  1.0  0.0984
  H  H443  1  0.922800  0.799500  0.018100  1.0  0.1084
  H  H444  1  0.945900  0.827400  0.945400  1.0  0.0786
  H  H445  1  0.496170  0.878630  0.561330  1.0  0.068
  H  H446  1  0.508170  0.935030  0.548730  1.0  0.1129
  H  H447  1  0.574870  0.943130  0.444530  1.0  0.1076
  H  H448  1  0.563270  0.886630  0.463530  1.0  0.0677
  H  H449  1  0.535670  0.166930  0.595130  1.0  0.078
  H  H450  1  0.549270  0.140230  0.535330  1.0  0.1134
  H  H451  1  0.517170  0.055430  0.620530  1.0  0.1145
  H  H452  1  0.504370  0.084230  0.677630  1.0  0.0727
  H  H453  1  0.632270  0.087430  0.242430  1.0  0.067
  H  H454  1  0.610270  0.058230  0.312330  1.0  0.0989
  H  H455  1  0.589470  0.132830  0.351430  1.0  0.1084
  H  H456  1  0.612570  0.160730  0.278730  1.0  0.0787
  H  H457  1  0.162830  0.211970  0.894670  1.0  0.068
  H  H458  1  0.174830  0.268370  0.882070  1.0  0.1129
  H  H459  1  0.241530  0.276470  0.777870  1.0  0.1074
  H  H460  1  0.229930  0.219970  0.796870  1.0  0.0677
  H  H461  1  0.202330  0.500270  0.928470  1.0  0.0781
  H  H462  1  0.215930  0.473570  0.868670  1.0  0.1134
  H  H463  1  0.183830  0.388770  0.953870  1.0  0.1145
  H  H464  1  0.171030  0.417570  0.010970  1.0  0.0727
  H  H465  1  0.298930  0.420770  0.575770  1.0  0.067
  H  H466  1  0.276930  0.391570  0.645670  1.0  0.0989
  H  H467  1  0.256130  0.466170  0.684770  1.0  0.1084
  H  H468  1  0.279230  0.494070  0.612070  1.0  0.079
  C  C469  1  0.558820  0.713030  0.796030  1.0  0.1426
  C  C470  1  0.591920  0.739540  0.803450  1.0  -0.1643
  C  C471  1  0.611290  0.735720  0.839560  1.0  -0.0984
  C  C472  1  0.596880  0.704880  0.864440  1.0  -0.1415
  C  C473  1  0.562880  0.678420  0.853420  1.0  0.1202
  C  C474  1  0.810800  0.945120  0.732930  1.0  0.155
  C  C475  1  0.795300  0.921220  0.768540  1.0  -0.1371
  C  C476  1  0.762240  0.892330  0.761040  1.0  -0.0777
  C  C477  1  0.745320  0.890220  0.718320  1.0  -0.117
  C  C478  1  0.762520  0.915070  0.684750  1.0  0.1596
  C  C479  1  0.764100  0.806900  0.068300  1.0  0.1423
  C  C480  1  0.746500  0.802370  0.026340  1.0  -0.1004
  C  C481  1  0.759360  0.827090  0.993160  1.0  -0.1274
  C  C482  1  0.789800  0.857800  0.003700  1.0  -0.1417
  C  C483  1  0.806300  0.860500  0.047500  1.0  0.1184
  C  C484  1  0.647400  0.765560  0.849450  1.0  0.2378
  C  C485  1  0.694560  0.815580  0.821490  1.0  0.3371
  C  C486  1  0.743650  0.864800  0.798530  1.0  0.3711
  C  C487  1  0.745170  0.845830  0.872480  1.0  0.1522
  C  C488  1  0.742080  0.823590  0.946350  1.0  0.3181
  C  C489  1  0.693140  0.792610  0.899790  1.0  0.3725
  C  C490  1  0.711040  0.818120  0.865090  1.0  0.0192
  C  C491  1  0.225490  0.046360  0.129360  1.0  0.1426
  C  C492  1  0.258590  0.072870  0.136780  1.0  -0.1643
  C  C493  1  0.277960  0.069050  0.172890  1.0  -0.0984
  C  C494  1  0.263550  0.038210  0.197770  1.0  -0.1415
  C  C495  1  0.229550  0.011750  0.186750  1.0  0.1201
  C  C496  1  0.477470  0.278450  0.066260  1.0  0.1548
  C  C497  1  0.461970  0.254550  0.101870  1.0  -0.1371
  C  C498  1  0.428910  0.225660  0.094370  1.0  -0.0777
  C  C499  1  0.411990  0.223550  0.051650  1.0  -0.117
  C  C500  1  0.429190  0.248400  0.018080  1.0  0.1597
  C  C501  1  0.430770  0.140230  0.401630  1.0  0.1424
  C  C502  1  0.413170  0.135700  0.359670  1.0  -0.1004
  C  C503  1  0.426030  0.160420  0.326490  1.0  -0.1274
  C  C504  1  0.456470  0.191130  0.337030  1.0  -0.1417
  C  C505  1  0.472970  0.193830  0.380830  1.0  0.1184
  C  C506  1  0.314070  0.098890  0.182780  1.0  0.2378
  C  C507  1  0.361230  0.148910  0.154820  1.0  0.3371
  C  C508  1  0.410320  0.198130  0.131860  1.0  0.3711
  C  C509  1  0.411840  0.179160  0.205810  1.0  0.1522
  C  C510  1  0.408750  0.156920  0.279680  1.0  0.3181
  C  C511  1  0.359810  0.125940  0.233120  1.0  0.3725
  C  C512  1  0.377710  0.151450  0.198420  1.0  0.0192
  C  C513  1  0.892150  0.379700  0.462700  1.0  0.1426
  C  C514  1  0.925250  0.406210  0.470120  1.0  -0.1647
  C  C515  1  0.944620  0.402390  0.506230  1.0  -0.0985
  C  C516  1  0.930210  0.371550  0.531110  1.0  -0.1416
  C  C517  1  0.896210  0.345090  0.520090  1.0  0.1203
  C  C518  1  0.144130  0.611790  0.399600  1.0  0.1552
  C  C519  1  0.128630  0.587890  0.435210  1.0  -0.1368
  C  C520  1  0.095570  0.559000  0.427710  1.0  -0.0775
  C  C521  1  0.078650  0.556890  0.384990  1.0  -0.117
  C  C522  1  0.095850  0.581740  0.351420  1.0  0.1596
  C  C523  1  0.097430  0.473570  0.734970  1.0  0.1423
  C  C524  1  0.079830  0.469040  0.693010  1.0  -0.1004
  C  C525  1  0.092690  0.493760  0.659830  1.0  -0.1274
  C  C526  1  0.123130  0.524470  0.670370  1.0  -0.1417
  C  C527  1  0.139630  0.527170  0.714170  1.0  0.1184
  C  C528  1  0.980730  0.432230  0.516120  1.0  0.238
  C  C529  1  0.027890  0.482250  0.488160  1.0  0.337
  C  C530  1  0.076980  0.531470  0.465200  1.0  0.3711
  C  C531  1  0.078500  0.512500  0.539150  1.0  0.1521
  C  C532  1  0.075410  0.490260  0.613020  1.0  0.3181
  C  C533  1  0.026470  0.459280  0.566460  1.0  0.3724
  C  C534  1  0.044370  0.484790  0.531760  1.0  0.0188
  C  C535  1  0.286970  0.845790  0.796030  1.0  0.1427
  C  C536  1  0.260460  0.852380  0.803450  1.0  -0.1642
  C  C537  1  0.264280  0.875570  0.839560  1.0  -0.1008
  C  C538  1  0.295120  0.892000  0.864440  1.0  -0.146
  C  C539  1  0.321580  0.884460  0.853420  1.0  0.1196
  C  C540  1  0.054880  0.865680  0.732930  1.0  0.1594
  C  C541  1  0.078780  0.874080  0.768540  1.0  -0.1394
  C  C542  1  0.107670  0.869910  0.761040  1.0  -0.0798
  C  C543  1  0.109780  0.855100  0.718320  1.0  -0.1117
  C  C544  1  0.084930  0.847450  0.684750  1.0  0.1597
  C  C545  1  0.193100  0.957200  0.068300  1.0  0.1429
  C  C546  1  0.197630  0.944130  0.026340  1.0  -0.0955
  C  C547  1  0.172910  0.932270  0.993160  1.0  -0.1279
  C  C548  1  0.142200  0.932000  0.003700  1.0  -0.1419
  C  C549  1  0.139500  0.945800  0.047500  1.0  0.1192
  C  C550  1  0.234440  0.881840  0.849450  1.0  0.2358
  C  C551  1  0.184420  0.878980  0.821490  1.0  0.3322
  C  C552  1  0.135200  0.878850  0.798530  1.0  0.372
  C  C553  1  0.154170  0.899340  0.872480  1.0  0.1503
  C  C554  1  0.176410  0.918490  0.946350  1.0  0.3176
  C  C555  1  0.207390  0.900530  0.899790  1.0  0.3719
  C  C556  1  0.181880  0.892920  0.865090  1.0  0.007
  C  C557  1  0.953640  0.179120  0.129360  1.0  0.1427
  C  C558  1  0.927130  0.185710  0.136780  1.0  -0.1641
  C  C559  1  0.930950  0.208900  0.172890  1.0  -0.1007
  C  C560  1  0.961790  0.225330  0.197770  1.0  -0.146
  C  C561  1  0.988250  0.217790  0.186750  1.0  0.1196
  C  C562  1  0.721550  0.199010  0.066260  1.0  0.1597
  C  C563  1  0.745450  0.207410  0.101870  1.0  -0.1394
  C  C564  1  0.774340  0.203240  0.094370  1.0  -0.0798
  C  C565  1  0.776450  0.188430  0.051650  1.0  -0.1117
  C  C566  1  0.751600  0.180780  0.018080  1.0  0.1597
  C  C567  1  0.859770  0.290530  0.401630  1.0  0.144
  C  C568  1  0.864300  0.277460  0.359670  1.0  -0.097
  C  C569  1  0.839580  0.265600  0.326490  1.0  -0.1279
  C  C570  1  0.808870  0.265330  0.337030  1.0  -0.1419
  C  C571  1  0.806170  0.279130  0.380830  1.0  0.1191
  C  C572  1  0.901110  0.215170  0.182780  1.0  0.2358
  C  C573  1  0.851090  0.212310  0.154820  1.0  0.3371
  C  C574  1  0.801870  0.212180  0.131860  1.0  0.372
  C  C575  1  0.820840  0.232670  0.205810  1.0  0.1503
  C  C576  1  0.843080  0.251820  0.279680  1.0  0.3176
  C  C577  1  0.874060  0.233860  0.233120  1.0  0.3719
  C  C578  1  0.848550  0.226250  0.198420  1.0  0.0195
  C  C579  1  0.620300  0.512460  0.462700  1.0  0.1427
  C  C580  1  0.593790  0.519050  0.470120  1.0  -0.1646
  C  C581  1  0.597610  0.542240  0.506230  1.0  -0.1008
  C  C582  1  0.628450  0.558670  0.531110  1.0  -0.1458
  C  C583  1  0.654910  0.551130  0.520090  1.0  0.1197
  C  C584  1  0.388210  0.532350  0.399600  1.0  0.1594
  C  C585  1  0.412110  0.540750  0.435210  1.0  -0.1396
  C  C586  1  0.441000  0.536580  0.427710  1.0  -0.0798
  C  C587  1  0.443110  0.521770  0.384990  1.0  -0.1117
  C  C588  1  0.418260  0.514120  0.351420  1.0  0.1597
  C  C589  1  0.526430  0.623870  0.734970  1.0  0.1429
  C  C590  1  0.530960  0.610800  0.693010  1.0  -0.097
  C  C591  1  0.506240  0.598940  0.659830  1.0  -0.1279
  C  C592  1  0.475530  0.598670  0.670370  1.0  -0.1419
  C  C593  1  0.472830  0.612470  0.714170  1.0  0.1192
  C  C594  1  0.567770  0.548510  0.516120  1.0  0.2358
  C  C595  1  0.517750  0.545650  0.488160  1.0  0.3372
  C  C596  1  0.468530  0.545520  0.465200  1.0  0.372
  C  C597  1  0.487500  0.566010  0.539150  1.0  0.152
  C  C598  1  0.509740  0.585160  0.613020  1.0  0.3176
  C  C599  1  0.540720  0.567200  0.566460  1.0  0.372
  C  C600  1  0.515210  0.559590  0.531760  1.0  0.0194
  C  C601  1  0.154210  0.441180  0.796030  1.0  0.1448
  C  C602  1  0.147620  0.408080  0.803450  1.0  -0.1644
  C  C603  1  0.124430  0.388710  0.839560  1.0  -0.099
  C  C604  1  0.108000  0.403120  0.864440  1.0  -0.1404
  C  C605  1  0.115540  0.437120  0.853420  1.0  0.1208
  C  C606  1  0.134320  0.189200  0.732930  1.0  0.1571
  C  C607  1  0.125920  0.204700  0.768540  1.0  -0.1392
  C  C608  1  0.130090  0.237760  0.761040  1.0  -0.0773
  C  C609  1  0.144900  0.254680  0.718320  1.0  -0.1141
  C  C610  1  0.152550  0.237480  0.684750  1.0  0.1628
  C  C611  1  0.042800  0.235900  0.068300  1.0  0.1431
  C  C612  1  0.055870  0.253500  0.026340  1.0  -0.099
  C  C613  1  0.067730  0.240640  0.993160  1.0  -0.1272
  C  C614  1  0.068000  0.210200  0.003700  1.0  -0.1409
  C  C615  1  0.054200  0.193700  0.047500  1.0  0.1173
  C  C616  1  0.118160  0.352600  0.849450  1.0  0.2398
  C  C617  1  0.121020  0.305440  0.821490  1.0  0.3336
  C  C618  1  0.121150  0.256350  0.798530  1.0  0.3707
  C  C619  1  0.100660  0.254830  0.872480  1.0  0.1516
  C  C620  1  0.081510  0.257920  0.946350  1.0  0.3182
  C  C621  1  0.099470  0.306860  0.899790  1.0  0.3734
  C  C622  1  0.107080  0.288960  0.865090  1.0  0.0064
  C  C623  1  0.820880  0.774510  0.129360  1.0  0.1448
  C  C624  1  0.814290  0.741410  0.136780  1.0  -0.1644
  C  C625  1  0.791100  0.722040  0.172890  1.0  -0.0991
  C  C626  1  0.774670  0.736450  0.197770  1.0  -0.1402
  C  C627  1  0.782210  0.770450  0.186750  1.0  0.1207
  C  C628  1  0.800990  0.522530  0.066260  1.0  0.1574
  C  C629  1  0.792590  0.538030  0.101870  1.0  -0.139
  C  C630  1  0.796760  0.571090  0.094370  1.0  -0.0773
  C  C631  1  0.811570  0.588010  0.051650  1.0  -0.1141
  C  C632  1  0.819220  0.570810  0.018080  1.0  0.1627
  C  C633  1  0.709470  0.569230  0.401630  1.0  0.1432
  C  C634  1  0.722540  0.586830  0.359670  1.0  -0.1012
  C  C635  1  0.734400  0.573970  0.326490  1.0  -0.1272
  C  C636  1  0.734670  0.543530  0.337030  1.0  -0.1409
  C  C637  1  0.720870  0.527030  0.380830  1.0  0.1173
  C  C638  1  0.784830  0.685930  0.182780  1.0  0.2398
  C  C639  1  0.787690  0.638770  0.154820  1.0  0.3387
  C  C640  1  0.787820  0.589680  0.131860  1.0  0.3707
  C  C641  1  0.767330  0.588160  0.205810  1.0  0.1516
  C  C642  1  0.748180  0.591250  0.279680  1.0  0.3182
  C  C643  1  0.766140  0.640190  0.233120  1.0  0.3735
  C  C644  1  0.773750  0.622290  0.198420  1.0  0.0196
  C  C645  1  0.487540  0.107850  0.462700  1.0  0.1448
  C  C646  1  0.480950  0.074750  0.470120  1.0  -0.164
  C  C647  1  0.457760  0.055380  0.506230  1.0  -0.099
  C  C648  1  0.441330  0.069790  0.531110  1.0  -0.1404
  C  C649  1  0.448870  0.103790  0.520090  1.0  0.1209
  C  C650  1  0.467650  0.855870  0.399600  1.0  0.1569
  C  C651  1  0.459250  0.871370  0.435210  1.0  -0.1392
  C  C652  1  0.463420  0.904430  0.427710  1.0  -0.0774
  C  C653  1  0.478230  0.921350  0.384990  1.0  -0.1141
  C  C654  1  0.485880  0.904150  0.351420  1.0  0.1628
  C  C655  1  0.376130  0.902570  0.734970  1.0  0.1431
  C  C656  1  0.389200  0.920170  0.693010  1.0  -0.1012
  C  C657  1  0.401060  0.907310  0.659830  1.0  -0.1272
  C  C658  1  0.401330  0.876870  0.670370  1.0  -0.1409
  C  C659  1  0.387530  0.860370  0.714170  1.0  0.1173
  C  C660  1  0.451490  0.019270  0.516120  1.0  0.2398
  C  C661  1  0.454350  0.972110  0.488160  1.0  0.3388
  C  C662  1  0.454480  0.923020  0.465200  1.0  0.3707
  C  C663  1  0.433990  0.921500  0.539150  1.0  0.1516
  C  C664  1  0.414840  0.924590  0.613020  1.0  0.3182
  C  C665  1  0.432800  0.973530  0.566460  1.0  0.3735
  C  C666  1  0.440410  0.955630  0.531760  1.0  0.0197
  C  C667  1  0.286970  0.441180  0.296030  1.0  0.1445
  C  C668  1  0.260460  0.408080  0.303450  1.0  -0.163
  C  C669  1  0.264280  0.388710  0.339560  1.0  -0.0978
  C  C670  1  0.295120  0.403120  0.364440  1.0  -0.1422
  C  C671  1  0.321580  0.437120  0.353420  1.0  0.1211
  C  C672  1  0.054880  0.189200  0.232930  1.0  0.1599
  C  C673  1  0.078780  0.204700  0.268540  1.0  -0.1396
  C  C674  1  0.107670  0.237760  0.261040  1.0  -0.0771
  C  C675  1  0.109780  0.254680  0.218320  1.0  -0.1144
  C  C676  1  0.084930  0.237480  0.184750  1.0  0.1625
  C  C677  1  0.193100  0.235900  0.568300  1.0  0.1429
  C  C678  1  0.197630  0.253500  0.526340  1.0  -0.1018
  C  C679  1  0.172910  0.240640  0.493160  1.0  -0.1275
  C  C680  1  0.142200  0.210200  0.503700  1.0  -0.1415
  C  C681  1  0.139500  0.193700  0.547500  1.0  0.1191
  C  C682  1  0.234440  0.352600  0.349450  1.0  0.2397
  C  C683  1  0.184420  0.305440  0.321490  1.0  0.339
  C  C684  1  0.135200  0.256350  0.298530  1.0  0.3714
  C  C685  1  0.154170  0.254830  0.372480  1.0  0.1528
  C  C686  1  0.176410  0.257920  0.446350  1.0  0.3178
  C  C687  1  0.207390  0.306860  0.399790  1.0  0.3727
  C  C688  1  0.181880  0.288960  0.365090  1.0  0.0184
  C  C689  1  0.953640  0.774510  0.629360  1.0  0.1445
  C  C690  1  0.927130  0.741410  0.636780  1.0  -0.163
  C  C691  1  0.930950  0.722040  0.672890  1.0  -0.0978
  C  C692  1  0.961790  0.736450  0.697770  1.0  -0.1422
  C  C693  1  0.988250  0.770450  0.686750  1.0  0.121
  C  C694  1  0.721550  0.522530  0.566260  1.0  0.1597
  C  C695  1  0.745450  0.538030  0.601870  1.0  -0.1396
  C  C696  1  0.774340  0.571090  0.594370  1.0  -0.0771
  C  C697  1  0.776450  0.588010  0.551650  1.0  -0.1144
  C  C698  1  0.751600  0.570810  0.518080  1.0  0.1626
  C  C699  1  0.859770  0.569230  0.901630  1.0  0.1429
  C  C700  1  0.864300  0.586830  0.859670  1.0  -0.1018
  C  C701  1  0.839580  0.573970  0.826490  1.0  -0.1275
  C  C702  1  0.808870  0.543530  0.837030  1.0  -0.1415
  C  C703  1  0.806170  0.527030  0.880830  1.0  0.119
  C  C704  1  0.901110  0.685930  0.682780  1.0  0.2397
  C  C705  1  0.851090  0.638770  0.654820  1.0  0.339
  C  C706  1  0.801870  0.589680  0.631860  1.0  0.3714
  C  C707  1  0.820840  0.588160  0.705810  1.0  0.1528
  C  C708  1  0.843080  0.591250  0.779680  1.0  0.3178
  C  C709  1  0.874060  0.640190  0.733120  1.0  0.3727
  C  C710  1  0.848550  0.622290  0.698420  1.0  0.0184
  C  C711  1  0.620300  0.107850  0.962700  1.0  0.1445
  C  C712  1  0.593790  0.074750  0.970120  1.0  -0.1634
  C  C713  1  0.597610  0.055380  0.006230  1.0  -0.0979
  C  C714  1  0.628450  0.069790  0.031110  1.0  -0.1423
  C  C715  1  0.654910  0.103790  0.020090  1.0  0.1212
  C  C716  1  0.388210  0.855870  0.899600  1.0  0.1601
  C  C717  1  0.412110  0.871370  0.935210  1.0  -0.1393
  C  C718  1  0.441000  0.904430  0.927710  1.0  -0.077
  C  C719  1  0.443110  0.921350  0.884990  1.0  -0.1143
  C  C720  1  0.418260  0.904150  0.851420  1.0  0.1625
  C  C721  1  0.526430  0.902570  0.234970  1.0  0.1429
  C  C722  1  0.530960  0.920170  0.193010  1.0  -0.1018
  C  C723  1  0.506240  0.907310  0.159830  1.0  -0.1275
  C  C724  1  0.475530  0.876870  0.170370  1.0  -0.1415
  C  C725  1  0.472830  0.860370  0.214170  1.0  0.1191
  C  C726  1  0.567770  0.019270  0.016120  1.0  0.2398
  C  C727  1  0.517750  0.972110  0.988160  1.0  0.3389
  C  C728  1  0.468530  0.923020  0.965200  1.0  0.3714
  C  C729  1  0.487500  0.921500  0.039150  1.0  0.1527
  C  C730  1  0.509740  0.924590  0.113020  1.0  0.3179
  C  C731  1  0.540720  0.973530  0.066460  1.0  0.3726
  C  C732  1  0.515210  0.955630  0.031760  1.0  0.018
  C  C733  1  0.154210  0.713030  0.296030  1.0  0.1414
  C  C734  1  0.147620  0.739540  0.303450  1.0  -0.1646
  C  C735  1  0.124430  0.735720  0.339560  1.0  -0.099
  C  C736  1  0.108000  0.704880  0.364440  1.0  -0.1406
  C  C737  1  0.115540  0.678420  0.353420  1.0  0.1208
  C  C738  1  0.134320  0.945120  0.232930  1.0  0.1572
  C  C739  1  0.125920  0.921220  0.268540  1.0  -0.1384
  C  C740  1  0.130090  0.892330  0.261040  1.0  -0.0767
  C  C741  1  0.144900  0.890220  0.218320  1.0  -0.1171
  C  C742  1  0.152550  0.915070  0.184750  1.0  0.1598
  C  C743  1  0.042800  0.806900  0.568300  1.0  0.1415
  C  C744  1  0.055870  0.802370  0.526340  1.0  -0.1017
  C  C745  1  0.067730  0.827090  0.493160  1.0  -0.1272
  C  C746  1  0.068000  0.857800  0.503700  1.0  -0.1418
  C  C747  1  0.054200  0.860500  0.547500  1.0  0.1183
  C  C748  1  0.118160  0.765560  0.349450  1.0  0.2385
  C  C749  1  0.121020  0.815580  0.321490  1.0  0.3329
  C  C750  1  0.121150  0.864800  0.298530  1.0  0.3737
  C  C751  1  0.100660  0.845830  0.372480  1.0  0.1517
  C  C752  1  0.081510  0.823590  0.446350  1.0  0.3185
  C  C753  1  0.099470  0.792610  0.399790  1.0  0.373
  C  C754  1  0.107080  0.818120  0.365090  1.0  0.006
  C  C755  1  0.820880  0.046360  0.629360  1.0  0.1414
  C  C756  1  0.814290  0.072870  0.636780  1.0  -0.1645
  C  C757  1  0.791100  0.069050  0.672890  1.0  -0.0989
  C  C758  1  0.774670  0.038210  0.697770  1.0  -0.1406
  C  C759  1  0.782210  0.011750  0.686750  1.0  0.1208
  C  C760  1  0.800990  0.278450  0.566260  1.0  0.1575
  C  C761  1  0.792590  0.254550  0.601870  1.0  -0.1384
  C  C762  1  0.796760  0.225660  0.594370  1.0  -0.0767
  C  C763  1  0.811570  0.223550  0.551650  1.0  -0.1171
  C  C764  1  0.819220  0.248400  0.518080  1.0  0.1598
  C  C765  1  0.709470  0.140230  0.901630  1.0  0.1426
  C  C766  1  0.722540  0.135700  0.859670  1.0  -0.1017
  C  C767  1  0.734400  0.160420  0.826490  1.0  -0.1272
  C  C768  1  0.734670  0.191130  0.837030  1.0  -0.1418
  C  C769  1  0.720870  0.193830  0.880830  1.0  0.1182
  C  C770  1  0.784830  0.098890  0.682780  1.0  0.2385
  C  C771  1  0.787690  0.148910  0.654820  1.0  0.337
  C  C772  1  0.787820  0.198130  0.631860  1.0  0.3737
  C  C773  1  0.767330  0.179160  0.705810  1.0  0.1517
  C  C774  1  0.748180  0.156920  0.779680  1.0  0.3185
  C  C775  1  0.766140  0.125940  0.733120  1.0  0.373
  C  C776  1  0.773750  0.151450  0.698420  1.0  0.0188
  C  C777  1  0.487540  0.379700  0.962700  1.0  0.1414
  C  C778  1  0.480950  0.406210  0.970120  1.0  -0.1649
  C  C779  1  0.457760  0.402390  0.006230  1.0  -0.0989
  C  C780  1  0.441330  0.371550  0.031110  1.0  -0.1404
  C  C781  1  0.448870  0.345090  0.020090  1.0  0.1207
  C  C782  1  0.467650  0.611790  0.899600  1.0  0.1573
  C  C783  1  0.459250  0.587890  0.935210  1.0  -0.1386
  C  C784  1  0.463420  0.559000  0.927710  1.0  -0.0767
  C  C785  1  0.478230  0.556890  0.884990  1.0  -0.1171
  C  C786  1  0.485880  0.581740  0.851420  1.0  0.1598
  C  C787  1  0.376130  0.473570  0.234970  1.0  0.1415
  C  C788  1  0.389200  0.469040  0.193010  1.0  -0.1017
  C  C789  1  0.401060  0.493760  0.159830  1.0  -0.1272
  C  C790  1  0.401330  0.524470  0.170370  1.0  -0.1418
  C  C791  1  0.387530  0.527170  0.214170  1.0  0.1183
  C  C792  1  0.451490  0.432230  0.016120  1.0  0.2384
  C  C793  1  0.454350  0.482250  0.988160  1.0  0.3371
  C  C794  1  0.454480  0.531470  0.965200  1.0  0.3737
  C  C795  1  0.433990  0.512500  0.039150  1.0  0.1534
  C  C796  1  0.414840  0.490260  0.113020  1.0  0.3185
  C  C797  1  0.432800  0.459280  0.066460  1.0  0.373
  C  C798  1  0.440410  0.484790  0.031760  1.0  0.0187
  C  C799  1  0.558820  0.845790  0.296030  1.0  0.1427
  C  C800  1  0.591920  0.852380  0.303450  1.0  -0.1652
  C  C801  1  0.611290  0.875570  0.339560  1.0  -0.0983
  C  C802  1  0.596880  0.892000  0.364440  1.0  -0.1461
  C  C803  1  0.562880  0.884460  0.353420  1.0  0.1181
  C  C804  1  0.810800  0.865680  0.232930  1.0  0.1576
  C  C805  1  0.795300  0.874080  0.268540  1.0  -0.1396
  C  C806  1  0.762240  0.869910  0.261040  1.0  -0.0808
  C  C807  1  0.745320  0.855100  0.218320  1.0  -0.1148
  C  C808  1  0.762520  0.847450  0.184750  1.0  0.1607
  C  C809  1  0.764100  0.957200  0.568300  1.0  0.1433
  C  C810  1  0.746500  0.944130  0.526340  1.0  -0.0951
  C  C811  1  0.759360  0.932270  0.493160  1.0  -0.1277
  C  C812  1  0.789800  0.932000  0.503700  1.0  -0.1409
  C  C813  1  0.806300  0.945800  0.547500  1.0  0.1193
  C  C814  1  0.647400  0.881840  0.349450  1.0  0.2357
  C  C815  1  0.694560  0.878980  0.321490  1.0  0.3329
  C  C816  1  0.743650  0.878850  0.298530  1.0  0.3721
  C  C817  1  0.745170  0.899340  0.372480  1.0  0.1523
  C  C818  1  0.742080  0.918490  0.446350  1.0  0.3176
  C  C819  1  0.693140  0.900530  0.399790  1.0  0.3729
  C  C820  1  0.711040  0.892920  0.365090  1.0  0.0074
  C  C821  1  0.225490  0.179120  0.629360  1.0  0.1427
  C  C822  1  0.258590  0.185710  0.636780  1.0  -0.1652
  C  C823  1  0.277960  0.208900  0.672890  1.0  -0.0983
  C  C824  1  0.263550  0.225330  0.697770  1.0  -0.146
  C  C825  1  0.229550  0.217790  0.686750  1.0  0.118
  C  C826  1  0.477470  0.199010  0.566260  1.0  0.1578
  C  C827  1  0.461970  0.207410  0.601870  1.0  -0.1395
  C  C828  1  0.428910  0.203240  0.594370  1.0  -0.0807
  C  C829  1  0.411990  0.188430  0.551650  1.0  -0.1149
  C  C830  1  0.429190  0.180780  0.518080  1.0  0.1607
  C  C831  1  0.430770  0.290530  0.901630  1.0  0.1434
  C  C832  1  0.413170  0.277460  0.859670  1.0  -0.0951
  C  C833  1  0.426030  0.265600  0.826490  1.0  -0.1277
  C  C834  1  0.456470  0.265330  0.837030  1.0  -0.1409
  C  C835  1  0.472970  0.279130  0.880830  1.0  0.1194
  C  C836  1  0.314070  0.215170  0.682780  1.0  0.2358
  C  C837  1  0.361230  0.212310  0.654820  1.0  0.3381
  C  C838  1  0.410320  0.212180  0.631860  1.0  0.3721
  C  C839  1  0.411840  0.232670  0.705810  1.0  0.1523
  C  C840  1  0.408750  0.251820  0.779680  1.0  0.3176
  C  C841  1  0.359810  0.233860  0.733120  1.0  0.3729
  C  C842  1  0.377710  0.226250  0.698420  1.0  0.0197
  C  C843  1  0.892150  0.512460  0.962700  1.0  0.1427
  C  C844  1  0.925250  0.519050  0.970120  1.0  -0.1649
  C  C845  1  0.944620  0.542240  0.006230  1.0  -0.0983
  C  C846  1  0.930210  0.558670  0.031110  1.0  -0.1461
  C  C847  1  0.896210  0.551130  0.020090  1.0  0.1181
  C  C848  1  0.144130  0.532350  0.899600  1.0  0.1573
  C  C849  1  0.128630  0.540750  0.935210  1.0  -0.1396
  C  C850  1  0.095570  0.536580  0.927710  1.0  -0.0809
  C  C851  1  0.078650  0.521770  0.884990  1.0  -0.1148
  C  C852  1  0.095850  0.514120  0.851420  1.0  0.1607
  C  C853  1  0.097430  0.623870  0.234970  1.0  0.1433
  C  C854  1  0.079830  0.610800  0.193010  1.0  -0.0951
  C  C855  1  0.092690  0.598940  0.159830  1.0  -0.1277
  C  C856  1  0.123130  0.598670  0.170370  1.0  -0.1409
  C  C857  1  0.139630  0.612470  0.214170  1.0  0.1193
  C  C858  1  0.980730  0.548510  0.016120  1.0  0.2357
  C  C859  1  0.027890  0.545650  0.988160  1.0  0.3381
  C  C860  1  0.076980  0.545520  0.965200  1.0  0.3721
  C  C861  1  0.078500  0.566010  0.039150  1.0  0.1523
  C  C862  1  0.075410  0.585160  0.113020  1.0  0.3176
  C  C863  1  0.026470  0.567200  0.066460  1.0  0.373
  C  C864  1  0.044370  0.559590  0.031760  1.0  0.0198
  C  C865  1  0.713030  0.558820  0.703970  1.0  0.1421
  C  C866  1  0.739540  0.591920  0.696550  1.0  -0.1645
  C  C867  1  0.735720  0.611290  0.660440  1.0  -0.099
  C  C868  1  0.704880  0.596880  0.635560  1.0  -0.141
  C  C869  1  0.678420  0.562880  0.646580  1.0  0.12
  C  C870  1  0.945120  0.810800  0.767070  1.0  0.1579
  C  C871  1  0.921220  0.795300  0.731460  1.0  -0.1376
  C  C872  1  0.892330  0.762240  0.738960  1.0  -0.0778
  C  C873  1  0.890220  0.745320  0.781680  1.0  -0.1129
  C  C874  1  0.915070  0.762520  0.815250  1.0  0.1632
  C  C875  1  0.806900  0.764100  0.431700  1.0  0.1413
  C  C876  1  0.802370  0.746500  0.473660  1.0  -0.1003
  C  C877  1  0.827090  0.759360  0.506840  1.0  -0.1259
  C  C878  1  0.857800  0.789800  0.496300  1.0  -0.1408
  C  C879  1  0.860500  0.806300  0.452500  1.0  0.1161
  C  C880  1  0.765560  0.647400  0.650550  1.0  0.2395
  C  C881  1  0.815580  0.694560  0.678510  1.0  0.3372
  C  C882  1  0.864800  0.743650  0.701470  1.0  0.3709
  C  C883  1  0.845830  0.745170  0.627520  1.0  0.1522
  C  C884  1  0.823590  0.742080  0.553650  1.0  0.3182
  C  C885  1  0.792610  0.693140  0.600210  1.0  0.3742
  C  C886  1  0.818120  0.711040  0.634910  1.0  0.0194
  C  C887  1  0.379700  0.892150  0.037300  1.0  0.1421
  C  C888  1  0.406210  0.925250  0.029880  1.0  -0.1648
  C  C889  1  0.402390  0.944620  0.993770  1.0  -0.099
  C  C890  1  0.371550  0.930210  0.968890  1.0  -0.1411
  C  C891  1  0.345090  0.896210  0.979910  1.0  0.1201
  C  C892  1  0.611790  0.144130  0.100400  1.0  0.1581
  C  C893  1  0.587890  0.128630  0.064790  1.0  -0.1372
  C  C894  1  0.559000  0.095570  0.072290  1.0  -0.0776
  C  C895  1  0.556890  0.078650  0.115010  1.0  -0.1128
  C  C896  1  0.581740  0.095850  0.148580  1.0  0.1632
  C  C897  1  0.473570  0.097430  0.765030  1.0  0.1413
  C  C898  1  0.469040  0.079830  0.806990  1.0  -0.1003
  C  C899  1  0.493760  0.092690  0.840170  1.0  -0.1259
  C  C900  1  0.524470  0.123130  0.829630  1.0  -0.1408
  C  C901  1  0.527170  0.139630  0.785830  1.0  0.1161
  C  C902  1  0.432230  0.980730  0.983880  1.0  0.2396
  C  C903  1  0.482250  0.027890  0.011840  1.0  0.3371
  C  C904  1  0.531470  0.076980  0.034800  1.0  0.3709
  C  C905  1  0.512500  0.078500  0.960850  1.0  0.1521
  C  C906  1  0.490260  0.075410  0.886980  1.0  0.3182
  C  C907  1  0.459280  0.026470  0.933540  1.0  0.3741
  C  C908  1  0.484790  0.044370  0.968240  1.0  0.0191
  C  C909  1  0.046360  0.225490  0.370640  1.0  0.1421
  C  C910  1  0.072870  0.258590  0.363220  1.0  -0.1645
  C  C911  1  0.069050  0.277960  0.327110  1.0  -0.099
  C  C912  1  0.038210  0.263550  0.302230  1.0  -0.141
  C  C913  1  0.011750  0.229550  0.313250  1.0  0.12
  C  C914  1  0.278450  0.477470  0.433740  1.0  0.1577
  C  C915  1  0.254550  0.461970  0.398130  1.0  -0.1376
  C  C916  1  0.225660  0.428910  0.405630  1.0  -0.0778
  C  C917  1  0.223550  0.411990  0.448350  1.0  -0.1129
  C  C918  1  0.248400  0.429190  0.481920  1.0  0.1633
  C  C919  1  0.140230  0.430770  0.098370  1.0  0.1413
  C  C920  1  0.135700  0.413170  0.140330  1.0  -0.1003
  C  C921  1  0.160420  0.426030  0.173510  1.0  -0.1259
  C  C922  1  0.191130  0.456470  0.162970  1.0  -0.1408
  C  C923  1  0.193830  0.472970  0.119170  1.0  0.1161
  C  C924  1  0.098890  0.314070  0.317220  1.0  0.2395
  C  C925  1  0.148910  0.361230  0.345180  1.0  0.3372
  C  C926  1  0.198130  0.410320  0.368140  1.0  0.3709
  C  C927  1  0.179160  0.411840  0.294190  1.0  0.1522
  C  C928  1  0.156920  0.408750  0.220320  1.0  0.3182
  C  C929  1  0.125940  0.359810  0.266880  1.0  0.3742
  C  C930  1  0.151450  0.377710  0.301580  1.0  0.0194
  C  C931  1  0.845790  0.286970  0.703970  1.0  0.139
  C  C932  1  0.852380  0.260460  0.696550  1.0  -0.1658
  C  C933  1  0.875570  0.264280  0.660440  1.0  -0.0983
  C  C934  1  0.892000  0.295120  0.635560  1.0  -0.1419
  C  C935  1  0.884460  0.321580  0.646580  1.0  0.1191
  C  C936  1  0.865680  0.054880  0.767070  1.0  0.1555
  C  C937  1  0.874080  0.078780  0.731460  1.0  -0.1362
  C  C938  1  0.869910  0.107670  0.738960  1.0  -0.0767
  C  C939  1  0.855100  0.109780  0.781680  1.0  -0.1163
  C  C940  1  0.847450  0.084930  0.815250  1.0  0.1589
  C  C941  1  0.957200  0.193100  0.431700  1.0  0.1411
  C  C942  1  0.944130  0.197630  0.473660  1.0  -0.1013
  C  C943  1  0.932270  0.172910  0.506840  1.0  -0.1263
  C  C944  1  0.932000  0.142200  0.496300  1.0  -0.1421
  C  C945  1  0.945800  0.139500  0.452500  1.0  0.1154
  C  C946  1  0.881840  0.234440  0.650550  1.0  0.2374
  C  C947  1  0.878980  0.184420  0.678510  1.0  0.3307
  C  C948  1  0.878850  0.135200  0.701470  1.0  0.3707
  C  C949  1  0.899340  0.154170  0.627520  1.0  0.1515
  C  C950  1  0.918490  0.176410  0.553650  1.0  0.318
  C  C951  1  0.900530  0.207390  0.600210  1.0  0.3733
  C  C952  1  0.892920  0.181880  0.634910  1.0  0.0072
  C  C953  1  0.512460  0.620300  0.037300  1.0  0.139
  C  C954  1  0.519050  0.593790  0.029880  1.0  -0.166
  C  C955  1  0.542240  0.597610  0.993770  1.0  -0.0983
  C  C956  1  0.558670  0.628450  0.968890  1.0  -0.1417
  C  C957  1  0.551130  0.654910  0.979910  1.0  0.1191
  C  C958  1  0.532350  0.388210  0.100400  1.0  0.1556
  C  C959  1  0.540750  0.412110  0.064790  1.0  -0.1363
  C  C960  1  0.536580  0.441000  0.072290  1.0  -0.0767
  C  C961  1  0.521770  0.443110  0.115010  1.0  -0.1163
  C  C962  1  0.514120  0.418260  0.148580  1.0  0.1589
  C  C963  1  0.623870  0.526430  0.765030  1.0  0.1411
  C  C964  1  0.610800  0.530960  0.806990  1.0  -0.1013
  C  C965  1  0.598940  0.506240  0.840170  1.0  -0.1263
  C  C966  1  0.598670  0.475530  0.829630  1.0  -0.1421
  C  C967  1  0.612470  0.472830  0.785830  1.0  0.1154
  C  C968  1  0.548510  0.567770  0.983880  1.0  0.2374
  C  C969  1  0.545650  0.517750  0.011840  1.0  0.3368
  C  C970  1  0.545520  0.468530  0.034800  1.0  0.3707
  C  C971  1  0.566010  0.487500  0.960850  1.0  0.1531
  C  C972  1  0.585160  0.509740  0.886980  1.0  0.318
  C  C973  1  0.567200  0.540720  0.933540  1.0  0.3733
  C  C974  1  0.559590  0.515210  0.968240  1.0  0.0194
  C  C975  1  0.179120  0.953640  0.370640  1.0  0.139
  C  C976  1  0.185710  0.927130  0.363220  1.0  -0.1657
  C  C977  1  0.208900  0.930950  0.327110  1.0  -0.0982
  C  C978  1  0.225330  0.961790  0.302230  1.0  -0.1419
  C  C979  1  0.217790  0.988250  0.313250  1.0  0.1191
  C  C980  1  0.199010  0.721550  0.433740  1.0  0.1558
  C  C981  1  0.207410  0.745450  0.398130  1.0  -0.1362
  C  C982  1  0.203240  0.774340  0.405630  1.0  -0.0767
  C  C983  1  0.188430  0.776450  0.448350  1.0  -0.1163
  C  C984  1  0.180780  0.751600  0.481920  1.0  0.159
  C  C985  1  0.290530  0.859770  0.098370  1.0  0.1423
  C  C986  1  0.277460  0.864300  0.140330  1.0  -0.1013
  C  C987  1  0.265600  0.839580  0.173510  1.0  -0.1263
  C  C988  1  0.265330  0.808870  0.162970  1.0  -0.1421
  C  C989  1  0.279130  0.806170  0.119170  1.0  0.1154
  C  C990  1  0.215170  0.901110  0.317220  1.0  0.2374
  C  C991  1  0.212310  0.851090  0.345180  1.0  0.3368
  C  C992  1  0.212180  0.801870  0.368140  1.0  0.3707
  C  C993  1  0.232670  0.820840  0.294190  1.0  0.1515
  C  C994  1  0.251820  0.843080  0.220320  1.0  0.318
  C  C995  1  0.233860  0.874060  0.266880  1.0  0.3733
  C  C996  1  0.226250  0.848550  0.301580  1.0  0.0195
  C  C997  1  0.441180  0.154210  0.703970  1.0  0.1411
  C  C998  1  0.408080  0.147620  0.696550  1.0  -0.1658
  C  C999  1  0.388710  0.124430  0.660440  1.0  -0.0992
  C  C1000  1  0.403120  0.108000  0.635560  1.0  -0.1468
  C  C1001  1  0.437120  0.115540  0.646580  1.0  0.1201
  C  C1002  1  0.189200  0.134320  0.767070  1.0  0.1594
  C  C1003  1  0.204700  0.125920  0.731460  1.0  -0.1412
  C  C1004  1  0.237760  0.130090  0.738960  1.0  -0.081
  C  C1005  1  0.254680  0.144900  0.781680  1.0  -0.1115
  C  C1006  1  0.237480  0.152550  0.815250  1.0  0.1598
  C  C1007  1  0.235900  0.042800  0.431700  1.0  0.1412
  C  C1008  1  0.253500  0.055870  0.473660  1.0  -0.0983
  C  C1009  1  0.240640  0.067730  0.506840  1.0  -0.1266
  C  C1010  1  0.210200  0.068000  0.496300  1.0  -0.1423
  C  C1011  1  0.193700  0.054200  0.452500  1.0  0.1184
  C  C1012  1  0.352600  0.118160  0.650550  1.0  0.2361
  C  C1013  1  0.305440  0.121020  0.678510  1.0  0.3294
  C  C1014  1  0.256350  0.121150  0.701470  1.0  0.3731
  C  C1015  1  0.254830  0.100660  0.627520  1.0  0.151
  C  C1016  1  0.257920  0.081510  0.553650  1.0  0.3177
  C  C1017  1  0.306860  0.099470  0.600210  1.0  0.3719
  C  C1018  1  0.288960  0.107080  0.634910  1.0  0.0071
  C  C1019  1  0.107850  0.487540  0.037300  1.0  0.1411
  C  C1020  1  0.074750  0.480950  0.029880  1.0  -0.1655
  C  C1021  1  0.055380  0.457760  0.993770  1.0  -0.0992
  C  C1022  1  0.069790  0.441330  0.968890  1.0  -0.1468
  C  C1023  1  0.103790  0.448870  0.979910  1.0  0.1202
  C  C1024  1  0.855870  0.467650  0.100400  1.0  0.1591
  C  C1025  1  0.871370  0.459250  0.064790  1.0  -0.1412
  C  C1026  1  0.904430  0.463420  0.072290  1.0  -0.0811
  C  C1027  1  0.921350  0.478230  0.115010  1.0  -0.1115
  C  C1028  1  0.904150  0.485880  0.148580  1.0  0.1598
  C  C1029  1  0.902570  0.376130  0.765030  1.0  0.1412
  C  C1030  1  0.920170  0.389200  0.806990  1.0  -0.0983
  C  C1031  1  0.907310  0.401060  0.840170  1.0  -0.1266
  C  C1032  1  0.876870  0.401330  0.829630  1.0  -0.1423
  C  C1033  1  0.860370  0.387530  0.785830  1.0  0.1184
  C  C1034  1  0.019270  0.451490  0.983880  1.0  0.2361
  C  C1035  1  0.972110  0.454350  0.011840  1.0  0.3346
  C  C1036  1  0.923020  0.454480  0.034800  1.0  0.3731
  C  C1037  1  0.921500  0.433990  0.960850  1.0  0.1511
  C  C1038  1  0.924590  0.414840  0.886980  1.0  0.3177
  C  C1039  1  0.973530  0.432800  0.933540  1.0  0.372
  C  C1040  1  0.955630  0.440410  0.968240  1.0  0.0197
  C  C1041  1  0.774510  0.820880  0.370640  1.0  0.1411
  C  C1042  1  0.741410  0.814290  0.363220  1.0  -0.1658
  C  C1043  1  0.722040  0.791100  0.327110  1.0  -0.0993
  C  C1044  1  0.736450  0.774670  0.302230  1.0  -0.1467
  C  C1045  1  0.770450  0.782210  0.313250  1.0  0.1201
  C  C1046  1  0.522530  0.800990  0.433740  1.0  0.1596
  C  C1047  1  0.538030  0.792590  0.398130  1.0  -0.141
  C  C1048  1  0.571090  0.796760  0.405630  1.0  -0.081
  C  C1049  1  0.588010  0.811570  0.448350  1.0  -0.1115
  C  C1050  1  0.570810  0.819220  0.481920  1.0  0.1597
  C  C1051  1  0.569230  0.709470  0.098370  1.0  0.1413
  C  C1052  1  0.586830  0.722540  0.140330  1.0  -0.0983
  C  C1053  1  0.573970  0.734400  0.173510  1.0  -0.1266
  C  C1054  1  0.543530  0.734670  0.162970  1.0  -0.1423
  C  C1055  1  0.527030  0.720870  0.119170  1.0  0.1184
  C  C1056  1  0.685930  0.784830  0.317220  1.0  0.2361
  C  C1057  1  0.638770  0.787690  0.345180  1.0  0.3345
  C  C1058  1  0.589680  0.787820  0.368140  1.0  0.3731
  C  C1059  1  0.588160  0.767330  0.294190  1.0  0.151
  C  C1060  1  0.591250  0.748180  0.220320  1.0  0.3177
  C  C1061  1  0.640190  0.766140  0.266880  1.0  0.372
  C  C1062  1  0.622290  0.773750  0.301580  1.0  0.0196
  C  C1063  1  0.441180  0.286970  0.203970  1.0  0.1398
  C  C1064  1  0.408080  0.260460  0.196550  1.0  -0.1662
  C  C1065  1  0.388710  0.264280  0.160440  1.0  -0.0983
  C  C1066  1  0.403120  0.295120  0.135560  1.0  -0.1407
  C  C1067  1  0.437120  0.321580  0.146580  1.0  0.1193
  C  C1068  1  0.189200  0.054880  0.267070  1.0  0.1576
  C  C1069  1  0.204700  0.078780  0.231460  1.0  -0.1379
  C  C1070  1  0.237760  0.107670  0.238960  1.0  -0.0767
  C  C1071  1  0.254680  0.109780  0.281680  1.0  -0.116
  C  C1072  1  0.237480  0.084930  0.315250  1.0  0.1594
  C  C1073  1  0.235900  0.193100  0.931700  1.0  0.1403
  C  C1074  1  0.253500  0.197630  0.973660  1.0  -0.1025
  C  C1075  1  0.240640  0.172910  0.006840  1.0  -0.1261
  C  C1076  1  0.210200  0.142200  0.996300  1.0  -0.142
  C  C1077  1  0.193700  0.139500  0.952500  1.0  0.1169
  C  C1078  1  0.352600  0.234440  0.150550  1.0  0.2386
  C  C1079  1  0.305440  0.184420  0.178510  1.0  0.3354
  C  C1080  1  0.256350  0.135200  0.201470  1.0  0.3748
  C  C1081  1  0.254830  0.154170  0.127520  1.0  0.151
  C  C1082  1  0.257920  0.176410  0.053650  1.0  0.3184
  C  C1083  1  0.306860  0.207390  0.100210  1.0  0.3744
  C  C1084  1  0.288960  0.181880  0.134910  1.0  0.019
  C  C1085  1  0.107850  0.620300  0.537300  1.0  0.1398
  C  C1086  1  0.074750  0.593790  0.529880  1.0  -0.1665
  C  C1087  1  0.055380  0.597610  0.493770  1.0  -0.0984
  C  C1088  1  0.069790  0.628450  0.468890  1.0  -0.1408
  C  C1089  1  0.103790  0.654910  0.479910  1.0  0.1194
  C  C1090  1  0.855870  0.388210  0.600400  1.0  0.1578
  C  C1091  1  0.871370  0.412110  0.564790  1.0  -0.1377
  C  C1092  1  0.904430  0.441000  0.572290  1.0  -0.0766
  C  C1093  1  0.921350  0.443110  0.615010  1.0  -0.116
  C  C1094  1  0.904150  0.418260  0.648580  1.0  0.1594
  C  C1095  1  0.902570  0.526430  0.265030  1.0  0.1403
  C  C1096  1  0.920170  0.530960  0.306990  1.0  -0.1025
  C  C1097  1  0.907310  0.506240  0.340170  1.0  -0.1261
  C  C1098  1  0.876870  0.475530  0.329630  1.0  -0.142
  C  C1099  1  0.860370  0.472830  0.285830  1.0  0.1169
  C  C1100  1  0.019270  0.567770  0.483880  1.0  0.2386
  C  C1101  1  0.972110  0.517750  0.511840  1.0  0.3353
  C  C1102  1  0.923020  0.468530  0.534800  1.0  0.3747
  C  C1103  1  0.921500  0.487500  0.460850  1.0  0.1509
  C  C1104  1  0.924590  0.509740  0.386980  1.0  0.3184
  C  C1105  1  0.973530  0.540720  0.433540  1.0  0.3744
  C  C1106  1  0.955630  0.515210  0.468240  1.0  0.0186
  C  C1107  1  0.774510  0.953640  0.870640  1.0  0.1398
  C  C1108  1  0.741410  0.927130  0.863220  1.0  -0.1662
  C  C1109  1  0.722040  0.930950  0.827110  1.0  -0.0983
  C  C1110  1  0.736450  0.961790  0.802230  1.0  -0.1407
  C  C1111  1  0.770450  0.988250  0.813250  1.0  0.1193
  C  C1112  1  0.522530  0.721550  0.933740  1.0  0.1573
  C  C1113  1  0.538030  0.745450  0.898130  1.0  -0.1379
  C  C1114  1  0.571090  0.774340  0.905630  1.0  -0.0767
  C  C1115  1  0.588010  0.776450  0.948350  1.0  -0.116
  C  C1116  1  0.570810  0.751600  0.981920  1.0  0.1595
  C  C1117  1  0.569230  0.859770  0.598370  1.0  0.1404
  C  C1118  1  0.586830  0.864300  0.640330  1.0  -0.1025
  C  C1119  1  0.573970  0.839580  0.673510  1.0  -0.1261
  C  C1120  1  0.543530  0.808870  0.662970  1.0  -0.142
  C  C1121  1  0.527030  0.806170  0.619170  1.0  0.1169
  C  C1122  1  0.685930  0.901110  0.817220  1.0  0.2385
  C  C1123  1  0.638770  0.851090  0.845180  1.0  0.3354
  C  C1124  1  0.589680  0.801870  0.868140  1.0  0.3748
  C  C1125  1  0.588160  0.820840  0.794190  1.0  0.151
  C  C1126  1  0.591250  0.843080  0.720320  1.0  0.3184
  C  C1127  1  0.640190  0.874060  0.766880  1.0  0.3744
  C  C1128  1  0.622290  0.848550  0.801580  1.0  0.019
  C  C1129  1  0.713030  0.154210  0.203970  1.0  0.1394
  C  C1130  1  0.739540  0.147620  0.196550  1.0  -0.1657
  C  C1131  1  0.735720  0.124430  0.160440  1.0  -0.0983
  C  C1132  1  0.704880  0.108000  0.135560  1.0  -0.1473
  C  C1133  1  0.678420  0.115540  0.146580  1.0  0.1189
  C  C1134  1  0.945120  0.134320  0.267070  1.0  0.1581
  C  C1135  1  0.921220  0.125920  0.231460  1.0  -0.142
  C  C1136  1  0.892330  0.130090  0.238960  1.0  -0.0812
  C  C1137  1  0.890220  0.144900  0.281680  1.0  -0.1146
  C  C1138  1  0.915070  0.152550  0.315250  1.0  0.1612
  C  C1139  1  0.806900  0.042800  0.931700  1.0  0.1414
  C  C1140  1  0.802370  0.055870  0.973660  1.0  -0.0938
  C  C1141  1  0.827090  0.067730  0.006840  1.0  -0.1263
  C  C1142  1  0.857800  0.068000  0.996300  1.0  -0.14
  C  C1143  1  0.860500  0.054200  0.952500  1.0  0.1172
  C  C1144  1  0.765560  0.118160  0.150550  1.0  0.2365
  C  C1145  1  0.815580  0.121020  0.178510  1.0  0.3294
  C  C1146  1  0.864800  0.121150  0.201470  1.0  0.3728
  C  C1147  1  0.845830  0.100660  0.127520  1.0  0.1528
  C  C1148  1  0.823590  0.081510  0.053650  1.0  0.3176
  C  C1149  1  0.792610  0.099470  0.100210  1.0  0.3738
  C  C1150  1  0.818120  0.107080  0.134910  1.0  0.0074
  C  C1151  1  0.379700  0.487540  0.537300  1.0  0.1394
  C  C1152  1  0.406210  0.480950  0.529880  1.0  -0.166
  C  C1153  1  0.402390  0.457760  0.493770  1.0  -0.0984
  C  C1154  1  0.371550  0.441330  0.468890  1.0  -0.1472
  C  C1155  1  0.345090  0.448870  0.479910  1.0  0.1189
  C  C1156  1  0.611790  0.467650  0.600400  1.0  0.1582
  C  C1157  1  0.587890  0.459250  0.564790  1.0  -0.1421
  C  C1158  1  0.559000  0.463420  0.572290  1.0  -0.0812
  C  C1159  1  0.556890  0.478230  0.615010  1.0  -0.1146
  C  C1160  1  0.581740  0.485880  0.648580  1.0  0.1612
  C  C1161  1  0.473570  0.376130  0.265030  1.0  0.1414
  C  C1162  1  0.469040  0.389200  0.306990  1.0  -0.0957
  C  C1163  1  0.493760  0.401060  0.340170  1.0  -0.1263
  C  C1164  1  0.524470  0.401330  0.329630  1.0  -0.14
  C  C1165  1  0.527170  0.387530  0.285830  1.0  0.1172
  C  C1166  1  0.432230  0.451490  0.483880  1.0  0.2365
  C  C1167  1  0.482250  0.454350  0.511840  1.0  0.3347
  C  C1168  1  0.531470  0.454480  0.534800  1.0  0.3728
  C  C1169  1  0.512500  0.433990  0.460850  1.0  0.1545
  C  C1170  1  0.490260  0.414840  0.386980  1.0  0.3176
  C  C1171  1  0.459280  0.432800  0.433540  1.0  0.3739
  C  C1172  1  0.484790  0.440410  0.468240  1.0  0.0197
  C  C1173  1  0.046360  0.820880  0.870640  1.0  0.1394
  C  C1174  1  0.072870  0.814290  0.863220  1.0  -0.1656
  C  C1175  1  0.069050  0.791100  0.827110  1.0  -0.0983
  C  C1176  1  0.038210  0.774670  0.802230  1.0  -0.1473
  C  C1177  1  0.011750  0.782210  0.813250  1.0  0.1189
  C  C1178  1  0.278450  0.800990  0.933740  1.0  0.1584
  C  C1179  1  0.254550  0.792590  0.898130  1.0  -0.142
  C  C1180  1  0.225660  0.796760  0.905630  1.0  -0.0812
  C  C1181  1  0.223550  0.811570  0.948350  1.0  -0.1146
  C  C1182  1  0.248400  0.819220  0.981920  1.0  0.1613
  C  C1183  1  0.140230  0.709470  0.598370  1.0  0.1426
  C  C1184  1  0.135700  0.722540  0.640330  1.0  -0.0957
  C  C1185  1  0.160420  0.734400  0.673510  1.0  -0.1263
  C  C1186  1  0.191130  0.734670  0.662970  1.0  -0.14
  C  C1187  1  0.193830  0.720870  0.619170  1.0  0.1172
  C  C1188  1  0.098890  0.784830  0.817220  1.0  0.2365
  C  C1189  1  0.148910  0.787690  0.845180  1.0  0.3347
  C  C1190  1  0.198130  0.787820  0.868140  1.0  0.3728
  C  C1191  1  0.179160  0.767330  0.794190  1.0  0.1528
  C  C1192  1  0.156920  0.748180  0.720320  1.0  0.3176
  C  C1193  1  0.125940  0.766140  0.766880  1.0  0.3738
  C  C1194  1  0.151450  0.773750  0.801580  1.0  0.0198
  C  C1195  1  0.845790  0.558820  0.203970  1.0  0.1416
  C  C1196  1  0.852380  0.591920  0.196550  1.0  -0.1647
  C  C1197  1  0.875570  0.611290  0.160440  1.0  -0.0983
  C  C1198  1  0.892000  0.596880  0.135560  1.0  -0.1413
  C  C1199  1  0.884460  0.562880  0.146580  1.0  0.1209
  C  C1200  1  0.865680  0.810800  0.267070  1.0  0.1588
  C  C1201  1  0.874080  0.795300  0.231460  1.0  -0.1378
  C  C1202  1  0.869910  0.762240  0.238960  1.0  -0.0759
  C  C1203  1  0.855100  0.745320  0.281680  1.0  -0.115
  C  C1204  1  0.847450  0.762520  0.315250  1.0  0.1621
  C  C1205  1  0.957200  0.764100  0.931700  1.0  0.1406
  C  C1206  1  0.944130  0.746500  0.973660  1.0  -0.099
  C  C1207  1  0.932270  0.759360  0.006840  1.0  -0.1264
  C  C1208  1  0.932000  0.789800  0.996300  1.0  -0.1421
  C  C1209  1  0.945800  0.806300  0.952500  1.0  0.1178
  C  C1210  1  0.881840  0.647400  0.150550  1.0  0.2391
  C  C1211  1  0.878980  0.694560  0.178510  1.0  0.3334
  C  C1212  1  0.878850  0.743650  0.201470  1.0  0.3701
  C  C1213  1  0.899340  0.745170  0.127520  1.0  0.1524
  C  C1214  1  0.918490  0.742080  0.053650  1.0  0.318
  C  C1215  1  0.900530  0.693140  0.100210  1.0  0.373
  C  C1216  1  0.892920  0.711040  0.134910  1.0  0.0069
  C  C1217  1  0.512460  0.892150  0.537300  1.0  0.1416
  C  C1218  1  0.519050  0.925250  0.529880  1.0  -0.1644
  C  C1219  1  0.542240  0.944620  0.493770  1.0  -0.0983
  C  C1220  1  0.558670  0.930210  0.468890  1.0  -0.1413
  C  C1221  1  0.551130  0.896210  0.479910  1.0  0.121
  C  C1222  1  0.532350  0.144130  0.600400  1.0  0.1585
  C  C1223  1  0.540750  0.128630  0.564790  1.0  -0.1378
  C  C1224  1  0.536580  0.095570  0.572290  1.0  -0.076
  C  C1225  1  0.521770  0.078650  0.615010  1.0  -0.115
  C  C1226  1  0.514120  0.095850  0.648580  1.0  0.1621
  C  C1227  1  0.623870  0.097430  0.265030  1.0  0.1406
  C  C1228  1  0.610800  0.079830  0.306990  1.0  -0.1008
  C  C1229  1  0.598940  0.092690  0.340170  1.0  -0.1263
  C  C1230  1  0.598670  0.123130  0.329630  1.0  -0.1421
  C  C1231  1  0.612470  0.139630  0.285830  1.0  0.1178
  C  C1232  1  0.548510  0.980730  0.483880  1.0  0.2391
  C  C1233  1  0.545650  0.027890  0.511840  1.0  0.3389
  C  C1234  1  0.545520  0.076980  0.534800  1.0  0.3701
  C  C1235  1  0.566010  0.078500  0.460850  1.0  0.1524
  C  C1236  1  0.585160  0.075410  0.386980  1.0  0.318
  C  C1237  1  0.567200  0.026470  0.433540  1.0  0.3731
  C  C1238  1  0.559590  0.044370  0.468240  1.0  0.019
  C  C1239  1  0.179120  0.225490  0.870640  1.0  0.1416
  C  C1240  1  0.185710  0.258590  0.863220  1.0  -0.1647
  C  C1241  1  0.208900  0.277960  0.827110  1.0  -0.0983
  C  C1242  1  0.225330  0.263550  0.802230  1.0  -0.1412
  C  C1243  1  0.217790  0.229550  0.813250  1.0  0.1209
  C  C1244  1  0.199010  0.477470  0.933740  1.0  0.1589
  C  C1245  1  0.207410  0.461970  0.898130  1.0  -0.1376
  C  C1246  1  0.203240  0.428910  0.905630  1.0  -0.0759
  C  C1247  1  0.188430  0.411990  0.948350  1.0  -0.115
  C  C1248  1  0.180780  0.429190  0.981920  1.0  0.162
  C  C1249  1  0.290530  0.430770  0.598370  1.0  0.1407
  C  C1250  1  0.277460  0.413170  0.640330  1.0  -0.1008
  C  C1251  1  0.265600  0.426030  0.673510  1.0  -0.1264
  C  C1252  1  0.265330  0.456470  0.662970  1.0  -0.1421
  C  C1253  1  0.279130  0.472970  0.619170  1.0  0.1177
  C  C1254  1  0.215170  0.314070  0.817220  1.0  0.239
  C  C1255  1  0.212310  0.361230  0.845180  1.0  0.3388
  C  C1256  1  0.212180  0.410320  0.868140  1.0  0.3701
  C  C1257  1  0.232670  0.411840  0.794190  1.0  0.1524
  C  C1258  1  0.251820  0.408750  0.720320  1.0  0.318
  C  C1259  1  0.233860  0.359810  0.766880  1.0  0.373
  C  C1260  1  0.226250  0.377710  0.801580  1.0  0.0188
  I  I1261  1  0.454050  0.671970  0.807860  1.0  -0.2872
  I  I1262  1  0.120710  0.005310  0.141190  1.0  -0.2999
  I  I1263  1  0.787380  0.338640  0.474530  1.0  -0.2876
  I  I1264  1  0.328030  0.782070  0.807860  1.0  -0.2886
  I  I1265  1  0.994690  0.115410  0.141190  1.0  -0.2879
  I  I1266  1  0.661360  0.448740  0.474530  1.0  -0.2886
  I  I1267  1  0.217930  0.545950  0.807860  1.0  -0.2865
  I  I1268  1  0.884590  0.879290  0.141190  1.0  -0.2965
  I  I1269  1  0.551260  0.212620  0.474530  1.0  -0.2869
  I  I1270  1  0.328030  0.545950  0.307860  1.0  -0.2868
  I  I1271  1  0.994690  0.879290  0.641190  1.0  -0.2992
  I  I1272  1  0.661360  0.212620  0.974530  1.0  -0.2873
  I  I1273  1  0.217930  0.671970  0.307860  1.0  -0.2884
  I  I1274  1  0.884590  0.005310  0.641190  1.0  -0.2875
  I  I1275  1  0.551260  0.338640  0.974530  1.0  -0.2884
  I  I1276  1  0.454050  0.782070  0.307860  1.0  -0.2867
  I  I1277  1  0.120710  0.115410  0.641190  1.0  -0.2974
  I  I1278  1  0.787380  0.448740  0.974530  1.0  -0.287
  I  I1279  1  0.671970  0.454050  0.692140  1.0  -0.287
  I  I1280  1  0.338640  0.787380  0.025470  1.0  -0.2875
  I  I1281  1  0.005310  0.120710  0.358810  1.0  -0.2993
  I  I1282  1  0.782070  0.328030  0.692140  1.0  -0.2897
  I  I1283  1  0.448740  0.661360  0.025470  1.0  -0.2897
  I  I1284  1  0.115410  0.994690  0.358810  1.0  -0.2895
  I  I1285  1  0.545950  0.217930  0.692140  1.0  -0.286
  I  I1286  1  0.212620  0.551260  0.025470  1.0  -0.2863
  I  I1287  1  0.879290  0.884590  0.358810  1.0  -0.2963
  I  I1288  1  0.545950  0.328030  0.192140  1.0  -0.2864
  I  I1289  1  0.212620  0.661360  0.525470  1.0  -0.2869
  I  I1290  1  0.879290  0.994690  0.858810  1.0  -0.2992
  I  I1291  1  0.671970  0.217930  0.192140  1.0  -0.2891
  I  I1292  1  0.338640  0.551260  0.525470  1.0  -0.2891
  I  I1293  1  0.005310  0.884590  0.858810  1.0  -0.2881
  I  I1294  1  0.782070  0.454050  0.192140  1.0  -0.2872
  I  I1295  1  0.448740  0.787380  0.525470  1.0  -0.2875
  I  I1296  1  0.115410  0.120710  0.858810  1.0  -0.2974
  N  N1297  1  0.543730  0.682550  0.821100  1.0  -0.3336
  N  N1298  1  0.795380  0.942340  0.690680  1.0  -0.3578
  N  N1299  1  0.793620  0.835200  0.078890  1.0  -0.3214
  N  N1300  1  0.661810  0.788940  0.813570  1.0  -0.3616
  N  N1301  1  0.711190  0.839960  0.787360  1.0  -0.3228
  N  N1302  1  0.762330  0.869960  0.838340  1.0  -0.2945
  N  N1303  1  0.761010  0.848420  0.914960  1.0  -0.3469
  N  N1304  1  0.709150  0.795420  0.942590  1.0  -0.435
  N  N1305  1  0.660880  0.765720  0.892120  1.0  -0.3043
  N  N1306  1  0.210400  0.015880  0.154430  1.0  -0.3335
  N  N1307  1  0.462050  0.275670  0.024010  1.0  -0.3578
  N  N1308  1  0.460290  0.168530  0.412220  1.0  -0.3214
  N  N1309  1  0.328480  0.122270  0.146900  1.0  -0.3616
  N  N1310  1  0.377860  0.173290  0.120690  1.0  -0.3228
  N  N1311  1  0.429000  0.203290  0.171670  1.0  -0.2945
  N  N1312  1  0.427680  0.181750  0.248290  1.0  -0.3469
  N  N1313  1  0.375820  0.128750  0.275920  1.0  -0.435
  N  N1314  1  0.327550  0.099050  0.225450  1.0  -0.3043
  N  N1315  1  0.877060  0.349220  0.487770  1.0  -0.3334
  N  N1316  1  0.128710  0.609010  0.357350  1.0  -0.3582
  N  N1317  1  0.126950  0.501870  0.745560  1.0  -0.3211
  N  N1318  1  0.995140  0.455610  0.480240  1.0  -0.3613
  N  N1319  1  0.044520  0.506630  0.454030  1.0  -0.3227
  N  N1320  1  0.095660  0.536630  0.505010  1.0  -0.295
  N  N1321  1  0.094340  0.515090  0.581630  1.0  -0.3469
  N  N1322  1  0.042480  0.462090  0.609260  1.0  -0.435
  N  N1323  1  0.994210  0.432390  0.558790  1.0  -0.3043
  N  N1324  1  0.317450  0.861180  0.821100  1.0  -0.3336
  N  N1325  1  0.057660  0.853040  0.690680  1.0  -0.3597
  N  N1326  1  0.164800  0.958420  0.078890  1.0  -0.3226
  N  N1327  1  0.211060  0.872870  0.813570  1.0  -0.3661
  N  N1328  1  0.160040  0.871230  0.787360  1.0  -0.3224
  N  N1329  1  0.130040  0.892370  0.838340  1.0  -0.2957
  N  N1330  1  0.151580  0.912590  0.914960  1.0  -0.3436
  N  N1331  1  0.204580  0.913730  0.942590  1.0  -0.4317
  N  N1332  1  0.234280  0.895160  0.892120  1.0  -0.3053
  N  N1333  1  0.984120  0.194510  0.154430  1.0  -0.3334
  N  N1334  1  0.724330  0.186370  0.024010  1.0  -0.3596
  N  N1335  1  0.831470  0.291750  0.412220  1.0  -0.3224
  N  N1336  1  0.877730  0.206200  0.146900  1.0  -0.3659
  N  N1337  1  0.826710  0.204560  0.120690  1.0  -0.3224
  N  N1338  1  0.796710  0.225700  0.171670  1.0  -0.2957
  N  N1339  1  0.818250  0.245920  0.248290  1.0  -0.3436
  N  N1340  1  0.871250  0.247060  0.275920  1.0  -0.4317
  N  N1341  1  0.900950  0.228490  0.225450  1.0  -0.3054
  N  N1342  1  0.650780  0.527850  0.487770  1.0  -0.3335
  N  N1343  1  0.390990  0.519710  0.357350  1.0  -0.3597
  N  N1344  1  0.498130  0.625090  0.745560  1.0  -0.3226
  N  N1345  1  0.544390  0.539540  0.480240  1.0  -0.3661
  N  N1346  1  0.493370  0.537900  0.454030  1.0  -0.3224
  N  N1347  1  0.463370  0.559040  0.505010  1.0  -0.2958
  N  N1348  1  0.484910  0.579260  0.581630  1.0  -0.3436
  N  N1349  1  0.537910  0.580400  0.609260  1.0  -0.4317
  N  N1350  1  0.567610  0.561830  0.558790  1.0  -0.3053
  N  N1351  1  0.138820  0.456270  0.821100  1.0  -0.33
  N  N1352  1  0.146960  0.204620  0.690680  1.0  -0.3585
  N  N1353  1  0.041580  0.206380  0.078890  1.0  -0.323
  N  N1354  1  0.127130  0.338190  0.813570  1.0  -0.3616
  N  N1355  1  0.128770  0.288810  0.787360  1.0  -0.3208
  N  N1356  1  0.107630  0.237670  0.838340  1.0  -0.2935
  N  N1357  1  0.087410  0.238990  0.914960  1.0  -0.346
  N  N1358  1  0.086270  0.290850  0.942590  1.0  -0.4337
  N  N1359  1  0.104840  0.339120  0.892120  1.0  -0.3024
  N  N1360  1  0.805490  0.789600  0.154430  1.0  -0.33
  N  N1361  1  0.813630  0.537950  0.024010  1.0  -0.3587
  N  N1362  1  0.708250  0.539710  0.412220  1.0  -0.3228
  N  N1363  1  0.793800  0.671520  0.146900  1.0  -0.3613
  N  N1364  1  0.795440  0.622140  0.120690  1.0  -0.3207
  N  N1365  1  0.774300  0.571000  0.171670  1.0  -0.2935
  N  N1366  1  0.754080  0.572320  0.248290  1.0  -0.346
  N  N1367  1  0.752940  0.624180  0.275920  1.0  -0.4337
  N  N1368  1  0.771510  0.672450  0.225450  1.0  -0.3024
  N  N1369  1  0.472150  0.122940  0.487770  1.0  -0.3301
  N  N1370  1  0.480290  0.871290  0.357350  1.0  -0.3582
  N  N1371  1  0.374910  0.873050  0.745560  1.0  -0.323
  N  N1372  1  0.460460  0.004860  0.480240  1.0  -0.3611
  N  N1373  1  0.462100  0.955480  0.454030  1.0  -0.3207
  N  N1374  1  0.440960  0.904340  0.505010  1.0  -0.2933
  N  N1375  1  0.420740  0.905660  0.581630  1.0  -0.346
  N  N1376  1  0.419600  0.957520  0.609260  1.0  -0.4337
  N  N1377  1  0.438170  0.005790  0.558790  1.0  -0.3023
  N  N1378  1  0.317450  0.456270  0.321100  1.0  -0.3304
  N  N1379  1  0.057660  0.204620  0.190680  1.0  -0.3589
  N  N1380  1  0.164800  0.206380  0.578890  1.0  -0.3234
  N  N1381  1  0.211060  0.338190  0.313570  1.0  -0.3613
  N  N1382  1  0.160040  0.288810  0.287360  1.0  -0.3188
  N  N1383  1  0.130040  0.237670  0.338340  1.0  -0.2942
  N  N1384  1  0.151580  0.238990  0.414960  1.0  -0.346
  N  N1385  1  0.204580  0.290850  0.442590  1.0  -0.4345
  N  N1386  1  0.234280  0.339120  0.392120  1.0  -0.3045
  N  N1387  1  0.984120  0.789600  0.654430  1.0  -0.3304
  N  N1388  1  0.724330  0.537950  0.524010  1.0  -0.3589
  N  N1389  1  0.831470  0.539710  0.912220  1.0  -0.3233
  N  N1390  1  0.877730  0.671520  0.646900  1.0  -0.3613
  N  N1391  1  0.826710  0.622140  0.620690  1.0  -0.3188
  N  N1392  1  0.796710  0.571000  0.671670  1.0  -0.2942
  N  N1393  1  0.818250  0.572320  0.748290  1.0  -0.346
  N  N1394  1  0.871250  0.624180  0.775920  1.0  -0.4345
  N  N1395  1  0.900950  0.672450  0.725450  1.0  -0.3045
  N  N1396  1  0.650780  0.122940  0.987770  1.0  -0.3302
  N  N1397  1  0.390990  0.871290  0.857350  1.0  -0.3592
  N  N1398  1  0.498130  0.873050  0.245560  1.0  -0.3231
  N  N1399  1  0.544390  0.004860  0.980240  1.0  -0.361
  N  N1400  1  0.493370  0.955480  0.954030  1.0  -0.3187
  N  N1401  1  0.463370  0.904340  0.005010  1.0  -0.2944
  N  N1402  1  0.484910  0.905660  0.081630  1.0  -0.346
  N  N1403  1  0.537910  0.957520  0.109260  1.0  -0.4345
  N  N1404  1  0.567610  0.005790  0.058790  1.0  -0.301
  N  N1405  1  0.138820  0.682550  0.321100  1.0  -0.3336
  N  N1406  1  0.146960  0.942340  0.190680  1.0  -0.3575
  N  N1407  1  0.041580  0.835200  0.578890  1.0  -0.3228
  N  N1408  1  0.127130  0.788940  0.313570  1.0  -0.3606
  N  N1409  1  0.128770  0.839960  0.287360  1.0  -0.3219
  N  N1410  1  0.107630  0.869960  0.338340  1.0  -0.2933
  N  N1411  1  0.087410  0.848420  0.414960  1.0  -0.3442
  N  N1412  1  0.086270  0.795420  0.442590  1.0  -0.4348
  N  N1413  1  0.104840  0.765720  0.392120  1.0  -0.3028
  N  N1414  1  0.805490  0.015880  0.654430  1.0  -0.3335
  N  N1415  1  0.813630  0.275670  0.524010  1.0  -0.3572
  N  N1416  1  0.708250  0.168530  0.912220  1.0  -0.3226
  N  N1417  1  0.793800  0.122270  0.646900  1.0  -0.3604
  N  N1418  1  0.795440  0.173290  0.620690  1.0  -0.3222
  N  N1419  1  0.774300  0.203290  0.671670  1.0  -0.2933
  N  N1420  1  0.754080  0.181750  0.748290  1.0  -0.3442
  N  N1421  1  0.752940  0.128750  0.775920  1.0  -0.4348
  N  N1422  1  0.771510  0.099050  0.725450  1.0  -0.3029
  N  N1423  1  0.472150  0.349220  0.987770  1.0  -0.3335
  N  N1424  1  0.480290  0.609010  0.857350  1.0  -0.3575
  N  N1425  1  0.374910  0.501870  0.245560  1.0  -0.3229
  N  N1426  1  0.460460  0.455610  0.980240  1.0  -0.3607
  N  N1427  1  0.462100  0.506630  0.954030  1.0  -0.3223
  N  N1428  1  0.440960  0.536630  0.005010  1.0  -0.2934
  N  N1429  1  0.420740  0.515090  0.081630  1.0  -0.3442
  N  N1430  1  0.419600  0.462090  0.109260  1.0  -0.4348
  N  N1431  1  0.438170  0.432390  0.058790  1.0  -0.3029
  N  N1432  1  0.543730  0.861180  0.321100  1.0  -0.3353
  N  N1433  1  0.795380  0.853040  0.190680  1.0  -0.3611
  N  N1434  1  0.793620  0.958420  0.578890  1.0  -0.3218
  N  N1435  1  0.661810  0.872870  0.313570  1.0  -0.3642
  N  N1436  1  0.711190  0.871230  0.287360  1.0  -0.322
  N  N1437  1  0.762330  0.892370  0.338340  1.0  -0.2966
  N  N1438  1  0.761010  0.912590  0.414960  1.0  -0.3448
  N  N1439  1  0.709150  0.913730  0.442590  1.0  -0.4324
  N  N1440  1  0.660880  0.895160  0.392120  1.0  -0.3057
  N  N1441  1  0.210400  0.194510  0.654430  1.0  -0.3352
  N  N1442  1  0.462050  0.186370  0.524010  1.0  -0.3612
  N  N1443  1  0.460290  0.291750  0.912220  1.0  -0.3216
  N  N1444  1  0.328480  0.206200  0.646900  1.0  -0.3638
  N  N1445  1  0.377860  0.204560  0.620690  1.0  -0.3217
  N  N1446  1  0.429000  0.225700  0.671670  1.0  -0.2966
  N  N1447  1  0.427680  0.245920  0.748290  1.0  -0.3448
  N  N1448  1  0.375820  0.247060  0.775920  1.0  -0.4324
  N  N1449  1  0.327550  0.228490  0.725450  1.0  -0.3057
  N  N1450  1  0.877060  0.527850  0.987770  1.0  -0.3353
  N  N1451  1  0.128710  0.519710  0.857350  1.0  -0.3607
  N  N1452  1  0.126950  0.625090  0.245560  1.0  -0.3218
  N  N1453  1  0.995140  0.539540  0.980240  1.0  -0.3635
  N  N1454  1  0.044520  0.537900  0.954030  1.0  -0.3217
  N  N1455  1  0.095660  0.559040  0.005010  1.0  -0.2962
  N  N1456  1  0.094340  0.579260  0.081630  1.0  -0.3448
  N  N1457  1  0.042480  0.580400  0.109260  1.0  -0.4324
  N  N1458  1  0.994210  0.561830  0.058790  1.0  -0.3018
  N  N1459  1  0.682550  0.543730  0.678900  1.0  -0.3316
  N  N1460  1  0.942340  0.795380  0.809320  1.0  -0.3576
  N  N1461  1  0.835200  0.793620  0.421110  1.0  -0.3191
  N  N1462  1  0.788940  0.661810  0.686430  1.0  -0.3599
  N  N1463  1  0.839960  0.711190  0.712640  1.0  -0.3209
  N  N1464  1  0.869960  0.762330  0.661660  1.0  -0.2948
  N  N1465  1  0.848420  0.761010  0.585040  1.0  -0.3473
  N  N1466  1  0.795420  0.709150  0.557410  1.0  -0.4348
  N  N1467  1  0.765720  0.660880  0.607880  1.0  -0.3031
  N  N1468  1  0.349220  0.877060  0.012230  1.0  -0.3313
  N  N1469  1  0.609010  0.128710  0.142650  1.0  -0.358
  N  N1470  1  0.501870  0.126950  0.754440  1.0  -0.3189
  N  N1471  1  0.455610  0.995140  0.019760  1.0  -0.3597
  N  N1472  1  0.506630  0.044520  0.045970  1.0  -0.3208
  N  N1473  1  0.536630  0.095660  0.994990  1.0  -0.295
  N  N1474  1  0.515090  0.094340  0.918370  1.0  -0.3473
  N  N1475  1  0.462090  0.042480  0.890740  1.0  -0.4348
  N  N1476  1  0.432390  0.994210  0.941210  1.0  -0.2997
  N  N1477  1  0.015880  0.210400  0.345570  1.0  -0.3316
  N  N1478  1  0.275670  0.462050  0.475990  1.0  -0.3576
  N  N1479  1  0.168530  0.460290  0.087780  1.0  -0.3191
  N  N1480  1  0.122270  0.328480  0.353100  1.0  -0.3599
  N  N1481  1  0.173290  0.377860  0.379310  1.0  -0.3209
  N  N1482  1  0.203290  0.429000  0.328330  1.0  -0.2948
  N  N1483  1  0.181750  0.427680  0.251710  1.0  -0.3473
  N  N1484  1  0.128750  0.375820  0.224080  1.0  -0.4348
  N  N1485  1  0.099050  0.327550  0.274550  1.0  -0.3031
  N  N1486  1  0.861180  0.317450  0.678900  1.0  -0.3319
  N  N1487  1  0.853040  0.057660  0.809320  1.0  -0.3577
  N  N1488  1  0.958420  0.164800  0.421110  1.0  -0.3205
  N  N1489  1  0.872870  0.211060  0.686430  1.0  -0.3607
  N  N1490  1  0.871230  0.160040  0.712640  1.0  -0.3204
  N  N1491  1  0.892370  0.130040  0.661660  1.0  -0.2942
  N  N1492  1  0.912590  0.151580  0.585040  1.0  -0.3452
  N  N1493  1  0.913730  0.204580  0.557410  1.0  -0.4378
  N  N1494  1  0.895160  0.234280  0.607880  1.0  -0.306
  N  N1495  1  0.527850  0.650780  0.012230  1.0  -0.3318
  N  N1496  1  0.519710  0.390990  0.142650  1.0  -0.3578
  N  N1497  1  0.625090  0.498130  0.754440  1.0  -0.3205
  N  N1498  1  0.539540  0.544390  0.019760  1.0  -0.3606
  N  N1499  1  0.537900  0.493370  0.045970  1.0  -0.32
  N  N1500  1  0.559040  0.463370  0.994990  1.0  -0.2943
  N  N1501  1  0.579260  0.484910  0.918370  1.0  -0.3452
  N  N1502  1  0.580400  0.537910  0.890740  1.0  -0.4378
  N  N1503  1  0.561830  0.567610  0.941210  1.0  -0.3061
  N  N1504  1  0.194510  0.984120  0.345570  1.0  -0.3318
  N  N1505  1  0.186370  0.724330  0.475990  1.0  -0.3576
  N  N1506  1  0.291750  0.831470  0.087780  1.0  -0.3203
  N  N1507  1  0.206200  0.877730  0.353100  1.0  -0.3603
  N  N1508  1  0.204560  0.826710  0.379310  1.0  -0.32
  N  N1509  1  0.225700  0.796710  0.328330  1.0  -0.2942
  N  N1510  1  0.245920  0.818250  0.251710  1.0  -0.3452
  N  N1511  1  0.247060  0.871250  0.224080  1.0  -0.4378
  N  N1512  1  0.228490  0.900950  0.274550  1.0  -0.3062
  N  N1513  1  0.456270  0.138820  0.678900  1.0  -0.3338
  N  N1514  1  0.204620  0.146960  0.809320  1.0  -0.3591
  N  N1515  1  0.206380  0.041580  0.421110  1.0  -0.3214
  N  N1516  1  0.338190  0.127130  0.686430  1.0  -0.3626
  N  N1517  1  0.288810  0.128770  0.712640  1.0  -0.3202
  N  N1518  1  0.237670  0.107630  0.661660  1.0  -0.2968
  N  N1519  1  0.238990  0.087410  0.585040  1.0  -0.3442
  N  N1520  1  0.290850  0.086270  0.557410  1.0  -0.4348
  N  N1521  1  0.339120  0.104840  0.607880  1.0  -0.3033
  N  N1522  1  0.122940  0.472150  0.012230  1.0  -0.3339
  N  N1523  1  0.871290  0.480290  0.142650  1.0  -0.3587
  N  N1524  1  0.873050  0.374910  0.754440  1.0  -0.3214
  N  N1525  1  0.004860  0.460460  0.019760  1.0  -0.3628
  N  N1526  1  0.955480  0.462100  0.045970  1.0  -0.3198
  N  N1527  1  0.904340  0.440960  0.994990  1.0  -0.2966
  N  N1528  1  0.905660  0.420740  0.918370  1.0  -0.3442
  N  N1529  1  0.957520  0.419600  0.890740  1.0  -0.4348
  N  N1530  1  0.005790  0.438170  0.941210  1.0  -0.3
  N  N1531  1  0.789600  0.805490  0.345570  1.0  -0.3339
  N  N1532  1  0.537950  0.813630  0.475990  1.0  -0.3593
  N  N1533  1  0.539710  0.708250  0.087780  1.0  -0.3212
  N  N1534  1  0.671520  0.793800  0.353100  1.0  -0.3631
  N  N1535  1  0.622140  0.795440  0.379310  1.0  -0.3198
  N  N1536  1  0.571000  0.774300  0.328330  1.0  -0.2968
  N  N1537  1  0.572320  0.754080  0.251710  1.0  -0.3442
  N  N1538  1  0.624180  0.752940  0.224080  1.0  -0.4348
  N  N1539  1  0.672450  0.771510  0.274550  1.0  -0.3033
  N  N1540  1  0.456270  0.317450  0.178900  1.0  -0.3328
  N  N1541  1  0.204620  0.057660  0.309320  1.0  -0.3578
  N  N1542  1  0.206380  0.164800  0.921110  1.0  -0.3215
  N  N1543  1  0.338190  0.211060  0.186430  1.0  -0.3597
  N  N1544  1  0.288810  0.160040  0.212640  1.0  -0.3211
  N  N1545  1  0.237670  0.130040  0.161660  1.0  -0.2933
  N  N1546  1  0.238990  0.151580  0.085040  1.0  -0.3441
  N  N1547  1  0.290850  0.204580  0.057410  1.0  -0.4383
  N  N1548  1  0.339120  0.234280  0.107880  1.0  -0.3055
  N  N1549  1  0.122940  0.650780  0.512230  1.0  -0.3326
  N  N1550  1  0.871290  0.390990  0.642650  1.0  -0.3581
  N  N1551  1  0.873050  0.498130  0.254440  1.0  -0.3213
  N  N1552  1  0.004860  0.544390  0.519760  1.0  -0.3593
  N  N1553  1  0.955480  0.493370  0.545970  1.0  -0.3211
  N  N1554  1  0.904340  0.463370  0.494990  1.0  -0.2936
  N  N1555  1  0.905660  0.484910  0.418370  1.0  -0.3441
  N  N1556  1  0.957520  0.537910  0.390740  1.0  -0.4383
  N  N1557  1  0.005790  0.567610  0.441210  1.0  -0.3055
  N  N1558  1  0.789600  0.984120  0.845570  1.0  -0.3328
  N  N1559  1  0.537950  0.724330  0.975990  1.0  -0.3578
  N  N1560  1  0.539710  0.831470  0.587780  1.0  -0.3215
  N  N1561  1  0.671520  0.877730  0.853100  1.0  -0.3597
  N  N1562  1  0.622140  0.826710  0.879310  1.0  -0.3211
  N  N1563  1  0.571000  0.796710  0.828330  1.0  -0.2933
  N  N1564  1  0.572320  0.818250  0.751710  1.0  -0.3441
  N  N1565  1  0.624180  0.871250  0.724080  1.0  -0.4383
  N  N1566  1  0.672450  0.900950  0.774550  1.0  -0.3055
  N  N1567  1  0.682550  0.138820  0.178900  1.0  -0.3346
  N  N1568  1  0.942340  0.146960  0.309320  1.0  -0.3592
  N  N1569  1  0.835200  0.041580  0.921110  1.0  -0.3203
  N  N1570  1  0.788940  0.127130  0.186430  1.0  -0.3612
  N  N1571  1  0.839960  0.128770  0.212640  1.0  -0.3228
  N  N1572  1  0.869960  0.107630  0.161660  1.0  -0.2958
  N  N1573  1  0.848420  0.087410  0.085040  1.0  -0.3447
  N  N1574  1  0.795420  0.086270  0.057410  1.0  -0.4353
  N  N1575  1  0.765720  0.104840  0.107880  1.0  -0.3045
  N  N1576  1  0.349220  0.472150  0.512230  1.0  -0.3344
  N  N1577  1  0.609010  0.480290  0.642650  1.0  -0.3593
  N  N1578  1  0.501870  0.374910  0.254440  1.0  -0.3203
  N  N1579  1  0.455610  0.460460  0.519760  1.0  -0.3616
  N  N1580  1  0.506630  0.462100  0.545970  1.0  -0.3224
  N  N1581  1  0.536630  0.440960  0.494990  1.0  -0.2959
  N  N1582  1  0.515090  0.420740  0.418370  1.0  -0.3447
  N  N1583  1  0.462090  0.419600  0.390740  1.0  -0.4353
  N  N1584  1  0.432390  0.438170  0.441210  1.0  -0.3046
  N  N1585  1  0.015880  0.805490  0.845570  1.0  -0.3344
  N  N1586  1  0.275670  0.813630  0.975990  1.0  -0.3591
  N  N1587  1  0.168530  0.708250  0.587780  1.0  -0.3201
  N  N1588  1  0.122270  0.793800  0.853100  1.0  -0.3613
  N  N1589  1  0.173290  0.795440  0.879310  1.0  -0.3224
  N  N1590  1  0.203290  0.774300  0.828330  1.0  -0.2958
  N  N1591  1  0.181750  0.754080  0.751710  1.0  -0.3447
  N  N1592  1  0.128750  0.752940  0.724080  1.0  -0.4353
  N  N1593  1  0.099050  0.771510  0.774550  1.0  -0.3047
  N  N1594  1  0.861180  0.543730  0.178900  1.0  -0.3314
  N  N1595  1  0.853040  0.795380  0.309320  1.0  -0.3579
  N  N1596  1  0.958420  0.793620  0.921110  1.0  -0.3197
  N  N1597  1  0.872870  0.661810  0.186430  1.0  -0.3614
  N  N1598  1  0.871230  0.711190  0.212640  1.0  -0.319
  N  N1599  1  0.892370  0.762330  0.161660  1.0  -0.2949
  N  N1600  1  0.912590  0.761010  0.085040  1.0  -0.3456
  N  N1601  1  0.913730  0.709150  0.057410  1.0  -0.4346
  N  N1602  1  0.895160  0.660880  0.107880  1.0  -0.3049
  N  N1603  1  0.527850  0.877060  0.512230  1.0  -0.3316
  N  N1604  1  0.519710  0.128710  0.642650  1.0  -0.3576
  N  N1605  1  0.625090  0.126950  0.254440  1.0  -0.3197
  N  N1606  1  0.539540  0.995140  0.519760  1.0  -0.3609
  N  N1607  1  0.537900  0.044520  0.545970  1.0  -0.3189
  N  N1608  1  0.559040  0.095660  0.494990  1.0  -0.2947
  N  N1609  1  0.579260  0.094340  0.418370  1.0  -0.3456
  N  N1610  1  0.580400  0.042480  0.390740  1.0  -0.4346
  N  N1611  1  0.561830  0.994210  0.441210  1.0  -0.305
  N  N1612  1  0.194510  0.210400  0.845570  1.0  -0.3316
  N  N1613  1  0.186370  0.462050  0.975990  1.0  -0.3581
  N  N1614  1  0.291750  0.460290  0.587780  1.0  -0.3195
  N  N1615  1  0.206200  0.328480  0.853100  1.0  -0.3612
  N  N1616  1  0.204560  0.377860  0.879310  1.0  -0.3189
  N  N1617  1  0.225700  0.429000  0.828330  1.0  -0.2949
  N  N1618  1  0.245920  0.427680  0.751710  1.0  -0.3456
  N  N1619  1  0.247060  0.375820  0.724080  1.0  -0.4346
  N  N1620  1  0.228490  0.327550  0.774550  1.0  -0.3049
