# generated using pymatgen
data_InH32(C27O4)2
_symmetry_space_group_name_H-M   'P 1'
_cell_length_a   38.72690000
_cell_length_b   14.94960000
_cell_length_c   31.77890000
_cell_angle_alpha   90.00000000
_cell_angle_beta   90.79400000
_cell_angle_gamma   90.00000000
_symmetry_Int_Tables_number   1
_chemical_formula_structural   InH32(C27O4)2
_chemical_formula_sum   'In8 H256 C432 O64'
_cell_volume   18396.68043566
_cell_formula_units_Z   8
loop_
 _symmetry_equiv_pos_site_id
 _symmetry_equiv_pos_as_xyz
  1  'x, y, z'
loop_
 _atom_site_type_symbol
 _atom_site_label
 _atom_site_symmetry_multiplicity
 _atom_site_fract_x
 _atom_site_fract_y
 _atom_site_fract_z
 _atom_site_occupancy
 _atom_site_charge
  In  In1  1  0.218320  0.021870  0.200560  1.0  1.4678
  In  In2  1  0.718320  0.521870  0.200560  1.0  1.4678
  In  In3  1  0.218320  0.978130  0.700560  1.0  1.467
  In  In4  1  0.718320  0.478130  0.700560  1.0  1.4671
  In  In5  1  0.781680  0.021870  0.299440  1.0  1.472
  In  In6  1  0.281680  0.521870  0.299440  1.0  1.472
  In  In7  1  0.781680  0.978130  0.799440  1.0  1.4702
  In  In8  1  0.281680  0.478130  0.799440  1.0  1.4703
  H  H9  1  0.281300  0.790700  0.275200  1.0  0.1053
  H  H10  1  0.327400  0.736700  0.315900  1.0  0.1206
  H  H11  1  0.358600  0.988100  0.336900  1.0  0.1173
  H  H12  1  0.313200  0.041900  0.296000  1.0  0.1209
  H  H13  1  0.384600  0.712800  0.323000  1.0  0.1116
  H  H14  1  0.431800  0.658700  0.360400  1.0  0.1213
  H  H15  1  0.426000  0.878300  0.434600  1.0  0.1093
  H  H16  1  0.380100  0.928400  0.395700  1.0  0.1296
  H  H17  1  0.496600  0.813700  0.369100  1.0  0.1185
  H  H18  1  0.544200  0.775500  0.329600  1.0  0.1152
  H  H19  1  0.546100  0.535800  0.384000  1.0  0.121
  H  H20  1  0.499900  0.576800  0.424800  1.0  0.0898
  H  H21  1  0.600700  0.757000  0.320800  1.0  0.122
  H  H22  1  0.646300  0.719300  0.277900  1.0  0.1022
  H  H23  1  0.621300  0.459900  0.289100  1.0  0.1173
  H  H24  1  0.575600  0.499000  0.330200  1.0  0.1138
  H  H25  1  0.400700  0.653300  0.474100  1.0  0.107
  H  H26  1  0.353800  0.693500  0.512800  1.0  0.1236
  H  H27  1  0.408900  0.892600  0.564900  1.0  0.1096
  H  H28  1  0.456700  0.843900  0.530800  1.0  0.1148
  H  H29  1  0.327800  0.704900  0.582600  1.0  0.116
  H  H30  1  0.281900  0.750300  0.624300  1.0  0.1089
  H  H31  1  0.309900  0.005700  0.605800  1.0  0.1148
  H  H32  1  0.354900  0.959500  0.564700  1.0  0.1204
  H  H33  1  0.472000  0.608300  0.533100  1.0  0.1066
  H  H34  1  0.519300  0.561100  0.570300  1.0  0.1033
  H  H35  1  0.576700  0.743000  0.510200  1.0  0.1216
  H  H36  1  0.529400  0.783500  0.470400  1.0  0.1172
  H  H37  1  0.574200  0.485600  0.570500  1.0  0.0965
  H  H38  1  0.621600  0.439000  0.610100  1.0  0.1213
  H  H39  1  0.653300  0.694400  0.617000  1.0  0.1109
  H  H40  1  0.606200  0.739500  0.578100  1.0  0.1259
  H  H41  1  0.781300  0.290700  0.275200  1.0  0.1053
  H  H42  1  0.827400  0.236700  0.315900  1.0  0.1206
  H  H43  1  0.858600  0.488100  0.336900  1.0  0.1173
  H  H44  1  0.813200  0.541900  0.296000  1.0  0.1209
  H  H45  1  0.884600  0.212800  0.323000  1.0  0.1116
  H  H46  1  0.931800  0.158700  0.360400  1.0  0.1213
  H  H47  1  0.926000  0.378300  0.434600  1.0  0.1093
  H  H48  1  0.880100  0.428400  0.395700  1.0  0.1296
  H  H49  1  0.996600  0.313700  0.369100  1.0  0.1185
  H  H50  1  0.044200  0.275500  0.329600  1.0  0.1152
  H  H51  1  0.046100  0.035800  0.384000  1.0  0.121
  H  H52  1  0.999900  0.076800  0.424800  1.0  0.0898
  H  H53  1  0.100700  0.257000  0.320800  1.0  0.122
  H  H54  1  0.146300  0.219300  0.277900  1.0  0.1022
  H  H55  1  0.121300  0.959900  0.289100  1.0  0.1173
  H  H56  1  0.075600  0.999000  0.330200  1.0  0.1138
  H  H57  1  0.900700  0.153300  0.474100  1.0  0.107
  H  H58  1  0.853800  0.193500  0.512800  1.0  0.1236
  H  H59  1  0.908900  0.392600  0.564900  1.0  0.1096
  H  H60  1  0.956700  0.343900  0.530800  1.0  0.1148
  H  H61  1  0.827800  0.204900  0.582600  1.0  0.116
  H  H62  1  0.781900  0.250300  0.624300  1.0  0.1089
  H  H63  1  0.809900  0.505700  0.605800  1.0  0.1148
  H  H64  1  0.854900  0.459500  0.564700  1.0  0.1204
  H  H65  1  0.972000  0.108300  0.533100  1.0  0.1066
  H  H66  1  0.019300  0.061100  0.570300  1.0  0.1033
  H  H67  1  0.076700  0.243000  0.510200  1.0  0.1216
  H  H68  1  0.029400  0.283500  0.470400  1.0  0.1172
  H  H69  1  0.074200  0.985600  0.570500  1.0  0.0965
  H  H70  1  0.121600  0.939000  0.610100  1.0  0.1213
  H  H71  1  0.153300  0.194400  0.617000  1.0  0.1109
  H  H72  1  0.106200  0.239500  0.578100  1.0  0.1259
  H  H73  1  0.281300  0.209300  0.775200  1.0  0.1055
  H  H74  1  0.327400  0.263300  0.815900  1.0  0.1205
  H  H75  1  0.358600  0.011900  0.836900  1.0  0.1172
  H  H76  1  0.313200  0.958100  0.796000  1.0  0.1208
  H  H77  1  0.384600  0.287200  0.823000  1.0  0.1117
  H  H78  1  0.431800  0.341300  0.860400  1.0  0.1216
  H  H79  1  0.426000  0.121700  0.934600  1.0  0.1107
  H  H80  1  0.380100  0.071600  0.895700  1.0  0.1298
  H  H81  1  0.496600  0.186300  0.869100  1.0  0.1168
  H  H82  1  0.544200  0.224500  0.829600  1.0  0.1149
  H  H83  1  0.546100  0.464200  0.884000  1.0  0.1207
  H  H84  1  0.499900  0.423200  0.924800  1.0  0.0897
  H  H85  1  0.600700  0.243000  0.820800  1.0  0.1218
  H  H86  1  0.646300  0.280700  0.777900  1.0  0.102
  H  H87  1  0.621300  0.540100  0.789100  1.0  0.1171
  H  H88  1  0.575600  0.501000  0.830200  1.0  0.1143
  H  H89  1  0.400700  0.346700  0.974100  1.0  0.1069
  H  H90  1  0.353800  0.306500  0.012800  1.0  0.1239
  H  H91  1  0.408900  0.107400  0.064900  1.0  0.109
  H  H92  1  0.456700  0.156100  0.030800  1.0  0.1148
  H  H93  1  0.327800  0.295100  0.082600  1.0  0.1156
  H  H94  1  0.281900  0.249700  0.124300  1.0  0.1092
  H  H95  1  0.309900  0.994300  0.105800  1.0  0.115
  H  H96  1  0.354900  0.040500  0.064700  1.0  0.1202
  H  H97  1  0.472000  0.391700  0.033100  1.0  0.1064
  H  H98  1  0.519300  0.438900  0.070300  1.0  0.1026
  H  H99  1  0.576700  0.257000  0.010200  1.0  0.1212
  H  H100  1  0.529400  0.216500  0.970400  1.0  0.1171
  H  H101  1  0.574200  0.514400  0.070500  1.0  0.096
  H  H102  1  0.621600  0.561000  0.110100  1.0  0.1208
  H  H103  1  0.653300  0.305600  0.117000  1.0  0.1107
  H  H104  1  0.606200  0.260500  0.078100  1.0  0.1263
  H  H105  1  0.781300  0.709300  0.775200  1.0  0.1055
  H  H106  1  0.827400  0.763300  0.815900  1.0  0.1205
  H  H107  1  0.858600  0.511900  0.836900  1.0  0.1172
  H  H108  1  0.813200  0.458100  0.796000  1.0  0.1208
  H  H109  1  0.884600  0.787200  0.823000  1.0  0.1117
  H  H110  1  0.931800  0.841300  0.860400  1.0  0.1216
  H  H111  1  0.926000  0.621700  0.934600  1.0  0.1107
  H  H112  1  0.880100  0.571600  0.895700  1.0  0.1298
  H  H113  1  0.996600  0.686300  0.869100  1.0  0.1168
  H  H114  1  0.044200  0.724500  0.829600  1.0  0.1149
  H  H115  1  0.046100  0.964200  0.884000  1.0  0.1207
  H  H116  1  0.999900  0.923200  0.924800  1.0  0.0897
  H  H117  1  0.100700  0.743000  0.820800  1.0  0.1218
  H  H118  1  0.146300  0.780700  0.777900  1.0  0.102
  H  H119  1  0.121300  0.040100  0.789100  1.0  0.1171
  H  H120  1  0.075600  0.001000  0.830200  1.0  0.1143
  H  H121  1  0.900700  0.846700  0.974100  1.0  0.1069
  H  H122  1  0.853800  0.806500  0.012800  1.0  0.1239
  H  H123  1  0.908900  0.607400  0.064900  1.0  0.109
  H  H124  1  0.956700  0.656100  0.030800  1.0  0.1148
  H  H125  1  0.827800  0.795100  0.082600  1.0  0.1156
  H  H126  1  0.781900  0.749700  0.124300  1.0  0.1092
  H  H127  1  0.809900  0.494300  0.105800  1.0  0.115
  H  H128  1  0.854900  0.540500  0.064700  1.0  0.1202
  H  H129  1  0.972000  0.891700  0.033100  1.0  0.1064
  H  H130  1  0.019300  0.938900  0.070300  1.0  0.1026
  H  H131  1  0.076700  0.757000  0.010200  1.0  0.1212
  H  H132  1  0.029400  0.716500  0.970400  1.0  0.1171
  H  H133  1  0.074200  0.014400  0.070500  1.0  0.096
  H  H134  1  0.121600  0.061000  0.110100  1.0  0.1208
  H  H135  1  0.153300  0.805600  0.117000  1.0  0.1107
  H  H136  1  0.106200  0.760500  0.078100  1.0  0.1263
  H  H137  1  0.718700  0.790700  0.224800  1.0  0.106
  H  H138  1  0.672600  0.736700  0.184100  1.0  0.1201
  H  H139  1  0.641400  0.988100  0.163100  1.0  0.1174
  H  H140  1  0.686800  0.041900  0.204000  1.0  0.1205
  H  H141  1  0.615400  0.712800  0.177000  1.0  0.1125
  H  H142  1  0.568200  0.658700  0.139600  1.0  0.1218
  H  H143  1  0.574000  0.878300  0.065400  1.0  0.1102
  H  H144  1  0.619900  0.928400  0.104300  1.0  0.13
  H  H145  1  0.503400  0.813700  0.130900  1.0  0.1181
  H  H146  1  0.455800  0.775500  0.170400  1.0  0.1159
  H  H147  1  0.453900  0.535800  0.116000  1.0  0.1209
  H  H148  1  0.500100  0.576800  0.075200  1.0  0.0901
  H  H149  1  0.399300  0.757000  0.179200  1.0  0.122
  H  H150  1  0.353700  0.719300  0.222100  1.0  0.1019
  H  H151  1  0.378700  0.459900  0.210900  1.0  0.1175
  H  H152  1  0.424400  0.499000  0.169800  1.0  0.114
  H  H153  1  0.599300  0.653300  0.025900  1.0  0.1062
  H  H154  1  0.646200  0.693500  0.987200  1.0  0.1225
  H  H155  1  0.591100  0.892600  0.935100  1.0  0.1096
  H  H156  1  0.543300  0.843900  0.969200  1.0  0.1149
  H  H157  1  0.672200  0.704900  0.917400  1.0  0.1162
  H  H158  1  0.718100  0.750300  0.875700  1.0  0.1092
  H  H159  1  0.690100  0.005700  0.894200  1.0  0.115
  H  H160  1  0.645100  0.959500  0.935300  1.0  0.1203
  H  H161  1  0.528000  0.608300  0.966900  1.0  0.1073
  H  H162  1  0.480700  0.561100  0.929700  1.0  0.102
  H  H163  1  0.423300  0.743000  0.989800  1.0  0.121
  H  H164  1  0.470600  0.783500  0.029600  1.0  0.1169
  H  H165  1  0.425800  0.485600  0.929500  1.0  0.0965
  H  H166  1  0.378400  0.439000  0.889900  1.0  0.1209
  H  H167  1  0.346700  0.694400  0.883000  1.0  0.1111
  H  H168  1  0.393800  0.739500  0.921900  1.0  0.1254
  H  H169  1  0.218700  0.290700  0.224800  1.0  0.106
  H  H170  1  0.172600  0.236700  0.184100  1.0  0.1201
  H  H171  1  0.141400  0.488100  0.163100  1.0  0.1174
  H  H172  1  0.186800  0.541900  0.204000  1.0  0.1205
  H  H173  1  0.115400  0.212800  0.177000  1.0  0.1125
  H  H174  1  0.068200  0.158700  0.139600  1.0  0.1218
  H  H175  1  0.074000  0.378300  0.065400  1.0  0.1102
  H  H176  1  0.119900  0.428400  0.104300  1.0  0.13
  H  H177  1  0.003400  0.313700  0.130900  1.0  0.1181
  H  H178  1  0.955800  0.275500  0.170400  1.0  0.1159
  H  H179  1  0.953900  0.035800  0.116000  1.0  0.1209
  H  H180  1  0.000100  0.076800  0.075200  1.0  0.0901
  H  H181  1  0.899300  0.257000  0.179200  1.0  0.122
  H  H182  1  0.853700  0.219300  0.222100  1.0  0.1019
  H  H183  1  0.878700  0.959900  0.210900  1.0  0.1175
  H  H184  1  0.924400  0.999000  0.169800  1.0  0.114
  H  H185  1  0.099300  0.153300  0.025900  1.0  0.1062
  H  H186  1  0.146200  0.193500  0.987200  1.0  0.1225
  H  H187  1  0.091100  0.392600  0.935100  1.0  0.1096
  H  H188  1  0.043300  0.343900  0.969200  1.0  0.1149
  H  H189  1  0.172200  0.204900  0.917400  1.0  0.1162
  H  H190  1  0.218100  0.250300  0.875700  1.0  0.1092
  H  H191  1  0.190100  0.505700  0.894200  1.0  0.115
  H  H192  1  0.145100  0.459500  0.935300  1.0  0.1203
  H  H193  1  0.028000  0.108300  0.966900  1.0  0.1073
  H  H194  1  0.980700  0.061100  0.929700  1.0  0.102
  H  H195  1  0.923300  0.243000  0.989800  1.0  0.121
  H  H196  1  0.970600  0.283500  0.029600  1.0  0.1169
  H  H197  1  0.925800  0.985600  0.929500  1.0  0.0965
  H  H198  1  0.878400  0.939000  0.889900  1.0  0.1209
  H  H199  1  0.846700  0.194400  0.883000  1.0  0.1111
  H  H200  1  0.893800  0.239500  0.921900  1.0  0.1254
  H  H201  1  0.718700  0.209300  0.724800  1.0  0.1056
  H  H202  1  0.672600  0.263300  0.684100  1.0  0.1201
  H  H203  1  0.641400  0.011900  0.663100  1.0  0.1166
  H  H204  1  0.686800  0.958100  0.704000  1.0  0.1207
  H  H205  1  0.615400  0.287200  0.677000  1.0  0.1124
  H  H206  1  0.568200  0.341300  0.639600  1.0  0.1221
  H  H207  1  0.574000  0.121700  0.565400  1.0  0.1097
  H  H208  1  0.619900  0.071600  0.604300  1.0  0.1298
  H  H209  1  0.503400  0.186300  0.630900  1.0  0.1182
  H  H210  1  0.455800  0.224500  0.670400  1.0  0.1157
  H  H211  1  0.453900  0.464200  0.616000  1.0  0.1209
  H  H212  1  0.500100  0.423200  0.575200  1.0  0.0902
  H  H213  1  0.399300  0.243000  0.679200  1.0  0.1219
  H  H214  1  0.353700  0.280700  0.722100  1.0  0.1015
  H  H215  1  0.378700  0.540100  0.710900  1.0  0.1172
  H  H216  1  0.424400  0.501000  0.669800  1.0  0.1144
  H  H217  1  0.599300  0.346700  0.525900  1.0  0.1061
  H  H218  1  0.646200  0.306500  0.487200  1.0  0.1228
  H  H219  1  0.591100  0.107400  0.435100  1.0  0.1091
  H  H220  1  0.543300  0.156100  0.469200  1.0  0.115
  H  H221  1  0.672200  0.295100  0.417400  1.0  0.1158
  H  H222  1  0.718100  0.249700  0.375700  1.0  0.1096
  H  H223  1  0.690100  0.994300  0.394200  1.0  0.115
  H  H224  1  0.645100  0.040500  0.435300  1.0  0.1201
  H  H225  1  0.528000  0.391700  0.466900  1.0  0.1074
  H  H226  1  0.480700  0.438900  0.429700  1.0  0.1016
  H  H227  1  0.423300  0.257000  0.489800  1.0  0.1211
  H  H228  1  0.470600  0.216500  0.529600  1.0  0.1171
  H  H229  1  0.425800  0.514400  0.429500  1.0  0.0961
  H  H230  1  0.378400  0.561000  0.389900  1.0  0.1206
  H  H231  1  0.346700  0.305600  0.383000  1.0  0.1107
  H  H232  1  0.393800  0.260500  0.421900  1.0  0.1259
  H  H233  1  0.218700  0.709300  0.724800  1.0  0.1056
  H  H234  1  0.172600  0.763300  0.684100  1.0  0.1201
  H  H235  1  0.141400  0.511900  0.663100  1.0  0.1166
  H  H236  1  0.186800  0.458100  0.704000  1.0  0.1207
  H  H237  1  0.115400  0.787200  0.677000  1.0  0.1124
  H  H238  1  0.068200  0.841300  0.639600  1.0  0.1221
  H  H239  1  0.074000  0.621700  0.565400  1.0  0.1097
  H  H240  1  0.119900  0.571600  0.604300  1.0  0.1298
  H  H241  1  0.003400  0.686300  0.630900  1.0  0.1182
  H  H242  1  0.955800  0.724500  0.670400  1.0  0.1157
  H  H243  1  0.953900  0.964200  0.616000  1.0  0.1209
  H  H244  1  0.000100  0.923200  0.575200  1.0  0.0902
  H  H245  1  0.899300  0.743000  0.679200  1.0  0.1219
  H  H246  1  0.853700  0.780700  0.722100  1.0  0.1015
  H  H247  1  0.878700  0.040100  0.710900  1.0  0.1172
  H  H248  1  0.924400  0.001000  0.669800  1.0  0.1144
  H  H249  1  0.099300  0.846700  0.525900  1.0  0.1061
  H  H250  1  0.146200  0.806500  0.487200  1.0  0.1228
  H  H251  1  0.091100  0.607400  0.435100  1.0  0.1091
  H  H252  1  0.043300  0.656100  0.469200  1.0  0.115
  H  H253  1  0.172200  0.795100  0.417400  1.0  0.1158
  H  H254  1  0.218100  0.749700  0.375700  1.0  0.1096
  H  H255  1  0.190100  0.494300  0.394200  1.0  0.115
  H  H256  1  0.145100  0.540500  0.435300  1.0  0.1201
  H  H257  1  0.028000  0.891700  0.466900  1.0  0.1074
  H  H258  1  0.980700  0.938900  0.429700  1.0  0.1016
  H  H259  1  0.923300  0.757000  0.489800  1.0  0.1211
  H  H260  1  0.970600  0.716500  0.529600  1.0  0.1171
  H  H261  1  0.925800  0.014400  0.429500  1.0  0.0961
  H  H262  1  0.878400  0.061000  0.389900  1.0  0.1206
  H  H263  1  0.846700  0.805600  0.383000  1.0  0.1107
  H  H264  1  0.893800  0.760500  0.421900  1.0  0.1259
  C  C265  1  0.264540  0.956300  0.252660  1.0  0.6722
  C  C266  1  0.293060  0.919500  0.280320  1.0  -0.1503
  C  C267  1  0.297040  0.830600  0.287000  1.0  -0.026
  C  C268  1  0.324760  0.797900  0.311660  1.0  -0.1488
  C  C269  1  0.348310  0.858300  0.329720  1.0  0.0224
  C  C270  1  0.343370  0.948000  0.324100  1.0  -0.1366
  C  C271  1  0.316190  0.980600  0.299600  1.0  -0.0649
  C  C272  1  0.378300  0.825000  0.356010  1.0  0.0712
  C  C273  1  0.393370  0.745400  0.345650  1.0  -0.1056
  C  C274  1  0.421420  0.712200  0.368240  1.0  -0.1337
  C  C275  1  0.434470  0.761900  0.404430  1.0  0.0578
  C  C276  1  0.417910  0.843400  0.412360  1.0  -0.1219
  C  C277  1  0.390410  0.874200  0.389000  1.0  -0.1796
  C  C278  1  0.464370  0.728500  0.429390  1.0  -0.0009
  C  C279  1  0.494680  0.700900  0.403910  1.0  0.0986
  C  C280  1  0.507350  0.758700  0.373500  1.0  -0.127
  C  C281  1  0.535990  0.735500  0.349400  1.0  -0.1411
  C  C282  1  0.551970  0.655100  0.354750  1.0  0.0529
  C  C283  1  0.537240  0.593500  0.382000  1.0  -0.1617
  C  C284  1  0.509090  0.618300  0.406300  1.0  -0.1383
  C  C285  1  0.582590  0.630800  0.329070  1.0  0.013
  C  C286  1  0.604700  0.697400  0.314100  1.0  -0.1403
  C  C287  1  0.632550  0.674500  0.289100  1.0  -0.0397
  C  C288  1  0.639990  0.586000  0.280750  1.0  -0.1142
  C  C289  1  0.617500  0.519700  0.295600  1.0  -0.0873
  C  C290  1  0.589820  0.543600  0.319800  1.0  -0.1266
  C  C291  1  0.464420  0.725000  0.471470  1.0  0.0012
  C  C292  1  0.434030  0.748000  0.496770  1.0  0.0831
  C  C293  1  0.402400  0.701100  0.492710  1.0  -0.1007
  C  C294  1  0.374420  0.725100  0.515800  1.0  -0.1373
  C  C295  1  0.376550  0.798300  0.544580  1.0  0.045
  C  C296  1  0.407230  0.842600  0.547600  1.0  -0.1503
  C  C297  1  0.435710  0.815600  0.525800  1.0  -0.1094
  C  C298  1  0.346280  0.827700  0.570330  1.0  0.0578
  C  C299  1  0.324260  0.765400  0.587590  1.0  -0.1119
  C  C300  1  0.296510  0.792700  0.612730  1.0  -0.0509
  C  C301  1  0.291010  0.882200  0.620120  1.0  -0.1198
  C  C302  1  0.313450  0.944900  0.601500  1.0  -0.0429
  C  C303  1  0.340480  0.917300  0.576900  1.0  -0.1379
  C  C304  1  0.495670  0.698300  0.496820  1.0  0.0637
  C  C305  1  0.493340  0.634100  0.527700  1.0  -0.096
  C  C306  1  0.521670  0.607000  0.550800  1.0  -0.1418
  C  C307  1  0.553840  0.646700  0.545550  1.0  0.0579
  C  C308  1  0.555740  0.714400  0.514600  1.0  -0.1249
  C  C309  1  0.527310  0.739100  0.490700  1.0  -0.1253
  C  C310  1  0.584700  0.616800  0.570770  1.0  0.0555
  C  C311  1  0.590030  0.527800  0.580250  1.0  -0.1051
  C  C312  1  0.618370  0.499300  0.603910  1.0  -0.0788
  C  C313  1  0.642070  0.563700  0.618310  1.0  -0.1384
  C  C314  1  0.637180  0.652200  0.607980  1.0  -0.0452
  C  C315  1  0.609040  0.679400  0.584650  1.0  -0.1391
  C  C316  1  0.670160  0.562500  0.253950  1.0  0.662
  C  C317  1  0.671440  0.534200  0.646180  1.0  0.6562
  C  C318  1  0.263390  0.914900  0.648240  1.0  0.6595
  C  C319  1  0.764540  0.456300  0.252660  1.0  0.6722
  C  C320  1  0.793060  0.419500  0.280320  1.0  -0.1503
  C  C321  1  0.797040  0.330600  0.287000  1.0  -0.026
  C  C322  1  0.824760  0.297900  0.311660  1.0  -0.1488
  C  C323  1  0.848310  0.358300  0.329720  1.0  0.0224
  C  C324  1  0.843370  0.448000  0.324100  1.0  -0.1366
  C  C325  1  0.816190  0.480600  0.299600  1.0  -0.0649
  C  C326  1  0.878300  0.325000  0.356010  1.0  0.0712
  C  C327  1  0.893370  0.245400  0.345650  1.0  -0.1056
  C  C328  1  0.921420  0.212200  0.368240  1.0  -0.1337
  C  C329  1  0.934470  0.261900  0.404430  1.0  0.0578
  C  C330  1  0.917910  0.343400  0.412360  1.0  -0.1219
  C  C331  1  0.890410  0.374200  0.389000  1.0  -0.1796
  C  C332  1  0.964370  0.228500  0.429390  1.0  -0.0009
  C  C333  1  0.994680  0.200900  0.403910  1.0  0.0986
  C  C334  1  0.007350  0.258700  0.373500  1.0  -0.127
  C  C335  1  0.035990  0.235500  0.349400  1.0  -0.1411
  C  C336  1  0.051970  0.155100  0.354750  1.0  0.0529
  C  C337  1  0.037240  0.093500  0.382000  1.0  -0.1617
  C  C338  1  0.009090  0.118300  0.406300  1.0  -0.1383
  C  C339  1  0.082590  0.130800  0.329070  1.0  0.013
  C  C340  1  0.104700  0.197400  0.314100  1.0  -0.1403
  C  C341  1  0.132550  0.174500  0.289100  1.0  -0.0397
  C  C342  1  0.139990  0.086000  0.280750  1.0  -0.1142
  C  C343  1  0.117500  0.019700  0.295600  1.0  -0.0873
  C  C344  1  0.089820  0.043600  0.319800  1.0  -0.1266
  C  C345  1  0.964420  0.225000  0.471470  1.0  0.0012
  C  C346  1  0.934030  0.248000  0.496770  1.0  0.0831
  C  C347  1  0.902400  0.201100  0.492710  1.0  -0.1007
  C  C348  1  0.874420  0.225100  0.515800  1.0  -0.1373
  C  C349  1  0.876550  0.298300  0.544580  1.0  0.045
  C  C350  1  0.907230  0.342600  0.547600  1.0  -0.1503
  C  C351  1  0.935710  0.315600  0.525800  1.0  -0.1094
  C  C352  1  0.846280  0.327700  0.570330  1.0  0.0578
  C  C353  1  0.824260  0.265400  0.587590  1.0  -0.1119
  C  C354  1  0.796510  0.292700  0.612730  1.0  -0.0509
  C  C355  1  0.791010  0.382200  0.620120  1.0  -0.1198
  C  C356  1  0.813450  0.444900  0.601500  1.0  -0.0429
  C  C357  1  0.840480  0.417300  0.576900  1.0  -0.1379
  C  C358  1  0.995670  0.198300  0.496820  1.0  0.0637
  C  C359  1  0.993340  0.134100  0.527700  1.0  -0.096
  C  C360  1  0.021670  0.107000  0.550800  1.0  -0.1418
  C  C361  1  0.053840  0.146700  0.545550  1.0  0.0579
  C  C362  1  0.055740  0.214400  0.514600  1.0  -0.1249
  C  C363  1  0.027310  0.239100  0.490700  1.0  -0.1253
  C  C364  1  0.084700  0.116800  0.570770  1.0  0.0555
  C  C365  1  0.090030  0.027800  0.580250  1.0  -0.1051
  C  C366  1  0.118370  0.999300  0.603910  1.0  -0.0788
  C  C367  1  0.142070  0.063700  0.618310  1.0  -0.1384
  C  C368  1  0.137180  0.152200  0.607980  1.0  -0.0452
  C  C369  1  0.109040  0.179400  0.584650  1.0  -0.1391
  C  C370  1  0.170160  0.062500  0.253950  1.0  0.662
  C  C371  1  0.171440  0.034200  0.646180  1.0  0.6562
  C  C372  1  0.763390  0.414900  0.648240  1.0  0.6595
  C  C373  1  0.264540  0.043700  0.752660  1.0  0.6721
  C  C374  1  0.293060  0.080500  0.780320  1.0  -0.1503
  C  C375  1  0.297040  0.169400  0.787000  1.0  -0.0262
  C  C376  1  0.324760  0.202100  0.811660  1.0  -0.1497
  C  C377  1  0.348310  0.141700  0.829720  1.0  0.0217
  C  C378  1  0.343370  0.052000  0.824100  1.0  -0.1368
  C  C379  1  0.316190  0.019400  0.799600  1.0  -0.0645
  C  C380  1  0.378300  0.175000  0.856010  1.0  0.0714
  C  C381  1  0.393370  0.254600  0.845650  1.0  -0.1058
  C  C382  1  0.421420  0.287800  0.868240  1.0  -0.1341
  C  C383  1  0.434470  0.238100  0.904430  1.0  0.0575
  C  C384  1  0.417910  0.156600  0.912360  1.0  -0.1216
  C  C385  1  0.390410  0.125800  0.889000  1.0  -0.179
  C  C386  1  0.464370  0.271500  0.929390  1.0  -0.0017
  C  C387  1  0.494680  0.299100  0.903910  1.0  0.0986
  C  C388  1  0.507350  0.241300  0.873500  1.0  -0.1277
  C  C389  1  0.535990  0.264500  0.849400  1.0  -0.1415
  C  C390  1  0.551970  0.344900  0.854750  1.0  0.0528
  C  C391  1  0.537240  0.406500  0.882000  1.0  -0.1625
  C  C392  1  0.509090  0.381700  0.906300  1.0  -0.1382
  C  C393  1  0.582590  0.369200  0.829070  1.0  0.0132
  C  C394  1  0.604700  0.302600  0.814100  1.0  -0.14
  C  C395  1  0.632550  0.325500  0.789100  1.0  -0.0398
  C  C396  1  0.639990  0.414000  0.780750  1.0  -0.1133
  C  C397  1  0.617500  0.480300  0.795600  1.0  -0.0882
  C  C398  1  0.589820  0.456400  0.819800  1.0  -0.1262
  C  C399  1  0.464420  0.275000  0.971470  1.0  0.001
  C  C400  1  0.434030  0.252000  0.996770  1.0  0.083
  C  C401  1  0.402400  0.298900  0.992710  1.0  -0.1
  C  C402  1  0.374420  0.274900  0.015800  1.0  -0.1391
  C  C403  1  0.376550  0.201700  0.044580  1.0  0.045
  C  C404  1  0.407230  0.157400  0.047600  1.0  -0.1505
  C  C405  1  0.435710  0.184400  0.025800  1.0  -0.1092
  C  C406  1  0.346280  0.172300  0.070330  1.0  0.0578
  C  C407  1  0.324260  0.234600  0.087590  1.0  -0.1127
  C  C408  1  0.296510  0.207300  0.112730  1.0  -0.052
  C  C409  1  0.291010  0.117800  0.120120  1.0  -0.1203
  C  C410  1  0.313450  0.055100  0.101500  1.0  -0.0419
  C  C411  1  0.340480  0.082700  0.076900  1.0  -0.1381
  C  C412  1  0.495670  0.301700  0.996820  1.0  0.0632
  C  C413  1  0.493340  0.365900  0.027700  1.0  -0.0964
  C  C414  1  0.521670  0.393000  0.050800  1.0  -0.1416
  C  C415  1  0.553840  0.353300  0.045550  1.0  0.058
  C  C416  1  0.555740  0.285600  0.014600  1.0  -0.1253
  C  C417  1  0.527310  0.260900  0.990700  1.0  -0.125
  C  C418  1  0.584700  0.383200  0.070770  1.0  0.0555
  C  C419  1  0.590030  0.472200  0.080250  1.0  -0.1049
  C  C420  1  0.618370  0.500700  0.103910  1.0  -0.0791
  C  C421  1  0.642070  0.436300  0.118310  1.0  -0.1391
  C  C422  1  0.637180  0.347800  0.107980  1.0  -0.0466
  C  C423  1  0.609040  0.320600  0.084650  1.0  -0.1407
  C  C424  1  0.670160  0.437500  0.753950  1.0  0.6619
  C  C425  1  0.671440  0.465800  0.146180  1.0  0.6554
  C  C426  1  0.263390  0.085100  0.148240  1.0  0.6603
  C  C427  1  0.764540  0.543700  0.752660  1.0  0.6721
  C  C428  1  0.793060  0.580500  0.780320  1.0  -0.1503
  C  C429  1  0.797040  0.669400  0.787000  1.0  -0.0262
  C  C430  1  0.824760  0.702100  0.811660  1.0  -0.1497
  C  C431  1  0.848310  0.641700  0.829720  1.0  0.0217
  C  C432  1  0.843370  0.552000  0.824100  1.0  -0.1368
  C  C433  1  0.816190  0.519400  0.799600  1.0  -0.0645
  C  C434  1  0.878300  0.675000  0.856010  1.0  0.0714
  C  C435  1  0.893370  0.754600  0.845650  1.0  -0.1058
  C  C436  1  0.921420  0.787800  0.868240  1.0  -0.1341
  C  C437  1  0.934470  0.738100  0.904430  1.0  0.0575
  C  C438  1  0.917910  0.656600  0.912360  1.0  -0.1216
  C  C439  1  0.890410  0.625800  0.889000  1.0  -0.179
  C  C440  1  0.964370  0.771500  0.929390  1.0  -0.0017
  C  C441  1  0.994680  0.799100  0.903910  1.0  0.0986
  C  C442  1  0.007350  0.741300  0.873500  1.0  -0.1277
  C  C443  1  0.035990  0.764500  0.849400  1.0  -0.1415
  C  C444  1  0.051970  0.844900  0.854750  1.0  0.0528
  C  C445  1  0.037240  0.906500  0.882000  1.0  -0.1625
  C  C446  1  0.009090  0.881700  0.906300  1.0  -0.1382
  C  C447  1  0.082590  0.869200  0.829070  1.0  0.0132
  C  C448  1  0.104700  0.802600  0.814100  1.0  -0.14
  C  C449  1  0.132550  0.825500  0.789100  1.0  -0.0398
  C  C450  1  0.139990  0.914000  0.780750  1.0  -0.1133
  C  C451  1  0.117500  0.980300  0.795600  1.0  -0.0882
  C  C452  1  0.089820  0.956400  0.819800  1.0  -0.1262
  C  C453  1  0.964420  0.775000  0.971470  1.0  0.001
  C  C454  1  0.934030  0.752000  0.996770  1.0  0.083
  C  C455  1  0.902400  0.798900  0.992710  1.0  -0.1
  C  C456  1  0.874420  0.774900  0.015800  1.0  -0.1391
  C  C457  1  0.876550  0.701700  0.044580  1.0  0.045
  C  C458  1  0.907230  0.657400  0.047600  1.0  -0.1505
  C  C459  1  0.935710  0.684400  0.025800  1.0  -0.1092
  C  C460  1  0.846280  0.672300  0.070330  1.0  0.0578
  C  C461  1  0.824260  0.734600  0.087590  1.0  -0.1127
  C  C462  1  0.796510  0.707300  0.112730  1.0  -0.052
  C  C463  1  0.791010  0.617800  0.120120  1.0  -0.1203
  C  C464  1  0.813450  0.555100  0.101500  1.0  -0.0419
  C  C465  1  0.840480  0.582700  0.076900  1.0  -0.1381
  C  C466  1  0.995670  0.801700  0.996820  1.0  0.0632
  C  C467  1  0.993340  0.865900  0.027700  1.0  -0.0964
  C  C468  1  0.021670  0.893000  0.050800  1.0  -0.1416
  C  C469  1  0.053840  0.853300  0.045550  1.0  0.058
  C  C470  1  0.055740  0.785600  0.014600  1.0  -0.1253
  C  C471  1  0.027310  0.760900  0.990700  1.0  -0.125
  C  C472  1  0.084700  0.883200  0.070770  1.0  0.0555
  C  C473  1  0.090030  0.972200  0.080250  1.0  -0.1049
  C  C474  1  0.118370  0.000700  0.103910  1.0  -0.0791
  C  C475  1  0.142070  0.936300  0.118310  1.0  -0.1391
  C  C476  1  0.137180  0.847800  0.107980  1.0  -0.0466
  C  C477  1  0.109040  0.820600  0.084650  1.0  -0.1407
  C  C478  1  0.170160  0.937500  0.753950  1.0  0.6619
  C  C479  1  0.171440  0.965800  0.146180  1.0  0.6554
  C  C480  1  0.763390  0.585100  0.148240  1.0  0.6603
  C  C481  1  0.735460  0.956300  0.247340  1.0  0.6721
  C  C482  1  0.706940  0.919500  0.219680  1.0  -0.1506
  C  C483  1  0.702960  0.830600  0.213000  1.0  -0.0261
  C  C484  1  0.675240  0.797900  0.188340  1.0  -0.1492
  C  C485  1  0.651690  0.858300  0.170280  1.0  0.0224
  C  C486  1  0.656630  0.948000  0.175900  1.0  -0.1365
  C  C487  1  0.683810  0.980600  0.200400  1.0  -0.0636
  C  C488  1  0.621700  0.825000  0.143990  1.0  0.0717
  C  C489  1  0.606630  0.745400  0.154350  1.0  -0.1057
  C  C490  1  0.578580  0.712200  0.131760  1.0  -0.1354
  C  C491  1  0.565530  0.761900  0.095570  1.0  0.0582
  C  C492  1  0.582090  0.843400  0.087640  1.0  -0.1236
  C  C493  1  0.609590  0.874200  0.111000  1.0  -0.1789
  C  C494  1  0.535630  0.728500  0.070610  1.0  -0.0016
  C  C495  1  0.505320  0.700900  0.096090  1.0  0.0965
  C  C496  1  0.492650  0.758700  0.126500  1.0  -0.1282
  C  C497  1  0.464010  0.735500  0.150600  1.0  -0.1394
  C  C498  1  0.448030  0.655100  0.145250  1.0  0.0519
  C  C499  1  0.462760  0.593500  0.118000  1.0  -0.1613
  C  C500  1  0.490910  0.618300  0.093700  1.0  -0.139
  C  C501  1  0.417410  0.630800  0.170930  1.0  0.0134
  C  C502  1  0.395300  0.697400  0.185900  1.0  -0.141
  C  C503  1  0.367450  0.674500  0.210900  1.0  -0.0389
  C  C504  1  0.360010  0.586000  0.219250  1.0  -0.1146
  C  C505  1  0.382500  0.519700  0.204400  1.0  -0.0876
  C  C506  1  0.410180  0.543600  0.180200  1.0  -0.1265
  C  C507  1  0.535580  0.725000  0.028530  1.0  0.0008
  C  C508  1  0.565970  0.748000  0.003230  1.0  0.0851
  C  C509  1  0.597600  0.701100  0.007290  1.0  -0.1002
  C  C510  1  0.625580  0.725100  0.984200  1.0  -0.1359
  C  C511  1  0.623450  0.798300  0.955420  1.0  0.0453
  C  C512  1  0.592770  0.842600  0.952400  1.0  -0.1507
  C  C513  1  0.564290  0.815600  0.974200  1.0  -0.1044
  C  C514  1  0.653720  0.827700  0.929670  1.0  0.058
  C  C515  1  0.675740  0.765400  0.912410  1.0  -0.1121
  C  C516  1  0.703490  0.792700  0.887270  1.0  -0.0521
  C  C517  1  0.708990  0.882200  0.879880  1.0  -0.1195
  C  C518  1  0.686550  0.944900  0.898500  1.0  -0.0426
  C  C519  1  0.659520  0.917300  0.923100  1.0  -0.139
  C  C520  1  0.504330  0.698300  0.003180  1.0  0.0637
  C  C521  1  0.506660  0.634100  0.972300  1.0  -0.0957
  C  C522  1  0.478330  0.607000  0.949200  1.0  -0.1417
  C  C523  1  0.446160  0.646700  0.954450  1.0  0.0574
  C  C524  1  0.444260  0.714400  0.985400  1.0  -0.1276
  C  C525  1  0.472690  0.739100  0.009300  1.0  -0.1248
  C  C526  1  0.415300  0.616800  0.929230  1.0  0.0559
  C  C527  1  0.409970  0.527800  0.919750  1.0  -0.105
  C  C528  1  0.381630  0.499300  0.896090  1.0  -0.0789
  C  C529  1  0.357930  0.563700  0.881690  1.0  -0.1392
  C  C530  1  0.362820  0.652200  0.892020  1.0  -0.0445
  C  C531  1  0.390960  0.679400  0.915350  1.0  -0.1388
  C  C532  1  0.329840  0.562500  0.246050  1.0  0.6617
  C  C533  1  0.328560  0.534200  0.853820  1.0  0.6591
  C  C534  1  0.736610  0.914900  0.851760  1.0  0.6599
  C  C535  1  0.235460  0.456300  0.247340  1.0  0.6721
  C  C536  1  0.206940  0.419500  0.219680  1.0  -0.1506
  C  C537  1  0.202960  0.330600  0.213000  1.0  -0.0261
  C  C538  1  0.175240  0.297900  0.188340  1.0  -0.1492
  C  C539  1  0.151690  0.358300  0.170280  1.0  0.0224
  C  C540  1  0.156630  0.448000  0.175900  1.0  -0.1365
  C  C541  1  0.183810  0.480600  0.200400  1.0  -0.0636
  C  C542  1  0.121700  0.325000  0.143990  1.0  0.0717
  C  C543  1  0.106630  0.245400  0.154350  1.0  -0.1057
  C  C544  1  0.078580  0.212200  0.131760  1.0  -0.1354
  C  C545  1  0.065530  0.261900  0.095570  1.0  0.0582
  C  C546  1  0.082090  0.343400  0.087640  1.0  -0.1236
  C  C547  1  0.109590  0.374200  0.111000  1.0  -0.1789
  C  C548  1  0.035630  0.228500  0.070610  1.0  -0.0016
  C  C549  1  0.005320  0.200900  0.096090  1.0  0.0965
  C  C550  1  0.992650  0.258700  0.126500  1.0  -0.1282
  C  C551  1  0.964010  0.235500  0.150600  1.0  -0.1394
  C  C552  1  0.948030  0.155100  0.145250  1.0  0.0519
  C  C553  1  0.962760  0.093500  0.118000  1.0  -0.1613
  C  C554  1  0.990910  0.118300  0.093700  1.0  -0.139
  C  C555  1  0.917410  0.130800  0.170930  1.0  0.0134
  C  C556  1  0.895300  0.197400  0.185900  1.0  -0.141
  C  C557  1  0.867450  0.174500  0.210900  1.0  -0.0389
  C  C558  1  0.860010  0.086000  0.219250  1.0  -0.1146
  C  C559  1  0.882500  0.019700  0.204400  1.0  -0.0876
  C  C560  1  0.910180  0.043600  0.180200  1.0  -0.1265
  C  C561  1  0.035580  0.225000  0.028530  1.0  0.0008
  C  C562  1  0.065970  0.248000  0.003230  1.0  0.0851
  C  C563  1  0.097600  0.201100  0.007290  1.0  -0.1002
  C  C564  1  0.125580  0.225100  0.984200  1.0  -0.1359
  C  C565  1  0.123450  0.298300  0.955420  1.0  0.0453
  C  C566  1  0.092770  0.342600  0.952400  1.0  -0.1507
  C  C567  1  0.064290  0.315600  0.974200  1.0  -0.1044
  C  C568  1  0.153720  0.327700  0.929670  1.0  0.058
  C  C569  1  0.175740  0.265400  0.912410  1.0  -0.1121
  C  C570  1  0.203490  0.292700  0.887270  1.0  -0.0521
  C  C571  1  0.208990  0.382200  0.879880  1.0  -0.1195
  C  C572  1  0.186550  0.444900  0.898500  1.0  -0.0426
  C  C573  1  0.159520  0.417300  0.923100  1.0  -0.139
  C  C574  1  0.004330  0.198300  0.003180  1.0  0.0637
  C  C575  1  0.006660  0.134100  0.972300  1.0  -0.0957
  C  C576  1  0.978330  0.107000  0.949200  1.0  -0.1417
  C  C577  1  0.946160  0.146700  0.954450  1.0  0.0574
  C  C578  1  0.944260  0.214400  0.985400  1.0  -0.1276
  C  C579  1  0.972690  0.239100  0.009300  1.0  -0.1248
  C  C580  1  0.915300  0.116800  0.929230  1.0  0.0559
  C  C581  1  0.909970  0.027800  0.919750  1.0  -0.105
  C  C582  1  0.881630  0.999300  0.896090  1.0  -0.0789
  C  C583  1  0.857930  0.063700  0.881690  1.0  -0.1392
  C  C584  1  0.862820  0.152200  0.892020  1.0  -0.0445
  C  C585  1  0.890960  0.179400  0.915350  1.0  -0.1388
  C  C586  1  0.829840  0.062500  0.246050  1.0  0.6617
  C  C587  1  0.828560  0.034200  0.853820  1.0  0.6591
  C  C588  1  0.236610  0.414900  0.851760  1.0  0.6599
  C  C589  1  0.735460  0.043700  0.747340  1.0  0.672
  C  C590  1  0.706940  0.080500  0.719680  1.0  -0.1505
  C  C591  1  0.702960  0.169400  0.713000  1.0  -0.0259
  C  C592  1  0.675240  0.202100  0.688340  1.0  -0.1509
  C  C593  1  0.651690  0.141700  0.670280  1.0  0.0216
  C  C594  1  0.656630  0.052000  0.675900  1.0  -0.1347
  C  C595  1  0.683810  0.019400  0.700400  1.0  -0.0636
  C  C596  1  0.621700  0.175000  0.643990  1.0  0.0719
  C  C597  1  0.606630  0.254600  0.654350  1.0  -0.1052
  C  C598  1  0.578580  0.287800  0.631760  1.0  -0.1354
  C  C599  1  0.565530  0.238100  0.595570  1.0  0.0578
  C  C600  1  0.582090  0.156600  0.587640  1.0  -0.1243
  C  C601  1  0.609590  0.125800  0.611000  1.0  -0.1788
  C  C602  1  0.535630  0.271500  0.570610  1.0  -0.0022
  C  C603  1  0.505320  0.299100  0.596090  1.0  0.0967
  C  C604  1  0.492650  0.241300  0.626500  1.0  -0.1271
  C  C605  1  0.464010  0.264500  0.650600  1.0  -0.1407
  C  C606  1  0.448030  0.344900  0.645250  1.0  0.0518
  C  C607  1  0.462760  0.406500  0.618000  1.0  -0.163
  C  C608  1  0.490910  0.381700  0.593700  1.0  -0.138
  C  C609  1  0.417410  0.369200  0.670930  1.0  0.0135
  C  C610  1  0.395300  0.302600  0.685900  1.0  -0.1398
  C  C611  1  0.367450  0.325500  0.710900  1.0  -0.0374
  C  C612  1  0.360010  0.414000  0.719250  1.0  -0.1126
  C  C613  1  0.382500  0.480300  0.704400  1.0  -0.0881
  C  C614  1  0.410180  0.456400  0.680200  1.0  -0.1251
  C  C615  1  0.535580  0.275000  0.528530  1.0  0.0007
  C  C616  1  0.565970  0.252000  0.503230  1.0  0.0854
  C  C617  1  0.597600  0.298900  0.507290  1.0  -0.1001
  C  C618  1  0.625580  0.274900  0.484200  1.0  -0.1358
  C  C619  1  0.623450  0.201700  0.455420  1.0  0.0452
  C  C620  1  0.592770  0.157400  0.452400  1.0  -0.1488
  C  C621  1  0.564290  0.184400  0.474200  1.0  -0.106
  C  C622  1  0.653720  0.172300  0.429670  1.0  0.0581
  C  C623  1  0.675740  0.234600  0.412410  1.0  -0.1131
  C  C624  1  0.703490  0.207300  0.387270  1.0  -0.0516
  C  C625  1  0.708990  0.117800  0.379880  1.0  -0.1198
  C  C626  1  0.686550  0.055100  0.398500  1.0  -0.0418
  C  C627  1  0.659520  0.082700  0.423100  1.0  -0.1385
  C  C628  1  0.504330  0.301700  0.503180  1.0  0.0633
  C  C629  1  0.506660  0.365900  0.472300  1.0  -0.096
  C  C630  1  0.478330  0.393000  0.449200  1.0  -0.1426
  C  C631  1  0.446160  0.353300  0.454450  1.0  0.0572
  C  C632  1  0.444260  0.285600  0.485400  1.0  -0.1259
  C  C633  1  0.472690  0.260900  0.509300  1.0  -0.1241
  C  C634  1  0.415300  0.383200  0.429230  1.0  0.0559
  C  C635  1  0.409970  0.472200  0.419750  1.0  -0.1047
  C  C636  1  0.381630  0.500700  0.396090  1.0  -0.0795
  C  C637  1  0.357930  0.436300  0.381690  1.0  -0.14
  C  C638  1  0.362820  0.347800  0.392020  1.0  -0.0449
  C  C639  1  0.390960  0.320600  0.415350  1.0  -0.1403
  C  C640  1  0.329840  0.437500  0.746050  1.0  0.6608
  C  C641  1  0.328560  0.465800  0.353820  1.0  0.6582
  C  C642  1  0.736610  0.085100  0.351760  1.0  0.6601
  C  C643  1  0.235460  0.543700  0.747340  1.0  0.672
  C  C644  1  0.206940  0.580500  0.719680  1.0  -0.1505
  C  C645  1  0.202960  0.669400  0.713000  1.0  -0.0259
  C  C646  1  0.175240  0.702100  0.688340  1.0  -0.1509
  C  C647  1  0.151690  0.641700  0.670280  1.0  0.0216
  C  C648  1  0.156630  0.552000  0.675900  1.0  -0.1347
  C  C649  1  0.183810  0.519400  0.700400  1.0  -0.0636
  C  C650  1  0.121700  0.675000  0.643990  1.0  0.0719
  C  C651  1  0.106630  0.754600  0.654350  1.0  -0.1052
  C  C652  1  0.078580  0.787800  0.631760  1.0  -0.1354
  C  C653  1  0.065530  0.738100  0.595570  1.0  0.0578
  C  C654  1  0.082090  0.656600  0.587640  1.0  -0.1243
  C  C655  1  0.109590  0.625800  0.611000  1.0  -0.1788
  C  C656  1  0.035630  0.771500  0.570610  1.0  -0.0022
  C  C657  1  0.005320  0.799100  0.596090  1.0  0.0967
  C  C658  1  0.992650  0.741300  0.626500  1.0  -0.1271
  C  C659  1  0.964010  0.764500  0.650600  1.0  -0.1407
  C  C660  1  0.948030  0.844900  0.645250  1.0  0.0518
  C  C661  1  0.962760  0.906500  0.618000  1.0  -0.163
  C  C662  1  0.990910  0.881700  0.593700  1.0  -0.138
  C  C663  1  0.917410  0.869200  0.670930  1.0  0.0135
  C  C664  1  0.895300  0.802600  0.685900  1.0  -0.1398
  C  C665  1  0.867450  0.825500  0.710900  1.0  -0.0374
  C  C666  1  0.860010  0.914000  0.719250  1.0  -0.1126
  C  C667  1  0.882500  0.980300  0.704400  1.0  -0.0881
  C  C668  1  0.910180  0.956400  0.680200  1.0  -0.1251
  C  C669  1  0.035580  0.775000  0.528530  1.0  0.0007
  C  C670  1  0.065970  0.752000  0.503230  1.0  0.0854
  C  C671  1  0.097600  0.798900  0.507290  1.0  -0.1001
  C  C672  1  0.125580  0.774900  0.484200  1.0  -0.1358
  C  C673  1  0.123450  0.701700  0.455420  1.0  0.0452
  C  C674  1  0.092770  0.657400  0.452400  1.0  -0.1488
  C  C675  1  0.064290  0.684400  0.474200  1.0  -0.106
  C  C676  1  0.153720  0.672300  0.429670  1.0  0.0581
  C  C677  1  0.175740  0.734600  0.412410  1.0  -0.1131
  C  C678  1  0.203490  0.707300  0.387270  1.0  -0.0516
  C  C679  1  0.208990  0.617800  0.379880  1.0  -0.1198
  C  C680  1  0.186550  0.555100  0.398500  1.0  -0.0418
  C  C681  1  0.159520  0.582700  0.423100  1.0  -0.1385
  C  C682  1  0.004330  0.801700  0.503180  1.0  0.0633
  C  C683  1  0.006660  0.865900  0.472300  1.0  -0.096
  C  C684  1  0.978330  0.893000  0.449200  1.0  -0.1426
  C  C685  1  0.946160  0.853300  0.454450  1.0  0.0572
  C  C686  1  0.944260  0.785600  0.485400  1.0  -0.1259
  C  C687  1  0.972690  0.760900  0.509300  1.0  -0.1241
  C  C688  1  0.915300  0.883200  0.429230  1.0  0.0559
  C  C689  1  0.909970  0.972200  0.419750  1.0  -0.1047
  C  C690  1  0.881630  0.000700  0.396090  1.0  -0.0795
  C  C691  1  0.857930  0.936300  0.381690  1.0  -0.14
  C  C692  1  0.862820  0.847800  0.392020  1.0  -0.0449
  C  C693  1  0.890960  0.820600  0.415350  1.0  -0.1403
  C  C694  1  0.829840  0.937500  0.746050  1.0  0.6608
  C  C695  1  0.828560  0.965800  0.353820  1.0  0.6582
  C  C696  1  0.236610  0.585100  0.351760  1.0  0.6601
  O  O697  1  0.245230  0.900100  0.233350  1.0  -0.527
  O  O698  1  0.261190  0.037300  0.247950  1.0  -0.5173
  O  O699  1  0.674730  0.480400  0.244780  1.0  -0.5592
  O  O700  1  0.689700  0.621100  0.240350  1.0  -0.569
  O  O701  1  0.691160  0.592600  0.662720  1.0  -0.5356
  O  O702  1  0.675260  0.452200  0.654230  1.0  -0.5568
  O  O703  1  0.258750  0.997500  0.652820  1.0  -0.5315
  O  O704  1  0.245040  0.859600  0.667710  1.0  -0.5501
  O  O705  1  0.745230  0.400100  0.233350  1.0  -0.527
  O  O706  1  0.761190  0.537300  0.247950  1.0  -0.5173
  O  O707  1  0.174730  0.980400  0.244780  1.0  -0.5592
  O  O708  1  0.189700  0.121100  0.240350  1.0  -0.569
  O  O709  1  0.191160  0.092600  0.662720  1.0  -0.5356
  O  O710  1  0.175260  0.952200  0.654230  1.0  -0.5568
  O  O711  1  0.758750  0.497500  0.652820  1.0  -0.5315
  O  O712  1  0.745040  0.359600  0.667710  1.0  -0.5501
  O  O713  1  0.245230  0.099900  0.733350  1.0  -0.526
  O  O714  1  0.261190  0.962700  0.747950  1.0  -0.5179
  O  O715  1  0.674730  0.519600  0.744780  1.0  -0.5619
  O  O716  1  0.689700  0.378900  0.740350  1.0  -0.5696
  O  O717  1  0.691160  0.407400  0.162720  1.0  -0.5376
  O  O718  1  0.675260  0.547800  0.154230  1.0  -0.5574
  O  O719  1  0.258750  0.002500  0.152820  1.0  -0.5316
  O  O720  1  0.245040  0.140400  0.167710  1.0  -0.5493
  O  O721  1  0.745230  0.599900  0.733350  1.0  -0.526
  O  O722  1  0.761190  0.462700  0.747950  1.0  -0.5179
  O  O723  1  0.174730  0.019600  0.744780  1.0  -0.5619
  O  O724  1  0.189700  0.878900  0.740350  1.0  -0.5696
  O  O725  1  0.191160  0.907400  0.162720  1.0  -0.5376
  O  O726  1  0.175260  0.047800  0.154230  1.0  -0.5574
  O  O727  1  0.758750  0.502500  0.152820  1.0  -0.5316
  O  O728  1  0.745040  0.640400  0.167710  1.0  -0.5493
  O  O729  1  0.754770  0.900100  0.266650  1.0  -0.5275
  O  O730  1  0.738810  0.037300  0.252050  1.0  -0.5181
  O  O731  1  0.325270  0.480400  0.255220  1.0  -0.5595
  O  O732  1  0.310300  0.621100  0.259650  1.0  -0.5694
  O  O733  1  0.308840  0.592600  0.837280  1.0  -0.535
  O  O734  1  0.324740  0.452200  0.845770  1.0  -0.5572
  O  O735  1  0.741250  0.997500  0.847180  1.0  -0.5325
  O  O736  1  0.754960  0.859600  0.832290  1.0  -0.551
  O  O737  1  0.254770  0.400100  0.266650  1.0  -0.5275
  O  O738  1  0.238810  0.537300  0.252050  1.0  -0.5181
  O  O739  1  0.825270  0.980400  0.255220  1.0  -0.5595
  O  O740  1  0.810300  0.121100  0.259650  1.0  -0.5694
  O  O741  1  0.808840  0.092600  0.837280  1.0  -0.535
  O  O742  1  0.824740  0.952200  0.845770  1.0  -0.5572
  O  O743  1  0.241250  0.497500  0.847180  1.0  -0.5325
  O  O744  1  0.254960  0.359600  0.832290  1.0  -0.551
  O  O745  1  0.754770  0.099900  0.766650  1.0  -0.5253
  O  O746  1  0.738810  0.962700  0.752050  1.0  -0.5184
  O  O747  1  0.325270  0.519600  0.755220  1.0  -0.5621
  O  O748  1  0.310300  0.378900  0.759650  1.0  -0.5701
  O  O749  1  0.308840  0.407400  0.337280  1.0  -0.5366
  O  O750  1  0.324740  0.547800  0.345770  1.0  -0.557
  O  O751  1  0.741250  0.002500  0.347180  1.0  -0.5325
  O  O752  1  0.754960  0.140400  0.332290  1.0  -0.5503
  O  O753  1  0.254770  0.599900  0.766650  1.0  -0.5253
  O  O754  1  0.238810  0.462700  0.752050  1.0  -0.5184
  O  O755  1  0.825270  0.019600  0.755220  1.0  -0.5621
  O  O756  1  0.810300  0.878900  0.759650  1.0  -0.5701
  O  O757  1  0.808840  0.907400  0.337280  1.0  -0.5366
  O  O758  1  0.824740  0.047800  0.345770  1.0  -0.557
  O  O759  1  0.241250  0.502500  0.347180  1.0  -0.5325
  O  O760  1  0.254960  0.640400  0.332290  1.0  -0.5503
