# generated using pymatgen
data_InH32(C27O4)2
_symmetry_space_group_name_H-M   'P 1'
_cell_length_a   38.33230000
_cell_length_b   15.18480000
_cell_length_c   32.19450000
_cell_angle_alpha   90.00000000
_cell_angle_beta   91.65530000
_cell_angle_gamma   90.00000000
_symmetry_Int_Tables_number   1
_chemical_formula_structural   InH32(C27O4)2
_chemical_formula_sum   'In8 H256 C432 O64'
_cell_volume   18731.57823214
_cell_formula_units_Z   8
loop_
 _symmetry_equiv_pos_site_id
 _symmetry_equiv_pos_as_xyz
  1  'x, y, z'
loop_
 _atom_site_type_symbol
 _atom_site_label
 _atom_site_symmetry_multiplicity
 _atom_site_fract_x
 _atom_site_fract_y
 _atom_site_fract_z
 _atom_site_occupancy
 _atom_site_charge
  In  In1  1  0.785900  0.040240  0.801230  1.0  1.4585
  In  In2  1  0.285900  0.540240  0.801230  1.0  1.4586
  In  In3  1  0.785900  0.959760  0.301230  1.0  1.4575
  In  In4  1  0.285900  0.459760  0.301230  1.0  1.4575
  In  In5  1  0.214100  0.040240  0.698770  1.0  1.4549
  In  In6  1  0.714100  0.540240  0.698770  1.0  1.4549
  In  In7  1  0.214100  0.959760  0.198770  1.0  1.4547
  In  In8  1  0.714100  0.459760  0.198770  1.0  1.4547
  H  H9  1  0.690400  0.063400  0.702900  1.0  0.1142
  H  H10  1  0.644800  0.008700  0.661100  1.0  0.1148
  H  H11  1  0.677000  0.761700  0.684000  1.0  0.1113
  H  H12  1  0.721600  0.815000  0.727300  1.0  0.1037
  H  H13  1  0.621100  0.945300  0.603700  1.0  0.1175
  H  H14  1  0.575000  0.890800  0.564500  1.0  0.1191
  H  H15  1  0.571600  0.679900  0.639300  1.0  0.1131
  H  H16  1  0.619500  0.729900  0.675800  1.0  0.1072
  H  H17  1  0.501400  0.835900  0.623200  1.0  0.1166
  H  H18  1  0.455500  0.801900  0.663100  1.0  0.1126
  H  H19  1  0.461700  0.554200  0.628200  1.0  0.1151
  H  H20  1  0.503200  0.590600  0.582200  1.0  0.0976
  H  H21  1  0.404500  0.774700  0.685200  1.0  0.1171
  H  H22  1  0.358300  0.738600  0.726400  1.0  0.1042
  H  H23  1  0.380400  0.484900  0.712900  1.0  0.1085
  H  H24  1  0.425000  0.521500  0.668800  1.0  0.1234
  H  H25  1  0.545200  0.841400  0.470000  1.0  0.1204
  H  H26  1  0.593000  0.881700  0.432700  1.0  0.1136
  H  H27  1  0.650000  0.694700  0.489200  1.0  0.1123
  H  H28  1  0.603800  0.661700  0.531400  1.0  0.103
  H  H29  1  0.647600  0.946800  0.431500  1.0  0.1149
  H  H30  1  0.694200  0.991900  0.392700  1.0  0.1231
  H  H31  1  0.722000  0.739600  0.379600  1.0  0.1078
  H  H32  1  0.676900  0.695900  0.422200  1.0  0.1166
  H  H33  1  0.472600  0.786900  0.526400  1.0  0.1176
  H  H34  1  0.426400  0.742300  0.485000  1.0  0.1174
  H  H35  1  0.484400  0.547700  0.439000  1.0  0.1085
  H  H36  1  0.531300  0.596800  0.478200  1.0  0.1107
  H  H37  1  0.398000  0.724800  0.420300  1.0  0.1181
  H  H38  1  0.350800  0.676000  0.380400  1.0  0.1092
  H  H39  1  0.381900  0.426600  0.397400  1.0  0.1113
  H  H40  1  0.430100  0.476700  0.437000  1.0  0.1065
  H  H41  1  0.190400  0.563400  0.702900  1.0  0.1142
  H  H42  1  0.144800  0.508700  0.661100  1.0  0.1148
  H  H43  1  0.177000  0.261700  0.684000  1.0  0.1113
  H  H44  1  0.221600  0.315000  0.727300  1.0  0.1037
  H  H45  1  0.121100  0.445300  0.603700  1.0  0.1175
  H  H46  1  0.075000  0.390800  0.564500  1.0  0.1191
  H  H47  1  0.071600  0.179900  0.639300  1.0  0.1131
  H  H48  1  0.119500  0.229900  0.675800  1.0  0.1072
  H  H49  1  0.001400  0.335900  0.623200  1.0  0.1166
  H  H50  1  0.955500  0.301900  0.663100  1.0  0.1122
  H  H51  1  0.961700  0.054200  0.628200  1.0  0.1151
  H  H52  1  0.003200  0.090600  0.582200  1.0  0.0976
  H  H53  1  0.904500  0.274700  0.685200  1.0  0.1171
  H  H54  1  0.858300  0.238600  0.726400  1.0  0.1042
  H  H55  1  0.880400  0.984900  0.712900  1.0  0.1085
  H  H56  1  0.925000  0.021500  0.668800  1.0  0.1264
  H  H57  1  0.045200  0.341400  0.470000  1.0  0.1204
  H  H58  1  0.093000  0.381700  0.432700  1.0  0.1136
  H  H59  1  0.150000  0.194700  0.489200  1.0  0.1123
  H  H60  1  0.103800  0.161700  0.531400  1.0  0.103
  H  H61  1  0.147600  0.446800  0.431500  1.0  0.1149
  H  H62  1  0.194200  0.491900  0.392700  1.0  0.123
  H  H63  1  0.222000  0.239600  0.379600  1.0  0.1078
  H  H64  1  0.176900  0.195900  0.422200  1.0  0.1166
  H  H65  1  0.972600  0.286900  0.526400  1.0  0.1176
  H  H66  1  0.926400  0.242300  0.485000  1.0  0.1174
  H  H67  1  0.984400  0.047700  0.439000  1.0  0.1085
  H  H68  1  0.031300  0.096800  0.478200  1.0  0.1107
  H  H69  1  0.898000  0.224800  0.420300  1.0  0.1181
  H  H70  1  0.850800  0.176000  0.380400  1.0  0.1092
  H  H71  1  0.881900  0.926600  0.397400  1.0  0.1113
  H  H72  1  0.930100  0.976700  0.437000  1.0  0.1065
  H  H73  1  0.690400  0.936600  0.202900  1.0  0.1142
  H  H74  1  0.644800  0.991300  0.161100  1.0  0.1143
  H  H75  1  0.677000  0.238300  0.184000  1.0  0.1114
  H  H76  1  0.721600  0.185000  0.227300  1.0  0.1034
  H  H77  1  0.621100  0.054700  0.103700  1.0  0.1175
  H  H78  1  0.575000  0.109200  0.064500  1.0  0.1186
  H  H79  1  0.571600  0.320100  0.139300  1.0  0.1133
  H  H80  1  0.619500  0.270100  0.175800  1.0  0.1071
  H  H81  1  0.501400  0.164100  0.123200  1.0  0.1171
  H  H82  1  0.455500  0.198100  0.163100  1.0  0.1125
  H  H83  1  0.461700  0.445800  0.128200  1.0  0.1149
  H  H84  1  0.503200  0.409400  0.082200  1.0  0.0979
  H  H85  1  0.404500  0.225300  0.185200  1.0  0.1164
  H  H86  1  0.358300  0.261400  0.226400  1.0  0.104
  H  H87  1  0.380400  0.515100  0.212900  1.0  0.1089
  H  H88  1  0.425000  0.478500  0.168800  1.0  0.1236
  H  H89  1  0.545200  0.158600  0.970000  1.0  0.1206
  H  H90  1  0.593000  0.118300  0.932700  1.0  0.1131
  H  H91  1  0.650000  0.305300  0.989200  1.0  0.1125
  H  H92  1  0.603800  0.338300  0.031400  1.0  0.1029
  H  H93  1  0.647600  0.053200  0.931500  1.0  0.1148
  H  H94  1  0.694200  0.008100  0.892700  1.0  0.1222
  H  H95  1  0.722000  0.260400  0.879600  1.0  0.1077
  H  H96  1  0.676900  0.304100  0.922200  1.0  0.1164
  H  H97  1  0.472600  0.213100  0.026400  1.0  0.1181
  H  H98  1  0.426400  0.257700  0.985000  1.0  0.1177
  H  H99  1  0.484400  0.452300  0.939000  1.0  0.1087
  H  H100  1  0.531300  0.403200  0.978200  1.0  0.1108
  H  H101  1  0.398000  0.275200  0.920300  1.0  0.1183
  H  H102  1  0.350800  0.324000  0.880400  1.0  0.1081
  H  H103  1  0.381900  0.573400  0.897400  1.0  0.1114
  H  H104  1  0.430100  0.523300  0.937000  1.0  0.1063
  H  H105  1  0.190400  0.436600  0.202900  1.0  0.1142
  H  H106  1  0.144800  0.491300  0.161100  1.0  0.1143
  H  H107  1  0.177000  0.738300  0.184000  1.0  0.1114
  H  H108  1  0.221600  0.685000  0.227300  1.0  0.1034
  H  H109  1  0.121100  0.554700  0.103700  1.0  0.1175
  H  H110  1  0.075000  0.609200  0.064500  1.0  0.1186
  H  H111  1  0.071600  0.820100  0.139300  1.0  0.1133
  H  H112  1  0.119500  0.770100  0.175800  1.0  0.1071
  H  H113  1  0.001400  0.664100  0.123200  1.0  0.1161
  H  H114  1  0.955500  0.698100  0.163100  1.0  0.1123
  H  H115  1  0.961700  0.945800  0.128200  1.0  0.1149
  H  H116  1  0.003200  0.909400  0.082200  1.0  0.0979
  H  H117  1  0.904500  0.725300  0.185200  1.0  0.1164
  H  H118  1  0.858300  0.761400  0.226400  1.0  0.104
  H  H119  1  0.880400  0.015100  0.212900  1.0  0.1089
  H  H120  1  0.925000  0.978500  0.168800  1.0  0.1263
  H  H121  1  0.045200  0.658600  0.970000  1.0  0.1206
  H  H122  1  0.093000  0.618300  0.932700  1.0  0.1131
  H  H123  1  0.150000  0.805300  0.989200  1.0  0.1125
  H  H124  1  0.103800  0.838300  0.031400  1.0  0.1029
  H  H125  1  0.147600  0.553200  0.931500  1.0  0.1148
  H  H126  1  0.194200  0.508100  0.892700  1.0  0.1226
  H  H127  1  0.222000  0.760400  0.879600  1.0  0.1077
  H  H128  1  0.176900  0.804100  0.922200  1.0  0.1164
  H  H129  1  0.972600  0.713100  0.026400  1.0  0.1181
  H  H130  1  0.926400  0.757700  0.985000  1.0  0.1177
  H  H131  1  0.984400  0.952300  0.939000  1.0  0.1087
  H  H132  1  0.031300  0.903200  0.978200  1.0  0.1108
  H  H133  1  0.898000  0.775200  0.920300  1.0  0.1183
  H  H134  1  0.850800  0.824000  0.880400  1.0  0.1081
  H  H135  1  0.881900  0.073400  0.897400  1.0  0.1114
  H  H136  1  0.930100  0.023300  0.937000  1.0  0.1063
  H  H137  1  0.309600  0.063400  0.797100  1.0  0.1143
  H  H138  1  0.355200  0.008700  0.838900  1.0  0.1148
  H  H139  1  0.323000  0.761700  0.816000  1.0  0.1115
  H  H140  1  0.278400  0.815000  0.772700  1.0  0.1031
  H  H141  1  0.378900  0.945300  0.896300  1.0  0.1168
  H  H142  1  0.425000  0.890800  0.935500  1.0  0.1178
  H  H143  1  0.428400  0.679900  0.860700  1.0  0.1132
  H  H144  1  0.380500  0.729900  0.824200  1.0  0.1068
  H  H145  1  0.498600  0.835900  0.876800  1.0  0.1168
  H  H146  1  0.544500  0.801900  0.836900  1.0  0.1132
  H  H147  1  0.538300  0.554200  0.871800  1.0  0.116
  H  H148  1  0.496800  0.590600  0.917800  1.0  0.0976
  H  H149  1  0.595500  0.774700  0.814800  1.0  0.1172
  H  H150  1  0.641700  0.738600  0.773600  1.0  0.1045
  H  H151  1  0.619600  0.484900  0.787100  1.0  0.1085
  H  H152  1  0.575000  0.521500  0.831200  1.0  0.123
  H  H153  1  0.454800  0.841400  0.030000  1.0  0.1209
  H  H154  1  0.407000  0.881700  0.067300  1.0  0.1137
  H  H155  1  0.350000  0.694700  0.010800  1.0  0.113
  H  H156  1  0.396200  0.661700  0.968600  1.0  0.104
  H  H157  1  0.352400  0.946800  0.068500  1.0  0.1151
  H  H158  1  0.305800  0.991900  0.107300  1.0  0.1227
  H  H159  1  0.278000  0.739600  0.120400  1.0  0.1074
  H  H160  1  0.323100  0.695900  0.077800  1.0  0.1161
  H  H161  1  0.527400  0.786900  0.973600  1.0  0.1173
  H  H162  1  0.573600  0.742300  0.015000  1.0  0.1184
  H  H163  1  0.515600  0.547700  0.061000  1.0  0.1093
  H  H164  1  0.468700  0.596800  0.021800  1.0  0.1106
  H  H165  1  0.602000  0.724800  0.079700  1.0  0.1179
  H  H166  1  0.649200  0.676000  0.119600  1.0  0.1086
  H  H167  1  0.618100  0.426600  0.102600  1.0  0.1112
  H  H168  1  0.569900  0.476700  0.063000  1.0  0.1074
  H  H169  1  0.809600  0.563400  0.797100  1.0  0.1143
  H  H170  1  0.855200  0.508700  0.838900  1.0  0.1148
  H  H171  1  0.823000  0.261700  0.816000  1.0  0.1115
  H  H172  1  0.778400  0.315000  0.772700  1.0  0.1031
  H  H173  1  0.878900  0.445300  0.896300  1.0  0.1168
  H  H174  1  0.925000  0.390800  0.935500  1.0  0.1178
  H  H175  1  0.928400  0.179900  0.860700  1.0  0.1132
  H  H176  1  0.880500  0.229900  0.824200  1.0  0.1068
  H  H177  1  0.998600  0.335900  0.876800  1.0  0.117
  H  H178  1  0.044500  0.301900  0.836900  1.0  0.1125
  H  H179  1  0.038300  0.054200  0.871800  1.0  0.116
  H  H180  1  0.996800  0.090600  0.917800  1.0  0.0976
  H  H181  1  0.095500  0.274700  0.814800  1.0  0.1172
  H  H182  1  0.141700  0.238600  0.773600  1.0  0.1045
  H  H183  1  0.119600  0.984900  0.787100  1.0  0.1085
  H  H184  1  0.075000  0.021500  0.831200  1.0  0.126
  H  H185  1  0.954800  0.341400  0.030000  1.0  0.1209
  H  H186  1  0.907000  0.381700  0.067300  1.0  0.1137
  H  H187  1  0.850000  0.194700  0.010800  1.0  0.113
  H  H188  1  0.896200  0.161700  0.968600  1.0  0.104
  H  H189  1  0.852400  0.446800  0.068500  1.0  0.1151
  H  H190  1  0.805800  0.491900  0.107300  1.0  0.123
  H  H191  1  0.778000  0.239600  0.120400  1.0  0.1074
  H  H192  1  0.823100  0.195900  0.077800  1.0  0.1161
  H  H193  1  0.027400  0.286900  0.973600  1.0  0.1173
  H  H194  1  0.073600  0.242300  0.015000  1.0  0.1184
  H  H195  1  0.015600  0.047700  0.061000  1.0  0.1093
  H  H196  1  0.968700  0.096800  0.021800  1.0  0.1106
  H  H197  1  0.102000  0.224800  0.079700  1.0  0.1179
  H  H198  1  0.149200  0.176000  0.119600  1.0  0.1086
  H  H199  1  0.118100  0.926600  0.102600  1.0  0.1112
  H  H200  1  0.069900  0.976700  0.063000  1.0  0.1074
  H  H201  1  0.309600  0.936600  0.297100  1.0  0.1145
  H  H202  1  0.355200  0.991300  0.338900  1.0  0.115
  H  H203  1  0.323000  0.238300  0.316000  1.0  0.1112
  H  H204  1  0.278400  0.185000  0.272700  1.0  0.1031
  H  H205  1  0.378900  0.054700  0.396300  1.0  0.117
  H  H206  1  0.425000  0.109200  0.435500  1.0  0.1188
  H  H207  1  0.428400  0.320100  0.360700  1.0  0.1136
  H  H208  1  0.380500  0.270100  0.324200  1.0  0.1071
  H  H209  1  0.498600  0.164100  0.376800  1.0  0.1167
  H  H210  1  0.544500  0.198100  0.336900  1.0  0.1127
  H  H211  1  0.538300  0.445800  0.371800  1.0  0.1146
  H  H212  1  0.496800  0.409400  0.417800  1.0  0.0979
  H  H213  1  0.595500  0.225300  0.314800  1.0  0.1169
  H  H214  1  0.641700  0.261400  0.273600  1.0  0.1044
  H  H215  1  0.619600  0.515100  0.287100  1.0  0.1089
  H  H216  1  0.575000  0.478500  0.331200  1.0  0.1235
  H  H217  1  0.454800  0.158600  0.530000  1.0  0.1203
  H  H218  1  0.407000  0.118300  0.567300  1.0  0.1136
  H  H219  1  0.350000  0.305300  0.510800  1.0  0.1129
  H  H220  1  0.396200  0.338300  0.468600  1.0  0.1041
  H  H221  1  0.352400  0.053200  0.568500  1.0  0.1148
  H  H222  1  0.305800  0.008100  0.607300  1.0  0.1232
  H  H223  1  0.278000  0.260400  0.620400  1.0  0.1074
  H  H224  1  0.323100  0.304100  0.577800  1.0  0.1162
  H  H225  1  0.527400  0.213100  0.473600  1.0  0.1173
  H  H226  1  0.573600  0.257700  0.515000  1.0  0.1179
  H  H227  1  0.515600  0.452300  0.561000  1.0  0.1093
  H  H228  1  0.468700  0.403200  0.521800  1.0  0.1105
  H  H229  1  0.602000  0.275200  0.579700  1.0  0.1184
  H  H230  1  0.649200  0.324000  0.619600  1.0  0.1081
  H  H231  1  0.618100  0.573400  0.602600  1.0  0.1107
  H  H232  1  0.569900  0.523300  0.563000  1.0  0.1069
  H  H233  1  0.809600  0.436600  0.297100  1.0  0.1145
  H  H234  1  0.855200  0.491300  0.338900  1.0  0.115
  H  H235  1  0.823000  0.738300  0.316000  1.0  0.1112
  H  H236  1  0.778400  0.685000  0.272700  1.0  0.1031
  H  H237  1  0.878900  0.554700  0.396300  1.0  0.117
  H  H238  1  0.925000  0.609200  0.435500  1.0  0.1188
  H  H239  1  0.928400  0.820100  0.360700  1.0  0.1136
  H  H240  1  0.880500  0.770100  0.324200  1.0  0.1071
  H  H241  1  0.998600  0.664100  0.376800  1.0  0.1158
  H  H242  1  0.044500  0.698100  0.336900  1.0  0.1124
  H  H243  1  0.038300  0.945800  0.371800  1.0  0.1146
  H  H244  1  0.996800  0.909400  0.417800  1.0  0.0979
  H  H245  1  0.095500  0.725300  0.314800  1.0  0.1169
  H  H246  1  0.141700  0.761400  0.273600  1.0  0.1044
  H  H247  1  0.119600  0.015100  0.287100  1.0  0.1089
  H  H248  1  0.075000  0.978500  0.331200  1.0  0.1264
  H  H249  1  0.954800  0.658600  0.530000  1.0  0.1203
  H  H250  1  0.907000  0.618300  0.567300  1.0  0.1136
  H  H251  1  0.850000  0.805300  0.510800  1.0  0.1129
  H  H252  1  0.896200  0.838300  0.468600  1.0  0.1041
  H  H253  1  0.852400  0.553200  0.568500  1.0  0.1148
  H  H254  1  0.805800  0.508100  0.607300  1.0  0.1229
  H  H255  1  0.778000  0.760400  0.620400  1.0  0.1074
  H  H256  1  0.823100  0.804100  0.577800  1.0  0.1162
  H  H257  1  0.027400  0.713100  0.473600  1.0  0.1173
  H  H258  1  0.073600  0.757700  0.515000  1.0  0.1179
  H  H259  1  0.015600  0.952300  0.561000  1.0  0.1093
  H  H260  1  0.968700  0.903200  0.521800  1.0  0.1105
  H  H261  1  0.102000  0.775200  0.579700  1.0  0.1184
  H  H262  1  0.149200  0.824000  0.619600  1.0  0.1081
  H  H263  1  0.118100  0.073400  0.602600  1.0  0.1107
  H  H264  1  0.069900  0.023300  0.563000  1.0  0.1069
  C  C265  1  0.738820  0.979100  0.748190  1.0  0.6451
  C  C266  1  0.710500  0.943900  0.719810  1.0  -0.1325
  C  C267  1  0.687480  0.003000  0.699610  1.0  -0.0703
  C  C268  1  0.660090  0.969800  0.674500  1.0  -0.1321
  C  C269  1  0.655470  0.880100  0.669500  1.0  -0.0047
  C  C270  1  0.679230  0.822000  0.688440  1.0  -0.1373
  C  C271  1  0.706300  0.854100  0.714030  1.0  -0.0444
  C  C272  1  0.625820  0.846000  0.644190  1.0  0.0654
  C  C273  1  0.611640  0.891100  0.610700  1.0  -0.1257
  C  C274  1  0.583780  0.858700  0.587030  1.0  -0.1323
  C  C275  1  0.568800  0.777500  0.597050  1.0  0.0478
  C  C276  1  0.582100  0.732300  0.631400  1.0  -0.0931
  C  C277  1  0.610280  0.763200  0.653850  1.0  -0.151
  C  C278  1  0.538370  0.740400  0.572470  1.0  0.0007
  C  C279  1  0.507890  0.716900  0.598010  1.0  0.1379
  C  C280  1  0.492700  0.778700  0.622800  1.0  -0.1805
  C  C281  1  0.465130  0.758100  0.646800  1.0  -0.1277
  C  C282  1  0.451090  0.675200  0.647730  1.0  0.0617
  C  C283  1  0.468110  0.612900  0.625500  1.0  -0.1264
  C  C284  1  0.494370  0.633900  0.599400  1.0  -0.1673
  C  C285  1  0.420610  0.652500  0.673550  1.0  0.0341
  C  C286  1  0.399780  0.715700  0.690400  1.0  -0.1193
  C  C287  1  0.371730  0.694100  0.715200  1.0  -0.0484
  C  C288  1  0.363930  0.608300  0.723040  1.0  -0.0914
  C  C289  1  0.384700  0.543800  0.706800  1.0  -0.0522
  C  C290  1  0.412200  0.566000  0.681100  1.0  -0.1324
  C  C291  1  0.333880  0.584700  0.749400  1.0  0.6757
  C  C292  1  0.538590  0.728500  0.531110  1.0  0.0044
  C  C293  1  0.569460  0.748600  0.505540  1.0  0.0691
  C  C294  1  0.566480  0.813200  0.474920  1.0  -0.1154
  C  C295  1  0.595130  0.835900  0.451710  1.0  -0.132
  C  C296  1  0.626630  0.792500  0.456030  1.0  0.0367
  C  C297  1  0.629220  0.725800  0.485950  1.0  -0.1167
  C  C298  1  0.601240  0.704800  0.511060  1.0  -0.1093
  C  C299  1  0.656950  0.817800  0.430900  1.0  0.0092
  C  C300  1  0.662770  0.904600  0.421400  1.0  -0.1102
  C  C301  1  0.690360  0.932400  0.397500  1.0  -0.0624
  C  C302  1  0.712030  0.868200  0.380900  1.0  -0.1239
  C  C303  1  0.707090  0.781800  0.390220  1.0  -0.0465
  C  C304  1  0.679740  0.755100  0.415650  1.0  -0.1091
  C  C305  1  0.740170  0.896500  0.352590  1.0  0.6551
  C  C306  1  0.507450  0.697800  0.506550  1.0  0.0623
  C  C307  1  0.475260  0.739500  0.508490  1.0  -0.1275
  C  C308  1  0.447310  0.711500  0.484060  1.0  -0.1137
  C  C309  1  0.449460  0.638500  0.458100  1.0  0.0766
  C  C310  1  0.481840  0.596100  0.456300  1.0  -0.1306
  C  C311  1  0.510040  0.625800  0.480020  1.0  -0.1089
  C  C312  1  0.418870  0.605500  0.432280  1.0  0.0517
  C  C313  1  0.395040  0.664900  0.415480  1.0  -0.1274
  C  C314  1  0.366780  0.635600  0.391470  1.0  -0.0375
  C  C315  1  0.362150  0.548500  0.383930  1.0  -0.1305
  C  C316  1  0.385430  0.486500  0.401570  1.0  -0.0513
  C  C317  1  0.414160  0.516800  0.425590  1.0  -0.105
  C  C318  1  0.332930  0.516200  0.355530  1.0  0.6516
  C  C319  1  0.238820  0.479100  0.748190  1.0  0.6451
  C  C320  1  0.210500  0.443900  0.719810  1.0  -0.1325
  C  C321  1  0.187480  0.503000  0.699610  1.0  -0.0703
  C  C322  1  0.160090  0.469800  0.674500  1.0  -0.1321
  C  C323  1  0.155470  0.380100  0.669500  1.0  -0.0047
  C  C324  1  0.179230  0.322000  0.688440  1.0  -0.1373
  C  C325  1  0.206300  0.354100  0.714030  1.0  -0.0444
  C  C326  1  0.125820  0.346000  0.644190  1.0  0.0654
  C  C327  1  0.111640  0.391100  0.610700  1.0  -0.1257
  C  C328  1  0.083780  0.358700  0.587030  1.0  -0.1323
  C  C329  1  0.068800  0.277500  0.597050  1.0  0.0478
  C  C330  1  0.082100  0.232300  0.631400  1.0  -0.0931
  C  C331  1  0.110280  0.263200  0.653850  1.0  -0.151
  C  C332  1  0.038370  0.240400  0.572470  1.0  0.0007
  C  C333  1  0.007890  0.216900  0.598010  1.0  0.1379
  C  C334  1  0.992700  0.278700  0.622800  1.0  -0.1805
  C  C335  1  0.965130  0.258100  0.646800  1.0  -0.1277
  C  C336  1  0.951090  0.175200  0.647730  1.0  0.0617
  C  C337  1  0.968110  0.112900  0.625500  1.0  -0.1264
  C  C338  1  0.994370  0.133900  0.599400  1.0  -0.1673
  C  C339  1  0.920610  0.152500  0.673550  1.0  0.0341
  C  C340  1  0.899780  0.215700  0.690400  1.0  -0.1193
  C  C341  1  0.871730  0.194100  0.715200  1.0  -0.0484
  C  C342  1  0.863930  0.108300  0.723040  1.0  -0.0914
  C  C343  1  0.884700  0.043800  0.706800  1.0  -0.0522
  C  C344  1  0.912200  0.066000  0.681100  1.0  -0.1324
  C  C345  1  0.833880  0.084700  0.749400  1.0  0.6757
  C  C346  1  0.038590  0.228500  0.531110  1.0  0.0044
  C  C347  1  0.069460  0.248600  0.505540  1.0  0.0691
  C  C348  1  0.066480  0.313200  0.474920  1.0  -0.1154
  C  C349  1  0.095130  0.335900  0.451710  1.0  -0.132
  C  C350  1  0.126630  0.292500  0.456030  1.0  0.0367
  C  C351  1  0.129220  0.225800  0.485950  1.0  -0.1167
  C  C352  1  0.101240  0.204800  0.511060  1.0  -0.1093
  C  C353  1  0.156950  0.317800  0.430900  1.0  0.0092
  C  C354  1  0.162770  0.404600  0.421400  1.0  -0.1102
  C  C355  1  0.190360  0.432400  0.397500  1.0  -0.0624
  C  C356  1  0.212030  0.368200  0.380900  1.0  -0.1239
  C  C357  1  0.207090  0.281800  0.390220  1.0  -0.0465
  C  C358  1  0.179740  0.255100  0.415650  1.0  -0.1091
  C  C359  1  0.240170  0.396500  0.352590  1.0  0.6551
  C  C360  1  0.007450  0.197800  0.506550  1.0  0.0623
  C  C361  1  0.975260  0.239500  0.508490  1.0  -0.1275
  C  C362  1  0.947310  0.211500  0.484060  1.0  -0.1137
  C  C363  1  0.949460  0.138500  0.458100  1.0  0.0766
  C  C364  1  0.981840  0.096100  0.456300  1.0  -0.1306
  C  C365  1  0.010040  0.125800  0.480020  1.0  -0.1089
  C  C366  1  0.918870  0.105500  0.432280  1.0  0.0517
  C  C367  1  0.895040  0.164900  0.415480  1.0  -0.1274
  C  C368  1  0.866780  0.135600  0.391470  1.0  -0.0375
  C  C369  1  0.862150  0.048500  0.383930  1.0  -0.1305
  C  C370  1  0.885430  0.986500  0.401570  1.0  -0.0513
  C  C371  1  0.914160  0.016800  0.425590  1.0  -0.105
  C  C372  1  0.832930  0.016200  0.355530  1.0  0.6516
  C  C373  1  0.738820  0.020900  0.248190  1.0  0.645
  C  C374  1  0.710500  0.056100  0.219810  1.0  -0.1334
  C  C375  1  0.687480  0.997000  0.199610  1.0  -0.0705
  C  C376  1  0.660090  0.030200  0.174500  1.0  -0.1315
  C  C377  1  0.655470  0.119900  0.169500  1.0  -0.0053
  C  C378  1  0.679230  0.178000  0.188440  1.0  -0.1386
  C  C379  1  0.706300  0.145900  0.214030  1.0  -0.0444
  C  C380  1  0.625820  0.154000  0.144190  1.0  0.0653
  C  C381  1  0.611640  0.108900  0.110700  1.0  -0.1252
  C  C382  1  0.583780  0.141300  0.087030  1.0  -0.132
  C  C383  1  0.568800  0.222500  0.097050  1.0  0.0475
  C  C384  1  0.582100  0.267700  0.131400  1.0  -0.0928
  C  C385  1  0.610280  0.236800  0.153850  1.0  -0.151
  C  C386  1  0.538370  0.259600  0.072470  1.0  0.0004
  C  C387  1  0.507890  0.283100  0.098010  1.0  0.138
  C  C388  1  0.492700  0.221300  0.122800  1.0  -0.1789
  C  C389  1  0.465130  0.241900  0.146800  1.0  -0.1279
  C  C390  1  0.451090  0.324800  0.147730  1.0  0.0616
  C  C391  1  0.468110  0.387100  0.125500  1.0  -0.1267
  C  C392  1  0.494370  0.366100  0.099400  1.0  -0.1674
  C  C393  1  0.420610  0.347500  0.173550  1.0  0.0342
  C  C394  1  0.399780  0.284300  0.190400  1.0  -0.1185
  C  C395  1  0.371730  0.305900  0.215200  1.0  -0.0463
  C  C396  1  0.363930  0.391700  0.223040  1.0  -0.0904
  C  C397  1  0.384700  0.456200  0.206800  1.0  -0.0515
  C  C398  1  0.412200  0.434000  0.181100  1.0  -0.1323
  C  C399  1  0.333880  0.415300  0.249400  1.0  0.675
  C  C400  1  0.538590  0.271500  0.031110  1.0  0.0039
  C  C401  1  0.569460  0.251400  0.005540  1.0  0.069
  C  C402  1  0.566480  0.186800  0.974920  1.0  -0.1153
  C  C403  1  0.595130  0.164100  0.951710  1.0  -0.13
  C  C404  1  0.626630  0.207500  0.956030  1.0  0.0367
  C  C405  1  0.629220  0.274200  0.985950  1.0  -0.1181
  C  C406  1  0.601240  0.295200  0.011060  1.0  -0.1097
  C  C407  1  0.656950  0.182200  0.930900  1.0  0.0093
  C  C408  1  0.662770  0.095400  0.921400  1.0  -0.1102
  C  C409  1  0.690360  0.067600  0.897500  1.0  -0.062
  C  C410  1  0.712030  0.131800  0.880900  1.0  -0.1237
  C  C411  1  0.707090  0.218200  0.890220  1.0  -0.047
  C  C412  1  0.679740  0.244900  0.915650  1.0  -0.1092
  C  C413  1  0.740170  0.103500  0.852590  1.0  0.6551
  C  C414  1  0.507450  0.302200  0.006550  1.0  0.0624
  C  C415  1  0.475260  0.260500  0.008490  1.0  -0.1255
  C  C416  1  0.447310  0.288500  0.984060  1.0  -0.1124
  C  C417  1  0.449460  0.361500  0.958100  1.0  0.0766
  C  C418  1  0.481840  0.403900  0.956300  1.0  -0.1325
  C  C419  1  0.510040  0.374200  0.980020  1.0  -0.1085
  C  C420  1  0.418870  0.394500  0.932280  1.0  0.0512
  C  C421  1  0.395040  0.335100  0.915480  1.0  -0.1276
  C  C422  1  0.366780  0.364400  0.891470  1.0  -0.0377
  C  C423  1  0.362150  0.451500  0.883930  1.0  -0.1312
  C  C424  1  0.385430  0.513500  0.901570  1.0  -0.0534
  C  C425  1  0.414160  0.483200  0.925590  1.0  -0.1047
  C  C426  1  0.332930  0.483800  0.855530  1.0  0.6505
  C  C427  1  0.238820  0.520900  0.248190  1.0  0.645
  C  C428  1  0.210500  0.556100  0.219810  1.0  -0.1334
  C  C429  1  0.187480  0.497000  0.199610  1.0  -0.0705
  C  C430  1  0.160090  0.530200  0.174500  1.0  -0.1315
  C  C431  1  0.155470  0.619900  0.169500  1.0  -0.0053
  C  C432  1  0.179230  0.678000  0.188440  1.0  -0.1386
  C  C433  1  0.206300  0.645900  0.214030  1.0  -0.0444
  C  C434  1  0.125820  0.654000  0.144190  1.0  0.0653
  C  C435  1  0.111640  0.608900  0.110700  1.0  -0.1252
  C  C436  1  0.083780  0.641300  0.087030  1.0  -0.132
  C  C437  1  0.068800  0.722500  0.097050  1.0  0.0475
  C  C438  1  0.082100  0.767700  0.131400  1.0  -0.0928
  C  C439  1  0.110280  0.736800  0.153850  1.0  -0.151
  C  C440  1  0.038370  0.759600  0.072470  1.0  0.0004
  C  C441  1  0.007890  0.783100  0.098010  1.0  0.138
  C  C442  1  0.992700  0.721300  0.122800  1.0  -0.1789
  C  C443  1  0.965130  0.741900  0.146800  1.0  -0.1279
  C  C444  1  0.951090  0.824800  0.147730  1.0  0.0616
  C  C445  1  0.968110  0.887100  0.125500  1.0  -0.1267
  C  C446  1  0.994370  0.866100  0.099400  1.0  -0.1674
  C  C447  1  0.920610  0.847500  0.173550  1.0  0.0342
  C  C448  1  0.899780  0.784300  0.190400  1.0  -0.1185
  C  C449  1  0.871730  0.805900  0.215200  1.0  -0.0463
  C  C450  1  0.863930  0.891700  0.223040  1.0  -0.0904
  C  C451  1  0.884700  0.956200  0.206800  1.0  -0.0515
  C  C452  1  0.912200  0.934000  0.181100  1.0  -0.1323
  C  C453  1  0.833880  0.915300  0.249400  1.0  0.675
  C  C454  1  0.038590  0.771500  0.031110  1.0  0.0039
  C  C455  1  0.069460  0.751400  0.005540  1.0  0.069
  C  C456  1  0.066480  0.686800  0.974920  1.0  -0.1153
  C  C457  1  0.095130  0.664100  0.951710  1.0  -0.13
  C  C458  1  0.126630  0.707500  0.956030  1.0  0.0367
  C  C459  1  0.129220  0.774200  0.985950  1.0  -0.1181
  C  C460  1  0.101240  0.795200  0.011060  1.0  -0.1097
  C  C461  1  0.156950  0.682200  0.930900  1.0  0.0093
  C  C462  1  0.162770  0.595400  0.921400  1.0  -0.1102
  C  C463  1  0.190360  0.567600  0.897500  1.0  -0.062
  C  C464  1  0.212030  0.631800  0.880900  1.0  -0.1237
  C  C465  1  0.207090  0.718200  0.890220  1.0  -0.047
  C  C466  1  0.179740  0.744900  0.915650  1.0  -0.1092
  C  C467  1  0.240170  0.603500  0.852590  1.0  0.6551
  C  C468  1  0.007450  0.802200  0.006550  1.0  0.0624
  C  C469  1  0.975260  0.760500  0.008490  1.0  -0.1255
  C  C470  1  0.947310  0.788500  0.984060  1.0  -0.1124
  C  C471  1  0.949460  0.861500  0.958100  1.0  0.0766
  C  C472  1  0.981840  0.903900  0.956300  1.0  -0.1325
  C  C473  1  0.010040  0.874200  0.980020  1.0  -0.1085
  C  C474  1  0.918870  0.894500  0.932280  1.0  0.0512
  C  C475  1  0.895040  0.835100  0.915480  1.0  -0.1276
  C  C476  1  0.866780  0.864400  0.891470  1.0  -0.0377
  C  C477  1  0.862150  0.951500  0.883930  1.0  -0.1312
  C  C478  1  0.885430  0.013500  0.901570  1.0  -0.0534
  C  C479  1  0.914160  0.983200  0.925590  1.0  -0.1047
  C  C480  1  0.832930  0.983800  0.855530  1.0  0.6505
  C  C481  1  0.261180  0.979100  0.751810  1.0  0.6459
  C  C482  1  0.289500  0.943900  0.780190  1.0  -0.133
  C  C483  1  0.312520  0.003000  0.800390  1.0  -0.0716
  C  C484  1  0.339910  0.969800  0.825500  1.0  -0.1321
  C  C485  1  0.344530  0.880100  0.830500  1.0  -0.0046
  C  C486  1  0.320770  0.822000  0.811560  1.0  -0.1382
  C  C487  1  0.293700  0.854100  0.785970  1.0  -0.0428
  C  C488  1  0.374180  0.846000  0.855810  1.0  0.0657
  C  C489  1  0.388360  0.891100  0.889300  1.0  -0.1241
  C  C490  1  0.416220  0.858700  0.912970  1.0  -0.1326
  C  C491  1  0.431200  0.777500  0.902950  1.0  0.0477
  C  C492  1  0.417900  0.732300  0.868600  1.0  -0.0928
  C  C493  1  0.389720  0.763200  0.846150  1.0  -0.1515
  C  C494  1  0.461630  0.740400  0.927530  1.0  0.0008
  C  C495  1  0.492110  0.716900  0.901990  1.0  0.1407
  C  C496  1  0.507300  0.778700  0.877200  1.0  -0.1796
  C  C497  1  0.534870  0.758100  0.853200  1.0  -0.1284
  C  C498  1  0.548910  0.675200  0.852270  1.0  0.0611
  C  C499  1  0.531890  0.612900  0.874500  1.0  -0.1269
  C  C500  1  0.505630  0.633900  0.900600  1.0  -0.166
  C  C501  1  0.579390  0.652500  0.826450  1.0  0.034
  C  C502  1  0.600220  0.715700  0.809600  1.0  -0.1202
  C  C503  1  0.628270  0.694100  0.784800  1.0  -0.0497
  C  C504  1  0.636070  0.608300  0.776960  1.0  -0.0913
  C  C505  1  0.615300  0.543800  0.793200  1.0  -0.051
  C  C506  1  0.587800  0.566000  0.818900  1.0  -0.1321
  C  C507  1  0.666120  0.584700  0.750600  1.0  0.6751
  C  C508  1  0.461410  0.728500  0.968890  1.0  0.0053
  C  C509  1  0.430540  0.748600  0.994460  1.0  0.0662
  C  C510  1  0.433520  0.813200  0.025080  1.0  -0.1175
  C  C511  1  0.404870  0.835900  0.048290  1.0  -0.1301
  C  C512  1  0.373370  0.792500  0.043970  1.0  0.0353
  C  C513  1  0.370780  0.725800  0.014050  1.0  -0.1183
  C  C514  1  0.398760  0.704800  0.988940  1.0  -0.1087
  C  C515  1  0.343050  0.817800  0.069100  1.0  0.0092
  C  C516  1  0.337230  0.904600  0.078600  1.0  -0.1099
  C  C517  1  0.309640  0.932400  0.102500  1.0  -0.0626
  C  C518  1  0.287970  0.868200  0.119100  1.0  -0.123
  C  C519  1  0.292910  0.781800  0.109780  1.0  -0.0452
  C  C520  1  0.320260  0.755100  0.084350  1.0  -0.1088
  C  C521  1  0.259830  0.896500  0.147410  1.0  0.6562
  C  C522  1  0.492550  0.697800  0.993450  1.0  0.0625
  C  C523  1  0.524740  0.739500  0.991510  1.0  -0.1276
  C  C524  1  0.552690  0.711500  0.015940  1.0  -0.1128
  C  C525  1  0.550540  0.638500  0.041900  1.0  0.0773
  C  C526  1  0.518160  0.596100  0.043700  1.0  -0.1311
  C  C527  1  0.489960  0.625800  0.019980  1.0  -0.1098
  C  C528  1  0.581130  0.605500  0.067720  1.0  0.0512
  C  C529  1  0.604960  0.664900  0.084520  1.0  -0.1269
  C  C530  1  0.633220  0.635600  0.108530  1.0  -0.037
  C  C531  1  0.637850  0.548500  0.116070  1.0  -0.1297
  C  C532  1  0.614570  0.486500  0.098430  1.0  -0.0512
  C  C533  1  0.585840  0.516800  0.074410  1.0  -0.1054
  C  C534  1  0.667070  0.516200  0.144470  1.0  0.6519
  C  C535  1  0.761180  0.479100  0.751810  1.0  0.6459
  C  C536  1  0.789500  0.443900  0.780190  1.0  -0.133
  C  C537  1  0.812520  0.503000  0.800390  1.0  -0.0716
  C  C538  1  0.839910  0.469800  0.825500  1.0  -0.1321
  C  C539  1  0.844530  0.380100  0.830500  1.0  -0.0046
  C  C540  1  0.820770  0.322000  0.811560  1.0  -0.1382
  C  C541  1  0.793700  0.354100  0.785970  1.0  -0.0428
  C  C542  1  0.874180  0.346000  0.855810  1.0  0.0657
  C  C543  1  0.888360  0.391100  0.889300  1.0  -0.1241
  C  C544  1  0.916220  0.358700  0.912970  1.0  -0.1326
  C  C545  1  0.931200  0.277500  0.902950  1.0  0.0477
  C  C546  1  0.917900  0.232300  0.868600  1.0  -0.0928
  C  C547  1  0.889720  0.263200  0.846150  1.0  -0.1515
  C  C548  1  0.961630  0.240400  0.927530  1.0  0.0008
  C  C549  1  0.992110  0.216900  0.901990  1.0  0.1407
  C  C550  1  0.007300  0.278700  0.877200  1.0  -0.1796
  C  C551  1  0.034870  0.258100  0.853200  1.0  -0.1284
  C  C552  1  0.048910  0.175200  0.852270  1.0  0.0611
  C  C553  1  0.031890  0.112900  0.874500  1.0  -0.1269
  C  C554  1  0.005630  0.133900  0.900600  1.0  -0.166
  C  C555  1  0.079390  0.152500  0.826450  1.0  0.034
  C  C556  1  0.100220  0.215700  0.809600  1.0  -0.1202
  C  C557  1  0.128270  0.194100  0.784800  1.0  -0.0497
  C  C558  1  0.136070  0.108300  0.776960  1.0  -0.0913
  C  C559  1  0.115300  0.043800  0.793200  1.0  -0.051
  C  C560  1  0.087800  0.066000  0.818900  1.0  -0.1321
  C  C561  1  0.166120  0.084700  0.750600  1.0  0.6751
  C  C562  1  0.961410  0.228500  0.968890  1.0  0.0053
  C  C563  1  0.930540  0.248600  0.994460  1.0  0.0662
  C  C564  1  0.933520  0.313200  0.025080  1.0  -0.1175
  C  C565  1  0.904870  0.335900  0.048290  1.0  -0.1301
  C  C566  1  0.873370  0.292500  0.043970  1.0  0.0353
  C  C567  1  0.870780  0.225800  0.014050  1.0  -0.1183
  C  C568  1  0.898760  0.204800  0.988940  1.0  -0.1087
  C  C569  1  0.843050  0.317800  0.069100  1.0  0.0092
  C  C570  1  0.837230  0.404600  0.078600  1.0  -0.1099
  C  C571  1  0.809640  0.432400  0.102500  1.0  -0.0626
  C  C572  1  0.787970  0.368200  0.119100  1.0  -0.123
  C  C573  1  0.792910  0.281800  0.109780  1.0  -0.0452
  C  C574  1  0.820260  0.255100  0.084350  1.0  -0.1088
  C  C575  1  0.759830  0.396500  0.147410  1.0  0.6562
  C  C576  1  0.992550  0.197800  0.993450  1.0  0.0625
  C  C577  1  0.024740  0.239500  0.991510  1.0  -0.1276
  C  C578  1  0.052690  0.211500  0.015940  1.0  -0.1128
  C  C579  1  0.050540  0.138500  0.041900  1.0  0.0773
  C  C580  1  0.018160  0.096100  0.043700  1.0  -0.1311
  C  C581  1  0.989960  0.125800  0.019980  1.0  -0.1098
  C  C582  1  0.081130  0.105500  0.067720  1.0  0.0512
  C  C583  1  0.104960  0.164900  0.084520  1.0  -0.1269
  C  C584  1  0.133220  0.135600  0.108530  1.0  -0.037
  C  C585  1  0.137850  0.048500  0.116070  1.0  -0.1297
  C  C586  1  0.114570  0.986500  0.098430  1.0  -0.0512
  C  C587  1  0.085840  0.016800  0.074410  1.0  -0.1054
  C  C588  1  0.167070  0.016200  0.144470  1.0  0.6519
  C  C589  1  0.261180  0.020900  0.251810  1.0  0.6458
  C  C590  1  0.289500  0.056100  0.280190  1.0  -0.134
  C  C591  1  0.312520  0.997000  0.300390  1.0  -0.0715
  C  C592  1  0.339910  0.030200  0.325500  1.0  -0.1332
  C  C593  1  0.344530  0.119900  0.330500  1.0  -0.0053
  C  C594  1  0.320770  0.178000  0.311560  1.0  -0.1388
  C  C595  1  0.293700  0.145900  0.285970  1.0  -0.044
  C  C596  1  0.374180  0.154000  0.355810  1.0  0.065
  C  C597  1  0.388360  0.108900  0.389300  1.0  -0.1247
  C  C598  1  0.416220  0.141300  0.412970  1.0  -0.132
  C  C599  1  0.431200  0.222500  0.402950  1.0  0.0471
  C  C600  1  0.417900  0.267700  0.368600  1.0  -0.0927
  C  C601  1  0.389720  0.236800  0.346150  1.0  -0.1524
  C  C602  1  0.461630  0.259600  0.427530  1.0  0.0005
  C  C603  1  0.492110  0.283100  0.401990  1.0  0.1409
  C  C604  1  0.507300  0.221300  0.377200  1.0  -0.1808
  C  C605  1  0.534870  0.241900  0.353200  1.0  -0.1291
  C  C606  1  0.548910  0.324800  0.352270  1.0  0.0612
  C  C607  1  0.531890  0.387100  0.374500  1.0  -0.1269
  C  C608  1  0.505630  0.366100  0.400600  1.0  -0.166
  C  C609  1  0.579390  0.347500  0.326450  1.0  0.0341
  C  C610  1  0.600220  0.284300  0.309600  1.0  -0.1191
  C  C611  1  0.628270  0.305900  0.284800  1.0  -0.0486
  C  C612  1  0.636070  0.391700  0.276960  1.0  -0.0909
  C  C613  1  0.615300  0.456200  0.293200  1.0  -0.0513
  C  C614  1  0.587800  0.434000  0.318900  1.0  -0.1328
  C  C615  1  0.666120  0.415300  0.250600  1.0  0.6752
  C  C616  1  0.461410  0.271500  0.468890  1.0  0.0047
  C  C617  1  0.430540  0.251400  0.494460  1.0  0.066
  C  C618  1  0.433520  0.186800  0.525080  1.0  -0.1179
  C  C619  1  0.404870  0.164100  0.548290  1.0  -0.1305
  C  C620  1  0.373370  0.207500  0.543970  1.0  0.0352
  C  C621  1  0.370780  0.274200  0.514050  1.0  -0.1204
  C  C622  1  0.398760  0.295200  0.488940  1.0  -0.1089
  C  C623  1  0.343050  0.182200  0.569100  1.0  0.0093
  C  C624  1  0.337230  0.095400  0.578600  1.0  -0.1098
  C  C625  1  0.309640  0.067600  0.602500  1.0  -0.0622
  C  C626  1  0.287970  0.131800  0.619100  1.0  -0.1232
  C  C627  1  0.292910  0.218200  0.609780  1.0  -0.0477
  C  C628  1  0.320260  0.244900  0.584350  1.0  -0.1092
  C  C629  1  0.259830  0.103500  0.647410  1.0  0.6563
  C  C630  1  0.492550  0.302200  0.493450  1.0  0.0627
  C  C631  1  0.524740  0.260500  0.491510  1.0  -0.1269
  C  C632  1  0.552690  0.288500  0.515940  1.0  -0.1141
  C  C633  1  0.550540  0.361500  0.541900  1.0  0.0777
  C  C634  1  0.518160  0.403900  0.543700  1.0  -0.1317
  C  C635  1  0.489960  0.374200  0.519980  1.0  -0.1095
  C  C636  1  0.581130  0.394500  0.567720  1.0  0.0508
  C  C637  1  0.604960  0.335100  0.584520  1.0  -0.1264
  C  C638  1  0.633220  0.364400  0.608530  1.0  -0.0387
  C  C639  1  0.637850  0.451500  0.616070  1.0  -0.1306
  C  C640  1  0.614570  0.513500  0.598430  1.0  -0.0528
  C  C641  1  0.585840  0.483200  0.574410  1.0  -0.1045
  C  C642  1  0.667070  0.483800  0.644470  1.0  0.6506
  C  C643  1  0.761180  0.520900  0.251810  1.0  0.6458
  C  C644  1  0.789500  0.556100  0.280190  1.0  -0.134
  C  C645  1  0.812520  0.497000  0.300390  1.0  -0.0715
  C  C646  1  0.839910  0.530200  0.325500  1.0  -0.1332
  C  C647  1  0.844530  0.619900  0.330500  1.0  -0.0053
  C  C648  1  0.820770  0.678000  0.311560  1.0  -0.1388
  C  C649  1  0.793700  0.645900  0.285970  1.0  -0.044
  C  C650  1  0.874180  0.654000  0.355810  1.0  0.065
  C  C651  1  0.888360  0.608900  0.389300  1.0  -0.1247
  C  C652  1  0.916220  0.641300  0.412970  1.0  -0.132
  C  C653  1  0.931200  0.722500  0.402950  1.0  0.0471
  C  C654  1  0.917900  0.767700  0.368600  1.0  -0.0927
  C  C655  1  0.889720  0.736800  0.346150  1.0  -0.1524
  C  C656  1  0.961630  0.759600  0.427530  1.0  0.0005
  C  C657  1  0.992110  0.783100  0.401990  1.0  0.1409
  C  C658  1  0.007300  0.721300  0.377200  1.0  -0.1808
  C  C659  1  0.034870  0.741900  0.353200  1.0  -0.1291
  C  C660  1  0.048910  0.824800  0.352270  1.0  0.0612
  C  C661  1  0.031890  0.887100  0.374500  1.0  -0.1269
  C  C662  1  0.005630  0.866100  0.400600  1.0  -0.166
  C  C663  1  0.079390  0.847500  0.326450  1.0  0.0341
  C  C664  1  0.100220  0.784300  0.309600  1.0  -0.1191
  C  C665  1  0.128270  0.805900  0.284800  1.0  -0.0486
  C  C666  1  0.136070  0.891700  0.276960  1.0  -0.0909
  C  C667  1  0.115300  0.956200  0.293200  1.0  -0.0513
  C  C668  1  0.087800  0.934000  0.318900  1.0  -0.1328
  C  C669  1  0.166120  0.915300  0.250600  1.0  0.6752
  C  C670  1  0.961410  0.771500  0.468890  1.0  0.0047
  C  C671  1  0.930540  0.751400  0.494460  1.0  0.066
  C  C672  1  0.933520  0.686800  0.525080  1.0  -0.1179
  C  C673  1  0.904870  0.664100  0.548290  1.0  -0.1305
  C  C674  1  0.873370  0.707500  0.543970  1.0  0.0352
  C  C675  1  0.870780  0.774200  0.514050  1.0  -0.1204
  C  C676  1  0.898760  0.795200  0.488940  1.0  -0.1089
  C  C677  1  0.843050  0.682200  0.569100  1.0  0.0093
  C  C678  1  0.837230  0.595400  0.578600  1.0  -0.1098
  C  C679  1  0.809640  0.567600  0.602500  1.0  -0.0622
  C  C680  1  0.787970  0.631800  0.619100  1.0  -0.1232
  C  C681  1  0.792910  0.718200  0.609780  1.0  -0.0477
  C  C682  1  0.820260  0.744900  0.584350  1.0  -0.1092
  C  C683  1  0.759830  0.603500  0.647410  1.0  0.6563
  C  C684  1  0.992550  0.802200  0.493450  1.0  0.0627
  C  C685  1  0.024740  0.760500  0.491510  1.0  -0.1269
  C  C686  1  0.052690  0.788500  0.515940  1.0  -0.1141
  C  C687  1  0.050540  0.861500  0.541900  1.0  0.0777
  C  C688  1  0.018160  0.903900  0.543700  1.0  -0.1317
  C  C689  1  0.989960  0.874200  0.519980  1.0  -0.1095
  C  C690  1  0.081130  0.894500  0.567720  1.0  0.0508
  C  C691  1  0.104960  0.835100  0.584520  1.0  -0.1264
  C  C692  1  0.133220  0.864400  0.608530  1.0  -0.0387
  C  C693  1  0.137850  0.951500  0.616070  1.0  -0.1306
  C  C694  1  0.114570  0.013500  0.598430  1.0  -0.0528
  C  C695  1  0.085840  0.983200  0.574410  1.0  -0.1045
  C  C696  1  0.167070  0.983800  0.644470  1.0  0.6506
  O  O697  1  0.742700  0.061100  0.752760  1.0  -0.5369
  O  O698  1  0.758070  0.925700  0.768000  1.0  -0.5292
  O  O699  1  0.314930  0.641700  0.763910  1.0  -0.567
  O  O700  1  0.328980  0.504100  0.757370  1.0  -0.5622
  O  O701  1  0.744680  0.978200  0.347050  1.0  -0.5383
  O  O702  1  0.758830  0.841800  0.334240  1.0  -0.5832
  O  O703  1  0.312910  0.571500  0.338460  1.0  -0.5325
  O  O704  1  0.329250  0.434400  0.348400  1.0  -0.5717
  O  O705  1  0.242700  0.561100  0.752760  1.0  -0.5369
  O  O706  1  0.258070  0.425700  0.768000  1.0  -0.5292
  O  O707  1  0.814930  0.141700  0.763910  1.0  -0.567
  O  O708  1  0.828980  0.004100  0.757370  1.0  -0.5622
  O  O709  1  0.244680  0.478200  0.347050  1.0  -0.5383
  O  O710  1  0.258830  0.341800  0.334240  1.0  -0.5832
  O  O711  1  0.812910  0.071500  0.338460  1.0  -0.5325
  O  O712  1  0.829250  0.934400  0.348400  1.0  -0.5717
  O  O713  1  0.742700  0.938900  0.252760  1.0  -0.534
  O  O714  1  0.758070  0.074300  0.268000  1.0  -0.5292
  O  O715  1  0.314930  0.358300  0.263910  1.0  -0.5675
  O  O716  1  0.328980  0.495900  0.257370  1.0  -0.5625
  O  O717  1  0.744680  0.021800  0.847050  1.0  -0.5394
  O  O718  1  0.758830  0.158200  0.834240  1.0  -0.5834
  O  O719  1  0.312910  0.428500  0.838460  1.0  -0.5315
  O  O720  1  0.329250  0.565600  0.848400  1.0  -0.5722
  O  O721  1  0.242700  0.438900  0.252760  1.0  -0.534
  O  O722  1  0.258070  0.574300  0.268000  1.0  -0.5292
  O  O723  1  0.814930  0.858300  0.263910  1.0  -0.5675
  O  O724  1  0.828980  0.995900  0.257370  1.0  -0.5625
  O  O725  1  0.244680  0.521800  0.847050  1.0  -0.5394
  O  O726  1  0.258830  0.658200  0.834240  1.0  -0.5834
  O  O727  1  0.812910  0.928500  0.838460  1.0  -0.5315
  O  O728  1  0.829250  0.065600  0.848400  1.0  -0.5722
  O  O729  1  0.257300  0.061100  0.747240  1.0  -0.5357
  O  O730  1  0.241930  0.925700  0.732000  1.0  -0.5292
  O  O731  1  0.685070  0.641700  0.736090  1.0  -0.5681
  O  O732  1  0.671020  0.504100  0.742630  1.0  -0.5619
  O  O733  1  0.255320  0.978200  0.152950  1.0  -0.5384
  O  O734  1  0.241170  0.841800  0.165760  1.0  -0.5825
  O  O735  1  0.687090  0.571500  0.161540  1.0  -0.5317
  O  O736  1  0.670750  0.434400  0.151600  1.0  -0.5714
  O  O737  1  0.757300  0.561100  0.747240  1.0  -0.5357
  O  O738  1  0.741930  0.425700  0.732000  1.0  -0.5292
  O  O739  1  0.185070  0.141700  0.736090  1.0  -0.5681
  O  O740  1  0.171020  0.004100  0.742630  1.0  -0.5619
  O  O741  1  0.755320  0.478200  0.152950  1.0  -0.5384
  O  O742  1  0.741170  0.341800  0.165760  1.0  -0.5825
  O  O743  1  0.187090  0.071500  0.161540  1.0  -0.5317
  O  O744  1  0.170750  0.934400  0.151600  1.0  -0.5714
  O  O745  1  0.257300  0.938900  0.247240  1.0  -0.5337
  O  O746  1  0.241930  0.074300  0.232000  1.0  -0.5293
  O  O747  1  0.685070  0.358300  0.236090  1.0  -0.5687
  O  O748  1  0.671020  0.495900  0.242630  1.0  -0.5641
  O  O749  1  0.255320  0.021800  0.652950  1.0  -0.5408
  O  O750  1  0.241170  0.158200  0.665760  1.0  -0.5819
  O  O751  1  0.687090  0.428500  0.661540  1.0  -0.5306
  O  O752  1  0.670750  0.565600  0.651600  1.0  -0.5715
  O  O753  1  0.757300  0.438900  0.247240  1.0  -0.5337
  O  O754  1  0.741930  0.574300  0.232000  1.0  -0.5293
  O  O755  1  0.185070  0.858300  0.236090  1.0  -0.5687
  O  O756  1  0.171020  0.995900  0.242630  1.0  -0.5641
  O  O757  1  0.755320  0.521800  0.652950  1.0  -0.5408
  O  O758  1  0.741170  0.658200  0.665760  1.0  -0.5819
  O  O759  1  0.187090  0.928500  0.661540  1.0  -0.5306
  O  O760  1  0.170750  0.065600  0.651600  1.0  -0.5715
