# generated using pymatgen
data_MgInH20(C4O)9
_symmetry_space_group_name_H-M   'P 1'
_cell_length_a   32.22140000
_cell_length_b   32.22140000
_cell_length_c   35.99410000
_cell_angle_alpha   63.41070000
_cell_angle_beta   63.41070000
_cell_angle_gamma   60.00000000
_symmetry_Int_Tables_number   1
_chemical_formula_structural   MgInH20(C4O)9
_chemical_formula_sum   'Mg12 In12 H240 C432 O108'
_cell_volume   27705.61008293
_cell_formula_units_Z   12
loop_
 _symmetry_equiv_pos_site_id
 _symmetry_equiv_pos_as_xyz
  1  'x, y, z'
loop_
 _atom_site_type_symbol
 _atom_site_label
 _atom_site_symmetry_multiplicity
 _atom_site_fract_x
 _atom_site_fract_y
 _atom_site_fract_z
 _atom_site_occupancy
 _atom_site_charge
  Mg  Mg1  1  0.542180  0.085770  0.709120  1.0  1.593
  Mg  Mg2  1  0.085770  0.662930  0.709120  1.0  1.5933
  Mg  Mg3  1  0.662930  0.542180  0.709120  1.0  1.5911
  Mg  Mg4  1  0.957820  0.837070  0.790880  1.0  1.5927
  Mg  Mg5  1  0.414230  0.957820  0.790880  1.0  1.5911
  Mg  Mg6  1  0.837070  0.414230  0.790880  1.0  1.5914
  Mg  Mg7  1  0.457820  0.914230  0.290880  1.0  1.5941
  Mg  Mg8  1  0.914230  0.337070  0.290880  1.0  1.5913
  Mg  Mg9  1  0.337070  0.457820  0.290880  1.0  1.592
  Mg  Mg10  1  0.042180  0.162930  0.209120  1.0  1.5946
  Mg  Mg11  1  0.585770  0.042180  0.209120  1.0  1.5921
  Mg  Mg12  1  0.162930  0.585770  0.209120  1.0  1.5911
  In  In13  1  0.440760  0.053170  0.798840  1.0  1.6212
  In  In14  1  0.053170  0.707230  0.798840  1.0  1.6194
  In  In15  1  0.707230  0.440760  0.798840  1.0  1.6204
  In  In16  1  0.059240  0.792770  0.701150  1.0  1.618
  In  In17  1  0.446840  0.059240  0.701150  1.0  1.6203
  In  In18  1  0.792770  0.446830  0.701160  1.0  1.6211
  In  In19  1  0.559240  0.946830  0.201160  1.0  1.6194
  In  In20  1  0.946840  0.292770  0.201150  1.0  1.6219
  In  In21  1  0.292770  0.559240  0.201150  1.0  1.6189
  In  In22  1  0.940760  0.207230  0.298840  1.0  1.6209
  In  In23  1  0.553160  0.940760  0.298850  1.0  1.6191
  In  In24  1  0.207230  0.553160  0.298850  1.0  1.6205
  H  H25  1  0.649500  0.746700  0.815800  1.0  0.0907
  H  H26  1  0.707400  0.860300  0.769000  1.0  0.096
  H  H27  1  0.592800  0.816400  0.848200  1.0  0.1065
  H  H28  1  0.652100  0.942600  0.751000  1.0  0.1057
  H  H29  1  0.538200  0.898400  0.831400  1.0  0.0868
  H  H30  1  0.304500  0.707800  0.141300  1.0  0.1051
  H  H31  1  0.392900  0.639300  0.216900  1.0  0.095
  H  H32  1  0.341300  0.766500  0.102300  1.0  0.0915
  H  H33  1  0.430900  0.696300  0.177300  1.0  0.1186
  H  H34  1  0.439400  0.852100  0.227700  1.0  0.1054
  H  H35  1  0.541800  0.889400  0.118500  1.0  0.1021
  H  H36  1  0.429000  0.771600  0.160500  1.0  0.0941
  H  H37  1  0.418900  0.823000  0.192000  1.0  0.1076
  H  H38  1  0.520100  0.863000  0.082500  1.0  0.1128
  H  H39  1  0.414600  0.938200  0.006600  1.0  0.0999
  H  H40  1  0.465600  0.876100  0.051900  1.0  0.101
  H  H41  1  0.402200  0.795200  0.053700  1.0  0.0919
  H  H42  1  0.439700  0.819300  0.980200  1.0  0.1102
  H  H43  1  0.438700  0.867000  0.909700  1.0  0.1011
  H  H44  1  0.412100  0.986600  0.937300  1.0  0.1149
  H  H45  1  0.746700  0.788000  0.815800  1.0  0.0912
  H  H46  1  0.860300  0.663300  0.769000  1.0  0.0951
  H  H47  1  0.816400  0.742600  0.848200  1.0  0.1072
  H  H48  1  0.942600  0.654300  0.751000  1.0  0.1056
  H  H49  1  0.898400  0.732000  0.831400  1.0  0.0875
  H  H50  1  0.707800  0.846400  0.141300  1.0  0.1053
  H  H51  1  0.639300  0.750900  0.216900  1.0  0.0954
  H  H52  1  0.766500  0.789900  0.102300  1.0  0.0916
  H  H53  1  0.696300  0.695500  0.177300  1.0  0.1177
  H  H54  1  0.852100  0.480800  0.227700  1.0  0.1052
  H  H55  1  0.889400  0.450300  0.118500  1.0  0.1014
  H  H56  1  0.771600  0.638900  0.160500  1.0  0.094
  H  H57  1  0.823000  0.566100  0.192000  1.0  0.1087
  H  H58  1  0.863000  0.534400  0.082500  1.0  0.1117
  H  H59  1  0.938200  0.640600  0.006600  1.0  0.0986
  H  H60  1  0.876100  0.606400  0.051900  1.0  0.1003
  H  H61  1  0.795200  0.748900  0.053700  1.0  0.09
  H  H62  1  0.819300  0.760800  0.980200  1.0  0.111
  H  H63  1  0.867000  0.784600  0.909700  1.0  0.102
  H  H64  1  0.986600  0.664000  0.937300  1.0  0.1152
  H  H65  1  0.788000  0.649500  0.815800  1.0  0.0924
  H  H66  1  0.663300  0.707400  0.769000  1.0  0.0945
  H  H67  1  0.742600  0.592800  0.848200  1.0  0.1068
  H  H68  1  0.654300  0.652100  0.751000  1.0  0.1052
  H  H69  1  0.732000  0.538200  0.831400  1.0  0.0867
  H  H70  1  0.846400  0.304500  0.141300  1.0  0.1047
  H  H71  1  0.750900  0.392900  0.216900  1.0  0.0947
  H  H72  1  0.789900  0.341300  0.102300  1.0  0.092
  H  H73  1  0.695500  0.430900  0.177300  1.0  0.1189
  H  H74  1  0.480800  0.439400  0.227700  1.0  0.1054
  H  H75  1  0.450300  0.541800  0.118500  1.0  0.1019
  H  H76  1  0.638900  0.429000  0.160500  1.0  0.0944
  H  H77  1  0.566100  0.418900  0.192000  1.0  0.1079
  H  H78  1  0.534400  0.520100  0.082500  1.0  0.1123
  H  H79  1  0.640600  0.414600  0.006600  1.0  0.1008
  H  H80  1  0.606400  0.465600  0.051900  1.0  0.1011
  H  H81  1  0.748900  0.402200  0.053700  1.0  0.0915
  H  H82  1  0.760800  0.439700  0.980200  1.0  0.1105
  H  H83  1  0.784600  0.438700  0.909700  1.0  0.102
  H  H84  1  0.664000  0.412100  0.937300  1.0  0.1139
  H  H85  1  0.850500  0.712000  0.684200  1.0  0.0925
  H  H86  1  0.792600  0.836700  0.731000  1.0  0.0954
  H  H87  1  0.907200  0.757400  0.651800  1.0  0.1069
  H  H88  1  0.847900  0.845700  0.749000  1.0  0.1067
  H  H89  1  0.961800  0.768000  0.668600  1.0  0.0863
  H  H90  1  0.195500  0.653600  0.358700  1.0  0.1052
  H  H91  1  0.107100  0.749100  0.283100  1.0  0.0956
  H  H92  1  0.158700  0.710100  0.397700  1.0  0.0909
  H  H93  1  0.069100  0.804500  0.322700  1.0  0.118
  H  H94  1  0.060600  0.019200  0.272300  1.0  0.1061
  H  H95  1  0.958200  0.049700  0.381500  1.0  0.1005
  H  H96  1  0.071000  0.861100  0.339500  1.0  0.0935
  H  H97  1  0.081100  0.933900  0.308000  1.0  0.1073
  H  H98  1  0.979900  0.965600  0.417500  1.0  0.1118
  H  H99  1  0.085400  0.859400  0.493400  1.0  0.1002
  H  H100  1  0.034400  0.893600  0.448100  1.0  0.1006
  H  H101  1  0.097800  0.751100  0.446300  1.0  0.0915
  H  H102  1  0.060300  0.739200  0.519800  1.0  0.1096
  H  H103  1  0.061300  0.715400  0.590300  1.0  0.1015
  H  H104  1  0.087900  0.836000  0.562700  1.0  0.1137
  H  H105  1  0.753300  0.850500  0.684200  1.0  0.0911
  H  H106  1  0.639700  0.792600  0.731000  1.0  0.0954
  H  H107  1  0.683600  0.907200  0.651800  1.0  0.1076
  H  H108  1  0.557400  0.847900  0.749000  1.0  0.1056
  H  H109  1  0.601600  0.961800  0.668600  1.0  0.0869
  H  H110  1  0.792200  0.195500  0.358700  1.0  0.1048
  H  H111  1  0.860700  0.107100  0.283100  1.0  0.0952
  H  H112  1  0.733500  0.158700  0.397700  1.0  0.0916
  H  H113  1  0.803700  0.069100  0.322700  1.0  0.1177
  H  H114  1  0.647900  0.060600  0.272300  1.0  0.1057
  H  H115  1  0.610600  0.958200  0.381500  1.0  0.1019
  H  H116  1  0.728400  0.071000  0.339500  1.0  0.0942
  H  H117  1  0.677000  0.081100  0.308000  1.0  0.1079
  H  H118  1  0.637000  0.979900  0.417500  1.0  0.1126
  H  H119  1  0.561800  0.085400  0.493400  1.0  0.0992
  H  H120  1  0.623900  0.034400  0.448100  1.0  0.1016
  H  H121  1  0.704800  0.097800  0.446300  1.0  0.0918
  H  H122  1  0.680700  0.060300  0.519800  1.0  0.1111
  H  H123  1  0.633000  0.061300  0.590300  1.0  0.1015
  H  H124  1  0.513400  0.087900  0.562700  1.0  0.114
  H  H125  1  0.712000  0.753300  0.684200  1.0  0.0918
  H  H126  1  0.836700  0.639700  0.731000  1.0  0.0944
  H  H127  1  0.757400  0.683600  0.651800  1.0  0.1073
  H  H128  1  0.845700  0.557400  0.749000  1.0  0.1063
  H  H129  1  0.768000  0.601600  0.668600  1.0  0.0869
  H  H130  1  0.653600  0.792200  0.358700  1.0  0.1052
  H  H131  1  0.749100  0.860700  0.283100  1.0  0.0961
  H  H132  1  0.710100  0.733500  0.397700  1.0  0.0907
  H  H133  1  0.804500  0.803700  0.322700  1.0  0.1176
  H  H134  1  0.019200  0.647900  0.272300  1.0  0.1051
  H  H135  1  0.049700  0.610600  0.381500  1.0  0.1016
  H  H136  1  0.861100  0.728400  0.339500  1.0  0.0937
  H  H137  1  0.933900  0.677000  0.308000  1.0  0.1094
  H  H138  1  0.965600  0.637000  0.417500  1.0  0.1122
  H  H139  1  0.859400  0.561800  0.493400  1.0  0.0987
  H  H140  1  0.893600  0.623900  0.448100  1.0  0.1007
  H  H141  1  0.751100  0.704800  0.446300  1.0  0.0909
  H  H142  1  0.739200  0.680700  0.519800  1.0  0.1108
  H  H143  1  0.715400  0.633000  0.590300  1.0  0.102
  H  H144  1  0.836000  0.513400  0.562700  1.0  0.1148
  H  H145  1  0.350500  0.253300  0.184200  1.0  0.0918
  H  H146  1  0.292600  0.139700  0.231000  1.0  0.0968
  H  H147  1  0.407200  0.183600  0.151800  1.0  0.1069
  H  H148  1  0.347900  0.057400  0.249000  1.0  0.1055
  H  H149  1  0.461800  0.101600  0.168600  1.0  0.0873
  H  H150  1  0.695500  0.292200  0.858700  1.0  0.1054
  H  H151  1  0.607100  0.360700  0.783100  1.0  0.0947
  H  H152  1  0.658700  0.233500  0.897700  1.0  0.092
  H  H153  1  0.569100  0.303700  0.822700  1.0  0.1179
  H  H154  1  0.560600  0.147900  0.772300  1.0  0.1062
  H  H155  1  0.458200  0.110600  0.881500  1.0  0.1018
  H  H156  1  0.571000  0.228400  0.839500  1.0  0.0933
  H  H157  1  0.581100  0.177000  0.808000  1.0  0.1082
  H  H158  1  0.479900  0.137000  0.917500  1.0  0.1128
  H  H159  1  0.585400  0.061800  0.993400  1.0  0.0994
  H  H160  1  0.534400  0.123900  0.948100  1.0  0.101
  H  H161  1  0.597800  0.204800  0.946300  1.0  0.0918
  H  H162  1  0.560300  0.180700  0.019800  1.0  0.1107
  H  H163  1  0.561300  0.133000  0.090300  1.0  0.1016
  H  H164  1  0.587900  0.013400  0.062700  1.0  0.1152
  H  H165  1  0.253300  0.212000  0.184200  1.0  0.0916
  H  H166  1  0.139700  0.336700  0.231000  1.0  0.0956
  H  H167  1  0.183600  0.257400  0.151800  1.0  0.108
  H  H168  1  0.057400  0.345700  0.249000  1.0  0.1068
  H  H169  1  0.101600  0.268000  0.168600  1.0  0.0871
  H  H170  1  0.292200  0.153600  0.858700  1.0  0.1046
  H  H171  1  0.360700  0.249100  0.783100  1.0  0.0954
  H  H172  1  0.233500  0.210100  0.897700  1.0  0.092
  H  H173  1  0.303700  0.304500  0.822700  1.0  0.1179
  H  H174  1  0.147900  0.519200  0.772300  1.0  0.1056
  H  H175  1  0.110600  0.549700  0.881500  1.0  0.1009
  H  H176  1  0.228400  0.361100  0.839500  1.0  0.094
  H  H177  1  0.177000  0.433900  0.808000  1.0  0.1083
  H  H178  1  0.137000  0.465600  0.917500  1.0  0.1116
  H  H179  1  0.061800  0.359400  0.993400  1.0  0.0996
  H  H180  1  0.123900  0.393600  0.948100  1.0  0.1004
  H  H181  1  0.204800  0.251100  0.946300  1.0  0.0912
  H  H182  1  0.180700  0.239200  0.019800  1.0  0.1112
  H  H183  1  0.133000  0.215400  0.090300  1.0  0.1024
  H  H184  1  0.013400  0.336000  0.062700  1.0  0.1153
  H  H185  1  0.212000  0.350500  0.184200  1.0  0.0924
  H  H186  1  0.336700  0.292600  0.231000  1.0  0.0948
  H  H187  1  0.257400  0.407200  0.151800  1.0  0.107
  H  H188  1  0.345700  0.347900  0.249000  1.0  0.1061
  H  H189  1  0.268000  0.461800  0.168600  1.0  0.0864
  H  H190  1  0.153600  0.695500  0.858700  1.0  0.1058
  H  H191  1  0.249100  0.607100  0.783100  1.0  0.0943
  H  H192  1  0.210100  0.658700  0.897700  1.0  0.0923
  H  H193  1  0.304500  0.569100  0.822700  1.0  0.118
  H  H194  1  0.519200  0.560600  0.772300  1.0  0.1058
  H  H195  1  0.549700  0.458200  0.881500  1.0  0.1014
  H  H196  1  0.361100  0.571000  0.839500  1.0  0.0944
  H  H197  1  0.433900  0.581100  0.808000  1.0  0.1079
  H  H198  1  0.465600  0.479900  0.917500  1.0  0.1121
  H  H199  1  0.359400  0.585400  0.993400  1.0  0.1001
  H  H200  1  0.393600  0.534400  0.948100  1.0  0.1012
  H  H201  1  0.251100  0.597800  0.946300  1.0  0.091
  H  H202  1  0.239200  0.560300  0.019800  1.0  0.1106
  H  H203  1  0.215400  0.561300  0.090300  1.0  0.101
  H  H204  1  0.336000  0.587900  0.062700  1.0  0.1137
  H  H205  1  0.149500  0.288000  0.315800  1.0  0.0922
  H  H206  1  0.207400  0.163300  0.269000  1.0  0.0946
  H  H207  1  0.092800  0.242600  0.348200  1.0  0.1068
  H  H208  1  0.152100  0.154300  0.251000  1.0  0.1058
  H  H209  1  0.038200  0.232000  0.331400  1.0  0.086
  H  H210  1  0.804500  0.346400  0.641300  1.0  0.1051
  H  H211  1  0.892900  0.250900  0.716900  1.0  0.0954
  H  H212  1  0.841300  0.289900  0.602300  1.0  0.0912
  H  H213  1  0.930900  0.195500  0.677300  1.0  0.1182
  H  H214  1  0.939400  0.980800  0.727700  1.0  0.1055
  H  H215  1  0.041800  0.950300  0.618500  1.0  0.1012
  H  H216  1  0.929000  0.138900  0.660500  1.0  0.0934
  H  H217  1  0.918900  0.066100  0.692000  1.0  0.1076
  H  H218  1  0.020100  0.034400  0.582500  1.0  0.112
  H  H219  1  0.914600  0.140600  0.506600  1.0  0.1
  H  H220  1  0.965600  0.106400  0.551900  1.0  0.1008
  H  H221  1  0.902200  0.248900  0.553700  1.0  0.0898
  H  H222  1  0.939700  0.260800  0.480200  1.0  0.1096
  H  H223  1  0.938700  0.284600  0.409700  1.0  0.102
  H  H224  1  0.912100  0.164000  0.437300  1.0  0.1135
  H  H225  1  0.246700  0.149500  0.315800  1.0  0.0912
  H  H226  1  0.360300  0.207400  0.269000  1.0  0.0953
  H  H227  1  0.316400  0.092800  0.348200  1.0  0.1073
  H  H228  1  0.442600  0.152100  0.251000  1.0  0.1059
  H  H229  1  0.398400  0.038200  0.331400  1.0  0.0867
  H  H230  1  0.207800  0.804500  0.641300  1.0  0.1038
  H  H231  1  0.139300  0.892900  0.716900  1.0  0.0959
  H  H232  1  0.266500  0.841300  0.602300  1.0  0.0907
  H  H233  1  0.196300  0.930900  0.677300  1.0  0.1179
  H  H234  1  0.352100  0.939400  0.727700  1.0  0.1051
  H  H235  1  0.389400  0.041800  0.618500  1.0  0.1028
  H  H236  1  0.271600  0.929000  0.660500  1.0  0.0954
  H  H237  1  0.323000  0.918900  0.692000  1.0  0.1072
  H  H238  1  0.363000  0.020100  0.582500  1.0  0.1124
  H  H239  1  0.438200  0.914600  0.506600  1.0  0.0989
  H  H240  1  0.376100  0.965600  0.551900  1.0  0.1016
  H  H241  1  0.295200  0.902200  0.553700  1.0  0.0914
  H  H242  1  0.319300  0.939700  0.480200  1.0  0.1109
  H  H243  1  0.367000  0.938700  0.409700  1.0  0.101
  H  H244  1  0.486600  0.912100  0.437300  1.0  0.1137
  H  H245  1  0.288000  0.246700  0.315800  1.0  0.0915
  H  H246  1  0.163300  0.360300  0.269000  1.0  0.0948
  H  H247  1  0.242600  0.316400  0.348200  1.0  0.107
  H  H248  1  0.154300  0.442600  0.251000  1.0  0.106
  H  H249  1  0.232000  0.398400  0.331400  1.0  0.0876
  H  H250  1  0.346400  0.207800  0.641300  1.0  0.1045
  H  H251  1  0.250900  0.139300  0.716900  1.0  0.095
  H  H252  1  0.289900  0.266500  0.602300  1.0  0.0907
  H  H253  1  0.195500  0.196300  0.677300  1.0  0.1178
  H  H254  1  0.980800  0.352100  0.727700  1.0  0.1053
  H  H255  1  0.950300  0.389400  0.618500  1.0  0.1012
  H  H256  1  0.138900  0.271600  0.660500  1.0  0.0938
  H  H257  1  0.066100  0.323000  0.692000  1.0  0.1097
  H  H258  1  0.034400  0.363000  0.582500  1.0  0.112
  H  H259  1  0.140600  0.438200  0.506600  1.0  0.0998
  H  H260  1  0.106400  0.376100  0.551900  1.0  0.1002
  H  H261  1  0.248900  0.295200  0.553700  1.0  0.0919
  H  H262  1  0.260800  0.319300  0.480200  1.0  0.1112
  H  H263  1  0.284600  0.367000  0.409700  1.0  0.1016
  H  H264  1  0.164000  0.486600  0.437300  1.0  0.1152
  C  C265  1  0.692830  0.776770  0.815110  1.0  0.0814
  C  C266  1  0.681720  0.738760  0.815410  1.0  -0.1485
  C  C267  1  0.673110  0.867670  0.781390  1.0  -0.1261
  C  C268  1  0.605210  0.841330  0.828640  1.0  -0.1368
  C  C269  1  0.589000  0.928460  0.789010  1.0  -0.1622
  C  C270  1  0.639960  0.917310  0.770560  1.0  -0.044
  C  C271  1  0.552600  0.980810  0.776080  1.0  0.6732
  C  C272  1  0.572330  0.890650  0.818320  1.0  -0.0145
  C  C273  1  0.655870  0.829240  0.810100  1.0  0.071
  C  C274  1  0.329440  0.705550  0.149280  1.0  -0.0926
  C  C275  1  0.322270  0.628330  0.208890  1.0  0.6823
  C  C276  1  0.344280  0.668040  0.183360  1.0  -0.1393
  C  C277  1  0.382190  0.665280  0.193530  1.0  -0.0495
  C  C278  1  0.351850  0.741020  0.125850  1.0  -0.1246
  C  C279  1  0.411000  0.778030  0.111000  1.0  -0.0475
  C  C280  1  0.387790  0.739780  0.135930  1.0  0.0931
  C  C281  1  0.404620  0.699660  0.170340  1.0  -0.1815
  C  C282  1  0.490340  0.875700  0.176460  1.0  -0.138
  C  C283  1  0.455160  0.854910  0.198420  1.0  -0.041
  C  C284  1  0.516040  0.877270  0.133080  1.0  -0.0641
  C  C285  1  0.500840  0.896590  0.199890  1.0  0.7249
  C  C286  1  0.429670  0.789170  0.131790  1.0  -0.0867
  C  C287  1  0.442750  0.837570  0.176850  1.0  -0.1493
  C  C288  1  0.449990  0.826940  0.109830  1.0  -0.0146
  C  C289  1  0.465730  0.842160  0.133110  1.0  0.027
  C  C290  1  0.503300  0.861170  0.111600  1.0  -0.1538
  C  C291  1  0.419390  0.923540  0.987130  1.0  -0.1402
  C  C292  1  0.431230  0.841780  0.045510  1.0  0.0401
  C  C293  1  0.451380  0.852060  0.066960  1.0  -0.1078
  C  C294  1  0.422330  0.963240  0.870820  1.0  0.7209
  C  C295  1  0.413310  0.803830  0.068070  1.0  -0.1315
  C  C296  1  0.428030  0.873700  0.000810  1.0  0.0317
  C  C297  1  0.434470  0.852950  0.971590  1.0  -0.1287
  C  C298  1  0.433260  0.881700  0.929350  1.0  -0.0464
  C  C299  1  0.423980  0.931940  0.916690  1.0  -0.1277
  C  C300  1  0.417620  0.952900  0.945640  1.0  -0.0807
  C  C301  1  0.776770  0.715290  0.815110  1.0  0.0828
  C  C302  1  0.738760  0.764110  0.815410  1.0  -0.1486
  C  C303  1  0.867670  0.677830  0.781390  1.0  -0.1297
  C  C304  1  0.841330  0.724820  0.828640  1.0  -0.138
  C  C305  1  0.928460  0.693530  0.789010  1.0  -0.1646
  C  C306  1  0.917310  0.672170  0.770560  1.0  -0.0485
  C  C307  1  0.980810  0.690510  0.776080  1.0  0.6711
  C  C308  1  0.890650  0.718700  0.818320  1.0  -0.0175
  C  C309  1  0.829240  0.704790  0.810100  1.0  0.0678
  C  C310  1  0.705550  0.815730  0.149280  1.0  -0.0902
  C  C311  1  0.628330  0.840510  0.208890  1.0  0.683
  C  C312  1  0.668040  0.804320  0.183360  1.0  -0.1398
  C  C313  1  0.665280  0.759000  0.193530  1.0  -0.0435
  C  C314  1  0.741020  0.781280  0.125850  1.0  -0.1205
  C  C315  1  0.778030  0.699970  0.111000  1.0  -0.0472
  C  C316  1  0.739780  0.736500  0.135930  1.0  0.0938
  C  C317  1  0.699660  0.725380  0.170340  1.0  -0.1805
  C  C318  1  0.875700  0.457500  0.176460  1.0  -0.1359
  C  C319  1  0.854910  0.491510  0.198420  1.0  -0.042
  C  C320  1  0.877270  0.473610  0.133080  1.0  -0.0669
  C  C321  1  0.896590  0.402680  0.199890  1.0  0.7239
  C  C322  1  0.789170  0.649370  0.131790  1.0  -0.0891
  C  C323  1  0.837570  0.542830  0.176850  1.0  -0.1507
  C  C324  1  0.826940  0.613240  0.109830  1.0  -0.013
  C  C325  1  0.842160  0.559000  0.133110  1.0  0.0278
  C  C326  1  0.861170  0.523930  0.111600  1.0  -0.153
  C  C327  1  0.923540  0.669940  0.987130  1.0  -0.1401
  C  C328  1  0.841780  0.681480  0.045510  1.0  0.0406
  C  C329  1  0.852060  0.629600  0.066960  1.0  -0.107
  C  C330  1  0.963240  0.743610  0.870820  1.0  0.7203
  C  C331  1  0.803830  0.714790  0.068070  1.0  -0.1275
  C  C332  1  0.873700  0.697460  0.000810  1.0  0.0311
  C  C333  1  0.852950  0.740990  0.971590  1.0  -0.1301
  C  C334  1  0.881700  0.755690  0.929350  1.0  -0.0424
  C  C335  1  0.931940  0.727390  0.916690  1.0  -0.1282
  C  C336  1  0.952900  0.683840  0.945640  1.0  -0.0789
  C  C337  1  0.715290  0.692830  0.815110  1.0  0.0825
  C  C338  1  0.764110  0.681720  0.815410  1.0  -0.1489
  C  C339  1  0.677830  0.673110  0.781390  1.0  -0.1261
  C  C340  1  0.724820  0.605210  0.828640  1.0  -0.1361
  C  C341  1  0.693530  0.589000  0.789010  1.0  -0.1658
  C  C342  1  0.672170  0.639960  0.770560  1.0  -0.044
  C  C343  1  0.690510  0.552600  0.776080  1.0  0.6721
  C  C344  1  0.718700  0.572330  0.818320  1.0  -0.016
  C  C345  1  0.704790  0.655870  0.810100  1.0  0.0638
  C  C346  1  0.815730  0.329440  0.149280  1.0  -0.092
  C  C347  1  0.840510  0.322270  0.208890  1.0  0.6854
  C  C348  1  0.804320  0.344280  0.183360  1.0  -0.1394
  C  C349  1  0.759000  0.382190  0.193530  1.0  -0.0491
  C  C350  1  0.781280  0.351850  0.125850  1.0  -0.1253
  C  C351  1  0.699970  0.411000  0.111000  1.0  -0.047
  C  C352  1  0.736500  0.387790  0.135930  1.0  0.0936
  C  C353  1  0.725380  0.404620  0.170340  1.0  -0.1821
  C  C354  1  0.457500  0.490340  0.176460  1.0  -0.1349
  C  C355  1  0.491510  0.455160  0.198420  1.0  -0.0438
  C  C356  1  0.473610  0.516040  0.133080  1.0  -0.0666
  C  C357  1  0.402680  0.500840  0.199890  1.0  0.7234
  C  C358  1  0.649370  0.429670  0.131790  1.0  -0.0867
  C  C359  1  0.542830  0.442750  0.176850  1.0  -0.1505
  C  C360  1  0.613240  0.449990  0.109830  1.0  -0.0143
  C  C361  1  0.559000  0.465730  0.133110  1.0  0.0266
  C  C362  1  0.523930  0.503300  0.111600  1.0  -0.1541
  C  C363  1  0.669940  0.419390  0.987130  1.0  -0.1388
  C  C364  1  0.681480  0.431230  0.045510  1.0  0.0402
  C  C365  1  0.629600  0.451380  0.066960  1.0  -0.1089
  C  C366  1  0.743610  0.422330  0.870820  1.0  0.7171
  C  C367  1  0.714790  0.413310  0.068070  1.0  -0.134
  C  C368  1  0.697460  0.428030  0.000810  1.0  0.0321
  C  C369  1  0.740990  0.434470  0.971590  1.0  -0.1307
  C  C370  1  0.755690  0.433260  0.929350  1.0  -0.0458
  C  C371  1  0.727390  0.423980  0.916690  1.0  -0.1256
  C  C372  1  0.683840  0.417620  0.945640  1.0  -0.0789
  C  C373  1  0.807170  0.784710  0.684890  1.0  0.0831
  C  C374  1  0.818280  0.735890  0.684590  1.0  -0.1432
  C  C375  1  0.826890  0.822170  0.718610  1.0  -0.1255
  C  C376  1  0.894790  0.775180  0.671360  1.0  -0.1358
  C  C377  1  0.911000  0.806470  0.710990  1.0  -0.1689
  C  C378  1  0.860040  0.827830  0.729440  1.0  -0.0495
  C  C379  1  0.947400  0.809490  0.723920  1.0  0.6724
  C  C380  1  0.927670  0.781300  0.681680  1.0  -0.0142
  C  C381  1  0.844130  0.795210  0.689900  1.0  0.0634
  C  C382  1  0.170560  0.684270  0.350720  1.0  -0.0907
  C  C383  1  0.177730  0.659490  0.291110  1.0  0.6846
  C  C384  1  0.155720  0.695680  0.316640  1.0  -0.1399
  C  C385  1  0.117810  0.741000  0.306470  1.0  -0.0473
  C  C386  1  0.148150  0.718720  0.374150  1.0  -0.1239
  C  C387  1  0.089000  0.800030  0.389000  1.0  -0.0469
  C  C388  1  0.112210  0.763500  0.364070  1.0  0.0934
  C  C389  1  0.095380  0.774620  0.329660  1.0  -0.1822
  C  C390  1  0.009660  0.042500  0.323540  1.0  -0.1365
  C  C391  1  0.044840  0.008490  0.301580  1.0  -0.0424
  C  C392  1  0.983960  0.026390  0.366920  1.0  -0.064
  C  C393  1  0.999160  0.097320  0.300110  1.0  0.7246
  C  C394  1  0.070330  0.850630  0.368210  1.0  -0.087
  C  C395  1  0.057250  0.957170  0.323150  1.0  -0.1486
  C  C396  1  0.050010  0.886760  0.390170  1.0  -0.013
  C  C397  1  0.034270  0.941000  0.366890  1.0  0.0281
  C  C398  1  0.996700  0.976070  0.388400  1.0  -0.1517
  C  C399  1  0.080610  0.830060  0.512870  1.0  -0.1387
  C  C400  1  0.068770  0.818520  0.454490  1.0  0.0394
  C  C401  1  0.048620  0.870400  0.433040  1.0  -0.108
  C  C402  1  0.077670  0.756390  0.629180  1.0  0.7217
  C  C403  1  0.086690  0.785210  0.431930  1.0  -0.1283
  C  C404  1  0.071970  0.802540  0.499190  1.0  0.032
  C  C405  1  0.065530  0.759010  0.528410  1.0  -0.1315
  C  C406  1  0.066740  0.744310  0.570650  1.0  -0.0446
  C  C407  1  0.076020  0.772610  0.583310  1.0  -0.1271
  C  C408  1  0.082380  0.816160  0.554360  1.0  -0.0807
  C  C409  1  0.723230  0.807170  0.684890  1.0  0.0807
  C  C410  1  0.761240  0.818280  0.684590  1.0  -0.1486
  C  C411  1  0.632330  0.826890  0.718610  1.0  -0.1262
  C  C412  1  0.658670  0.894790  0.671360  1.0  -0.137
  C  C413  1  0.571540  0.911000  0.710990  1.0  -0.1638
  C  C414  1  0.582690  0.860040  0.729440  1.0  -0.0424
  C  C415  1  0.519190  0.947400  0.723920  1.0  0.6719
  C  C416  1  0.609350  0.927670  0.681680  1.0  -0.0174
  C  C417  1  0.670760  0.844130  0.689900  1.0  0.0667
  C  C418  1  0.794450  0.170560  0.350720  1.0  -0.0951
  C  C419  1  0.871670  0.177730  0.291110  1.0  0.6797
  C  C420  1  0.831960  0.155720  0.316640  1.0  -0.1385
  C  C421  1  0.834720  0.117810  0.306470  1.0  -0.0488
  C  C422  1  0.758980  0.148150  0.374150  1.0  -0.1255
  C  C423  1  0.721970  0.089000  0.389000  1.0  -0.047
  C  C424  1  0.760220  0.112210  0.364070  1.0  0.0937
  C  C425  1  0.800340  0.095380  0.329660  1.0  -0.1819
  C  C426  1  0.624300  0.009660  0.323540  1.0  -0.1369
  C  C427  1  0.645090  0.044840  0.301580  1.0  -0.0428
  C  C428  1  0.622730  0.983960  0.366920  1.0  -0.063
  C  C429  1  0.603410  0.999160  0.300110  1.0  0.725
  C  C430  1  0.710830  0.070330  0.368210  1.0  -0.0879
  C  C431  1  0.662430  0.057250  0.323150  1.0  -0.1495
  C  C432  1  0.673060  0.050010  0.390170  1.0  -0.0127
  C  C433  1  0.657840  0.034270  0.366890  1.0  0.0266
  C  C434  1  0.638830  0.996700  0.388400  1.0  -0.1544
  C  C435  1  0.576460  0.080610  0.512870  1.0  -0.1388
  C  C436  1  0.658220  0.068770  0.454490  1.0  0.0392
  C  C437  1  0.647940  0.048620  0.433040  1.0  -0.1096
  C  C438  1  0.536760  0.077670  0.629180  1.0  0.7192
  C  C439  1  0.696170  0.086690  0.431930  1.0  -0.131
  C  C440  1  0.626300  0.071970  0.499190  1.0  0.0321
  C  C441  1  0.647050  0.065530  0.528410  1.0  -0.1299
  C  C442  1  0.618300  0.066740  0.570650  1.0  -0.0451
  C  C443  1  0.568060  0.076020  0.583310  1.0  -0.1266
  C  C444  1  0.547100  0.082380  0.554360  1.0  -0.0794
  C  C445  1  0.784710  0.723230  0.684890  1.0  0.0811
  C  C446  1  0.735890  0.761240  0.684590  1.0  -0.1489
  C  C447  1  0.822170  0.632330  0.718610  1.0  -0.1253
  C  C448  1  0.775180  0.658670  0.671360  1.0  -0.1385
  C  C449  1  0.806470  0.571540  0.710990  1.0  -0.1629
  C  C450  1  0.827830  0.582690  0.729440  1.0  -0.045
  C  C451  1  0.809490  0.519190  0.723920  1.0  0.6776
  C  C452  1  0.781300  0.609350  0.681680  1.0  -0.0154
  C  C453  1  0.795210  0.670760  0.689900  1.0  0.0605
  C  C454  1  0.684270  0.794450  0.350720  1.0  -0.0907
  C  C455  1  0.659490  0.871670  0.291110  1.0  0.6847
  C  C456  1  0.695680  0.831960  0.316640  1.0  -0.1373
  C  C457  1  0.741000  0.834720  0.306470  1.0  -0.047
  C  C458  1  0.718720  0.758980  0.374150  1.0  -0.1206
  C  C459  1  0.800030  0.721970  0.389000  1.0  -0.0473
  C  C460  1  0.763500  0.760220  0.364070  1.0  0.0933
  C  C461  1  0.774620  0.800340  0.329660  1.0  -0.1809
  C  C462  1  0.042500  0.624300  0.323540  1.0  -0.1348
  C  C463  1  0.008490  0.645090  0.301580  1.0  -0.0415
  C  C464  1  0.026390  0.622730  0.366920  1.0  -0.0662
  C  C465  1  0.097320  0.603410  0.300110  1.0  0.7205
  C  C466  1  0.850630  0.710830  0.368210  1.0  -0.0892
  C  C467  1  0.957170  0.662430  0.323150  1.0  -0.1497
  C  C468  1  0.886760  0.673060  0.390170  1.0  -0.0142
  C  C469  1  0.941000  0.657840  0.366890  1.0  0.0259
  C  C470  1  0.976070  0.638830  0.388400  1.0  -0.1538
  C  C471  1  0.830060  0.576460  0.512870  1.0  -0.1427
  C  C472  1  0.818520  0.658220  0.454490  1.0  0.0396
  C  C473  1  0.870400  0.647940  0.433040  1.0  -0.1076
  C  C474  1  0.756390  0.536760  0.629180  1.0  0.7197
  C  C475  1  0.785210  0.696170  0.431930  1.0  -0.1343
  C  C476  1  0.802540  0.626300  0.499190  1.0  0.0317
  C  C477  1  0.759010  0.647050  0.528410  1.0  -0.1293
  C  C478  1  0.744310  0.618300  0.570650  1.0  -0.045
  C  C479  1  0.772610  0.568060  0.583310  1.0  -0.1286
  C  C480  1  0.816160  0.547100  0.554360  1.0  -0.079
  C  C481  1  0.307170  0.223230  0.184890  1.0  0.0805
  C  C482  1  0.318280  0.261240  0.184590  1.0  -0.143
  C  C483  1  0.326890  0.132330  0.218610  1.0  -0.1292
  C  C484  1  0.394790  0.158670  0.171360  1.0  -0.1357
  C  C485  1  0.411000  0.071540  0.210990  1.0  -0.1664
  C  C486  1  0.360040  0.082690  0.229440  1.0  -0.046
  C  C487  1  0.447400  0.019190  0.223920  1.0  0.6712
  C  C488  1  0.427670  0.109350  0.181680  1.0  -0.0132
  C  C489  1  0.344130  0.170760  0.189900  1.0  0.0661
  C  C490  1  0.670560  0.294450  0.850720  1.0  -0.0916
  C  C491  1  0.677730  0.371670  0.791110  1.0  0.6828
  C  C492  1  0.655720  0.331960  0.816640  1.0  -0.139
  C  C493  1  0.617810  0.334720  0.806470  1.0  -0.0507
  C  C494  1  0.648150  0.258980  0.874150  1.0  -0.1248
  C  C495  1  0.589000  0.221970  0.889000  1.0  -0.0463
  C  C496  1  0.612210  0.260220  0.864070  1.0  0.0932
  C  C497  1  0.595380  0.300340  0.829660  1.0  -0.1817
  C  C498  1  0.509660  0.124300  0.823540  1.0  -0.1381
  C  C499  1  0.544840  0.145090  0.801580  1.0  -0.0408
  C  C500  1  0.483960  0.122730  0.866920  1.0  -0.0642
  C  C501  1  0.499160  0.103410  0.800110  1.0  0.7243
  C  C502  1  0.570330  0.210830  0.868210  1.0  -0.0867
  C  C503  1  0.557250  0.162430  0.823150  1.0  -0.1494
  C  C504  1  0.550010  0.173060  0.890170  1.0  -0.0139
  C  C505  1  0.534270  0.157840  0.866890  1.0  0.0265
  C  C506  1  0.496700  0.138830  0.888400  1.0  -0.1541
  C  C507  1  0.580610  0.076460  0.012870  1.0  -0.1417
  C  C508  1  0.568770  0.158220  0.954490  1.0  0.0389
  C  C509  1  0.548620  0.147940  0.933040  1.0  -0.1075
  C  C510  1  0.577670  0.036760  0.129180  1.0  0.7221
  C  C511  1  0.586690  0.196170  0.931930  1.0  -0.1308
  C  C512  1  0.571970  0.126300  0.999190  1.0  0.0323
  C  C513  1  0.565530  0.147050  0.028410  1.0  -0.1287
  C  C514  1  0.566740  0.118300  0.070650  1.0  -0.046
  C  C515  1  0.576020  0.068060  0.083310  1.0  -0.127
  C  C516  1  0.582380  0.047100  0.054360  1.0  -0.0793
  C  C517  1  0.223230  0.284710  0.184890  1.0  0.0817
  C  C518  1  0.261240  0.235890  0.184590  1.0  -0.1476
  C  C519  1  0.132330  0.322170  0.218610  1.0  -0.1288
  C  C520  1  0.158670  0.275180  0.171360  1.0  -0.1392
  C  C521  1  0.071540  0.306470  0.210990  1.0  -0.1655
  C  C522  1  0.082690  0.327830  0.229440  1.0  -0.0494
  C  C523  1  0.019190  0.309490  0.223920  1.0  0.6723
  C  C524  1  0.109350  0.281300  0.181680  1.0  -0.0174
  C  C525  1  0.170760  0.295210  0.189900  1.0  0.063
  C  C526  1  0.294450  0.184270  0.850720  1.0  -0.0884
  C  C527  1  0.371670  0.159490  0.791110  1.0  0.6831
  C  C528  1  0.331960  0.195680  0.816640  1.0  -0.1373
  C  C529  1  0.334720  0.241000  0.806470  1.0  -0.0438
  C  C530  1  0.258980  0.218720  0.874150  1.0  -0.1207
  C  C531  1  0.221970  0.300030  0.889000  1.0  -0.0472
  C  C532  1  0.260220  0.263500  0.864070  1.0  0.0931
  C  C533  1  0.300340  0.274620  0.829660  1.0  -0.1806
  C  C534  1  0.124300  0.542500  0.823540  1.0  -0.1358
  C  C535  1  0.145090  0.508490  0.801580  1.0  -0.0423
  C  C536  1  0.122730  0.526390  0.866920  1.0  -0.0663
  C  C537  1  0.103410  0.597320  0.800110  1.0  0.7243
  C  C538  1  0.210830  0.350630  0.868210  1.0  -0.0904
  C  C539  1  0.162430  0.457170  0.823150  1.0  -0.1495
  C  C540  1  0.173060  0.386760  0.890170  1.0  -0.0133
  C  C541  1  0.157840  0.441000  0.866890  1.0  0.0282
  C  C542  1  0.138830  0.476070  0.888400  1.0  -0.1527
  C  C543  1  0.076460  0.330060  0.012870  1.0  -0.1395
  C  C544  1  0.158220  0.318520  0.954490  1.0  0.04
  C  C545  1  0.147940  0.370400  0.933040  1.0  -0.108
  C  C546  1  0.036760  0.256390  0.129180  1.0  0.7209
  C  C547  1  0.196170  0.285210  0.931930  1.0  -0.1283
  C  C548  1  0.126300  0.302540  0.999190  1.0  0.0318
  C  C549  1  0.147050  0.259010  0.028410  1.0  -0.1302
  C  C550  1  0.118300  0.244310  0.070650  1.0  -0.0444
  C  C551  1  0.068060  0.272610  0.083310  1.0  -0.129
  C  C552  1  0.047100  0.316160  0.054360  1.0  -0.0806
  C  C553  1  0.284710  0.307170  0.184890  1.0  0.0816
  C  C554  1  0.235890  0.318280  0.184590  1.0  -0.1489
  C  C555  1  0.322170  0.326890  0.218610  1.0  -0.123
  C  C556  1  0.275180  0.394790  0.171360  1.0  -0.1367
  C  C557  1  0.306470  0.411000  0.210990  1.0  -0.1646
  C  C558  1  0.327830  0.360040  0.229440  1.0  -0.0463
  C  C559  1  0.309490  0.447400  0.223920  1.0  0.6731
  C  C560  1  0.281300  0.427670  0.181680  1.0  -0.0189
  C  C561  1  0.295210  0.344130  0.189900  1.0  0.0616
  C  C562  1  0.184270  0.670560  0.850720  1.0  -0.0947
  C  C563  1  0.159490  0.677730  0.791110  1.0  0.6857
  C  C564  1  0.195680  0.655720  0.816640  1.0  -0.1387
  C  C565  1  0.241000  0.617810  0.806470  1.0  -0.0481
  C  C566  1  0.218720  0.648150  0.874150  1.0  -0.1251
  C  C567  1  0.300030  0.589000  0.889000  1.0  -0.0476
  C  C568  1  0.263500  0.612210  0.864070  1.0  0.0934
  C  C569  1  0.274620  0.595380  0.829660  1.0  -0.182
  C  C570  1  0.542500  0.509660  0.823540  1.0  -0.1343
  C  C571  1  0.508490  0.544840  0.801580  1.0  -0.0446
  C  C572  1  0.526390  0.483960  0.866920  1.0  -0.065
  C  C573  1  0.597320  0.499160  0.800110  1.0  0.723
  C  C574  1  0.350630  0.570330  0.868210  1.0  -0.0868
  C  C575  1  0.457170  0.557250  0.823150  1.0  -0.1507
  C  C576  1  0.386760  0.550010  0.890170  1.0  -0.0143
  C  C577  1  0.441000  0.534270  0.866890  1.0  0.0262
  C  C578  1  0.476070  0.496700  0.888400  1.0  -0.1523
  C  C579  1  0.330060  0.580610  0.012870  1.0  -0.1365
  C  C580  1  0.318520  0.568770  0.954490  1.0  0.0397
  C  C581  1  0.370400  0.548620  0.933040  1.0  -0.1074
  C  C582  1  0.256390  0.577670  0.129180  1.0  0.7175
  C  C583  1  0.285210  0.586690  0.931930  1.0  -0.1329
  C  C584  1  0.302540  0.571970  0.999190  1.0  0.0317
  C  C585  1  0.259010  0.565530  0.028410  1.0  -0.1318
  C  C586  1  0.244310  0.566740  0.070650  1.0  -0.0459
  C  C587  1  0.272610  0.576020  0.083310  1.0  -0.1255
  C  C588  1  0.316160  0.582380  0.054360  1.0  -0.0789
  C  C589  1  0.192830  0.215290  0.315110  1.0  0.0825
  C  C590  1  0.181720  0.264110  0.315410  1.0  -0.1456
  C  C591  1  0.173110  0.177830  0.281390  1.0  -0.129
  C  C592  1  0.105210  0.224820  0.328640  1.0  -0.1345
  C  C593  1  0.089000  0.193530  0.289010  1.0  -0.1665
  C  C594  1  0.139960  0.172170  0.270560  1.0  -0.0468
  C  C595  1  0.052600  0.190510  0.276080  1.0  0.6716
  C  C596  1  0.072330  0.218700  0.318320  1.0  -0.0146
  C  C597  1  0.155870  0.204790  0.310100  1.0  0.0659
  C  C598  1  0.829440  0.315730  0.649280  1.0  -0.092
  C  C599  1  0.822270  0.340510  0.708890  1.0  0.6846
  C  C600  1  0.844280  0.304320  0.683360  1.0  -0.1391
  C  C601  1  0.882190  0.259000  0.693530  1.0  -0.0478
  C  C602  1  0.851850  0.281280  0.625850  1.0  -0.1248
  C  C603  1  0.911000  0.199970  0.611000  1.0  -0.0463
  C  C604  1  0.887790  0.236500  0.635930  1.0  0.094
  C  C605  1  0.904620  0.225380  0.670340  1.0  -0.1821
  C  C606  1  0.990340  0.957500  0.676460  1.0  -0.1366
  C  C607  1  0.955160  0.991510  0.698420  1.0  -0.0426
  C  C608  1  0.016040  0.973610  0.633080  1.0  -0.0656
  C  C609  1  0.000840  0.902680  0.699890  1.0  0.7231
  C  C610  1  0.929670  0.149370  0.631790  1.0  -0.084
  C  C611  1  0.942750  0.042830  0.676850  1.0  -0.1494
  C  C612  1  0.949990  0.113240  0.609830  1.0  -0.0129
  C  C613  1  0.965730  0.059000  0.633110  1.0  0.0283
  C  C614  1  0.003300  0.023930  0.611600  1.0  -0.153
  C  C615  1  0.919390  0.169940  0.487130  1.0  -0.1387
  C  C616  1  0.931230  0.181480  0.545510  1.0  0.0407
  C  C617  1  0.951380  0.129600  0.566960  1.0  -0.1075
  C  C618  1  0.922330  0.243610  0.370820  1.0  0.7212
  C  C619  1  0.913310  0.214790  0.568070  1.0  -0.1274
  C  C620  1  0.928030  0.197460  0.500810  1.0  0.0317
  C  C621  1  0.934470  0.240990  0.471590  1.0  -0.1306
  C  C622  1  0.933260  0.255690  0.429350  1.0  -0.043
  C  C623  1  0.923980  0.227390  0.416690  1.0  -0.1277
  C  C624  1  0.917620  0.183840  0.445640  1.0  -0.0793
  C  C625  1  0.276770  0.192830  0.315110  1.0  0.0821
  C  C626  1  0.238760  0.181720  0.315410  1.0  -0.1492
  C  C627  1  0.367670  0.173110  0.281390  1.0  -0.1273
  C  C628  1  0.341330  0.105210  0.328640  1.0  -0.1363
  C  C629  1  0.428460  0.089000  0.289010  1.0  -0.1607
  C  C630  1  0.417310  0.139960  0.270560  1.0  -0.0402
  C  C631  1  0.480810  0.052600  0.276080  1.0  0.6705
  C  C632  1  0.390650  0.072330  0.318320  1.0  -0.0159
  C  C633  1  0.329240  0.155870  0.310100  1.0  0.0709
  C  C634  1  0.205550  0.829440  0.649280  1.0  -0.0943
  C  C635  1  0.128330  0.822270  0.708890  1.0  0.6797
  C  C636  1  0.168040  0.844280  0.683360  1.0  -0.1406
  C  C637  1  0.165280  0.882190  0.693530  1.0  -0.0483
  C  C638  1  0.241020  0.851850  0.625850  1.0  -0.126
  C  C639  1  0.278030  0.911000  0.611000  1.0  -0.0476
  C  C640  1  0.239780  0.887790  0.635930  1.0  0.0932
  C  C641  1  0.199660  0.904620  0.670340  1.0  -0.1813
  C  C642  1  0.375700  0.990340  0.676460  1.0  -0.1366
  C  C643  1  0.354910  0.955160  0.698420  1.0  -0.0426
  C  C644  1  0.377270  0.016040  0.633080  1.0  -0.0624
  C  C645  1  0.396590  0.000840  0.699890  1.0  0.7251
  C  C646  1  0.289170  0.929670  0.631790  1.0  -0.0874
  C  C647  1  0.337570  0.942750  0.676850  1.0  -0.149
  C  C648  1  0.326940  0.949990  0.609830  1.0  -0.0123
  C  C649  1  0.342160  0.965730  0.633110  1.0  0.0272
  C  C650  1  0.361170  0.003300  0.611600  1.0  -0.1551
  C  C651  1  0.423540  0.919390  0.487130  1.0  -0.1382
  C  C652  1  0.341780  0.931230  0.545510  1.0  0.0404
  C  C653  1  0.352060  0.951380  0.566960  1.0  -0.1079
  C  C654  1  0.463240  0.922330  0.370820  1.0  0.717
  C  C655  1  0.303830  0.913310  0.568070  1.0  -0.1323
  C  C656  1  0.373700  0.928030  0.500810  1.0  0.0322
  C  C657  1  0.352950  0.934470  0.471590  1.0  -0.1297
  C  C658  1  0.381700  0.933260  0.429350  1.0  -0.0448
  C  C659  1  0.431940  0.923980  0.416690  1.0  -0.1269
  C  C660  1  0.452900  0.917620  0.445640  1.0  -0.078
  C  C661  1  0.215290  0.276770  0.315110  1.0  0.0821
  C  C662  1  0.264110  0.238760  0.315410  1.0  -0.147
  C  C663  1  0.177830  0.367670  0.281390  1.0  -0.1241
  C  C664  1  0.224820  0.341330  0.328640  1.0  -0.1381
  C  C665  1  0.193530  0.428460  0.289010  1.0  -0.1639
  C  C666  1  0.172170  0.417310  0.270560  1.0  -0.0465
  C  C667  1  0.190510  0.480810  0.276080  1.0  0.6777
  C  C668  1  0.218700  0.390650  0.318320  1.0  -0.0156
  C  C669  1  0.204790  0.329240  0.310100  1.0  0.0686
  C  C670  1  0.315730  0.205550  0.649280  1.0  -0.0884
  C  C671  1  0.340510  0.128330  0.708890  1.0  0.6831
  C  C672  1  0.304320  0.168040  0.683360  1.0  -0.1386
  C  C673  1  0.259000  0.165280  0.693530  1.0  -0.0456
  C  C674  1  0.281280  0.241020  0.625850  1.0  -0.121
  C  C675  1  0.199970  0.278030  0.611000  1.0  -0.047
  C  C676  1  0.236500  0.239780  0.635930  1.0  0.093
  C  C677  1  0.225380  0.199660  0.670340  1.0  -0.181
  C  C678  1  0.957500  0.375700  0.676460  1.0  -0.1355
  C  C679  1  0.991510  0.354910  0.698420  1.0  -0.0422
  C  C680  1  0.973610  0.377270  0.633080  1.0  -0.0674
  C  C681  1  0.902680  0.396590  0.699890  1.0  0.7214
  C  C682  1  0.149370  0.289170  0.631790  1.0  -0.0882
  C  C683  1  0.042830  0.337570  0.676850  1.0  -0.1507
  C  C684  1  0.113240  0.326940  0.609830  1.0  -0.014
  C  C685  1  0.059000  0.342160  0.633110  1.0  0.0266
  C  C686  1  0.023930  0.361170  0.611600  1.0  -0.1537
  C  C687  1  0.169940  0.423540  0.487130  1.0  -0.1429
  C  C688  1  0.181480  0.341780  0.545510  1.0  0.0406
  C  C689  1  0.129600  0.352060  0.566960  1.0  -0.108
  C  C690  1  0.243610  0.463240  0.370820  1.0  0.7203
  C  C691  1  0.214790  0.303830  0.568070  1.0  -0.1342
  C  C692  1  0.197460  0.373700  0.500810  1.0  0.0311
  C  C693  1  0.240990  0.352950  0.471590  1.0  -0.129
  C  C694  1  0.255690  0.381700  0.429350  1.0  -0.0456
  C  C695  1  0.227390  0.431940  0.416690  1.0  -0.1277
  C  C696  1  0.183840  0.452900  0.445640  1.0  -0.0819
  O  O697  1  0.507420  0.988830  0.799600  1.0  -0.6341
  O  O698  1  0.568460  0.011840  0.743590  1.0  -0.636
  O  O699  1  0.330780  0.598790  0.243750  1.0  -0.5069
  O  O700  1  0.295360  0.628320  0.190650  1.0  -0.5921
  O  O701  1  0.477280  0.893580  0.238020  1.0  -0.6783
  O  O702  1  0.534490  0.916050  0.176790  1.0  -0.5971
  O  O703  1  0.413620  0.009540  0.862180  1.0  -0.59
  O  O704  1  0.430070  0.942210  0.845380  1.0  -0.6577
  O  O705  1  0.410790  0.031250  0.769960  1.0  -0.826
  O  O706  1  0.988830  0.704150  0.799600  1.0  -0.6347
  O  O707  1  0.011840  0.676110  0.743590  1.0  -0.6347
  O  O708  1  0.598790  0.826680  0.243750  1.0  -0.5073
  O  O709  1  0.628320  0.885670  0.190650  1.0  -0.5917
  O  O710  1  0.893580  0.391120  0.238020  1.0  -0.6732
  O  O711  1  0.916050  0.372670  0.176790  1.0  -0.5971
  O  O712  1  0.009540  0.714660  0.862180  1.0  -0.5882
  O  O713  1  0.942210  0.782340  0.845380  1.0  -0.6528
  O  O714  1  0.031250  0.788000  0.769960  1.0  -0.8245
  O  O715  1  0.704150  0.507420  0.799600  1.0  -0.6355
  O  O716  1  0.676110  0.568460  0.743590  1.0  -0.6431
  O  O717  1  0.826680  0.330780  0.243750  1.0  -0.5077
  O  O718  1  0.885670  0.295360  0.190650  1.0  -0.5889
  O  O719  1  0.391120  0.477280  0.238020  1.0  -0.678
  O  O720  1  0.372670  0.534490  0.176790  1.0  -0.5989
  O  O721  1  0.714660  0.413620  0.862180  1.0  -0.5867
  O  O722  1  0.782340  0.430070  0.845380  1.0  -0.6529
  O  O723  1  0.788000  0.410790  0.769960  1.0  -0.8206
  O  O724  1  0.992580  0.795850  0.700400  1.0  -0.6347
  O  O725  1  0.931540  0.823890  0.756410  1.0  -0.6381
  O  O726  1  0.169220  0.673320  0.256250  1.0  -0.505
  O  O727  1  0.204640  0.614330  0.309350  1.0  -0.5919
  O  O728  1  0.022720  0.108880  0.261980  1.0  -0.6738
  O  O729  1  0.965510  0.127330  0.323210  1.0  -0.597
  O  O730  1  0.086380  0.785340  0.637820  1.0  -0.5879
  O  O731  1  0.069930  0.717660  0.654620  1.0  -0.6538
  O  O732  1  0.089210  0.712000  0.730040  1.0  -0.8217
  O  O733  1  0.511170  0.992580  0.700400  1.0  -0.6368
  O  O734  1  0.488160  0.931540  0.756410  1.0  -0.6402
  O  O735  1  0.901210  0.169220  0.256250  1.0  -0.5068
  O  O736  1  0.871680  0.204640  0.309350  1.0  -0.5927
  O  O737  1  0.606420  0.022720  0.261980  1.0  -0.677
  O  O738  1  0.583950  0.965510  0.323210  1.0  -0.5984
  O  O739  1  0.490460  0.086380  0.637820  1.0  -0.5861
  O  O740  1  0.557790  0.069930  0.654620  1.0  -0.6525
  O  O741  1  0.468750  0.089210  0.730040  1.0  -0.8218
  O  O742  1  0.795850  0.511170  0.700400  1.0  -0.6353
  O  O743  1  0.823890  0.488160  0.756410  1.0  -0.6397
  O  O744  1  0.673320  0.901210  0.256250  1.0  -0.5111
  O  O745  1  0.614330  0.871680  0.309350  1.0  -0.5917
  O  O746  1  0.108880  0.606420  0.261980  1.0  -0.6761
  O  O747  1  0.127330  0.583950  0.323210  1.0  -0.5983
  O  O748  1  0.785340  0.490460  0.637820  1.0  -0.5869
  O  O749  1  0.717660  0.557790  0.654620  1.0  -0.6528
  O  O750  1  0.712000  0.468750  0.730040  1.0  -0.8242
  O  O751  1  0.492580  0.011170  0.200400  1.0  -0.6361
  O  O752  1  0.431540  0.988160  0.256410  1.0  -0.6411
  O  O753  1  0.669220  0.401210  0.756250  1.0  -0.5086
  O  O754  1  0.704640  0.371680  0.809350  1.0  -0.5908
  O  O755  1  0.522720  0.106420  0.761980  1.0  -0.6755
  O  O756  1  0.465510  0.083950  0.823210  1.0  -0.5963
  O  O757  1  0.586380  0.990460  0.137820  1.0  -0.5897
  O  O758  1  0.569930  0.057790  0.154620  1.0  -0.6551
  O  O759  1  0.589210  0.968750  0.230040  1.0  -0.8256
  O  O760  1  0.011170  0.295850  0.200400  1.0  -0.6334
  O  O761  1  0.988160  0.323890  0.256410  1.0  -0.6378
  O  O762  1  0.401210  0.173320  0.756250  1.0  -0.5088
  O  O763  1  0.371680  0.114330  0.809350  1.0  -0.5923
  O  O764  1  0.106420  0.608880  0.761980  1.0  -0.6733
  O  O765  1  0.083950  0.627330  0.823210  1.0  -0.598
  O  O766  1  0.990460  0.285340  0.137820  1.0  -0.5869
  O  O767  1  0.057790  0.217660  0.154620  1.0  -0.6513
  O  O768  1  0.968750  0.212000  0.230040  1.0  -0.8237
  O  O769  1  0.295850  0.492580  0.200400  1.0  -0.6356
  O  O770  1  0.323890  0.431540  0.256410  1.0  -0.6389
  O  O771  1  0.173320  0.669220  0.756250  1.0  -0.5065
  O  O772  1  0.114330  0.704640  0.809350  1.0  -0.5901
  O  O773  1  0.608880  0.522720  0.761980  1.0  -0.6772
  O  O774  1  0.627330  0.465510  0.823210  1.0  -0.6007
  O  O775  1  0.285340  0.586380  0.137820  1.0  -0.5889
  O  O776  1  0.217660  0.569930  0.154620  1.0  -0.6524
  O  O777  1  0.212000  0.589210  0.230040  1.0  -0.8249
  O  O778  1  0.007420  0.204150  0.299600  1.0  -0.635
  O  O779  1  0.068460  0.176110  0.243590  1.0  -0.6345
  O  O780  1  0.830780  0.326680  0.743750  1.0  -0.5049
  O  O781  1  0.795360  0.385670  0.690650  1.0  -0.5914
  O  O782  1  0.977280  0.891120  0.738020  1.0  -0.6742
  O  O783  1  0.034490  0.872670  0.676790  1.0  -0.5977
  O  O784  1  0.913620  0.214660  0.362180  1.0  -0.5892
  O  O785  1  0.930070  0.282340  0.345380  1.0  -0.6555
  O  O786  1  0.910790  0.288000  0.269960  1.0  -0.8252
  O  O787  1  0.488830  0.007420  0.299600  1.0  -0.6358
  O  O788  1  0.511840  0.068460  0.243590  1.0  -0.6371
  O  O789  1  0.098790  0.830780  0.743750  1.0  -0.505
  O  O790  1  0.128320  0.795360  0.690650  1.0  -0.5937
  O  O791  1  0.393580  0.977280  0.738020  1.0  -0.6804
  O  O792  1  0.416050  0.034490  0.676790  1.0  -0.5983
  O  O793  1  0.509540  0.913620  0.362180  1.0  -0.588
  O  O794  1  0.442210  0.930070  0.345380  1.0  -0.656
  O  O795  1  0.531250  0.910790  0.269960  1.0  -0.8218
  O  O796  1  0.204150  0.488830  0.299600  1.0  -0.6367
  O  O797  1  0.176110  0.511840  0.243590  1.0  -0.6425
  O  O798  1  0.326680  0.098790  0.743750  1.0  -0.5071
  O  O799  1  0.385670  0.128320  0.690650  1.0  -0.5921
  O  O800  1  0.891120  0.393580  0.738020  1.0  -0.675
  O  O801  1  0.872670  0.416050  0.676790  1.0  -0.5977
  O  O802  1  0.214660  0.509540  0.362180  1.0  -0.5878
  O  O803  1  0.282340  0.442210  0.345380  1.0  -0.6512
  O  O804  1  0.288000  0.531250  0.269960  1.0  -0.8246
