# generated using pymatgen
data_Cd7H184C176(N2O15)4
_symmetry_space_group_name_H-M   'P 1'
_cell_length_a   22.18000000
_cell_length_b   22.18000000
_cell_length_c   26.88230000
_cell_angle_alpha   114.36400000
_cell_angle_beta   114.36400000
_cell_angle_gamma   90.00010000
_symmetry_Int_Tables_number   1
_chemical_formula_structural   Cd7H184C176(N2O15)4
_chemical_formula_sum   'Cd14 H368 C352 N16 O120'
_cell_volume   10740.90750550
_cell_formula_units_Z   2
loop_
 _symmetry_equiv_pos_site_id
 _symmetry_equiv_pos_as_xyz
  1  'x, y, z'
loop_
 _atom_site_type_symbol
 _atom_site_label
 _atom_site_symmetry_multiplicity
 _atom_site_fract_x
 _atom_site_fract_y
 _atom_site_fract_z
 _atom_site_occupancy
 _atom_site_charge
  Cd  Cd1  1  0.443360  0.945470  0.149830  1.0  1.0438
  Cd  Cd2  1  0.706470  0.204360  0.149830  1.0  1.0437
  Cd  Cd3  1  0.054530  0.293530  0.850170  1.0  1.0438
  Cd  Cd4  1  0.795640  0.556640  0.850170  1.0  1.0433
  Cd  Cd5  1  0.543530  0.804530  0.350170  1.0  1.044
  Cd  Cd6  1  0.806640  0.545640  0.350170  1.0  1.0441
  Cd  Cd7  1  0.454360  0.456470  0.649830  1.0  1.043
  Cd  Cd8  1  0.195470  0.193360  0.649830  1.0  1.0428
  Cd  Cd9  1  0.492850  0.875000  0.250000  1.0  1.1152
  Cd  Cd10  1  0.757150  0.375000  0.250000  1.0  1.115
  Cd  Cd11  1  0.125000  0.242850  0.750000  1.0  1.1163
  Cd  Cd12  1  0.625000  0.507150  0.750000  1.0  1.1157
  Cd  Cd13  1  0.000000  0.000000  0.000000  1.0  0.979
  Cd  Cd14  1  0.250000  0.750000  0.500000  1.0  0.9794
  H  H15  1  0.631700  0.125200  0.337800  1.0  0.1071
  H  H16  1  0.738100  0.166700  0.421600  1.0  0.1083
  H  H17  1  0.659500  0.935200  0.300000  1.0  0.1038
  H  H18  1  0.875700  0.122100  0.414800  1.0  0.105
  H  H19  1  0.985800  0.161200  0.494600  1.0  0.0878
  H  H20  1  0.923000  0.133000  0.603200  1.0  0.1115
  H  H21  1  0.761700  0.884800  0.413600  1.0  0.114
  H  H22  1  0.748500  0.863100  0.346000  1.0  0.1369
  H  H23  1  0.695300  0.894600  0.367800  1.0  0.0988
  H  H24  1  0.849200  0.106600  0.619600  1.0  0.111
  H  H25  1  0.857900  0.035900  0.578600  1.0  0.0797
  H  H26  1  0.789500  0.043800  0.582600  1.0  0.0997
  H  H27  1  0.333800  0.814100  0.194000  1.0  0.149
  H  H28  1  0.201000  0.629000  0.163600  1.0  0.1026
  H  H29  1  0.317500  0.661600  0.236400  1.0  0.0961
  H  H30  1  0.101200  0.757300  0.111600  1.0  0.0876
  H  H31  1  0.989500  0.725300  0.036200  1.0  0.1179
  H  H32  1  0.024600  0.536200  0.961600  1.0  0.1162
  H  H33  1  0.256700  0.873300  0.145200  1.0  0.0989
  H  H34  1  0.231400  0.842300  0.074200  1.0  0.1366
  H  H35  1  0.296400  0.825100  0.114800  1.0  0.0872
  H  H36  1  0.125100  0.466600  0.032000  1.0  0.1274
  H  H37  1  0.164500  0.463300  0.994400  1.0  0.1312
  H  H38  1  0.088100  0.468100  0.968800  1.0  0.12
  H  H39  1  0.706100  0.212600  0.337800  1.0  0.1061
  H  H40  1  0.683500  0.254900  0.421600  1.0  0.1083
  H  H41  1  0.640500  0.364800  0.300000  1.0  0.1042
  H  H42  1  0.539100  0.292700  0.414800  1.0  0.1035
  H  H43  1  0.508800  0.333400  0.494600  1.0  0.0879
  H  H44  1  0.680200  0.470200  0.603200  1.0  0.1107
  H  H45  1  0.651900  0.528800  0.413600  1.0  0.1137
  H  H46  1  0.597500  0.482900  0.346000  1.0  0.1394
  H  H47  1  0.672500  0.473200  0.367800  1.0  0.099
  H  H48  1  0.770400  0.513000  0.619600  1.0  0.1089
  H  H49  1  0.720700  0.542700  0.578600  1.0  0.0791
  H  H50  1  0.793100  0.538800  0.582600  1.0  0.1003
  H  H51  1  0.860200  0.379900  0.194000  1.0  0.1484
  H  H52  1  0.962600  0.534600  0.163600  1.0  0.1035
  H  H53  1  0.918900  0.574800  0.236400  1.0  0.0964
  H  H54  1  0.010400  0.354300  0.111600  1.0  0.0874
  H  H55  1  0.046700  0.310900  0.036200  1.0  0.1187
  H  H56  1  0.937000  0.425400  0.961600  1.0  0.1163
  H  H57  1  0.888500  0.271900  0.145200  1.0  0.0957
  H  H58  1  0.842800  0.231900  0.074200  1.0  0.1394
  H  H59  1  0.818400  0.289700  0.114800  1.0  0.0856
  H  H60  1  0.906900  0.565400  0.032000  1.0  0.1293
  H  H61  1  0.829900  0.531100  0.994400  1.0  0.1312
  H  H62  1  0.880700  0.500700  0.968800  1.0  0.1199
  H  H63  1  0.874800  0.293900  0.662200  1.0  0.1078
  H  H64  1  0.833300  0.316500  0.578400  1.0  0.109
  H  H65  1  0.064800  0.359500  0.700000  1.0  0.1039
  H  H66  1  0.877900  0.460900  0.585200  1.0  0.1046
  H  H67  1  0.838800  0.491200  0.505400  1.0  0.0889
  H  H68  1  0.867000  0.319800  0.396800  1.0  0.1108
  H  H69  1  0.115200  0.348100  0.586400  1.0  0.1115
  H  H70  1  0.136900  0.402500  0.654000  1.0  0.1392
  H  H71  1  0.105400  0.327500  0.632200  1.0  0.0975
  H  H72  1  0.893400  0.229600  0.380400  1.0  0.1105
  H  H73  1  0.964100  0.279300  0.421400  1.0  0.0812
  H  H74  1  0.956200  0.206900  0.417400  1.0  0.1018
  H  H75  1  0.185900  0.139800  0.806000  1.0  0.1475
  H  H76  1  0.371000  0.037400  0.836400  1.0  0.1031
  H  H77  1  0.338400  0.081100  0.763600  1.0  0.0968
  H  H78  1  0.242700  0.989600  0.888400  1.0  0.0876
  H  H79  1  0.274700  0.953300  0.963800  1.0  0.1193
  H  H80  1  0.463800  0.063000  0.038400  1.0  0.1155
  H  H81  1  0.126700  0.111500  0.854800  1.0  0.0991
  H  H82  1  0.157700  0.157200  0.925800  1.0  0.1378
  H  H83  1  0.174900  0.181600  0.885200  1.0  0.0877
  H  H84  1  0.533400  0.093100  0.968000  1.0  0.1275
  H  H85  1  0.536700  0.170100  0.005600  1.0  0.1298
  H  H86  1  0.531900  0.119300  0.031200  1.0  0.1217
  H  H87  1  0.787400  0.368300  0.662200  1.0  0.106
  H  H88  1  0.745100  0.261900  0.578400  1.0  0.1075
  H  H89  1  0.635200  0.340500  0.700000  1.0  0.1051
  H  H90  1  0.707300  0.124300  0.585200  1.0  0.103
  H  H91  1  0.666667  0.014200  0.505400  1.0  0.0888
  H  H92  1  0.529800  0.077000  0.396800  1.0  0.1105
  H  H93  1  0.471200  0.238300  0.586400  1.0  0.1142
  H  H94  1  0.517100  0.251500  0.654000  1.0  0.1342
  H  H95  1  0.526800  0.304700  0.632200  1.0  0.1017
  H  H96  1  0.487000  0.150800  0.380400  1.0  0.1089
  H  H97  1  0.457300  0.142100  0.421400  1.0  0.0798
  H  H98  1  0.461200  0.210500  0.417400  1.0  0.1022
  H  H99  1  0.620100  0.666200  0.806000  1.0  0.1468
  H  H100  1  0.465400  0.799000  0.836400  1.0  0.1039
  H  H101  1  0.425200  0.682500  0.763600  1.0  0.0963
  H  H102  1  0.645700  0.898800  0.888400  1.0  0.0893
  H  H103  1  0.689100  0.010500  0.963800  1.0  0.1176
  H  H104  1  0.574600  0.975400  0.038400  1.0  0.1151
  H  H105  1  0.728100  0.743300  0.854800  1.0  0.1007
  H  H106  1  0.768100  0.768600  0.925800  1.0  0.1377
  H  H107  1  0.710300  0.703600  0.885200  1.0  0.087
  H  H108  1  0.434600  0.874900  0.968000  1.0  0.1286
  H  H109  1  0.468900  0.835500  0.005600  1.0  0.1284
  H  H110  1  0.499300  0.911900  0.031200  1.0  0.121
  H  H111  1  0.543900  0.624800  0.162200  1.0  0.1078
  H  H112  1  0.566500  0.583300  0.078400  1.0  0.1088
  H  H113  1  0.609500  0.814800  0.200000  1.0  0.1043
  H  H114  1  0.710900  0.627900  0.085200  1.0  0.1048
  H  H115  1  0.741200  0.588800  0.005400  1.0  0.0882
  H  H116  1  0.569800  0.617000  0.896800  1.0  0.1105
  H  H117  1  0.598100  0.865200  0.086400  1.0  0.1146
  H  H118  1  0.652500  0.886900  0.154000  1.0  0.139
  H  H119  1  0.577500  0.855400  0.132200  1.0  0.0975
  H  H120  1  0.479600  0.643400  0.880400  1.0  0.1107
  H  H121  1  0.529300  0.714100  0.921400  1.0  0.0807
  H  H122  1  0.456900  0.706200  0.917400  1.0  0.1011
  H  H123  1  0.389800  0.935900  0.306000  1.0  0.1471
  H  H124  1  0.287400  0.121000  0.336400  1.0  0.1028
  H  H125  1  0.331100  0.088400  0.263600  1.0  0.0968
  H  H126  1  0.239600  0.992700  0.388400  1.0  0.0874
  H  H127  1  0.203300  0.024700  0.463800  1.0  0.1193
  H  H128  1  0.313000  0.213800  0.538400  1.0  0.1154
  H  H129  1  0.361500  0.876700  0.354800  1.0  0.1003
  H  H130  1  0.407200  0.907700  0.425800  1.0  0.1381
  H  H131  1  0.431600  0.924900  0.385200  1.0  0.0855
  H  H132  1  0.343100  0.283400  0.468000  1.0  0.1282
  H  H133  1  0.420100  0.286700  0.505600  1.0  0.1309
  H  H134  1  0.369300  0.281900  0.531200  1.0  0.1207
  H  H135  1  0.618300  0.537400  0.162200  1.0  0.1062
  H  H136  1  0.511900  0.495100  0.078400  1.0  0.108
  H  H137  1  0.590500  0.385200  0.200000  1.0  0.1048
  H  H138  1  0.374300  0.457300  0.085200  1.0  0.1045
  H  H139  1  0.264200  0.416600  0.005400  1.0  0.0885
  H  H140  1  0.327000  0.279800  0.896800  1.0  0.1109
  H  H141  1  0.488300  0.221200  0.086400  1.0  0.1143
  H  H142  1  0.501500  0.267100  0.154000  1.0  0.1357
  H  H143  1  0.554700  0.276800  0.132200  1.0  0.1008
  H  H144  1  0.400800  0.237000  0.880400  1.0  0.1094
  H  H145  1  0.392100  0.207300  0.921400  1.0  0.0795
  H  H146  1  0.460500  0.211200  0.917400  1.0  0.1028
  H  H147  1  0.916200  0.370100  0.306000  1.0  0.1481
  H  H148  1  0.049000  0.215400  0.336400  1.0  0.1041
  H  H149  1  0.932500  0.175200  0.263600  1.0  0.0966
  H  H150  1  0.148800  0.395700  0.388400  1.0  0.0893
  H  H151  1  0.260500  0.439100  0.463800  1.0  0.1184
  H  H152  1  0.225400  0.324600  0.538400  1.0  0.1159
  H  H153  1  0.993300  0.478100  0.354800  1.0  0.0975
  H  H154  1  0.018600  0.518100  0.425800  1.0  0.1385
  H  H155  1  0.953600  0.460300  0.385200  1.0  0.0834
  H  H156  1  0.124900  0.184600  0.468000  1.0  0.1296
  H  H157  1  0.085500  0.218900  0.505600  1.0  0.1277
  H  H158  1  0.161900  0.249300  0.531200  1.0  0.119
  H  H159  1  0.462600  0.456100  0.837800  1.0  0.1065
  H  H160  1  0.504900  0.433500  0.921600  1.0  0.108
  H  H161  1  0.614800  0.390500  0.800000  1.0  0.1034
  H  H162  1  0.542700  0.289100  0.914800  1.0  0.1037
  H  H163  1  0.583400  0.258800  0.994600  1.0  0.088
  H  H164  1  0.720200  0.430200  0.103200  1.0  0.1111
  H  H165  1  0.778800  0.401900  0.913600  1.0  0.1117
  H  H166  1  0.732900  0.347500  0.846000  1.0  0.14
  H  H167  1  0.723200  0.422500  0.867800  1.0  0.0989
  H  H168  1  0.763000  0.520400  0.119600  1.0  0.108
  H  H169  1  0.792700  0.470700  0.078600  1.0  0.0798
  H  H170  1  0.788800  0.543100  0.082600  1.0  0.1013
  H  H171  1  0.629900  0.610200  0.694000  1.0  0.1487
  H  H172  1  0.784600  0.712600  0.663600  1.0  0.1029
  H  H173  1  0.824800  0.668900  0.736400  1.0  0.097
  H  H174  1  0.604300  0.760400  0.611600  1.0  0.0877
  H  H175  1  0.560900  0.796700  0.536200  1.0  0.1191
  H  H176  1  0.675400  0.687000  0.461600  1.0  0.1162
  H  H177  1  0.521900  0.638500  0.645200  1.0  0.0974
  H  H178  1  0.481900  0.592800  0.574200  1.0  0.1362
  H  H179  1  0.539700  0.568400  0.614800  1.0  0.0844
  H  H180  1  0.815400  0.656900  0.532000  1.0  0.1288
  H  H181  1  0.781100  0.579900  0.494400  1.0  0.1308
  H  H182  1  0.750700  0.630700  0.468800  1.0  0.1207
  H  H183  1  0.375200  0.381700  0.837800  1.0  0.1067
  H  H184  1  0.416700  0.488100  0.921600  1.0  0.1067
  H  H185  1  0.185200  0.409500  0.800000  1.0  0.1043
  H  H186  1  0.372100  0.625700  0.914800  1.0  0.1049
  H  H187  1  0.411200  0.735800  0.994600  1.0  0.089
  H  H188  1  0.383000  0.673000  0.103200  1.0  0.1119
  H  H189  1  0.134800  0.511700  0.913600  1.0  0.1118
  H  H190  1  0.113100  0.498500  0.846000  1.0  0.1359
  H  H191  1  0.144600  0.445300  0.867800  1.0  0.0996
  H  H192  1  0.356600  0.599200  0.119600  1.0  0.1087
  H  H193  1  0.285900  0.607900  0.078600  1.0  0.0785
  H  H194  1  0.293800  0.539500  0.082600  1.0  0.1008
  H  H195  1  0.064100  0.083800  0.694000  1.0  0.1485
  H  H196  1  0.879000  0.951000  0.663600  1.0  0.1034
  H  H197  1  0.911600  0.067500  0.736400  1.0  0.0962
  H  H198  1  0.007300  0.851200  0.611600  1.0  0.0872
  H  H199  1  0.975300  0.739500  0.536200  1.0  0.118
  H  H200  1  0.786200  0.774600  0.461600  1.0  0.1157
  H  H201  1  0.123300  0.006700  0.645200  1.0  0.0951
  H  H202  1  0.092300  0.981400  0.574200  1.0  0.1376
  H  H203  1  0.075100  0.046400  0.614800  1.0  0.0891
  H  H204  1  0.716600  0.875100  0.532000  1.0  0.1276
  H  H205  1  0.713300  0.914500  0.494400  1.0  0.1284
  H  H206  1  0.718100  0.838100  0.468800  1.0  0.1212
  H  H207  1  0.180600  0.970600  0.173400  1.0  0.0955
  H  H208  1  0.216900  0.933600  0.249400  1.0  0.1012
  H  H209  1  0.989900  0.878800  0.109800  1.0  0.1123
  H  H210  1  0.934000  0.863100  0.183000  1.0  0.1117
  H  H211  1  0.922900  0.784600  0.159400  1.0  0.1014
  H  H212  1  0.928400  0.815900  0.118400  1.0  0.0986
  H  H213  1  0.992800  0.202800  0.173400  1.0  0.0961
  H  H214  1  0.032500  0.315800  0.249400  1.0  0.1007
  H  H215  1  0.119900  0.231000  0.109800  1.0  0.115
  H  H216  1  0.249000  0.319900  0.183000  1.0  0.1099
  H  H217  1  0.236500  0.374800  0.159400  1.0  0.1023
  H  H218  1  0.190000  0.302500  0.118400  1.0  0.0987
  H  H219  1  0.029400  0.007200  0.826600  1.0  0.0968
  H  H220  1  0.066400  0.967500  0.750600  1.0  0.1009
  H  H221  1  0.121200  0.880100  0.890200  1.0  0.1145
  H  H222  1  0.136900  0.751000  0.817000  1.0  0.1112
  H  H223  1  0.215400  0.763500  0.840600  1.0  0.1028
  H  H224  1  0.184100  0.810000  0.881600  1.0  0.102
  H  H225  1  0.797200  0.819400  0.826600  1.0  0.0963
  H  H226  1  0.684200  0.783100  0.750600  1.0  0.101
  H  H227  1  0.769000  0.010100  0.890200  1.0  0.1124
  H  H228  1  0.680100  0.066000  0.817000  1.0  0.1084
  H  H229  1  0.625200  0.077100  0.840600  1.0  0.1015
  H  H230  1  0.697500  0.071600  0.881600  1.0  0.0987
  H  H231  1  0.257200  0.779400  0.326600  1.0  0.0966
  H  H232  1  0.217500  0.816400  0.250600  1.0  0.1008
  H  H233  1  0.130100  0.871200  0.390200  1.0  0.1141
  H  H234  1  0.001000  0.886900  0.317000  1.0  0.1117
  H  H235  1  0.013500  0.965400  0.340600  1.0  0.1036
  H  H236  1  0.060000  0.934100  0.381600  1.0  0.1005
  H  H237  1  0.069400  0.547200  0.326600  1.0  0.0964
  H  H238  1  0.033100  0.434200  0.250600  1.0  0.1011
  H  H239  1  0.260100  0.519000  0.390200  1.0  0.1131
  H  H240  1  0.316000  0.430100  0.317000  1.0  0.111
  H  H241  1  0.327100  0.375200  0.340600  1.0  0.1018
  H  H242  1  0.321600  0.447500  0.381600  1.0  0.0998
  H  H243  1  0.452800  0.742800  0.673400  1.0  0.096
  H  H244  1  0.565800  0.782500  0.749400  1.0  0.1007
  H  H245  1  0.481000  0.869900  0.609800  1.0  0.1139
  H  H246  1  0.569900  0.999000  0.683000  1.0  0.1108
  H  H247  1  0.624800  0.986500  0.659400  1.0  0.1018
  H  H248  1  0.552500  0.940000  0.618400  1.0  0.0977
  H  H249  1  0.220600  0.930600  0.673400  1.0  0.0954
  H  H250  1  0.183600  0.966900  0.749400  1.0  0.1008
  H  H251  1  0.128800  0.739900  0.609800  1.0  0.1124
  H  H252  1  0.113100  0.684000  0.683000  1.0  0.1097
  H  H253  1  0.034600  0.672900  0.659400  1.0  0.1006
  H  H254  1  0.065900  0.678400  0.618400  1.0  0.0994
  H  H255  1  0.385000  0.136900  0.181800  1.0  0.1155
  H  H256  1  0.376200  0.209500  0.188200  1.0  0.105
  H  H257  1  0.344300  0.177000  0.216000  1.0  0.1038
  H  H258  1  0.461300  0.310700  0.323800  1.0  0.1024
  H  H259  1  0.432900  0.263800  0.343000  1.0  0.1032
  H  H260  1  0.384600  0.275600  0.287200  1.0  0.1062
  H  H261  1  0.479700  0.223900  0.261400  1.0  0.1895
  H  H262  1  0.456500  0.180800  0.281800  1.0  0.1903
  H  H263  1  0.235500  0.163700  0.171800  1.0  0.1012
  H  H264  1  0.176400  0.102800  0.144000  1.0  0.1033
  H  H265  1  0.250600  0.101100  0.184600  1.0  0.106
  H  H266  1  0.233400  0.260700  0.306000  1.0  0.0948
  H  H267  1  0.231000  0.259600  0.246600  1.0  0.106
  H  H268  1  0.292500  0.240400  0.289000  1.0  0.0978
  H  H269  1  0.162900  0.161400  0.225200  1.0  0.1654
  H  H270  1  0.223200  0.142100  0.259400  1.0  0.2087
  H  H271  1  0.796800  0.044900  0.181800  1.0  0.1129
  H  H272  1  0.812000  0.978700  0.188200  1.0  0.1024
  H  H273  1  0.871700  0.039000  0.216000  1.0  0.104
  H  H274  1  0.862500  0.013100  0.323800  1.0  0.1029
  H  H275  1  0.910100  0.079200  0.343000  1.0  0.1043
  H  H276  1  0.902600  0.011600  0.287200  1.0  0.107
  H  H277  1  0.781700  0.037500  0.261400  1.0  0.2009
  H  H278  1  0.825300  0.101000  0.281800  1.0  0.1934
  H  H279  1  0.936300  0.008100  0.171800  1.0  0.1042
  H  H280  1  0.967600  0.041200  0.144000  1.0  0.1053
  H  H281  1  0.934000  0.083500  0.184600  1.0  0.1067
  H  H282  1  0.072600  0.045300  0.306000  1.0  0.0974
  H  H283  1  0.015600  0.987000  0.246600  1.0  0.1079
  H  H284  1  0.996500  0.048600  0.289000  1.0  0.0971
  H  H285  1  0.062300  0.063800  0.225200  1.0  0.155
  H  H286  1  0.036200  0.117300  0.259400  1.0  0.2136
  H  H287  1  0.863100  0.203200  0.818200  1.0  0.1122
  H  H288  1  0.790500  0.188000  0.811800  1.0  0.1052
  H  H289  1  0.823000  0.128300  0.784000  1.0  0.1034
  H  H290  1  0.689300  0.137500  0.676200  1.0  0.1023
  H  H291  1  0.736200  0.089900  0.657000  1.0  0.1037
  H  H292  1  0.724400  0.097400  0.712800  1.0  0.1067
  H  H293  1  0.776100  0.218300  0.738600  1.0  0.1981
  H  H294  1  0.819200  0.174700  0.718200  1.0  0.1896
  H  H295  1  0.836300  0.063700  0.828200  1.0  0.1002
  H  H296  1  0.897200  0.032400  0.856000  1.0  0.1041
  H  H297  1  0.898900  0.066000  0.815400  1.0  0.1047
  H  H298  1  0.739300  0.927400  0.694000  1.0  0.0965
  H  H299  1  0.740400  0.984400  0.753400  1.0  0.1057
  H  H300  1  0.759600  0.003500  0.711000  1.0  0.0989
  H  H301  1  0.838600  0.937700  0.774800  1.0  0.1739
  H  H302  1  0.857900  0.963800  0.740600  1.0  0.2086
  H  H303  1  0.955100  0.615000  0.818200  1.0  0.1178
  H  H304  1  0.021300  0.623800  0.811800  1.0  0.1026
  H  H305  1  0.961000  0.655700  0.784000  1.0  0.1061
  H  H306  1  0.986900  0.538700  0.676200  1.0  0.104
  H  H307  1  0.920800  0.567100  0.657000  1.0  0.1023
  H  H308  1  0.988400  0.615400  0.712800  1.0  0.1064
  H  H309  1  0.962500  0.520300  0.738600  1.0  0.1959
  H  H310  1  0.899000  0.543500  0.718200  1.0  0.1826
  H  H311  1  0.991900  0.764500  0.828200  1.0  0.1059
  H  H312  1  0.958800  0.823600  0.856000  1.0  0.1071
  H  H313  1  0.916500  0.749400  0.815400  1.0  0.1062
  H  H314  1  0.954700  0.766600  0.694000  1.0  0.096
  H  H315  1  0.013000  0.769000  0.753400  1.0  0.1088
  H  H316  1  0.951400  0.707500  0.711000  1.0  0.1
  H  H317  1  0.936200  0.837100  0.774800  1.0  0.1794
  H  H318  1  0.882700  0.776800  0.740600  1.0  0.2041
  H  H319  1  0.453200  0.613100  0.318200  1.0  0.115
  H  H320  1  0.438000  0.540500  0.311800  1.0  0.1049
  H  H321  1  0.378300  0.573000  0.284000  1.0  0.1055
  H  H322  1  0.387500  0.439300  0.176200  1.0  0.0989
  H  H323  1  0.339900  0.486200  0.157000  1.0  0.0999
  H  H324  1  0.347400  0.474400  0.212800  1.0  0.1059
  H  H325  1  0.468300  0.526100  0.238600  1.0  0.2012
  H  H326  1  0.424700  0.569200  0.218200  1.0  0.1914
  H  H327  1  0.313700  0.586300  0.328200  1.0  0.1018
  H  H328  1  0.282400  0.647200  0.356000  1.0  0.1051
  H  H329  1  0.316000  0.648900  0.315400  1.0  0.1043
  H  H330  1  0.177400  0.489300  0.194000  1.0  0.0977
  H  H331  1  0.234400  0.490400  0.253400  1.0  0.1052
  H  H332  1  0.253500  0.509600  0.211000  1.0  0.0985
  H  H333  1  0.187700  0.588600  0.274800  1.0  0.1678
  H  H334  1  0.213800  0.607900  0.240600  1.0  0.2088
  H  H335  1  0.865000  0.705100  0.318200  1.0  0.1165
  H  H336  1  0.873800  0.771300  0.311800  1.0  0.1011
  H  H337  1  0.905700  0.711000  0.284000  1.0  0.1041
  H  H338  1  0.788700  0.736900  0.176200  1.0  0.102
  H  H339  1  0.817100  0.670800  0.157000  1.0  0.1032
  H  H340  1  0.865400  0.738400  0.212800  1.0  0.1047
  H  H341  1  0.770300  0.712500  0.238600  1.0  0.1984
  H  H342  1  0.793500  0.649000  0.218200  1.0  0.1892
  H  H343  1  0.014500  0.741900  0.328200  1.0  0.1033
  H  H344  1  0.073600  0.708800  0.356000  1.0  0.1041
  H  H345  1  0.999400  0.666500  0.315400  1.0  0.1067
  H  H346  1  0.016600  0.704700  0.194000  1.0  0.0947
  H  H347  1  0.019000  0.763000  0.253400  1.0  0.1105
  H  H348  1  0.957500  0.701400  0.211000  1.0  0.0994
  H  H349  1  0.087100  0.686200  0.274800  1.0  0.1577
  H  H350  1  0.026800  0.632700  0.240600  1.0  0.2128
  H  H351  1  0.294900  0.546800  0.681800  1.0  0.1139
  H  H352  1  0.228700  0.562000  0.688200  1.0  0.1069
  H  H353  1  0.289000  0.621700  0.716000  1.0  0.1051
  H  H354  1  0.263100  0.612500  0.823800  1.0  0.1022
  H  H355  1  0.329200  0.660100  0.843000  1.0  0.1035
  H  H356  1  0.261600  0.652600  0.787200  1.0  0.1062
  H  H357  1  0.287500  0.531700  0.761400  1.0  0.192
  H  H358  1  0.351000  0.575300  0.781800  1.0  0.1846
  H  H359  1  0.258100  0.686300  0.671800  1.0  0.0986
  H  H360  1  0.291200  0.717600  0.644000  1.0  0.1037
  H  H361  1  0.333500  0.684000  0.684600  1.0  0.1046
  H  H362  1  0.295300  0.822600  0.806000  1.0  0.0993
  H  H363  1  0.237000  0.765600  0.746600  1.0  0.1087
  H  H364  1  0.298600  0.746500  0.789000  1.0  0.0971
  H  H365  1  0.313800  0.812300  0.725200  1.0  0.1771
  H  H366  1  0.367300  0.786200  0.759400  1.0  0.1935
  H  H367  1  0.386900  0.135000  0.681800  1.0  0.1169
  H  H368  1  0.459500  0.126200  0.688200  1.0  0.1045
  H  H369  1  0.427000  0.094300  0.716000  1.0  0.1032
  H  H370  1  0.560700  0.211300  0.823800  1.0  0.1055
  H  H371  1  0.513800  0.182900  0.843000  1.0  0.1031
  H  H372  1  0.525600  0.134600  0.787200  1.0  0.1081
  H  H373  1  0.473900  0.229700  0.761400  1.0  0.2004
  H  H374  1  0.430800  0.206500  0.781800  1.0  0.18
  H  H375  1  0.413700  0.985500  0.671800  1.0  0.101
  H  H376  1  0.352800  0.926400  0.644000  1.0  0.1051
  H  H377  1  0.351100  0.000600  0.684600  1.0  0.1064
  H  H378  1  0.510700  0.983400  0.806000  1.0  0.0957
  H  H379  1  0.509600  0.981000  0.746600  1.0  0.1052
  H  H380  1  0.490400  0.042500  0.789000  1.0  0.1001
  H  H381  1  0.411400  0.912900  0.725200  1.0  0.1737
  H  H382  1  0.392100  0.973200  0.759400  1.0  0.209
  C  C383  1  0.570350  0.995350  0.253300  1.0  0.5996
  C  C384  1  0.635120  0.026120  0.310640  1.0  -0.1424
  C  C385  1  0.658620  0.095420  0.347040  1.0  -0.0619
  C  C386  1  0.722290  0.120290  0.397180  1.0  -0.0593
  C  C387  1  0.762470  0.075770  0.410940  1.0  -0.0481
  C  C388  1  0.738870  0.006470  0.374540  1.0  0.1327
  C  C389  1  0.675200  0.981600  0.324400  1.0  -0.1359
  C  C390  1  0.833490  0.103090  0.461980  1.0  -0.0106
  C  C391  1  0.884690  0.123890  0.452380  1.0  -0.1451
  C  C392  1  0.950810  0.148010  0.500820  1.0  -0.0399
  C  C393  1  0.964660  0.152460  0.557320  1.0  -0.1701
  C  C394  1  0.913540  0.130740  0.565280  1.0  -0.1673
  C  C395  1  0.847310  0.105010  0.518420  1.0  0.2144
  C  C396  1  0.034880  0.172780  0.607160  1.0  0.6745
  C  C397  1  0.742690  0.895590  0.379780  1.0  -0.062
  C  C398  1  0.826700  0.065500  0.582200  1.0  -0.0028
  C  C399  1  0.407700  0.767000  0.271400  1.0  0.6793
  C  C400  1  0.336190  0.737590  0.221580  1.0  -0.1091
  C  C401  1  0.309310  0.774210  0.185820  1.0  -0.1679
  C  C402  1  0.244520  0.745420  0.138840  1.0  0.2338
  C  C403  1  0.203050  0.694250  0.128100  1.0  0.0911
  C  C404  1  0.229170  0.663270  0.167340  1.0  -0.1078
  C  C405  1  0.299140  0.684640  0.213280  1.0  -0.1291
  C  C406  1  0.130640  0.669940  0.080480  1.0  0.0306
  C  C407  1  0.085540  0.713140  0.080480  1.0  -0.1309
  C  C408  1  0.017700  0.694300  0.036200  1.0  -0.1194
  C  C409  1  0.994410  0.626610  0.992020  1.0  -0.1793
  C  C410  1  0.038960  0.581060  0.991520  1.0  -0.1574
  C  C411  1  0.103710  0.605510  0.036420  1.0  0.2575
  C  C412  1  0.925070  0.602070  0.942140  1.0  0.668
  C  C413  1  0.252420  0.834220  0.109440  1.0  -0.0378
  C  C414  1  0.130090  0.482190  0.005180  1.0  -0.1508
  C  C415  1  0.682950  0.257950  0.253300  1.0  0.597
  C  C416  1  0.675520  0.284520  0.310640  1.0  -0.1433
  C  C417  1  0.688420  0.251620  0.347040  1.0  -0.0637
  C  C418  1  0.674890  0.276890  0.397180  1.0  -0.0565
  C  C419  1  0.648470  0.335170  0.410940  1.0  -0.0483
  C  C420  1  0.635670  0.368070  0.374540  1.0  0.1325
  C  C421  1  0.649200  0.342800  0.324400  1.0  -0.1356
  C  C422  1  0.628490  0.358890  0.461980  1.0  -0.0084
  C  C423  1  0.567690  0.328490  0.452380  1.0  -0.1491
  C  C424  1  0.550010  0.352810  0.500820  1.0  -0.0397
  C  C425  1  0.592660  0.404860  0.557320  1.0  -0.1666
  C  C426  1  0.651740  0.434540  0.565280  1.0  -0.1649
  C  C427  1  0.671110  0.413410  0.518420  1.0  0.2153
  C  C428  1  0.572280  0.434380  0.607160  1.0  0.675
  C  C429  1  0.637090  0.484190  0.379780  1.0  -0.0607
  C  C430  1  0.755500  0.516700  0.582200  1.0  -0.0005
  C  C431  1  0.863700  0.504400  0.271400  1.0  0.6804
  C  C432  1  0.885390  0.483990  0.221580  1.0  -0.1089
  C  C433  1  0.876510  0.411610  0.185820  1.0  -0.167
  C  C434  1  0.894320  0.393420  0.138840  1.0  0.2365
  C  C435  1  0.925050  0.433850  0.128100  1.0  0.0912
  C  C436  1  0.938170  0.504070  0.167340  1.0  -0.1096
  C  C437  1  0.914140  0.528640  0.213280  1.0  -0.1291
  C  C438  1  0.949840  0.410540  0.080480  1.0  0.0303
  C  C439  1  0.994940  0.367340  0.080480  1.0  -0.1282
  C  C440  1  0.018500  0.341900  0.036200  1.0  -0.1208
  C  C441  1  0.997610  0.365410  0.992020  1.0  -0.1775
  C  C442  1  0.952560  0.410460  0.991520  1.0  -0.1584
  C  C443  1  0.932710  0.430910  0.036420  1.0  0.2578
  C  C444  1  0.017070  0.340070  0.942140  1.0  0.6692
  C  C445  1  0.857020  0.275220  0.109440  1.0  -0.0381
  C  C446  1  0.875090  0.522990  0.005180  1.0  -0.1546
  C  C447  1  0.004650  0.317050  0.746700  1.0  0.6014
  C  C448  1  0.973880  0.324480  0.689360  1.0  -0.1439
  C  C449  1  0.904580  0.311580  0.652960  1.0  -0.059
  C  C450  1  0.879710  0.325110  0.602820  1.0  -0.0593
  C  C451  1  0.924230  0.351530  0.589060  1.0  -0.0462
  C  C452  1  0.993530  0.364330  0.625460  1.0  0.1329
  C  C453  1  0.018400  0.350800  0.675600  1.0  -0.1357
  C  C454  1  0.896910  0.371510  0.538020  1.0  -0.0071
  C  C455  1  0.876110  0.432310  0.547620  1.0  -0.1432
  C  C456  1  0.851990  0.449990  0.499180  1.0  -0.0403
  C  C457  1  0.847540  0.407340  0.442680  1.0  -0.1681
  C  C458  1  0.869260  0.348260  0.434720  1.0  -0.1643
  C  C459  1  0.894990  0.328890  0.481580  1.0  0.2167
  C  C460  1  0.827220  0.427720  0.392840  1.0  0.6768
  C  C461  1  0.104410  0.362910  0.620220  1.0  -0.0613
  C  C462  1  0.934500  0.244500  0.417800  1.0  -0.0023
  C  C463  1  0.233000  0.136300  0.728600  1.0  0.6803
  C  C464  1  0.262410  0.114610  0.778420  1.0  -0.1093
  C  C465  1  0.225790  0.123490  0.814180  1.0  -0.1675
  C  C466  1  0.254580  0.105680  0.861160  1.0  0.2359
  C  C467  1  0.305750  0.074950  0.871900  1.0  0.0911
  C  C468  1  0.336730  0.061830  0.832660  1.0  -0.1124
  C  C469  1  0.315360  0.085860  0.786720  1.0  -0.1299
  C  C470  1  0.330060  0.050160  0.919520  1.0  0.0324
  C  C471  1  0.286860  0.005060  0.919520  1.0  -0.1276
  C  C472  1  0.305700  0.981500  0.963800  1.0  -0.1208
  C  C473  1  0.373390  0.002390  0.007980  1.0  -0.1786
  C  C474  1  0.418940  0.047440  0.008480  1.0  -0.1563
  C  C475  1  0.394490  0.067290  0.963580  1.0  0.2589
  C  C476  1  0.397930  0.982930  0.057860  1.0  0.6682
  C  C477  1  0.165780  0.142980  0.890560  1.0  -0.0361
  C  C478  1  0.517810  0.124910  0.994820  1.0  -0.1515
  C  C479  1  0.742050  0.429650  0.746700  1.0  0.598
  C  C480  1  0.715480  0.364880  0.689360  1.0  -0.1432
  C  C481  1  0.748380  0.341380  0.652960  1.0  -0.0607
  C  C482  1  0.723110  0.277710  0.602820  1.0  -0.0587
  C  C483  1  0.664830  0.237530  0.589060  1.0  -0.0476
  C  C484  1  0.631930  0.261130  0.625460  1.0  0.1336
  C  C485  1  0.657200  0.324800  0.675600  1.0  -0.1332
  C  C486  1  0.641110  0.166510  0.538020  1.0  -0.007
  C  C487  1  0.671510  0.115310  0.547620  1.0  -0.1422
  C  C488  1  0.647190  0.049190  0.499180  1.0  -0.0345
  C  C489  1  0.595140  0.035340  0.442680  1.0  -0.169
  C  C490  1  0.565460  0.086460  0.434720  1.0  -0.165
  C  C491  1  0.586590  0.152690  0.481580  1.0  0.2135
  C  C492  1  0.565620  0.965120  0.392840  1.0  0.6755
  C  C493  1  0.515810  0.257310  0.620220  1.0  -0.0605
  C  C494  1  0.483300  0.173300  0.417800  1.0  -0.0017
  C  C495  1  0.495600  0.592300  0.728600  1.0  0.681
  C  C496  1  0.516010  0.663810  0.778420  1.0  -0.1082
  C  C497  1  0.588390  0.690690  0.814180  1.0  -0.1667
  C  C498  1  0.606580  0.755480  0.861160  1.0  0.2364
  C  C499  1  0.566150  0.796950  0.871900  1.0  0.0937
  C  C500  1  0.495930  0.770830  0.832660  1.0  -0.1094
  C  C501  1  0.471360  0.700860  0.786720  1.0  -0.1294
  C  C502  1  0.589460  0.869360  0.919520  1.0  0.0312
  C  C503  1  0.632660  0.914460  0.919520  1.0  -0.1289
  C  C504  1  0.658100  0.982300  0.963800  1.0  -0.1196
  C  C505  1  0.634590  0.005590  0.007980  1.0  -0.1809
  C  C506  1  0.589540  0.961040  0.008480  1.0  -0.1595
  C  C507  1  0.569090  0.896290  0.963580  1.0  0.2562
  C  C508  1  0.659930  0.074930  0.057860  1.0  0.6653
  C  C509  1  0.724780  0.747580  0.890560  1.0  -0.0428
  C  C510  1  0.477010  0.869910  0.994820  1.0  -0.1488
  C  C511  1  0.567050  0.754650  0.246700  1.0  0.6028
  C  C512  1  0.574480  0.723880  0.189360  1.0  -0.1446
  C  C513  1  0.561580  0.654580  0.152960  1.0  -0.0614
  C  C514  1  0.575110  0.629710  0.102820  1.0  -0.0581
  C  C515  1  0.601530  0.674230  0.089060  1.0  -0.0465
  C  C516  1  0.614330  0.743530  0.125460  1.0  0.1343
  C  C517  1  0.600800  0.768400  0.175600  1.0  -0.1375
  C  C518  1  0.621510  0.646910  0.038020  1.0  -0.0079
  C  C519  1  0.682310  0.626110  0.047620  1.0  -0.142
  C  C520  1  0.699990  0.601990  0.999180  1.0  -0.039
  C  C521  1  0.657340  0.597540  0.942680  1.0  -0.1692
  C  C522  1  0.598260  0.619260  0.934720  1.0  -0.1655
  C  C523  1  0.578890  0.644990  0.981580  1.0  0.2158
  C  C524  1  0.677720  0.577220  0.892840  1.0  0.6774
  C  C525  1  0.612910  0.854410  0.120220  1.0  -0.0619
  C  C526  1  0.494500  0.684500  0.917800  1.0  -0.0032
  C  C527  1  0.386300  0.983000  0.228600  1.0  0.6815
  C  C528  1  0.364610  0.012410  0.278420  1.0  -0.1085
  C  C529  1  0.373490  0.975790  0.314180  1.0  -0.1632
  C  C530  1  0.355680  0.004580  0.361160  1.0  0.2354
  C  C531  1  0.324950  0.055750  0.371900  1.0  0.0913
  C  C532  1  0.311830  0.086730  0.332660  1.0  -0.1071
  C  C533  1  0.335860  0.065360  0.286720  1.0  -0.1297
  C  C534  1  0.300160  0.080060  0.419520  1.0  0.0316
  C  C535  1  0.255060  0.036860  0.419520  1.0  -0.1284
  C  C536  1  0.231500  0.055700  0.463800  1.0  -0.1212
  C  C537  1  0.252390  0.123390  0.507980  1.0  -0.1792
  C  C538  1  0.297440  0.168940  0.508480  1.0  -0.1575
  C  C539  1  0.317290  0.144490  0.463580  1.0  0.2585
  C  C540  1  0.232930  0.147930  0.557860  1.0  0.67
  C  C541  1  0.392980  0.915780  0.390560  1.0  -0.0395
  C  C542  1  0.374910  0.267810  0.494820  1.0  -0.154
  C  C543  1  0.679650  0.492050  0.246700  1.0  0.5957
  C  C544  1  0.614880  0.465480  0.189360  1.0  -0.1388
  C  C545  1  0.591380  0.498380  0.152960  1.0  -0.0641
  C  C546  1  0.527710  0.473110  0.102820  1.0  -0.0586
  C  C547  1  0.487530  0.414830  0.089060  1.0  -0.0477
  C  C548  1  0.511130  0.381930  0.125460  1.0  0.1314
  C  C549  1  0.574800  0.407200  0.175600  1.0  -0.1334
  C  C550  1  0.416510  0.391110  0.038020  1.0  -0.008
  C  C551  1  0.365310  0.421510  0.047620  1.0  -0.1399
  C  C552  1  0.299190  0.397190  0.999180  1.0  -0.0397
  C  C553  1  0.285340  0.345140  0.942680  1.0  -0.1675
  C  C554  1  0.336460  0.315460  0.934720  1.0  -0.1633
  C  C555  1  0.402690  0.336590  0.981580  1.0  0.2152
  C  C556  1  0.215120  0.315620  0.892840  1.0  0.6749
  C  C557  1  0.507310  0.265810  0.120220  1.0  -0.0635
  C  C558  1  0.423300  0.233300  0.917800  1.0  -0.0006
  C  C559  1  0.842300  0.245600  0.228600  1.0  0.6772
  C  C560  1  0.913810  0.266010  0.278420  1.0  -0.1096
  C  C561  1  0.940690  0.338390  0.314180  1.0  -0.1676
  C  C562  1  0.005480  0.356580  0.361160  1.0  0.2355
  C  C563  1  0.046950  0.316150  0.371900  1.0  0.0919
  C  C564  1  0.020830  0.245930  0.332660  1.0  -0.1096
  C  C565  1  0.950860  0.221360  0.286720  1.0  -0.1297
  C  C566  1  0.119360  0.339460  0.419520  1.0  0.031
  C  C567  1  0.164460  0.382660  0.419520  1.0  -0.1296
  C  C568  1  0.232300  0.408100  0.463800  1.0  -0.123
  C  C569  1  0.255590  0.384590  0.507980  1.0  -0.1794
  C  C570  1  0.211040  0.339540  0.508480  1.0  -0.1589
  C  C571  1  0.146290  0.319090  0.463580  1.0  0.256
  C  C572  1  0.324930  0.409930  0.557860  1.0  0.6651
  C  C573  1  0.997580  0.474780  0.390560  1.0  -0.0414
  C  C574  1  0.119910  0.227010  0.494820  1.0  -0.1527
  C  C575  1  0.507950  0.432950  0.753300  1.0  0.6
  C  C576  1  0.534520  0.425520  0.810640  1.0  -0.1446
  C  C577  1  0.501620  0.438420  0.847040  1.0  -0.0624
  C  C578  1  0.526890  0.424890  0.897180  1.0  -0.0564
  C  C579  1  0.585170  0.398470  0.910940  1.0  -0.0481
  C  C580  1  0.618070  0.385670  0.874540  1.0  0.1335
  C  C581  1  0.592800  0.399200  0.824400  1.0  -0.1331
  C  C582  1  0.608890  0.378490  0.961980  1.0  -0.0066
  C  C583  1  0.578490  0.317690  0.952380  1.0  -0.1475
  C  C584  1  0.602810  0.300010  0.000820  1.0  -0.0403
  C  C585  1  0.654860  0.342660  0.057320  1.0  -0.1682
  C  C586  1  0.684540  0.401740  0.065280  1.0  -0.163
  C  C587  1  0.663410  0.421110  0.018420  1.0  0.2174
  C  C588  1  0.684380  0.322280  0.107160  1.0  0.6759
  C  C589  1  0.734190  0.387090  0.879780  1.0  -0.0604
  C  C590  1  0.766700  0.505500  0.082200  1.0  -0.0011
  C  C591  1  0.754400  0.613700  0.771400  1.0  0.6821
  C  C592  1  0.733990  0.635390  0.721580  1.0  -0.1093
  C  C593  1  0.661610  0.626510  0.685820  1.0  -0.1681
  C  C594  1  0.643420  0.644320  0.638840  1.0  0.2362
  C  C595  1  0.683850  0.675050  0.628100  1.0  0.0911
  C  C596  1  0.754070  0.688170  0.667340  1.0  -0.109
  C  C597  1  0.778640  0.664140  0.713280  1.0  -0.133
  C  C598  1  0.660540  0.699840  0.580480  1.0  0.0285
  C  C599  1  0.617340  0.744940  0.580480  1.0  -0.1294
  C  C600  1  0.591900  0.768500  0.536200  1.0  -0.12
  C  C601  1  0.615410  0.747610  0.492020  1.0  -0.1798
  C  C602  1  0.660460  0.702560  0.491520  1.0  -0.1589
  C  C603  1  0.680910  0.682710  0.536420  1.0  0.2563
  C  C604  1  0.590070  0.767070  0.442140  1.0  0.6677
  C  C605  1  0.525220  0.607020  0.609440  1.0  -0.04
  C  C606  1  0.772990  0.625090  0.505180  1.0  -0.1565
  C  C607  1  0.245350  0.320350  0.753300  1.0  0.5967
  C  C608  1  0.276120  0.385120  0.810640  1.0  -0.1414
  C  C609  1  0.345420  0.408620  0.847040  1.0  -0.0599
  C  C610  1  0.370290  0.472290  0.897180  1.0  -0.0598
  C  C611  1  0.325770  0.512470  0.910940  1.0  -0.0476
  C  C612  1  0.256470  0.488870  0.874540  1.0  0.1306
  C  C613  1  0.231600  0.425200  0.824400  1.0  -0.1347
  C  C614  1  0.353090  0.583490  0.961980  1.0  -0.0098
  C  C615  1  0.373890  0.634690  0.952380  1.0  -0.144
  C  C616  1  0.398010  0.700810  0.000820  1.0  -0.0378
  C  C617  1  0.402460  0.714660  0.057320  1.0  -0.1683
  C  C618  1  0.380740  0.663540  0.065280  1.0  -0.1692
  C  C619  1  0.355010  0.597310  0.018420  1.0  0.2148
  C  C620  1  0.422780  0.784880  0.107160  1.0  0.6756
  C  C621  1  0.145590  0.492690  0.879780  1.0  -0.059
  C  C622  1  0.315500  0.576700  0.082200  1.0  -0.0027
  C  C623  1  0.017000  0.157700  0.771400  1.0  0.683
  C  C624  1  0.987590  0.086190  0.721580  1.0  -0.1077
  C  C625  1  0.024210  0.059310  0.685820  1.0  -0.1674
  C  C626  1  0.995420  0.994520  0.638840  1.0  0.2353
  C  C627  1  0.944250  0.953050  0.628100  1.0  0.0918
  C  C628  1  0.913270  0.979170  0.667340  1.0  -0.108
  C  C629  1  0.934640  0.049140  0.713280  1.0  -0.1297
  C  C630  1  0.919940  0.880640  0.580480  1.0  0.032
  C  C631  1  0.963140  0.835540  0.580480  1.0  -0.1292
  C  C632  1  0.944300  0.767700  0.536200  1.0  -0.1193
  C  C633  1  0.876610  0.744410  0.492020  1.0  -0.1814
  C  C634  1  0.831060  0.788960  0.491520  1.0  -0.1554
  C  C635  1  0.855510  0.853710  0.536420  1.0  0.2584
  C  C636  1  0.852070  0.675070  0.442140  1.0  0.6702
  C  C637  1  0.084220  0.002420  0.609440  1.0  -0.0367
  C  C638  1  0.732190  0.880090  0.505180  1.0  -0.1503
  C  C639  1  0.058150  0.954450  0.087100  1.0  0.7006
  C  C640  1  0.082080  0.927680  0.134360  1.0  -0.1446
  C  C641  1  0.149970  0.944170  0.176140  1.0  -0.0166
  C  C642  1  0.171380  0.922480  0.221360  1.0  -0.1538
  C  C643  1  0.124790  0.884390  0.224580  1.0  0.0165
  C  C644  1  0.056670  0.867970  0.182940  1.0  0.2835
  C  C645  1  0.035380  0.889680  0.137760  1.0  -0.1299
  C  C646  1  0.944410  0.822310  0.159620  1.0  -0.0319
  C  C647  1  0.028950  0.132650  0.087100  1.0  0.7007
  C  C648  1  0.052280  0.206680  0.134360  1.0  -0.1456
  C  C649  1  0.026170  0.231970  0.176140  1.0  -0.015
  C  C650  1  0.049980  0.298880  0.221360  1.0  -0.1555
  C  C651  1  0.099790  0.340190  0.224580  1.0  0.0156
  C  C652  1  0.126270  0.314970  0.182940  1.0  0.2838
  C  C653  1  0.102380  0.248080  0.137760  1.0  -0.1331
  C  C654  1  0.215210  0.337310  0.159620  1.0  -0.031
  C  C655  1  0.045550  0.971050  0.912900  1.0  0.6981
  C  C656  1  0.072320  0.947720  0.865640  1.0  -0.1459
  C  C657  1  0.055830  0.973830  0.823860  1.0  -0.0156
  C  C658  1  0.077520  0.950020  0.778640  1.0  -0.156
  C  C659  1  0.115610  0.900210  0.775420  1.0  0.0161
  C  C660  1  0.132030  0.873730  0.817060  1.0  0.2867
  C  C661  1  0.110320  0.897620  0.862240  1.0  -0.1329
  C  C662  1  0.177690  0.784790  0.840380  1.0  -0.0299
  C  C663  1  0.867350  0.941850  0.912900  1.0  0.7022
  C  C664  1  0.793320  0.917920  0.865640  1.0  -0.148
  C  C665  1  0.768030  0.850030  0.823860  1.0  -0.0159
  C  C666  1  0.701120  0.828620  0.778640  1.0  -0.1555
  C  C667  1  0.659810  0.875210  0.775420  1.0  0.0162
  C  C668  1  0.685030  0.943330  0.817060  1.0  0.283
  C  C669  1  0.751920  0.964620  0.862240  1.0  -0.1361
  C  C670  1  0.662690  0.055590  0.840380  1.0  -0.0279
  C  C671  1  0.221050  0.795550  0.412900  1.0  0.7005
  C  C672  1  0.197720  0.822320  0.365640  1.0  -0.1496
  C  C673  1  0.223830  0.805830  0.323860  1.0  -0.0153
  C  C674  1  0.200020  0.827520  0.278640  1.0  -0.1544
  C  C675  1  0.150210  0.865610  0.275420  1.0  0.016
  C  C676  1  0.123730  0.882030  0.317060  1.0  0.2866
  C  C677  1  0.147620  0.860320  0.362240  1.0  -0.1335
  C  C678  1  0.034790  0.927690  0.340380  1.0  -0.0291
  C  C679  1  0.191850  0.617350  0.412900  1.0  0.7031
  C  C680  1  0.167920  0.543320  0.365640  1.0  -0.1435
  C  C681  1  0.100030  0.518030  0.323860  1.0  -0.0147
  C  C682  1  0.078620  0.451120  0.278640  1.0  -0.1554
  C  C683  1  0.125210  0.409810  0.275420  1.0  0.0162
  C  C684  1  0.193330  0.435030  0.317060  1.0  0.2844
  C  C685  1  0.214620  0.501920  0.362240  1.0  -0.1313
  C  C686  1  0.305590  0.412690  0.340380  1.0  -0.0311
  C  C687  1  0.382650  0.778950  0.587100  1.0  0.6963
  C  C688  1  0.456680  0.802280  0.634360  1.0  -0.1465
  C  C689  1  0.481970  0.776170  0.676140  1.0  -0.0167
  C  C690  1  0.548880  0.799980  0.721360  1.0  -0.1536
  C  C691  1  0.590190  0.849790  0.724580  1.0  0.0165
  C  C692  1  0.564970  0.876270  0.682940  1.0  0.284
  C  C693  1  0.498080  0.852380  0.637760  1.0  -0.1332
  C  C694  1  0.587310  0.965210  0.659620  1.0  -0.0296
  C  C695  1  0.204450  0.808150  0.587100  1.0  0.704
  C  C696  1  0.177680  0.832080  0.634360  1.0  -0.1459
  C  C697  1  0.194170  0.899970  0.676140  1.0  -0.0191
  C  C698  1  0.172480  0.921380  0.721360  1.0  -0.1533
  C  C699  1  0.134390  0.874790  0.724580  1.0  0.0159
  C  C700  1  0.117970  0.806670  0.682940  1.0  0.2832
  C  C701  1  0.139680  0.785380  0.637760  1.0  -0.1342
  C  C702  1  0.072310  0.694410  0.659620  1.0  -0.0282
  C  C703  1  0.382080  0.180880  0.207960  1.0  -0.2163
  C  C704  1  0.429590  0.270590  0.308980  1.0  -0.1843
  C  C705  1  0.218500  0.129700  0.178800  1.0  -0.2517
  C  C706  1  0.244500  0.238000  0.272800  1.0  -0.2744
  C  C707  1  0.825880  0.027080  0.207960  1.0  -0.2189
  C  C708  1  0.879390  0.038390  0.308980  1.0  -0.1834
  C  C709  1  0.960300  0.049100  0.178800  1.0  -0.2475
  C  C710  1  0.028300  0.034800  0.272800  1.0  -0.2739
  C  C711  1  0.819120  0.174120  0.792040  1.0  -0.2169
  C  C712  1  0.729410  0.120610  0.691020  1.0  -0.1847
  C  C713  1  0.870300  0.039700  0.821200  1.0  -0.2537
  C  C714  1  0.762000  0.971700  0.727200  1.0  -0.2741
  C  C715  1  0.972920  0.617920  0.792040  1.0  -0.2145
  C  C716  1  0.961610  0.570410  0.691020  1.0  -0.185
  C  C717  1  0.950900  0.781500  0.821200  1.0  -0.2497
  C  C718  1  0.965200  0.755500  0.727200  1.0  -0.2743
  C  C719  1  0.424120  0.569120  0.292040  1.0  -0.2175
  C  C720  1  0.370610  0.479410  0.191020  1.0  -0.1834
  C  C721  1  0.289700  0.620300  0.321200  1.0  -0.2516
  C  C722  1  0.221700  0.512000  0.227200  1.0  -0.2755
  C  C723  1  0.867920  0.722920  0.292040  1.0  -0.219
  C  C724  1  0.820410  0.711610  0.191020  1.0  -0.1861
  C  C725  1  0.031500  0.700900  0.321200  1.0  -0.2496
  C  C726  1  0.005500  0.715200  0.227200  1.0  -0.2733
  C  C727  1  0.277080  0.575880  0.707960  1.0  -0.2166
  C  C728  1  0.288390  0.629390  0.808980  1.0  -0.1837
  C  C729  1  0.299100  0.710300  0.678800  1.0  -0.2497
  C  C730  1  0.284800  0.778300  0.772800  1.0  -0.2748
  C  C731  1  0.430880  0.132080  0.707960  1.0  -0.2155
  C  C732  1  0.520590  0.179590  0.808980  1.0  -0.1818
  C  C733  1  0.379700  0.968500  0.678800  1.0  -0.2507
  C  C734  1  0.488000  0.994500  0.772800  1.0  -0.2734
  N  N735  1  0.445240  0.210840  0.266680  1.0  -0.1614
  N  N736  1  0.207400  0.163700  0.236200  1.0  -0.1046
  N  N737  1  0.821440  0.055840  0.266680  1.0  -0.1573
  N  N738  1  0.028800  0.072500  0.236200  1.0  -0.1047
  N  N739  1  0.789160  0.178560  0.733320  1.0  -0.1629
  N  N740  1  0.836300  0.971200  0.763800  1.0  -0.1028
  N  N741  1  0.944160  0.554760  0.733320  1.0  -0.1606
  N  N742  1  0.927500  0.792600  0.763800  1.0  -0.1023
  N  N743  1  0.428560  0.539160  0.233320  1.0  -0.1611
  N  N744  1  0.221200  0.586300  0.263800  1.0  -0.0989
  N  N745  1  0.804760  0.694160  0.233320  1.0  -0.1597
  N  N746  1  0.042600  0.677500  0.263800  1.0  -0.1045
  N  N747  1  0.305840  0.571440  0.766680  1.0  -0.1612
  N  N748  1  0.322500  0.778800  0.736200  1.0  -0.1024
  N  N749  1  0.460840  0.195240  0.766680  1.0  -0.1593
  N  N750  1  0.413700  0.957400  0.736200  1.0  -0.1061
  O  O751  1  0.535680  0.040460  0.238900  1.0  -0.6349
  O  O752  1  0.547260  0.935410  0.222420  1.0  -0.6224
  O  O753  1  0.083170  0.179780  0.592860  1.0  -0.6406
  O  O754  1  0.043400  0.192010  0.657620  1.0  -0.5937
  O  O755  1  0.776400  0.962300  0.398120  1.0  -0.3001
  O  O756  1  0.802230  0.080440  0.531920  1.0  -0.2564
  O  O757  1  0.440140  0.817840  0.281140  1.0  -0.639
  O  O758  1  0.434420  0.731050  0.297820  1.0  -0.6443
  O  O759  1  0.883130  0.643240  0.941880  1.0  -0.6457
  O  O760  1  0.901020  0.542520  0.903640  1.0  -0.6087
  O  O761  1  0.213180  0.779300  0.100900  1.0  -0.2771
  O  O762  1  0.150870  0.560680  0.038280  1.0  -0.3257
  O  O763  1  0.703220  0.198440  0.238900  1.0  -0.6332
  O  O764  1  0.675160  0.287010  0.222420  1.0  -0.6231
  O  O765  1  0.509690  0.413080  0.592860  1.0  -0.64
  O  O766  1  0.614220  0.465610  0.657620  1.0  -0.5964
  O  O767  1  0.621720  0.435820  0.398120  1.0  -0.3045
  O  O768  1  0.729690  0.451480  0.531920  1.0  -0.2559
  O  O769  1  0.841000  0.463300  0.281140  1.0  -0.6372
  O  O770  1  0.863400  0.566770  0.297820  1.0  -0.6404
  O  O771  1  0.058750  0.298640  0.941880  1.0  -0.6449
  O  O772  1  0.002620  0.361120  0.903640  1.0  -0.6108
  O  O773  1  0.887720  0.321600  0.100900  1.0  -0.2824
  O  O774  1  0.887410  0.477600  0.038280  1.0  -0.3258
  O  O775  1  0.959540  0.296780  0.761100  1.0  -0.6337
  O  O776  1  0.064590  0.324840  0.777580  1.0  -0.6286
  O  O777  1  0.820220  0.490310  0.407140  1.0  -0.6407
  O  O778  1  0.807990  0.385780  0.342380  1.0  -0.5962
  O  O779  1  0.037700  0.378280  0.601880  1.0  -0.3097
  O  O780  1  0.919560  0.270310  0.468080  1.0  -0.2586
  O  O781  1  0.182160  0.159000  0.718860  1.0  -0.6363
  O  O782  1  0.268950  0.136600  0.702180  1.0  -0.6442
  O  O783  1  0.356760  0.941250  0.058120  1.0  -0.647
  O  O784  1  0.457480  0.997380  0.096360  1.0  -0.6125
  O  O785  1  0.220700  0.112280  0.899100  1.0  -0.2745
  O  O786  1  0.439320  0.112590  0.961720  1.0  -0.3252
  O  O787  1  0.801560  0.464320  0.761100  1.0  -0.6329
  O  O788  1  0.712990  0.452740  0.777580  1.0  -0.6257
  O  O789  1  0.586920  0.916830  0.407140  1.0  -0.6397
  O  O790  1  0.534390  0.956600  0.342380  1.0  -0.597
  O  O791  1  0.564180  0.223600  0.601880  1.0  -0.3021
  O  O792  1  0.548520  0.197770  0.468080  1.0  -0.2566
  O  O793  1  0.536700  0.559860  0.718860  1.0  -0.6383
  O  O794  1  0.433230  0.565580  0.702180  1.0  -0.64
  O  O795  1  0.701360  0.116870  0.058120  1.0  -0.6476
  O  O796  1  0.638880  0.098980  0.096360  1.0  -0.6128
  O  O797  1  0.678400  0.786820  0.899100  1.0  -0.2846
  O  O798  1  0.522400  0.849130  0.961720  1.0  -0.3256
  O  O799  1  0.546780  0.709540  0.261100  1.0  -0.6362
  O  O800  1  0.574840  0.814590  0.277580  1.0  -0.6229
  O  O801  1  0.740310  0.570220  0.907140  1.0  -0.6395
  O  O802  1  0.635780  0.557990  0.842380  1.0  -0.5966
  O  O803  1  0.628280  0.787700  0.101880  1.0  -0.3073
  O  O804  1  0.520310  0.669560  0.968080  1.0  -0.2587
  O  O805  1  0.409000  0.932160  0.218860  1.0  -0.6374
  O  O806  1  0.386600  0.018950  0.202180  1.0  -0.6446
  O  O807  1  0.191250  0.106760  0.558120  1.0  -0.6468
  O  O808  1  0.247380  0.207480  0.596360  1.0  -0.6108
  O  O809  1  0.362280  0.970700  0.399100  1.0  -0.2775
  O  O810  1  0.362590  0.189320  0.461720  1.0  -0.3251
  O  O811  1  0.714320  0.551560  0.261100  1.0  -0.6337
  O  O812  1  0.702740  0.462990  0.277580  1.0  -0.624
  O  O813  1  0.166830  0.336920  0.907140  1.0  -0.6404
  O  O814  1  0.206600  0.284390  0.842380  1.0  -0.597
  O  O815  1  0.473600  0.314180  0.101880  1.0  -0.3018
  O  O816  1  0.447770  0.298520  0.968080  1.0  -0.2561
  O  O817  1  0.809860  0.286700  0.218860  1.0  -0.6378
  O  O818  1  0.815580  0.183230  0.202180  1.0  -0.6373
  O  O819  1  0.366870  0.451360  0.558120  1.0  -0.6467
  O  O820  1  0.348980  0.388880  0.596360  1.0  -0.6096
  O  O821  1  0.036820  0.428400  0.399100  1.0  -0.2818
  O  O822  1  0.099130  0.272400  0.461720  1.0  -0.323
  O  O823  1  0.448440  0.453220  0.738900  1.0  -0.632
  O  O824  1  0.537010  0.425160  0.722420  1.0  -0.626
  O  O825  1  0.663080  0.259690  0.092860  1.0  -0.6421
  O  O826  1  0.715610  0.364220  0.157620  1.0  -0.5968
  O  O827  1  0.685820  0.371720  0.898120  1.0  -0.3083
  O  O828  1  0.701480  0.479690  0.031920  1.0  -0.2565
  O  O829  1  0.713300  0.591000  0.781140  1.0  -0.6404
  O  O830  1  0.816770  0.613400  0.797820  1.0  -0.6433
  O  O831  1  0.548640  0.808750  0.441880  1.0  -0.6472
  O  O832  1  0.611120  0.752620  0.403640  1.0  -0.6116
  O  O833  1  0.571600  0.637720  0.600900  1.0  -0.2826
  O  O834  1  0.727600  0.637410  0.538280  1.0  -0.3265
  O  O835  1  0.290460  0.285680  0.738900  1.0  -0.6365
  O  O836  1  0.185410  0.297260  0.722420  1.0  -0.6259
  O  O837  1  0.429780  0.833170  0.092860  1.0  -0.6424
  O  O838  1  0.442010  0.793400  0.157620  1.0  -0.594
  O  O839  1  0.212300  0.526400  0.898120  1.0  -0.3068
  O  O840  1  0.330440  0.552230  0.031920  1.0  -0.2575
  O  O841  1  0.067840  0.190140  0.781140  1.0  -0.6391
  O  O842  1  0.981050  0.184420  0.797820  1.0  -0.6421
  O  O843  1  0.893240  0.633130  0.441880  1.0  -0.6468
  O  O844  1  0.792520  0.651020  0.403640  1.0  -0.6115
  O  O845  1  0.029300  0.963180  0.600900  1.0  -0.2786
  O  O846  1  0.810680  0.900870  0.538280  1.0  -0.3248
  O  O847  1  0.098040  0.997050  0.090100  1.0  -0.6755
  O  O848  1  0.999940  0.935450  0.048920  1.0  -0.5721
  O  O849  1  0.015060  0.827490  0.186060  1.0  -0.26
  O  O850  1  0.992060  0.093050  0.090100  1.0  -0.6743
  O  O851  1  0.048980  0.113470  0.048920  1.0  -0.5728
  O  O852  1  0.171000  0.358570  0.186060  1.0  -0.2592
  O  O853  1  0.002950  0.007940  0.909900  1.0  -0.6734
  O  O854  1  0.064550  0.951020  0.951080  1.0  -0.574
  O  O855  1  0.172510  0.829000  0.813940  1.0  -0.2585
  O  O856  1  0.906950  0.901960  0.909900  1.0  -0.6745
  O  O857  1  0.886530  0.000060  0.951080  1.0  -0.5682
  O  O858  1  0.641430  0.984940  0.813940  1.0  -0.2582
  O  O859  1  0.257940  0.752950  0.409900  1.0  -0.6726
  O  O860  1  0.201020  0.814550  0.451080  1.0  -0.5737
  O  O861  1  0.079000  0.922510  0.313940  1.0  -0.259
  O  O862  1  0.151960  0.656950  0.409900  1.0  -0.6748
  O  O863  1  0.250060  0.636530  0.451080  1.0  -0.5731
  O  O864  1  0.234940  0.391430  0.313940  1.0  -0.2596
  O  O865  1  0.343050  0.742060  0.590100  1.0  -0.6754
  O  O866  1  0.363470  0.798980  0.548920  1.0  -0.5723
  O  O867  1  0.608570  0.921000  0.686060  1.0  -0.2592
  O  O868  1  0.247050  0.848040  0.590100  1.0  -0.6782
  O  O869  1  0.185450  0.749940  0.548920  1.0  -0.567
  O  O870  1  0.077490  0.765060  0.686060  1.0  -0.2601
