# generated using pymatgen
data_Zn6H204C179S12(NO3)8
_symmetry_space_group_name_H-M   'P 1'
_cell_length_a   22.72100000
_cell_length_b   25.19860000
_cell_length_c   25.19860000
_cell_angle_alpha   103.68100000
_cell_angle_beta   108.96600000
_cell_angle_gamma   108.96600000
_symmetry_Int_Tables_number   1
_chemical_formula_structural   Zn6H204C179S12(NO3)8
_chemical_formula_sum   'Zn12 H408 C358 S24 N16 O48'
_cell_volume   11921.69842874
_cell_formula_units_Z   2
loop_
 _symmetry_equiv_pos_site_id
 _symmetry_equiv_pos_as_xyz
  1  'x, y, z'
loop_
 _atom_site_type_symbol
 _atom_site_label
 _atom_site_symmetry_multiplicity
 _atom_site_fract_x
 _atom_site_fract_y
 _atom_site_fract_z
 _atom_site_occupancy
 _atom_site_charge
  Zn  Zn1  1  0.593420  0.526770  0.465990  1.0  0.9029
  Zn  Zn2  1  0.275460  0.008930  0.486400  1.0  0.9534
  Zn  Zn3  1  0.347930  0.934750  0.459110  1.0  0.9309
  Zn  Zn4  1  0.906580  0.534010  0.473230  1.0  0.9039
  Zn  Zn5  1  0.224540  0.513600  0.991070  1.0  0.9527
  Zn  Zn6  1  0.152070  0.540890  0.065250  1.0  0.9324
  Zn  Zn7  1  0.406580  0.473230  0.534010  1.0  0.9037
  Zn  Zn8  1  0.724540  0.991070  0.513600  1.0  0.9528
  Zn  Zn9  1  0.652070  0.065250  0.540890  1.0  0.9312
  Zn  Zn10  1  0.093420  0.465990  0.526770  1.0  0.9037
  Zn  Zn11  1  0.775460  0.486400  0.008930  1.0  0.9519
  Zn  Zn12  1  0.847930  0.459110  0.934750  1.0  0.9309
  H  H13  1  0.407900  0.328600  0.348400  1.0  0.0929
  H  H14  1  0.499500  0.072600  0.404600  1.0  0.1057
  H  H15  1  0.759500  0.722100  0.691100  1.0  0.1136
  H  H16  1  0.662300  0.580900  0.898500  1.0  0.1115
  H  H17  1  0.540400  0.034700  0.644300  1.0  0.1119
  H  H18  1  0.592000  0.291000  0.918400  1.0  0.1149
  H  H19  1  0.450800  0.518000  0.428600  1.0  0.0774
  H  H20  1  0.623700  0.652800  0.469200  1.0  0.0752
  H  H21  1  0.391600  0.575300  0.409700  1.0  0.1265
  H  H22  1  0.570000  0.711400  0.447400  1.0  0.1219
  H  H23  1  0.391100  0.671900  0.410900  1.0  0.0971
  H  H24  1  0.509900  0.758500  0.421700  1.0  0.0996
  H  H25  1  0.338000  0.729800  0.406400  1.0  0.1226
  H  H26  1  0.516900  0.860200  0.437800  1.0  0.1237
  H  H27  1  0.298100  0.801700  0.421900  1.0  0.0863
  H  H28  1  0.472500  0.928100  0.452900  1.0  0.0675
  H  H29  1  0.699100  0.550400  0.053000  1.0  0.0886
  H  H30  1  0.774000  0.444700  0.105900  1.0  0.0741
  H  H31  1  0.657400  0.558900  0.123300  1.0  0.1285
  H  H32  1  0.739300  0.454200  0.183400  1.0  0.1234
  H  H33  1  0.647400  0.540000  0.212000  1.0  0.0916
  H  H34  1  0.721600  0.484600  0.261000  1.0  0.0948
  H  H35  1  0.725600  0.477100  0.354700  1.0  0.1163
  H  H36  1  0.610300  0.554200  0.281200  1.0  0.1294
  H  H37  1  0.690100  0.488100  0.430500  1.0  0.0837
  H  H38  1  0.577300  0.561900  0.357700  1.0  0.0818
  H  H39  1  0.341500  0.160200  0.300000  1.0  0.1298
  H  H40  1  0.313100  0.206800  0.287000  1.0  0.1345
  H  H41  1  0.375400  0.226800  0.230000  1.0  0.0949
  H  H42  1  0.403500  0.179800  0.242800  1.0  0.1004
  H  H43  1  0.271400  0.155000  0.160800  1.0  0.0737
  H  H44  1  0.277500  0.106600  0.188600  1.0  0.0767
  H  H45  1  0.349500  0.089900  0.145300  1.0  0.0781
  H  H46  1  0.351000  0.142300  0.121500  1.0  0.0889
  H  H47  1  0.258200  0.024100  0.062500  1.0  0.0847
  H  H48  1  0.217300  0.062000  0.072800  1.0  0.0925
  H  H49  1  0.219500  0.047700  0.977500  1.0  0.0819
  H  H50  1  0.300500  0.082700  0.010100  1.0  0.0697
  H  H51  1  0.255800  0.117200  0.018200  1.0  0.0834
  H  H52  1  0.600900  0.186000  0.411200  1.0  0.1297
  H  H53  1  0.557500  0.203300  0.361700  1.0  0.1017
  H  H54  1  0.595900  0.136000  0.319400  1.0  0.0833
  H  H55  1  0.555900  0.087500  0.339700  1.0  0.0816
  H  H56  1  0.494300  0.125700  0.249100  1.0  0.0773
  H  H57  1  0.450800  0.084400  0.273400  1.0  0.0712
  H  H58  1  0.483200  0.008200  0.238200  1.0  0.0716
  H  H59  1  0.525300  0.049400  0.213000  1.0  0.0732
  H  H60  1  0.421000  0.042200  0.142400  1.0  0.0776
  H  H61  1  0.378800  0.001200  0.167600  1.0  0.0764
  H  H62  1  0.370500  0.939100  0.076500  1.0  0.1105
  H  H63  1  0.409500  0.923400  0.129800  1.0  0.1042
  H  H64  1  0.451200  0.964300  0.104300  1.0  0.1054
  H  H65  1  0.802000  0.729100  0.848300  1.0  0.1105
  H  H66  1  0.759100  0.761000  0.819000  1.0  0.0979
  H  H67  1  0.885400  0.770200  0.815400  1.0  0.0861
  H  H68  1  0.841500  0.799300  0.782100  1.0  0.083
  H  H69  1  0.911000  0.836600  0.909400  1.0  0.0816
  H  H70  1  0.859600  0.861600  0.879400  1.0  0.0773
  H  H71  1  0.988700  0.882500  0.869700  1.0  0.0716
  H  H72  1  0.935100  0.901700  0.831700  1.0  0.0757
  H  H73  1  0.999800  0.948900  0.961500  1.0  0.0788
  H  H74  1  0.947200  0.968800  0.923000  1.0  0.076
  H  H75  1  0.065400  0.040900  0.952300  1.0  0.119
  H  H76  1  0.025900  0.009100  0.881300  1.0  0.1093
  H  H77  1  0.077800  0.988100  0.918100  1.0  0.103
  H  H78  1  0.639300  0.677500  0.855300  1.0  0.1351
  H  H79  1  0.618300  0.652100  0.785500  1.0  0.1191
  H  H80  1  0.528800  0.563400  0.770800  1.0  0.089
  H  H81  1  0.552500  0.583100  0.841100  1.0  0.0831
  H  H82  1  0.459400  0.603300  0.805500  1.0  0.0875
  H  H83  1  0.524000  0.666800  0.840400  1.0  0.0806
  H  H84  1  0.460300  0.607100  0.712500  1.0  0.0679
  H  H85  1  0.522400  0.672200  0.748600  1.0  0.0701
  H  H86  1  0.387800  0.643600  0.744000  1.0  0.0839
  H  H87  1  0.450000  0.708500  0.781900  1.0  0.0861
  H  H88  1  0.379200  0.706400  0.688600  1.0  0.1099
  H  H89  1  0.389700  0.652700  0.653300  1.0  0.1064
  H  H90  1  0.452100  0.717400  0.691000  1.0  0.1113
  H  H91  1  0.682100  0.147300  0.763900  1.0  0.1132
  H  H92  1  0.652100  0.115200  0.801600  1.0  0.1019
  H  H93  1  0.657100  0.055500  0.694900  1.0  0.0766
  H  H94  1  0.618700  0.020200  0.726200  1.0  0.0758
  H  H95  1  0.762700  0.095500  0.784700  1.0  0.075
  H  H96  1  0.722400  0.053500  0.810500  1.0  0.0784
  H  H97  1  0.699000  0.967400  0.731000  1.0  0.0732
  H  H98  1  0.739000  0.009200  0.705000  1.0  0.0778
  H  H99  1  0.799700  0.994600  0.814200  1.0  0.0779
  H  H100  1  0.841800  0.045700  0.797500  1.0  0.0806
  H  H101  1  0.780900  0.920000  0.721200  1.0  0.1081
  H  H102  1  0.858900  0.954800  0.768600  1.0  0.1135
  H  H103  1  0.832400  0.973000  0.713200  1.0  0.1106
  H  H104  1  0.509100  0.168000  0.882400  1.0  0.1258
  H  H105  1  0.476700  0.133400  0.812000  1.0  0.1137
  H  H106  1  0.419400  0.192200  0.794000  1.0  0.1157
  H  H107  1  0.460000  0.237400  0.861600  1.0  0.1069
  H  H108  1  0.355800  0.119900  0.825700  1.0  0.1061
  H  H109  1  0.392400  0.170300  0.890500  1.0  0.0718
  H  H110  1  0.291400  0.168900  0.788900  1.0  0.1053
  H  H111  1  0.330500  0.222900  0.851500  1.0  0.0787
  H  H112  1  0.157400  0.077900  0.824900  1.0  0.1303
  H  H113  1  0.203400  0.058500  0.797300  1.0  0.1089
  H  H114  1  0.161600  0.091100  0.768100  1.0  0.11
  H  H115  1  0.092100  0.651600  0.671400  1.0  0.0932
  H  H116  1  0.000500  0.595400  0.927400  1.0  0.1053
  H  H117  1  0.740500  0.308900  0.277900  1.0  0.1144
  H  H118  1  0.837700  0.101500  0.419100  1.0  0.1111
  H  H119  1  0.959600  0.355700  0.965300  1.0  0.1126
  H  H120  1  0.908000  0.081600  0.709000  1.0  0.1155
  H  H121  1  0.049200  0.571400  0.482000  1.0  0.0784
  H  H122  1  0.876300  0.530800  0.347200  1.0  0.0773
  H  H123  1  0.108400  0.590300  0.424700  1.0  0.1258
  H  H124  1  0.930000  0.552600  0.288600  1.0  0.1218
  H  H125  1  0.108900  0.589100  0.328100  1.0  0.0958
  H  H126  1  0.990100  0.578300  0.241500  1.0  0.1008
  H  H127  1  0.162000  0.593600  0.270200  1.0  0.1242
  H  H128  1  0.983100  0.562200  0.139800  1.0  0.1258
  H  H129  1  0.201900  0.578100  0.198300  1.0  0.0866
  H  H130  1  0.027500  0.547100  0.071900  1.0  0.0691
  H  H131  1  0.800900  0.947000  0.449600  1.0  0.0887
  H  H132  1  0.726000  0.894100  0.555300  1.0  0.0751
  H  H133  1  0.842600  0.876700  0.441100  1.0  0.127
  H  H134  1  0.760700  0.816600  0.545800  1.0  0.125
  H  H135  1  0.852600  0.788000  0.460000  1.0  0.0915
  H  H136  1  0.778400  0.739000  0.515400  1.0  0.093
  H  H137  1  0.774400  0.645300  0.522900  1.0  0.1165
  H  H138  1  0.889700  0.718800  0.445800  1.0  0.1303
  H  H139  1  0.809900  0.569500  0.511900  1.0  0.0834
  H  H140  1  0.922700  0.642300  0.438100  1.0  0.0825
  H  H141  1  0.158500  0.700000  0.839800  1.0  0.1296
  H  H142  1  0.186900  0.713000  0.793200  1.0  0.1323
  H  H143  1  0.124600  0.770000  0.773200  1.0  0.0932
  H  H144  1  0.096500  0.757200  0.820200  1.0  0.0929
  H  H145  1  0.228600  0.839200  0.845000  1.0  0.078
  H  H146  1  0.222500  0.811400  0.893400  1.0  0.0768
  H  H147  1  0.150500  0.854700  0.910100  1.0  0.0789
  H  H148  1  0.149000  0.878500  0.857700  1.0  0.0909
  H  H149  1  0.241800  0.937500  0.975900  1.0  0.0879
  H  H150  1  0.282700  0.927200  0.938000  1.0  0.0928
  H  H151  1  0.280500  0.022500  0.952300  1.0  0.082
  H  H152  1  0.199500  0.989900  0.917300  1.0  0.069
  H  H153  1  0.244200  0.981800  0.882800  1.0  0.086
  H  H154  1  0.899100  0.588800  0.814000  1.0  0.1309
  H  H155  1  0.942500  0.638300  0.796700  1.0  0.1021
  H  H156  1  0.904100  0.680600  0.864000  1.0  0.0865
  H  H157  1  0.944100  0.660300  0.912500  1.0  0.0817
  H  H158  1  0.005700  0.750900  0.874300  1.0  0.0768
  H  H159  1  0.049200  0.726600  0.915600  1.0  0.0714
  H  H160  1  0.016800  0.761800  0.991800  1.0  0.0752
  H  H161  1  0.974700  0.787000  0.950600  1.0  0.0751
  H  H162  1  0.079000  0.857600  0.957800  1.0  0.0771
  H  H163  1  0.121200  0.832400  0.998800  1.0  0.074
  H  H164  1  0.129500  0.923500  0.060900  1.0  0.1109
  H  H165  1  0.090500  0.870200  0.076600  1.0  0.1043
  H  H166  1  0.048800  0.895700  0.035700  1.0  0.1085
  H  H167  1  0.698000  0.151700  0.270900  1.0  0.1095
  H  H168  1  0.740900  0.181000  0.239000  1.0  0.1007
  H  H169  1  0.614600  0.184600  0.229800  1.0  0.0846
  H  H170  1  0.658500  0.217900  0.200700  1.0  0.0823
  H  H171  1  0.589000  0.090600  0.163400  1.0  0.0787
  H  H172  1  0.640400  0.120600  0.138400  1.0  0.0784
  H  H173  1  0.511300  0.130300  0.117500  1.0  0.0733
  H  H174  1  0.564900  0.168300  0.098300  1.0  0.0754
  H  H175  1  0.500200  0.038500  0.051100  1.0  0.0803
  H  H176  1  0.552800  0.077000  0.031200  1.0  0.0793
  H  H177  1  0.434600  0.047700  0.959100  1.0  0.1165
  H  H178  1  0.474100  0.118700  0.990900  1.0  0.1093
  H  H179  1  0.422200  0.081900  0.011900  1.0  0.1009
  H  H180  1  0.860700  0.144700  0.322500  1.0  0.1371
  H  H181  1  0.881700  0.214500  0.347900  1.0  0.1186
  H  H182  1  0.971200  0.229200  0.436600  1.0  0.0938
  H  H183  1  0.947500  0.158900  0.416900  1.0  0.0834
  H  H184  1  0.040600  0.194500  0.396700  1.0  0.0829
  H  H185  1  0.976000  0.159600  0.333200  1.0  0.0782
  H  H186  1  0.039700  0.287500  0.392900  1.0  0.067
  H  H187  1  0.977600  0.251400  0.327800  1.0  0.0689
  H  H188  1  0.112200  0.256000  0.356400  1.0  0.081
  H  H189  1  0.050000  0.218100  0.291500  1.0  0.0882
  H  H190  1  0.120800  0.311400  0.293600  1.0  0.1071
  H  H191  1  0.110300  0.346700  0.347300  1.0  0.108
  H  H192  1  0.047900  0.309000  0.282600  1.0  0.1126
  H  H193  1  0.817900  0.236100  0.852700  1.0  0.1153
  H  H194  1  0.847900  0.198400  0.884800  1.0  0.1036
  H  H195  1  0.842900  0.305100  0.944500  1.0  0.0767
  H  H196  1  0.881300  0.273800  0.979800  1.0  0.0752
  H  H197  1  0.737300  0.215300  0.904500  1.0  0.0767
  H  H198  1  0.777600  0.189500  0.946500  1.0  0.0769
  H  H199  1  0.801000  0.269000  0.032600  1.0  0.0735
  H  H200  1  0.761000  0.295000  0.990800  1.0  0.0724
  H  H201  1  0.700300  0.185800  0.005400  1.0  0.0802
  H  H202  1  0.658200  0.202500  0.954300  1.0  0.0784
  H  H203  1  0.719100  0.278800  0.080000  1.0  0.1049
  H  H204  1  0.641100  0.231400  0.045200  1.0  0.1165
  H  H205  1  0.667600  0.286800  0.027000  1.0  0.1085
  H  H206  1  0.990900  0.117600  0.832000  1.0  0.1263
  H  H207  1  0.023300  0.188000  0.866600  1.0  0.1152
  H  H208  1  0.080600  0.206000  0.807800  1.0  0.1103
  H  H209  1  0.040000  0.138400  0.762600  1.0  0.1081
  H  H210  1  0.144200  0.174300  0.880100  1.0  0.1099
  H  H211  1  0.107600  0.109500  0.829700  1.0  0.0677
  H  H212  1  0.208600  0.211100  0.831100  1.0  0.1055
  H  H213  1  0.169500  0.148500  0.777100  1.0  0.0764
  H  H214  1  0.342600  0.175100  0.922100  1.0  0.1345
  H  H215  1  0.296600  0.202700  0.941500  1.0  0.1078
  H  H216  1  0.338400  0.231900  0.908900  1.0  0.1113
  H  H217  1  0.592100  0.671400  0.651600  1.0  0.0925
  H  H218  1  0.500500  0.927400  0.595400  1.0  0.1057
  H  H219  1  0.240500  0.277900  0.308900  1.0  0.1135
  H  H220  1  0.337700  0.419100  0.101500  1.0  0.1116
  H  H221  1  0.459600  0.965300  0.355700  1.0  0.1122
  H  H222  1  0.408000  0.709000  0.081600  1.0  0.1148
  H  H223  1  0.549200  0.482000  0.571400  1.0  0.0788
  H  H224  1  0.376300  0.347200  0.530800  1.0  0.075
  H  H225  1  0.608400  0.424700  0.590300  1.0  0.1264
  H  H226  1  0.430000  0.288600  0.552600  1.0  0.1232
  H  H227  1  0.608900  0.328100  0.589100  1.0  0.0972
  H  H228  1  0.490100  0.241500  0.578300  1.0  0.0999
  H  H229  1  0.662000  0.270200  0.593600  1.0  0.1231
  H  H230  1  0.483100  0.139800  0.562200  1.0  0.1229
  H  H231  1  0.701900  0.198300  0.578100  1.0  0.0863
  H  H232  1  0.527500  0.071900  0.547100  1.0  0.0677
  H  H233  1  0.300900  0.449600  0.947000  1.0  0.0893
  H  H234  1  0.226000  0.555300  0.894100  1.0  0.0739
  H  H235  1  0.342600  0.441100  0.876700  1.0  0.1283
  H  H236  1  0.260700  0.545800  0.816600  1.0  0.1244
  H  H237  1  0.352600  0.460000  0.788000  1.0  0.0893
  H  H238  1  0.278400  0.515400  0.739000  1.0  0.0939
  H  H239  1  0.274400  0.522900  0.645300  1.0  0.1161
  H  H240  1  0.389700  0.445800  0.718800  1.0  0.13
  H  H241  1  0.309900  0.511900  0.569500  1.0  0.0835
  H  H242  1  0.422700  0.438100  0.642300  1.0  0.0821
  H  H243  1  0.658500  0.839800  0.700000  1.0  0.1294
  H  H244  1  0.686900  0.793200  0.713000  1.0  0.1348
  H  H245  1  0.624600  0.773200  0.770000  1.0  0.095
  H  H246  1  0.596500  0.820200  0.757200  1.0  0.0954
  H  H247  1  0.728600  0.845000  0.839200  1.0  0.0759
  H  H248  1  0.722500  0.893400  0.811400  1.0  0.0752
  H  H249  1  0.650500  0.910100  0.854700  1.0  0.0797
  H  H250  1  0.649000  0.857700  0.878500  1.0  0.0894
  H  H251  1  0.741800  0.975900  0.937500  1.0  0.087
  H  H252  1  0.782700  0.938000  0.927200  1.0  0.0929
  H  H253  1  0.780500  0.952300  0.022500  1.0  0.0817
  H  H254  1  0.699500  0.917300  0.989900  1.0  0.066
  H  H255  1  0.744200  0.882800  0.981800  1.0  0.0829
  H  H256  1  0.399100  0.814000  0.588800  1.0  0.1316
  H  H257  1  0.442500  0.796700  0.638300  1.0  0.1018
  H  H258  1  0.404100  0.864000  0.680600  1.0  0.0834
  H  H259  1  0.444100  0.912500  0.660300  1.0  0.0825
  H  H260  1  0.505700  0.874300  0.750900  1.0  0.0783
  H  H261  1  0.549200  0.915600  0.726600  1.0  0.0713
  H  H262  1  0.516800  0.991800  0.761800  1.0  0.0709
  H  H263  1  0.474700  0.950600  0.787000  1.0  0.0724
  H  H264  1  0.579000  0.957800  0.857600  1.0  0.0766
  H  H265  1  0.621200  0.998800  0.832400  1.0  0.0746
  H  H266  1  0.629500  0.060900  0.923500  1.0  0.1103
  H  H267  1  0.590500  0.076600  0.870200  1.0  0.1045
  H  H268  1  0.548800  0.035700  0.895700  1.0  0.1045
  H  H269  1  0.198000  0.270900  0.151700  1.0  0.1094
  H  H270  1  0.240900  0.239000  0.181000  1.0  0.099
  H  H271  1  0.114600  0.229800  0.184600  1.0  0.0865
  H  H272  1  0.158500  0.200700  0.217900  1.0  0.0835
  H  H273  1  0.089000  0.163400  0.090600  1.0  0.0802
  H  H274  1  0.140400  0.138400  0.120600  1.0  0.0797
  H  H275  1  0.011300  0.117500  0.130300  1.0  0.0734
  H  H276  1  0.064900  0.098300  0.168300  1.0  0.0762
  H  H277  1  0.000200  0.051100  0.038500  1.0  0.08
  H  H278  1  0.052800  0.031200  0.077000  1.0  0.0753
  H  H279  1  0.934600  0.959100  0.047700  1.0  0.118
  H  H280  1  0.974100  0.990900  0.118700  1.0  0.11
  H  H281  1  0.922200  0.011900  0.081900  1.0  0.1042
  H  H282  1  0.360700  0.322500  0.144700  1.0  0.1316
  H  H283  1  0.381700  0.347900  0.214500  1.0  0.1187
  H  H284  1  0.471200  0.436600  0.229200  1.0  0.0901
  H  H285  1  0.447500  0.416900  0.158900  1.0  0.0823
  H  H286  1  0.540600  0.396700  0.194500  1.0  0.0868
  H  H287  1  0.476000  0.333200  0.159600  1.0  0.0784
  H  H288  1  0.539700  0.392900  0.287500  1.0  0.0673
  H  H289  1  0.477600  0.327800  0.251400  1.0  0.0689
  H  H290  1  0.612200  0.356400  0.256000  1.0  0.0829
  H  H291  1  0.550000  0.291500  0.218100  1.0  0.0862
  H  H292  1  0.620800  0.293600  0.311400  1.0  0.1108
  H  H293  1  0.610300  0.347300  0.346700  1.0  0.1075
  H  H294  1  0.547900  0.282600  0.309000  1.0  0.1105
  H  H295  1  0.317900  0.852700  0.236100  1.0  0.113
  H  H296  1  0.347900  0.884800  0.198400  1.0  0.1016
  H  H297  1  0.342900  0.944500  0.305100  1.0  0.0764
  H  H298  1  0.381300  0.979800  0.273800  1.0  0.0758
  H  H299  1  0.237300  0.904500  0.215300  1.0  0.077
  H  H300  1  0.277600  0.946500  0.189500  1.0  0.0795
  H  H301  1  0.301000  0.032600  0.269000  1.0  0.0716
  H  H302  1  0.261000  0.990800  0.295000  1.0  0.0763
  H  H303  1  0.200300  0.005400  0.185800  1.0  0.0777
  H  H304  1  0.158200  0.954300  0.202500  1.0  0.0785
  H  H305  1  0.219100  0.080000  0.278800  1.0  0.109
  H  H306  1  0.141100  0.045200  0.231400  1.0  0.1143
  H  H307  1  0.167600  0.027000  0.286800  1.0  0.1106
  H  H308  1  0.490900  0.832000  0.117600  1.0  0.1245
  H  H309  1  0.523300  0.866600  0.188000  1.0  0.1142
  H  H310  1  0.580600  0.807800  0.206000  1.0  0.1138
  H  H311  1  0.540000  0.762600  0.138400  1.0  0.1039
  H  H312  1  0.644200  0.880100  0.174300  1.0  0.1099
  H  H313  1  0.607600  0.829700  0.109500  1.0  0.0709
  H  H314  1  0.708600  0.831100  0.211100  1.0  0.1035
  H  H315  1  0.669500  0.777100  0.148500  1.0  0.0769
  H  H316  1  0.842600  0.922100  0.175100  1.0  0.1307
  H  H317  1  0.796600  0.941500  0.202700  1.0  0.1088
  H  H318  1  0.838400  0.908900  0.231900  1.0  0.1095
  H  H319  1  0.907900  0.348400  0.328600  1.0  0.0938
  H  H320  1  0.999500  0.404600  0.072600  1.0  0.1055
  H  H321  1  0.259500  0.691100  0.722100  1.0  0.1142
  H  H322  1  0.162300  0.898500  0.580900  1.0  0.1111
  H  H323  1  0.040400  0.644300  0.034700  1.0  0.112
  H  H324  1  0.092000  0.918400  0.291000  1.0  0.1158
  H  H325  1  0.950800  0.428600  0.518000  1.0  0.0785
  H  H326  1  0.123700  0.469200  0.652800  1.0  0.0764
  H  H327  1  0.891600  0.409700  0.575300  1.0  0.1263
  H  H328  1  0.070000  0.447400  0.711400  1.0  0.1225
  H  H329  1  0.891100  0.410900  0.671900  1.0  0.0974
  H  H330  1  0.009900  0.421700  0.758500  1.0  0.1004
  H  H331  1  0.838000  0.406400  0.729800  1.0  0.1233
  H  H332  1  0.016900  0.437800  0.860200  1.0  0.1254
  H  H333  1  0.798100  0.421900  0.801700  1.0  0.0868
  H  H334  1  0.972500  0.452900  0.928100  1.0  0.0686
  H  H335  1  0.199100  0.053000  0.550400  1.0  0.0897
  H  H336  1  0.274000  0.105900  0.444700  1.0  0.0756
  H  H337  1  0.157400  0.123300  0.558900  1.0  0.1269
  H  H338  1  0.239300  0.183400  0.454200  1.0  0.1256
  H  H339  1  0.147400  0.212000  0.540000  1.0  0.0909
  H  H340  1  0.221600  0.261000  0.484600  1.0  0.0933
  H  H341  1  0.225600  0.354700  0.477100  1.0  0.1159
  H  H342  1  0.110300  0.281200  0.554200  1.0  0.1308
  H  H343  1  0.190100  0.430500  0.488100  1.0  0.0833
  H  H344  1  0.077300  0.357700  0.561900  1.0  0.0823
  H  H345  1  0.841500  0.300000  0.160200  1.0  0.1297
  H  H346  1  0.813100  0.287000  0.206800  1.0  0.1339
  H  H347  1  0.875400  0.230000  0.226800  1.0  0.0917
  H  H348  1  0.903500  0.242800  0.179800  1.0  0.095
  H  H349  1  0.771400  0.160800  0.155000  1.0  0.077
  H  H350  1  0.777500  0.188600  0.106600  1.0  0.0765
  H  H351  1  0.849500  0.145300  0.089900  1.0  0.0787
  H  H352  1  0.851000  0.121500  0.142300  1.0  0.0886
  H  H353  1  0.758200  0.062500  0.024100  1.0  0.0898
  H  H354  1  0.717300  0.072800  0.062000  1.0  0.0937
  H  H355  1  0.719500  0.977500  0.047700  1.0  0.0801
  H  H356  1  0.800500  0.010100  0.082700  1.0  0.0717
  H  H357  1  0.755800  0.018200  0.117200  1.0  0.0873
  H  H358  1  0.100900  0.411200  0.186000  1.0  0.1312
  H  H359  1  0.057500  0.361700  0.203300  1.0  0.1026
  H  H360  1  0.095900  0.319400  0.136000  1.0  0.0862
  H  H361  1  0.055900  0.339700  0.087500  1.0  0.0809
  H  H362  1  0.994300  0.249100  0.125700  1.0  0.0774
  H  H363  1  0.950800  0.273400  0.084400  1.0  0.0728
  H  H364  1  0.983200  0.238200  0.008200  1.0  0.0726
  H  H365  1  0.025300  0.213000  0.049400  1.0  0.0766
  H  H366  1  0.921000  0.142400  0.042200  1.0  0.0767
  H  H367  1  0.878800  0.167600  0.001200  1.0  0.0743
  H  H368  1  0.870500  0.076500  0.939100  1.0  0.1095
  H  H369  1  0.909500  0.129800  0.923400  1.0  0.1055
  H  H370  1  0.951200  0.104300  0.964300  1.0  0.1107
  H  H371  1  0.302000  0.848300  0.729100  1.0  0.1088
  H  H372  1  0.259100  0.819000  0.761000  1.0  0.1025
  H  H373  1  0.385400  0.815400  0.770200  1.0  0.0859
  H  H374  1  0.341500  0.782100  0.799300  1.0  0.0846
  H  H375  1  0.411000  0.909400  0.836600  1.0  0.0781
  H  H376  1  0.359600  0.879400  0.861600  1.0  0.076
  H  H377  1  0.488700  0.869700  0.882500  1.0  0.0737
  H  H378  1  0.435100  0.831700  0.901700  1.0  0.0753
  H  H379  1  0.499800  0.961500  0.948900  1.0  0.0788
  H  H380  1  0.447200  0.923000  0.968800  1.0  0.0793
  H  H381  1  0.565400  0.952300  0.040900  1.0  0.1175
  H  H382  1  0.525900  0.881300  0.009100  1.0  0.1101
  H  H383  1  0.577800  0.918100  0.988100  1.0  0.1019
  H  H384  1  0.139300  0.855300  0.677500  1.0  0.1374
  H  H385  1  0.118300  0.785500  0.652100  1.0  0.1193
  H  H386  1  0.028800  0.770800  0.563400  1.0  0.0935
  H  H387  1  0.052500  0.841100  0.583100  1.0  0.0825
  H  H388  1  0.959400  0.805500  0.603300  1.0  0.0831
  H  H389  1  0.024000  0.840400  0.666800  1.0  0.0812
  H  H390  1  0.960300  0.712500  0.607100  1.0  0.0668
  H  H391  1  0.022400  0.748600  0.672200  1.0  0.0711
  H  H392  1  0.887800  0.744000  0.643600  1.0  0.0827
  H  H393  1  0.950000  0.781900  0.708500  1.0  0.0875
  H  H394  1  0.879200  0.688600  0.706400  1.0  0.1085
  H  H395  1  0.889700  0.653300  0.652700  1.0  0.1076
  H  H396  1  0.952100  0.691000  0.717400  1.0  0.1113
  H  H397  1  0.182100  0.763900  0.147300  1.0  0.1147
  H  H398  1  0.152100  0.801600  0.115200  1.0  0.1031
  H  H399  1  0.157100  0.694900  0.055500  1.0  0.0761
  H  H400  1  0.118700  0.726200  0.020200  1.0  0.0758
  H  H401  1  0.262700  0.784700  0.095500  1.0  0.0777
  H  H402  1  0.222400  0.810500  0.053500  1.0  0.0762
  H  H403  1  0.199000  0.731000  0.967400  1.0  0.0732
  H  H404  1  0.239000  0.705000  0.009200  1.0  0.0749
  H  H405  1  0.299700  0.814200  0.994600  1.0  0.0776
  H  H406  1  0.341800  0.797500  0.045700  1.0  0.0797
  H  H407  1  0.280900  0.721200  0.920000  1.0  0.1068
  H  H408  1  0.358900  0.768600  0.954800  1.0  0.1155
  H  H409  1  0.332400  0.713200  0.973000  1.0  0.1081
  H  H410  1  0.009100  0.882400  0.168000  1.0  0.1267
  H  H411  1  0.976700  0.812000  0.133400  1.0  0.1155
  H  H412  1  0.919400  0.794000  0.192200  1.0  0.107
  H  H413  1  0.960000  0.861600  0.237400  1.0  0.1088
  H  H414  1  0.855800  0.825700  0.119900  1.0  0.1123
  H  H415  1  0.892400  0.890500  0.170300  1.0  0.0703
  H  H416  1  0.791400  0.788900  0.168900  1.0  0.1007
  H  H417  1  0.830500  0.851500  0.222900  1.0  0.0715
  H  H418  1  0.657400  0.824900  0.077900  1.0  0.1362
  H  H419  1  0.703400  0.797300  0.058500  1.0  0.107
  H  H420  1  0.661600  0.768100  0.091100  1.0  0.1103
  C  C421  1  0.541600  0.414550  0.436070  1.0  0.643
  C  C422  1  0.499900  0.346880  0.410520  1.0  -0.161
  C  C423  1  0.435900  0.312720  0.368080  1.0  -0.0671
  C  C424  1  0.413200  0.248810  0.354790  1.0  0.0505
  C  C425  1  0.463500  0.237940  0.390340  1.0  -0.1469
  C  C426  1  0.458900  0.180620  0.396360  1.0  -0.1815
  C  C427  1  0.499700  0.151220  0.392200  1.0  0.0825
  C  C428  1  0.478000  0.098240  0.405140  1.0  -0.1421
  C  C429  1  0.423100  0.088350  0.418410  1.0  -0.1923
  C  C430  1  0.386800  0.039770  0.435470  1.0  0.682
  C  C431  1  0.684500  0.615660  0.585340  1.0  0.6738
  C  C432  1  0.704000  0.631080  0.651060  1.0  -0.1578
  C  C433  1  0.740700  0.686520  0.697080  1.0  -0.1371
  C  C434  1  0.748400  0.685790  0.755490  1.0  0.0821
  C  C435  1  0.717400  0.627340  0.751480  1.0  -0.1639
  C  C436  1  0.713700  0.605500  0.799420  1.0  -0.1488
  C  C437  1  0.676600  0.611950  0.831870  1.0  -0.0617
  C  C438  1  0.683600  0.581070  0.872610  1.0  -0.1224
  C  C439  1  0.723900  0.552220  0.870080  1.0  -0.2098
  C  C440  1  0.745400  0.518350  0.906470  1.0  0.755
  C  C441  1  0.411000  0.031210  0.580850  1.0  0.7105
  C  C442  1  0.469400  0.068100  0.641720  1.0  -0.2013
  C  C443  1  0.530400  0.063550  0.665250  1.0  -0.1771
  C  C444  1  0.576500  0.107400  0.724880  1.0  0.087
  C  C445  1  0.549400  0.144840  0.744360  1.0  -0.1764
  C  C446  1  0.581900  0.199370  0.801010  1.0  -0.1553
  C  C447  1  0.557300  0.214390  0.842410  1.0  0.0907
  C  C448  1  0.600900  0.273630  0.886830  1.0  -0.1581
  C  C449  1  0.657700  0.302990  0.878510  1.0  -0.1942
  C  C450  1  0.713400  0.365640  0.914920  1.0  0.7242
  C  C451  1  0.475200  0.557820  0.433400  1.0  0.1636
  C  C452  1  0.576100  0.636720  0.456560  1.0  0.1649
  C  C453  1  0.439000  0.592040  0.421480  1.0  -0.2101
  C  C454  1  0.544500  0.672600  0.444400  1.0  -0.2062
  C  C455  1  0.473600  0.650930  0.427190  1.0  0.1406
  C  C456  1  0.437500  0.688310  0.418670  1.0  -0.1206
  C  C457  1  0.466400  0.744700  0.421200  1.0  -0.1403
  C  C458  1  0.433900  0.786590  0.423310  1.0  0.1369
  C  C459  1  0.367000  0.770270  0.416930  1.0  -0.2133
  C  C460  1  0.472600  0.847210  0.435550  1.0  -0.2298
  C  C461  1  0.343200  0.813550  0.426050  1.0  0.1525
  C  C462  1  0.445300  0.887630  0.444190  1.0  0.1726
  C  C463  1  0.707200  0.530520  0.079480  1.0  0.1656
  C  C464  1  0.751800  0.469310  0.110690  1.0  0.1639
  C  C465  1  0.683600  0.537240  0.122560  1.0  -0.1943
  C  C466  1  0.731100  0.474860  0.157740  1.0  -0.218
  C  C467  1  0.698400  0.511930  0.165070  1.0  0.1355
  C  C468  1  0.676400  0.520820  0.213980  1.0  -0.1287
  C  C469  1  0.693500  0.504580  0.259420  1.0  -0.127
  C  C470  1  0.672400  0.514920  0.309480  1.0  0.0805
  C  C471  1  0.695600  0.494970  0.354670  1.0  -0.2342
  C  C472  1  0.627400  0.540430  0.311170  1.0  -0.2019
  C  C473  1  0.674000  0.501830  0.400130  1.0  0.1643
  C  C474  1  0.608200  0.545100  0.357500  1.0  0.1689
  C  C475  1  0.353100  0.198400  0.294200  1.0  -0.3241
  C  C476  1  0.363900  0.188800  0.236200  1.0  -0.0895
  C  C477  1  0.302500  0.138500  0.178100  1.0  -0.1274
  C  C478  1  0.322200  0.110100  0.129500  1.0  -0.1345
  C  C479  1  0.259100  0.064000  0.069200  1.0  -0.1281
  C  C480  1  0.259000  0.079300  0.013500  1.0  -0.3253
  C  C481  1  0.557600  0.170360  0.375240  1.0  -0.2618
  C  C482  1  0.554900  0.120260  0.325940  1.0  -0.1045
  C  C483  1  0.491700  0.094770  0.266230  1.0  -0.1207
  C  C484  1  0.484800  0.038800  0.220800  1.0  -0.1361
  C  C485  1  0.419400  0.011600  0.159800  1.0  -0.0963
  C  C486  1  0.411900  0.954100  0.113100  1.0  -0.303
  C  C487  1  0.788900  0.741750  0.814450  1.0  -0.2927
  C  C488  1  0.854200  0.788500  0.817300  1.0  -0.0909
  C  C489  1  0.891800  0.845800  0.874200  1.0  -0.1081
  C  C490  1  0.952900  0.895700  0.869100  1.0  -0.0668
  C  C491  1  0.982500  0.954900  0.923900  1.0  -0.064
  C  C492  1  0.044100  0.003100  0.918300  1.0  -0.3186
  C  C493  1  0.621700  0.640700  0.820100  1.0  -0.329
  C  C494  1  0.549000  0.598000  0.808600  1.0  -0.0955
  C  C495  1  0.501100  0.629500  0.804900  1.0  -0.0945
  C  C496  1  0.481300  0.644000  0.748200  1.0  -0.1276
  C  C497  1  0.429500  0.672300  0.745500  1.0  -0.0953
  C  C498  1  0.410900  0.688700  0.689300  1.0  -0.3183
  C  C499  1  0.646500  0.111040  0.760780  1.0  -0.2971
  C  C500  1  0.657300  0.056840  0.733760  1.0  -0.1236
  C  C501  1  0.724300  0.056970  0.773430  1.0  -0.12
  C  C502  1  0.737500  0.005850  0.742150  1.0  -0.1213
  C  C503  1  0.804000  0.005310  0.780690  1.0  -0.1035
  C  C504  1  0.820700  0.958800  0.742200  1.0  -0.3221
  C  C505  1  0.495500  0.172500  0.843500  1.0  -0.2537
  C  C506  1  0.437700  0.194700  0.835500  1.0  -0.1157
  C  C507  1  0.374200  0.163200  0.847600  1.0  -0.1232
  C  C508  1  0.311600  0.179100  0.832300  1.0  -0.1503
  C  C509  1  0.187000  0.088700  0.805500  1.0  -0.3444
  C  C510  1  0.958400  0.563930  0.585450  1.0  0.6421
  C  C511  1  0.000100  0.589480  0.653120  1.0  -0.1588
  C  C512  1  0.064100  0.631920  0.687280  1.0  -0.0686
  C  C513  1  0.086800  0.645210  0.751190  1.0  0.0517
  C  C514  1  0.036500  0.609660  0.762060  1.0  -0.1472
  C  C515  1  0.041100  0.603640  0.819380  1.0  -0.1777
  C  C516  1  0.000300  0.607800  0.848780  1.0  0.0797
  C  C517  1  0.022000  0.594860  0.901760  1.0  -0.1446
  C  C518  1  0.076900  0.581590  0.911650  1.0  -0.1943
  C  C519  1  0.113200  0.564530  0.960230  1.0  0.6811
  C  C520  1  0.815500  0.414660  0.384340  1.0  0.6728
  C  C521  1  0.796000  0.348940  0.368920  1.0  -0.1595
  C  C522  1  0.759300  0.302920  0.313480  1.0  -0.1385
  C  C523  1  0.751600  0.244510  0.314210  1.0  0.0826
  C  C524  1  0.782600  0.248520  0.372660  1.0  -0.1456
  C  C525  1  0.786300  0.200580  0.394500  1.0  -0.1458
  C  C526  1  0.823400  0.168130  0.388050  1.0  -0.0618
  C  C527  1  0.816400  0.127390  0.418930  1.0  -0.1225
  C  C528  1  0.776100  0.129920  0.447780  1.0  -0.2088
  C  C529  1  0.754600  0.093530  0.481650  1.0  0.7545
  C  C530  1  0.089000  0.419150  0.968790  1.0  0.7122
  C  C531  1  0.030600  0.358280  0.931900  1.0  -0.2045
  C  C532  1  0.969600  0.334750  0.936450  1.0  -0.179
  C  C533  1  0.923500  0.275120  0.892600  1.0  0.092
  C  C534  1  0.950600  0.255640  0.855160  1.0  -0.1774
  C  C535  1  0.918100  0.198990  0.800630  1.0  -0.1586
  C  C536  1  0.942700  0.157590  0.785610  1.0  0.0889
  C  C537  1  0.899100  0.113170  0.726370  1.0  -0.1512
  C  C538  1  0.842300  0.121490  0.697010  1.0  -0.1991
  C  C539  1  0.786600  0.085080  0.634360  1.0  0.7207
  C  C540  1  0.024800  0.566600  0.442180  1.0  0.1712
  C  C541  1  0.923900  0.543440  0.363280  1.0  0.1634
  C  C542  1  0.061000  0.578520  0.407960  1.0  -0.2121
  C  C543  1  0.955500  0.555600  0.327400  1.0  -0.203
  C  C544  1  0.026400  0.572810  0.349070  1.0  0.1478
  C  C545  1  0.062500  0.581330  0.311690  1.0  -0.1199
  C  C546  1  0.033600  0.578800  0.255300  1.0  -0.1398
  C  C547  1  0.066100  0.576690  0.213410  1.0  0.1411
  C  C548  1  0.133000  0.583070  0.229730  1.0  -0.21
  C  C549  1  0.027400  0.564450  0.152790  1.0  -0.2332
  C  C550  1  0.156800  0.573950  0.186450  1.0  0.1553
  C  C551  1  0.054700  0.555810  0.112370  1.0  0.175
  C  C552  1  0.792800  0.920520  0.469480  1.0  0.1602
  C  C553  1  0.748200  0.889310  0.530690  1.0  0.1658
  C  C554  1  0.816400  0.877440  0.462760  1.0  -0.1944
  C  C555  1  0.768900  0.842260  0.525140  1.0  -0.2181
  C  C556  1  0.801600  0.834930  0.488070  1.0  0.141
  C  C557  1  0.823600  0.786020  0.479180  1.0  -0.1272
  C  C558  1  0.806500  0.740580  0.495420  1.0  -0.128
  C  C559  1  0.827600  0.690520  0.485080  1.0  0.0733
  C  C560  1  0.804400  0.645330  0.505030  1.0  -0.2313
  C  C561  1  0.872600  0.688830  0.459570  1.0  -0.2003
  C  C562  1  0.826000  0.599870  0.498170  1.0  0.1632
  C  C563  1  0.891800  0.642500  0.454900  1.0  0.168
  C  C564  1  0.146900  0.705800  0.801600  1.0  -0.3194
  C  C565  1  0.136100  0.763800  0.811200  1.0  -0.0899
  C  C566  1  0.197500  0.821900  0.861500  1.0  -0.1218
  C  C567  1  0.177800  0.870500  0.889900  1.0  -0.1386
  C  C568  1  0.240900  0.930800  0.936000  1.0  -0.1255
  C  C569  1  0.241000  0.986500  0.920700  1.0  -0.3217
  C  C570  1  0.942400  0.624760  0.829640  1.0  -0.2622
  C  C571  1  0.945100  0.674060  0.879740  1.0  -0.1114
  C  C572  1  0.008300  0.733770  0.905230  1.0  -0.1255
  C  C573  1  0.015200  0.779200  0.961200  1.0  -0.1423
  C  C574  1  0.080600  0.840200  0.988400  1.0  -0.0975
  C  C575  1  0.088100  0.886900  0.045900  1.0  -0.3026
  C  C576  1  0.711100  0.185550  0.258250  1.0  -0.2953
  C  C577  1  0.645800  0.182700  0.211500  1.0  -0.0876
  C  C578  1  0.608200  0.125800  0.154200  1.0  -0.1035
  C  C579  1  0.547100  0.130900  0.104300  1.0  -0.067
  C  C580  1  0.517500  0.076100  0.045100  1.0  -0.063
  C  C581  1  0.455900  0.081700  0.996900  1.0  -0.3179
  C  C582  1  0.878300  0.179900  0.359300  1.0  -0.3332
  C  C583  1  0.951000  0.191400  0.402000  1.0  -0.0956
  C  C584  1  0.998900  0.195100  0.370500  1.0  -0.0947
  C  C585  1  0.018700  0.251800  0.356000  1.0  -0.1232
  C  C586  1  0.070500  0.254500  0.327700  1.0  -0.0922
  C  C587  1  0.089100  0.310700  0.311300  1.0  -0.3179
  C  C588  1  0.853500  0.239220  0.888960  1.0  -0.3018
  C  C589  1  0.842700  0.266240  0.943160  1.0  -0.124
  C  C590  1  0.775700  0.226570  0.943030  1.0  -0.121
  C  C591  1  0.762500  0.257850  0.994150  1.0  -0.1212
  C  C592  1  0.696000  0.219310  0.994690  1.0  -0.1041
  C  C593  1  0.679300  0.257800  0.041200  1.0  -0.3186
  C  C594  1  0.004500  0.156500  0.827500  1.0  -0.252
  C  C595  1  0.062300  0.164500  0.805300  1.0  -0.1135
  C  C596  1  0.125800  0.152400  0.836800  1.0  -0.124
  C  C597  1  0.188400  0.167700  0.820900  1.0  -0.1502
  C  C598  1  0.313000  0.194500  0.911300  1.0  -0.3432
  C  C599  1  0.458400  0.585450  0.563930  1.0  0.6416
  C  C600  1  0.500100  0.653120  0.589480  1.0  -0.16
  C  C601  1  0.564100  0.687280  0.631920  1.0  -0.0673
  C  C602  1  0.586800  0.751190  0.645210  1.0  0.055
  C  C603  1  0.536500  0.762060  0.609660  1.0  -0.1463
  C  C604  1  0.541100  0.819380  0.603640  1.0  -0.1783
  C  C605  1  0.500300  0.848780  0.607800  1.0  0.0828
  C  C606  1  0.522000  0.901760  0.594860  1.0  -0.1441
  C  C607  1  0.576900  0.911650  0.581590  1.0  -0.1923
  C  C608  1  0.613200  0.960230  0.564530  1.0  0.6821
  C  C609  1  0.315500  0.384340  0.414660  1.0  0.6726
  C  C610  1  0.296000  0.368920  0.348940  1.0  -0.1574
  C  C611  1  0.259300  0.313480  0.302920  1.0  -0.1362
  C  C612  1  0.251600  0.314210  0.244510  1.0  0.0835
  C  C613  1  0.282600  0.372660  0.248520  1.0  -0.1609
  C  C614  1  0.286300  0.394500  0.200580  1.0  -0.1476
  C  C615  1  0.323400  0.388050  0.168130  1.0  -0.061
  C  C616  1  0.316400  0.418930  0.127390  1.0  -0.1213
  C  C617  1  0.276100  0.447780  0.129920  1.0  -0.2095
  C  C618  1  0.254600  0.481650  0.093530  1.0  0.7555
  C  C619  1  0.589000  0.968790  0.419150  1.0  0.7117
  C  C620  1  0.530600  0.931900  0.358280  1.0  -0.2037
  C  C621  1  0.469600  0.936450  0.334750  1.0  -0.1783
  C  C622  1  0.423500  0.892600  0.275120  1.0  0.0872
  C  C623  1  0.450600  0.855160  0.255640  1.0  -0.1763
  C  C624  1  0.418100  0.800630  0.198990  1.0  -0.148
  C  C625  1  0.442700  0.785610  0.157590  1.0  0.0906
  C  C626  1  0.399100  0.726370  0.113170  1.0  -0.1549
  C  C627  1  0.342300  0.697010  0.121490  1.0  -0.1855
  C  C628  1  0.286600  0.634360  0.085080  1.0  0.7258
  C  C629  1  0.524800  0.442180  0.566600  1.0  0.1646
  C  C630  1  0.423900  0.363280  0.543440  1.0  0.1629
  C  C631  1  0.561000  0.407960  0.578520  1.0  -0.2117
  C  C632  1  0.455500  0.327400  0.555600  1.0  -0.2081
  C  C633  1  0.526400  0.349070  0.572810  1.0  0.1426
  C  C634  1  0.562500  0.311690  0.581330  1.0  -0.1189
  C  C635  1  0.533600  0.255300  0.578800  1.0  -0.1417
  C  C636  1  0.566100  0.213410  0.576690  1.0  0.1399
  C  C637  1  0.633000  0.229730  0.583070  1.0  -0.2131
  C  C638  1  0.527400  0.152790  0.564450  1.0  -0.2309
  C  C639  1  0.656800  0.186450  0.573950  1.0  0.1531
  C  C640  1  0.554700  0.112370  0.555810  1.0  0.1713
  C  C641  1  0.292800  0.469480  0.920520  1.0  0.1651
  C  C642  1  0.248200  0.530690  0.889310  1.0  0.1651
  C  C643  1  0.316400  0.462760  0.877440  1.0  -0.1912
  C  C644  1  0.268900  0.525140  0.842260  1.0  -0.2175
  C  C645  1  0.301600  0.488070  0.834930  1.0  0.1344
  C  C646  1  0.323600  0.479180  0.786020  1.0  -0.127
  C  C647  1  0.306500  0.495420  0.740580  1.0  -0.1281
  C  C648  1  0.327600  0.485080  0.690520  1.0  0.0799
  C  C649  1  0.304400  0.505030  0.645330  1.0  -0.2329
  C  C650  1  0.372600  0.459570  0.688830  1.0  -0.1992
  C  C651  1  0.326000  0.498170  0.599870  1.0  0.1648
  C  C652  1  0.391800  0.454900  0.642500  1.0  0.1685
  C  C653  1  0.646900  0.801600  0.705800  1.0  -0.3226
  C  C654  1  0.636100  0.811200  0.763800  1.0  -0.0901
  C  C655  1  0.697500  0.861500  0.821900  1.0  -0.1242
  C  C656  1  0.677800  0.889900  0.870500  1.0  -0.1372
  C  C657  1  0.740900  0.936000  0.930800  1.0  -0.1284
  C  C658  1  0.741000  0.920700  0.986500  1.0  -0.3231
  C  C659  1  0.442400  0.829640  0.624760  1.0  -0.2635
  C  C660  1  0.445100  0.879740  0.674060  1.0  -0.1049
  C  C661  1  0.508300  0.905230  0.733770  1.0  -0.1204
  C  C662  1  0.515200  0.961200  0.779200  1.0  -0.1366
  C  C663  1  0.580600  0.988400  0.840200  1.0  -0.0975
  C  C664  1  0.588100  0.045900  0.886900  1.0  -0.3031
  C  C665  1  0.211100  0.258250  0.185550  1.0  -0.2938
  C  C666  1  0.145800  0.211500  0.182700  1.0  -0.0903
  C  C667  1  0.108200  0.154200  0.125800  1.0  -0.1081
  C  C668  1  0.047100  0.104300  0.130900  1.0  -0.0682
  C  C669  1  0.017500  0.045100  0.076100  1.0  -0.0637
  C  C670  1  0.955900  0.996900  0.081700  1.0  -0.3183
  C  C671  1  0.378300  0.359300  0.179900  1.0  -0.3289
  C  C672  1  0.451000  0.402000  0.191400  1.0  -0.0977
  C  C673  1  0.498900  0.370500  0.195100  1.0  -0.0943
  C  C674  1  0.518700  0.356000  0.251800  1.0  -0.1285
  C  C675  1  0.570500  0.327700  0.254500  1.0  -0.092
  C  C676  1  0.589100  0.311300  0.310700  1.0  -0.3187
  C  C677  1  0.353500  0.888960  0.239220  1.0  -0.2991
  C  C678  1  0.342700  0.943160  0.266240  1.0  -0.1254
  C  C679  1  0.275700  0.943030  0.226570  1.0  -0.1187
  C  C680  1  0.262500  0.994150  0.257850  1.0  -0.1217
  C  C681  1  0.196000  0.994690  0.219310  1.0  -0.1035
  C  C682  1  0.179300  0.041200  0.257800  1.0  -0.3198
  C  C683  1  0.504500  0.827500  0.156500  1.0  -0.2526
  C  C684  1  0.562300  0.805300  0.164500  1.0  -0.1152
  C  C685  1  0.625800  0.836800  0.152400  1.0  -0.1194
  C  C686  1  0.688400  0.820900  0.167700  1.0  -0.1507
  C  C687  1  0.813000  0.911300  0.194500  1.0  -0.3455
  C  C688  1  0.041600  0.436070  0.414550  1.0  0.6427
  C  C689  1  0.999900  0.410520  0.346880  1.0  -0.159
  C  C690  1  0.935900  0.368080  0.312720  1.0  -0.0689
  C  C691  1  0.913200  0.354790  0.248810  1.0  0.0503
  C  C692  1  0.963500  0.390340  0.237940  1.0  -0.1453
  C  C693  1  0.958900  0.396360  0.180620  1.0  -0.1807
  C  C694  1  0.999700  0.392200  0.151220  1.0  0.0823
  C  C695  1  0.978000  0.405140  0.098240  1.0  -0.1423
  C  C696  1  0.923100  0.418410  0.088350  1.0  -0.1937
  C  C697  1  0.886800  0.435470  0.039770  1.0  0.6812
  C  C698  1  0.184500  0.585340  0.615660  1.0  0.6731
  C  C699  1  0.204000  0.651060  0.631080  1.0  -0.1592
  C  C700  1  0.240700  0.697080  0.686520  1.0  -0.1387
  C  C701  1  0.248400  0.755490  0.685790  1.0  0.0846
  C  C702  1  0.217400  0.751480  0.627340  1.0  -0.1601
  C  C703  1  0.213700  0.799420  0.605500  1.0  -0.1475
  C  C704  1  0.176600  0.831870  0.611950  1.0  -0.0621
  C  C705  1  0.183600  0.872610  0.581070  1.0  -0.1235
  C  C706  1  0.223900  0.870080  0.552220  1.0  -0.2106
  C  C707  1  0.245400  0.906470  0.518350  1.0  0.7552
  C  C708  1  0.911000  0.580850  0.031210  1.0  0.7106
  C  C709  1  0.969400  0.641720  0.068100  1.0  -0.2021
  C  C710  1  0.030400  0.665250  0.063550  1.0  -0.1788
  C  C711  1  0.076500  0.724880  0.107400  1.0  0.091
  C  C712  1  0.049400  0.744360  0.144840  1.0  -0.1736
  C  C713  1  0.081900  0.801010  0.199370  1.0  -0.1602
  C  C714  1  0.057300  0.842410  0.214390  1.0  0.0889
  C  C715  1  0.100900  0.886830  0.273630  1.0  -0.154
  C  C716  1  0.157700  0.878510  0.302990  1.0  -0.1931
  C  C717  1  0.213400  0.914920  0.365640  1.0  0.7179
  C  C718  1  0.975200  0.433400  0.557820  1.0  0.1691
  C  C719  1  0.076100  0.456560  0.636720  1.0  0.1627
  C  C720  1  0.939000  0.421480  0.592040  1.0  -0.2116
  C  C721  1  0.044500  0.444400  0.672600  1.0  -0.2036
  C  C722  1  0.973600  0.427190  0.650930  1.0  0.1483
  C  C723  1  0.937500  0.418670  0.688310  1.0  -0.1207
  C  C724  1  0.966400  0.421200  0.744700  1.0  -0.1406
  C  C725  1  0.933900  0.423310  0.786590  1.0  0.1385
  C  C726  1  0.867000  0.416930  0.770270  1.0  -0.2099
  C  C727  1  0.972600  0.435550  0.847210  1.0  -0.2329
  C  C728  1  0.843200  0.426050  0.813550  1.0  0.1534
  C  C729  1  0.945300  0.444190  0.887630  1.0  0.174
  C  C730  1  0.207200  0.079480  0.530520  1.0  0.1621
  C  C731  1  0.251800  0.110690  0.469310  1.0  0.1647
  C  C732  1  0.183600  0.122560  0.537240  1.0  -0.1938
  C  C733  1  0.231100  0.157740  0.474860  1.0  -0.2182
  C  C734  1  0.198400  0.165070  0.511930  1.0  0.1403
  C  C735  1  0.176400  0.213980  0.520820  1.0  -0.1257
  C  C736  1  0.193500  0.259420  0.504580  1.0  -0.1278
  C  C737  1  0.172400  0.309480  0.514920  1.0  0.0747
  C  C738  1  0.195600  0.354670  0.494970  1.0  -0.2323
  C  C739  1  0.127400  0.311170  0.540430  1.0  -0.1946
  C  C740  1  0.174000  0.400130  0.501830  1.0  0.1632
  C  C741  1  0.108200  0.357500  0.545100  1.0  0.1675
  C  C742  1  0.853100  0.294200  0.198400  1.0  -0.3206
  C  C743  1  0.863900  0.236200  0.188800  1.0  -0.0881
  C  C744  1  0.802500  0.178100  0.138500  1.0  -0.1272
  C  C745  1  0.822200  0.129500  0.110100  1.0  -0.1375
  C  C746  1  0.759100  0.069200  0.064000  1.0  -0.1252
  C  C747  1  0.759000  0.013500  0.079300  1.0  -0.3212
  C  C748  1  0.057600  0.375240  0.170360  1.0  -0.2607
  C  C749  1  0.054900  0.325940  0.120260  1.0  -0.1111
  C  C750  1  0.991700  0.266230  0.094770  1.0  -0.1269
  C  C751  1  0.984800  0.220800  0.038800  1.0  -0.1406
  C  C752  1  0.919400  0.159800  0.011600  1.0  -0.0998
  C  C753  1  0.911900  0.113100  0.954100  1.0  -0.3033
  C  C754  1  0.288900  0.814450  0.741750  1.0  -0.2962
  C  C755  1  0.354200  0.817300  0.788500  1.0  -0.0883
  C  C756  1  0.391800  0.874200  0.845800  1.0  -0.1014
  C  C757  1  0.452900  0.869100  0.895700  1.0  -0.0677
  C  C758  1  0.482500  0.923900  0.954900  1.0  -0.0629
  C  C759  1  0.544100  0.918300  0.003100  1.0  -0.3172
  C  C760  1  0.121700  0.820100  0.640700  1.0  -0.3364
  C  C761  1  0.049000  0.808600  0.598000  1.0  -0.0934
  C  C762  1  0.001100  0.804900  0.629500  1.0  -0.0952
  C  C763  1  0.981300  0.748200  0.644000  1.0  -0.1247
  C  C764  1  0.929500  0.745500  0.672300  1.0  -0.0958
  C  C765  1  0.910900  0.689300  0.688700  1.0  -0.3188
  C  C766  1  0.146500  0.760780  0.111040  1.0  -0.3006
  C  C767  1  0.157300  0.733760  0.056840  1.0  -0.1231
  C  C768  1  0.224300  0.773430  0.056970  1.0  -0.1218
  C  C769  1  0.237500  0.742150  0.005850  1.0  -0.1195
  C  C770  1  0.304000  0.780690  0.005310  1.0  -0.1048
  C  C771  1  0.320700  0.742200  0.958800  1.0  -0.3206
  C  C772  1  0.995500  0.843500  0.172500  1.0  -0.2543
  C  C773  1  0.937700  0.835500  0.194700  1.0  -0.1141
  C  C774  1  0.874200  0.847600  0.163200  1.0  -0.1227
  C  C775  1  0.811600  0.832300  0.179100  1.0  -0.1524
  C  C776  1  0.687000  0.805500  0.088700  1.0  -0.3409
  C  C777  1  0.250000  0.151700  0.848300  1.0  0.1106
  C  C778  1  0.750000  0.848300  0.151700  1.0  0.1097
  S  S779  1  0.537870  0.303430  0.435630  1.0  0.1188
  S  S780  1  0.396770  0.144650  0.417230  1.0  0.1123
  S  S781  1  0.678790  0.575470  0.677810  1.0  0.1333
  S  S782  1  0.754570  0.561050  0.817190  1.0  0.1212
  S  S783  1  0.468320  0.127050  0.690970  1.0  0.135
  S  S784  1  0.658020  0.258040  0.816160  1.0  0.1253
  S  S785  1  0.962130  0.564370  0.696570  1.0  0.1197
  S  S786  1  0.103230  0.582770  0.855350  1.0  0.1096
  S  S787  1  0.821210  0.322190  0.424530  1.0  0.1264
  S  S788  1  0.745430  0.182810  0.438950  1.0  0.1226
  S  S789  1  0.031680  0.309030  0.872950  1.0  0.1318
  S  S790  1  0.841980  0.183840  0.741960  1.0  0.124
  S  S791  1  0.462130  0.696570  0.564370  1.0  0.1202
  S  S792  1  0.603230  0.855350  0.582770  1.0  0.1095
  S  S793  1  0.321210  0.424530  0.322190  1.0  0.1313
  S  S794  1  0.245430  0.438950  0.182810  1.0  0.1221
  S  S795  1  0.531680  0.872950  0.309030  1.0  0.1327
  S  S796  1  0.341980  0.741960  0.183840  1.0  0.1263
  S  S797  1  0.037870  0.435630  0.303430  1.0  0.1177
  S  S798  1  0.896770  0.417230  0.144650  1.0  0.1116
  S  S799  1  0.178790  0.677810  0.575470  1.0  0.1299
  S  S800  1  0.254570  0.817190  0.561050  1.0  0.1209
  S  S801  1  0.968320  0.690970  0.127050  1.0  0.1331
  S  S802  1  0.158020  0.816160  0.258040  1.0  0.1247
  N  N803  1  0.543400  0.579820  0.451560  1.0  -0.3254
  N  N804  1  0.382500  0.872400  0.440780  1.0  -0.3247
  N  N805  1  0.741100  0.497450  0.072990  1.0  -0.3144
  N  N806  1  0.631300  0.527030  0.402630  1.0  -0.3322
  N  N807  1  0.956600  0.548440  0.420180  1.0  -0.3255
  N  N808  1  0.117500  0.559220  0.127600  1.0  -0.3257
  N  N809  1  0.758900  0.927010  0.502550  1.0  -0.3179
  N  N810  1  0.868700  0.597370  0.472970  1.0  -0.3289
  N  N811  1  0.456600  0.420180  0.548440  1.0  -0.3256
  N  N812  1  0.617500  0.127600  0.559220  1.0  -0.324
  N  N813  1  0.258900  0.502550  0.927010  1.0  -0.3168
  N  N814  1  0.368700  0.472970  0.597370  1.0  -0.3336
  N  N815  1  0.043400  0.451560  0.579820  1.0  -0.3279
  N  N816  1  0.882500  0.440780  0.872400  1.0  -0.3254
  N  N817  1  0.241100  0.072990  0.497450  1.0  -0.317
  N  N818  1  0.131300  0.402630  0.527030  1.0  -0.3307
  O  O819  1  0.605400  0.435990  0.465350  1.0  -0.5921
  O  O820  1  0.509420  0.445500  0.426240  1.0  -0.5723
  O  O821  1  0.402600  0.996300  0.431860  1.0  -0.5705
  O  O822  1  0.342480  0.046270  0.452710  1.0  -0.6033
  O  O823  1  0.648300  0.558580  0.552920  1.0  -0.6088
  O  O824  1  0.702290  0.655740  0.566240  1.0  -0.5517
  O  O825  1  0.782910  0.494800  0.894040  1.0  -0.6283
  O  O826  1  0.726740  0.516680  0.948220  1.0  -0.574
  O  O827  1  0.416410  0.990350  0.545730  1.0  -0.581
  O  O828  1  0.360270  0.043970  0.568750  1.0  -0.5989
  O  O829  1  0.763350  0.379420  0.900960  1.0  -0.598
  O  O830  1  0.205760  0.955580  0.399100  1.0  -0.5641
  O  O831  1  0.894600  0.534650  0.564010  1.0  -0.5917
  O  O832  1  0.990580  0.573760  0.554500  1.0  -0.5733
  O  O833  1  0.097400  0.568140  0.003700  1.0  -0.5691
  O  O834  1  0.157520  0.547290  0.953730  1.0  -0.6026
  O  O835  1  0.851700  0.447080  0.441420  1.0  -0.6139
  O  O836  1  0.797710  0.433760  0.344260  1.0  -0.5532
  O  O837  1  0.717090  0.105960  0.505200  1.0  -0.6301
  O  O838  1  0.773260  0.051780  0.483320  1.0  -0.5753
  O  O839  1  0.083590  0.454270  0.009650  1.0  -0.5807
  O  O840  1  0.139730  0.431250  0.956030  1.0  -0.5972
  O  O841  1  0.736650  0.099040  0.620580  1.0  -0.5987
  O  O842  1  0.294240  0.600900  0.044420  1.0  -0.5639
  O  O843  1  0.394600  0.564010  0.534650  1.0  -0.592
  O  O844  1  0.490580  0.554500  0.573760  1.0  -0.5725
  O  O845  1  0.597400  0.003700  0.568140  1.0  -0.5706
  O  O846  1  0.657520  0.953730  0.547290  1.0  -0.602
  O  O847  1  0.351700  0.441420  0.447080  1.0  -0.6096
  O  O848  1  0.297710  0.344260  0.433760  1.0  -0.5503
  O  O849  1  0.217090  0.505200  0.105960  1.0  -0.6291
  O  O850  1  0.273260  0.483320  0.051780  1.0  -0.5741
  O  O851  1  0.583590  0.009650  0.454270  1.0  -0.5798
  O  O852  1  0.639730  0.956030  0.431250  1.0  -0.5977
  O  O853  1  0.236650  0.620580  0.099040  1.0  -0.6002
  O  O854  1  0.794240  0.044420  0.600900  1.0  -0.5664
  O  O855  1  0.105400  0.465350  0.435990  1.0  -0.5903
  O  O856  1  0.009420  0.426240  0.445500  1.0  -0.5716
  O  O857  1  0.902600  0.431860  0.996300  1.0  -0.5695
  O  O858  1  0.842480  0.452710  0.046270  1.0  -0.6042
  O  O859  1  0.148300  0.552920  0.558580  1.0  -0.6134
  O  O860  1  0.202290  0.566240  0.655740  1.0  -0.5529
  O  O861  1  0.282910  0.894040  0.494800  1.0  -0.6283
  O  O862  1  0.226740  0.948220  0.516680  1.0  -0.5742
  O  O863  1  0.916410  0.545730  0.990350  1.0  -0.5822
  O  O864  1  0.860270  0.568750  0.043970  1.0  -0.5955
  O  O865  1  0.263350  0.900960  0.379420  1.0  -0.599
  O  O866  1  0.705760  0.399100  0.955580  1.0  -0.5644
