# generated using pymatgen
data_Cu4H8C24ClO16
_symmetry_space_group_name_H-M   'P 1'
_cell_length_a   30.79110000
_cell_length_b   30.79110000
_cell_length_c   30.79110000
_cell_angle_alpha   90.00000000
_cell_angle_beta   90.00000000
_cell_angle_gamma   90.00000000
_symmetry_Int_Tables_number   1
_chemical_formula_structural   Cu4H8C24ClO16
_chemical_formula_sum   'Cu96 H192 C576 Cl24 O384'
_cell_volume   29192.79063030
_cell_formula_units_Z   24
loop_
 _symmetry_equiv_pos_site_id
 _symmetry_equiv_pos_as_xyz
  1  'x, y, z'
loop_
 _atom_site_type_symbol
 _atom_site_label
 _atom_site_symmetry_multiplicity
 _atom_site_fract_x
 _atom_site_fract_y
 _atom_site_fract_z
 _atom_site_occupancy
 _atom_site_charge
  Cu  Cu1  1  0.167610  0.000000  0.249670  1.0  0.9491
  Cu  Cu2  1  0.167610  0.500000  0.749670  1.0  0.9491
  Cu  Cu3  1  0.667610  0.000000  0.749670  1.0  0.9491
  Cu  Cu4  1  0.667610  0.500000  0.249670  1.0  0.9491
  Cu  Cu5  1  0.832390  0.000000  0.249670  1.0  0.9502
  Cu  Cu6  1  0.832390  0.500000  0.749670  1.0  0.9502
  Cu  Cu7  1  0.332390  0.000000  0.749670  1.0  0.9502
  Cu  Cu8  1  0.332390  0.500000  0.249670  1.0  0.9502
  Cu  Cu9  1  0.832390  0.000000  0.750330  1.0  0.9502
  Cu  Cu10  1  0.832390  0.500000  0.250330  1.0  0.9502
  Cu  Cu11  1  0.332390  0.000000  0.250330  1.0  0.9502
  Cu  Cu12  1  0.332390  0.500000  0.750330  1.0  0.9502
  Cu  Cu13  1  0.167610  0.000000  0.750330  1.0  0.9491
  Cu  Cu14  1  0.167610  0.500000  0.250330  1.0  0.9491
  Cu  Cu15  1  0.667610  0.000000  0.250330  1.0  0.9491
  Cu  Cu16  1  0.667610  0.500000  0.750330  1.0  0.9491
  Cu  Cu17  1  0.249670  0.167610  0.000000  1.0  0.9505
  Cu  Cu18  1  0.249670  0.667610  0.500000  1.0  0.9505
  Cu  Cu19  1  0.749670  0.167610  0.500000  1.0  0.9505
  Cu  Cu20  1  0.749670  0.667610  0.000000  1.0  0.9505
  Cu  Cu21  1  0.249670  0.832390  0.000000  1.0  0.9501
  Cu  Cu22  1  0.249670  0.332390  0.500000  1.0  0.9501
  Cu  Cu23  1  0.749670  0.832390  0.500000  1.0  0.9501
  Cu  Cu24  1  0.749670  0.332390  0.000000  1.0  0.9501
  Cu  Cu25  1  0.750330  0.832390  0.000000  1.0  0.9501
  Cu  Cu26  1  0.750330  0.332390  0.500000  1.0  0.9501
  Cu  Cu27  1  0.250330  0.832390  0.500000  1.0  0.9501
  Cu  Cu28  1  0.250330  0.332390  0.000000  1.0  0.9501
  Cu  Cu29  1  0.750330  0.167610  0.000000  1.0  0.9505
  Cu  Cu30  1  0.750330  0.667610  0.500000  1.0  0.9505
  Cu  Cu31  1  0.250330  0.167610  0.500000  1.0  0.9505
  Cu  Cu32  1  0.250330  0.667610  0.000000  1.0  0.9505
  Cu  Cu33  1  0.000000  0.249670  0.167610  1.0  0.9503
  Cu  Cu34  1  0.000000  0.749670  0.667610  1.0  0.9503
  Cu  Cu35  1  0.500000  0.249670  0.667610  1.0  0.9503
  Cu  Cu36  1  0.500000  0.749670  0.167610  1.0  0.9503
  Cu  Cu37  1  0.000000  0.249670  0.832390  1.0  0.9511
  Cu  Cu38  1  0.000000  0.749670  0.332390  1.0  0.9511
  Cu  Cu39  1  0.500000  0.249670  0.332390  1.0  0.9511
  Cu  Cu40  1  0.500000  0.749670  0.832390  1.0  0.9511
  Cu  Cu41  1  0.000000  0.750330  0.832390  1.0  0.951
  Cu  Cu42  1  0.000000  0.250330  0.332390  1.0  0.951
  Cu  Cu43  1  0.500000  0.750330  0.332390  1.0  0.951
  Cu  Cu44  1  0.500000  0.250330  0.832390  1.0  0.951
  Cu  Cu45  1  0.000000  0.750330  0.167610  1.0  0.9502
  Cu  Cu46  1  0.000000  0.250330  0.667610  1.0  0.9502
  Cu  Cu47  1  0.500000  0.750330  0.667610  1.0  0.9502
  Cu  Cu48  1  0.500000  0.250330  0.167610  1.0  0.9502
  Cu  Cu49  1  0.000000  0.167610  0.750330  1.0  0.9505
  Cu  Cu50  1  0.000000  0.667610  0.250330  1.0  0.9505
  Cu  Cu51  1  0.500000  0.167610  0.250330  1.0  0.9505
  Cu  Cu52  1  0.500000  0.667610  0.750330  1.0  0.9505
  Cu  Cu53  1  0.000000  0.832390  0.750330  1.0  0.9501
  Cu  Cu54  1  0.000000  0.332390  0.250330  1.0  0.9501
  Cu  Cu55  1  0.500000  0.832390  0.250330  1.0  0.9501
  Cu  Cu56  1  0.500000  0.332390  0.750330  1.0  0.9501
  Cu  Cu57  1  0.000000  0.832390  0.249670  1.0  0.9501
  Cu  Cu58  1  0.000000  0.332390  0.749670  1.0  0.9501
  Cu  Cu59  1  0.500000  0.832390  0.749670  1.0  0.9501
  Cu  Cu60  1  0.500000  0.332390  0.249670  1.0  0.9501
  Cu  Cu61  1  0.000000  0.167610  0.249670  1.0  0.9504
  Cu  Cu62  1  0.000000  0.667610  0.749670  1.0  0.9504
  Cu  Cu63  1  0.500000  0.167610  0.749670  1.0  0.9504
  Cu  Cu64  1  0.500000  0.667610  0.249670  1.0  0.9504
  Cu  Cu65  1  0.167610  0.249670  0.000000  1.0  0.9492
  Cu  Cu66  1  0.167610  0.749670  0.500000  1.0  0.9492
  Cu  Cu67  1  0.667610  0.249670  0.500000  1.0  0.9492
  Cu  Cu68  1  0.667610  0.749670  0.000000  1.0  0.9492
  Cu  Cu69  1  0.832390  0.249670  0.000000  1.0  0.9502
  Cu  Cu70  1  0.832390  0.749670  0.500000  1.0  0.9502
  Cu  Cu71  1  0.332390  0.249670  0.500000  1.0  0.9502
  Cu  Cu72  1  0.332390  0.749670  0.000000  1.0  0.9502
  Cu  Cu73  1  0.832390  0.750330  0.000000  1.0  0.9503
  Cu  Cu74  1  0.832390  0.250330  0.500000  1.0  0.9503
  Cu  Cu75  1  0.332390  0.750330  0.500000  1.0  0.9503
  Cu  Cu76  1  0.332390  0.250330  0.000000  1.0  0.9503
  Cu  Cu77  1  0.167610  0.750330  0.000000  1.0  0.9491
  Cu  Cu78  1  0.167610  0.250330  0.500000  1.0  0.9491
  Cu  Cu79  1  0.667610  0.750330  0.500000  1.0  0.9491
  Cu  Cu80  1  0.667610  0.250330  0.000000  1.0  0.9491
  Cu  Cu81  1  0.249670  0.000000  0.832390  1.0  0.951
  Cu  Cu82  1  0.249670  0.500000  0.332390  1.0  0.951
  Cu  Cu83  1  0.749670  0.000000  0.332390  1.0  0.951
  Cu  Cu84  1  0.749670  0.500000  0.832390  1.0  0.951
  Cu  Cu85  1  0.249670  0.000000  0.167610  1.0  0.9502
  Cu  Cu86  1  0.249670  0.500000  0.667610  1.0  0.9502
  Cu  Cu87  1  0.749670  0.000000  0.667610  1.0  0.9502
  Cu  Cu88  1  0.749670  0.500000  0.167610  1.0  0.9502
  Cu  Cu89  1  0.750330  0.000000  0.167610  1.0  0.9502
  Cu  Cu90  1  0.750330  0.500000  0.667610  1.0  0.9502
  Cu  Cu91  1  0.250330  0.000000  0.667610  1.0  0.9502
  Cu  Cu92  1  0.250330  0.500000  0.167610  1.0  0.9502
  Cu  Cu93  1  0.750330  0.000000  0.832390  1.0  0.951
  Cu  Cu94  1  0.750330  0.500000  0.332390  1.0  0.951
  Cu  Cu95  1  0.250330  0.000000  0.332390  1.0  0.951
  Cu  Cu96  1  0.250330  0.500000  0.832390  1.0  0.951
  H  H97  1  0.102700  0.102700  0.305000  1.0  0.111
  H  H98  1  0.102700  0.602700  0.805000  1.0  0.111
  H  H99  1  0.602700  0.102700  0.805000  1.0  0.111
  H  H100  1  0.602700  0.602700  0.305000  1.0  0.111
  H  H101  1  0.897300  0.897300  0.305000  1.0  0.1115
  H  H102  1  0.897300  0.397300  0.805000  1.0  0.1115
  H  H103  1  0.397300  0.897300  0.805000  1.0  0.1115
  H  H104  1  0.397300  0.397300  0.305000  1.0  0.1115
  H  H105  1  0.897300  0.102700  0.695000  1.0  0.1111
  H  H106  1  0.897300  0.602700  0.195000  1.0  0.1111
  H  H107  1  0.397300  0.102700  0.195000  1.0  0.1111
  H  H108  1  0.397300  0.602700  0.695000  1.0  0.1111
  H  H109  1  0.102700  0.897300  0.695000  1.0  0.1105
  H  H110  1  0.102700  0.397300  0.195000  1.0  0.1105
  H  H111  1  0.602700  0.897300  0.195000  1.0  0.1105
  H  H112  1  0.602700  0.397300  0.695000  1.0  0.1105
  H  H113  1  0.305000  0.102700  0.102700  1.0  0.1109
  H  H114  1  0.305000  0.602700  0.602700  1.0  0.1109
  H  H115  1  0.805000  0.102700  0.602700  1.0  0.1109
  H  H116  1  0.805000  0.602700  0.102700  1.0  0.1109
  H  H117  1  0.305000  0.897300  0.897300  1.0  0.111
  H  H118  1  0.305000  0.397300  0.397300  1.0  0.111
  H  H119  1  0.805000  0.897300  0.397300  1.0  0.111
  H  H120  1  0.805000  0.397300  0.897300  1.0  0.111
  H  H121  1  0.695000  0.897300  0.102700  1.0  0.1116
  H  H122  1  0.695000  0.397300  0.602700  1.0  0.1116
  H  H123  1  0.195000  0.897300  0.602700  1.0  0.1116
  H  H124  1  0.195000  0.397300  0.102700  1.0  0.1116
  H  H125  1  0.695000  0.102700  0.897300  1.0  0.1117
  H  H126  1  0.695000  0.602700  0.397300  1.0  0.1117
  H  H127  1  0.195000  0.102700  0.397300  1.0  0.1117
  H  H128  1  0.195000  0.602700  0.897300  1.0  0.1117
  H  H129  1  0.102700  0.305000  0.102700  1.0  0.1105
  H  H130  1  0.102700  0.805000  0.602700  1.0  0.1105
  H  H131  1  0.602700  0.305000  0.602700  1.0  0.1105
  H  H132  1  0.602700  0.805000  0.102700  1.0  0.1105
  H  H133  1  0.897300  0.305000  0.897300  1.0  0.111
  H  H134  1  0.897300  0.805000  0.397300  1.0  0.111
  H  H135  1  0.397300  0.305000  0.397300  1.0  0.111
  H  H136  1  0.397300  0.805000  0.897300  1.0  0.111
  H  H137  1  0.102700  0.695000  0.897300  1.0  0.1106
  H  H138  1  0.102700  0.195000  0.397300  1.0  0.1106
  H  H139  1  0.602700  0.695000  0.397300  1.0  0.1106
  H  H140  1  0.602700  0.195000  0.897300  1.0  0.1106
  H  H141  1  0.897300  0.695000  0.102700  1.0  0.111
  H  H142  1  0.897300  0.195000  0.602700  1.0  0.111
  H  H143  1  0.397300  0.695000  0.602700  1.0  0.111
  H  H144  1  0.397300  0.195000  0.102700  1.0  0.111
  H  H145  1  0.102700  0.102700  0.695000  1.0  0.1109
  H  H146  1  0.102700  0.602700  0.195000  1.0  0.1109
  H  H147  1  0.602700  0.102700  0.195000  1.0  0.1109
  H  H148  1  0.602700  0.602700  0.695000  1.0  0.1109
  H  H149  1  0.897300  0.897300  0.695000  1.0  0.1108
  H  H150  1  0.897300  0.397300  0.195000  1.0  0.1108
  H  H151  1  0.397300  0.897300  0.195000  1.0  0.1108
  H  H152  1  0.397300  0.397300  0.695000  1.0  0.1108
  H  H153  1  0.102700  0.897300  0.305000  1.0  0.111
  H  H154  1  0.102700  0.397300  0.805000  1.0  0.111
  H  H155  1  0.602700  0.897300  0.805000  1.0  0.111
  H  H156  1  0.602700  0.397300  0.305000  1.0  0.111
  H  H157  1  0.897300  0.102700  0.305000  1.0  0.1115
  H  H158  1  0.897300  0.602700  0.805000  1.0  0.1115
  H  H159  1  0.397300  0.102700  0.805000  1.0  0.1115
  H  H160  1  0.397300  0.602700  0.305000  1.0  0.1115
  H  H161  1  0.102700  0.305000  0.897300  1.0  0.1106
  H  H162  1  0.102700  0.805000  0.397300  1.0  0.1106
  H  H163  1  0.602700  0.305000  0.397300  1.0  0.1106
  H  H164  1  0.602700  0.805000  0.897300  1.0  0.1106
  H  H165  1  0.897300  0.305000  0.102700  1.0  0.1109
  H  H166  1  0.897300  0.805000  0.602700  1.0  0.1109
  H  H167  1  0.397300  0.305000  0.602700  1.0  0.1109
  H  H168  1  0.397300  0.805000  0.102700  1.0  0.1109
  H  H169  1  0.897300  0.695000  0.897300  1.0  0.1109
  H  H170  1  0.897300  0.195000  0.397300  1.0  0.1109
  H  H171  1  0.397300  0.695000  0.397300  1.0  0.1109
  H  H172  1  0.397300  0.195000  0.897300  1.0  0.1109
  H  H173  1  0.102700  0.695000  0.102700  1.0  0.1105
  H  H174  1  0.102700  0.195000  0.602700  1.0  0.1105
  H  H175  1  0.602700  0.695000  0.602700  1.0  0.1105
  H  H176  1  0.602700  0.195000  0.102700  1.0  0.1105
  H  H177  1  0.305000  0.102700  0.897300  1.0  0.1112
  H  H178  1  0.305000  0.602700  0.397300  1.0  0.1112
  H  H179  1  0.805000  0.102700  0.397300  1.0  0.1112
  H  H180  1  0.805000  0.602700  0.897300  1.0  0.1112
  H  H181  1  0.305000  0.897300  0.102700  1.0  0.1111
  H  H182  1  0.305000  0.397300  0.602700  1.0  0.1111
  H  H183  1  0.805000  0.897300  0.602700  1.0  0.1111
  H  H184  1  0.805000  0.397300  0.102700  1.0  0.1111
  H  H185  1  0.695000  0.102700  0.102700  1.0  0.1115
  H  H186  1  0.695000  0.602700  0.602700  1.0  0.1115
  H  H187  1  0.195000  0.102700  0.602700  1.0  0.1115
  H  H188  1  0.195000  0.602700  0.102700  1.0  0.1115
  H  H189  1  0.695000  0.897300  0.897300  1.0  0.1115
  H  H190  1  0.695000  0.397300  0.397300  1.0  0.1115
  H  H191  1  0.195000  0.897300  0.397300  1.0  0.1115
  H  H192  1  0.195000  0.397300  0.897300  1.0  0.1115
  H  H193  1  0.102900  0.897100  0.195000  1.0  0.1134
  H  H194  1  0.102900  0.397100  0.695000  1.0  0.1134
  H  H195  1  0.602900  0.897100  0.695000  1.0  0.1134
  H  H196  1  0.602900  0.397100  0.195000  1.0  0.1134
  H  H197  1  0.897100  0.102900  0.195000  1.0  0.1142
  H  H198  1  0.897100  0.602900  0.695000  1.0  0.1142
  H  H199  1  0.397100  0.102900  0.695000  1.0  0.1142
  H  H200  1  0.397100  0.602900  0.195000  1.0  0.1142
  H  H201  1  0.897100  0.897100  0.805000  1.0  0.1144
  H  H202  1  0.897100  0.397100  0.305000  1.0  0.1144
  H  H203  1  0.397100  0.897100  0.305000  1.0  0.1144
  H  H204  1  0.397100  0.397100  0.805000  1.0  0.1144
  H  H205  1  0.102900  0.102900  0.805000  1.0  0.1143
  H  H206  1  0.102900  0.602900  0.305000  1.0  0.1143
  H  H207  1  0.602900  0.102900  0.305000  1.0  0.1143
  H  H208  1  0.602900  0.602900  0.805000  1.0  0.1143
  H  H209  1  0.195000  0.102900  0.897100  1.0  0.1145
  H  H210  1  0.195000  0.602900  0.397100  1.0  0.1145
  H  H211  1  0.695000  0.102900  0.397100  1.0  0.1145
  H  H212  1  0.695000  0.602900  0.897100  1.0  0.1145
  H  H213  1  0.195000  0.897100  0.102900  1.0  0.1141
  H  H214  1  0.195000  0.397100  0.602900  1.0  0.1141
  H  H215  1  0.695000  0.897100  0.602900  1.0  0.1141
  H  H216  1  0.695000  0.397100  0.102900  1.0  0.1141
  H  H217  1  0.805000  0.897100  0.897100  1.0  0.1138
  H  H218  1  0.805000  0.397100  0.397100  1.0  0.1138
  H  H219  1  0.305000  0.897100  0.397100  1.0  0.1138
  H  H220  1  0.305000  0.397100  0.897100  1.0  0.1138
  H  H221  1  0.805000  0.102900  0.102900  1.0  0.1141
  H  H222  1  0.805000  0.602900  0.602900  1.0  0.1141
  H  H223  1  0.305000  0.102900  0.602900  1.0  0.1141
  H  H224  1  0.305000  0.602900  0.102900  1.0  0.1141
  H  H225  1  0.897100  0.195000  0.102900  1.0  0.114
  H  H226  1  0.897100  0.695000  0.602900  1.0  0.114
  H  H227  1  0.397100  0.195000  0.602900  1.0  0.114
  H  H228  1  0.397100  0.695000  0.102900  1.0  0.114
  H  H229  1  0.102900  0.195000  0.897100  1.0  0.1134
  H  H230  1  0.102900  0.695000  0.397100  1.0  0.1134
  H  H231  1  0.602900  0.195000  0.397100  1.0  0.1134
  H  H232  1  0.602900  0.695000  0.897100  1.0  0.1134
  H  H233  1  0.897100  0.805000  0.897100  1.0  0.1141
  H  H234  1  0.897100  0.305000  0.397100  1.0  0.1141
  H  H235  1  0.397100  0.805000  0.397100  1.0  0.1141
  H  H236  1  0.397100  0.305000  0.897100  1.0  0.1141
  H  H237  1  0.102900  0.805000  0.102900  1.0  0.1136
  H  H238  1  0.102900  0.305000  0.602900  1.0  0.1136
  H  H239  1  0.602900  0.805000  0.602900  1.0  0.1136
  H  H240  1  0.602900  0.305000  0.102900  1.0  0.1136
  H  H241  1  0.897100  0.102900  0.805000  1.0  0.1147
  H  H242  1  0.897100  0.602900  0.305000  1.0  0.1147
  H  H243  1  0.397100  0.102900  0.305000  1.0  0.1147
  H  H244  1  0.397100  0.602900  0.805000  1.0  0.1147
  H  H245  1  0.102900  0.897100  0.805000  1.0  0.114
  H  H246  1  0.102900  0.397100  0.305000  1.0  0.114
  H  H247  1  0.602900  0.897100  0.305000  1.0  0.114
  H  H248  1  0.602900  0.397100  0.805000  1.0  0.114
  H  H249  1  0.897100  0.897100  0.195000  1.0  0.1137
  H  H250  1  0.897100  0.397100  0.695000  1.0  0.1137
  H  H251  1  0.397100  0.897100  0.695000  1.0  0.1137
  H  H252  1  0.397100  0.397100  0.195000  1.0  0.1137
  H  H253  1  0.102900  0.102900  0.195000  1.0  0.1142
  H  H254  1  0.102900  0.602900  0.695000  1.0  0.1142
  H  H255  1  0.602900  0.102900  0.695000  1.0  0.1142
  H  H256  1  0.602900  0.602900  0.195000  1.0  0.1142
  H  H257  1  0.102900  0.195000  0.102900  1.0  0.1136
  H  H258  1  0.102900  0.695000  0.602900  1.0  0.1136
  H  H259  1  0.602900  0.195000  0.602900  1.0  0.1136
  H  H260  1  0.602900  0.695000  0.102900  1.0  0.1136
  H  H261  1  0.897100  0.195000  0.897100  1.0  0.1138
  H  H262  1  0.897100  0.695000  0.397100  1.0  0.1138
  H  H263  1  0.397100  0.195000  0.397100  1.0  0.1138
  H  H264  1  0.397100  0.695000  0.897100  1.0  0.1138
  H  H265  1  0.897100  0.805000  0.102900  1.0  0.1139
  H  H266  1  0.897100  0.305000  0.602900  1.0  0.1139
  H  H267  1  0.397100  0.805000  0.602900  1.0  0.1139
  H  H268  1  0.397100  0.305000  0.102900  1.0  0.1139
  H  H269  1  0.102900  0.805000  0.897100  1.0  0.1139
  H  H270  1  0.102900  0.305000  0.397100  1.0  0.1139
  H  H271  1  0.602900  0.805000  0.397100  1.0  0.1139
  H  H272  1  0.602900  0.305000  0.897100  1.0  0.1139
  H  H273  1  0.195000  0.897100  0.897100  1.0  0.1139
  H  H274  1  0.195000  0.397100  0.397100  1.0  0.1139
  H  H275  1  0.695000  0.897100  0.397100  1.0  0.1139
  H  H276  1  0.695000  0.397100  0.897100  1.0  0.1139
  H  H277  1  0.195000  0.102900  0.102900  1.0  0.1143
  H  H278  1  0.195000  0.602900  0.602900  1.0  0.1143
  H  H279  1  0.695000  0.102900  0.602900  1.0  0.1143
  H  H280  1  0.695000  0.602900  0.102900  1.0  0.1143
  H  H281  1  0.805000  0.897100  0.102900  1.0  0.1139
  H  H282  1  0.805000  0.397100  0.602900  1.0  0.1139
  H  H283  1  0.305000  0.897100  0.602900  1.0  0.1139
  H  H284  1  0.305000  0.397100  0.102900  1.0  0.1139
  H  H285  1  0.805000  0.102900  0.897100  1.0  0.1144
  H  H286  1  0.805000  0.602900  0.397100  1.0  0.1144
  H  H287  1  0.305000  0.102900  0.397100  1.0  0.1144
  H  H288  1  0.305000  0.602900  0.897100  1.0  0.1144
  C  C289  1  0.173380  0.058220  0.326620  1.0  0.7598
  C  C290  1  0.152350  0.096900  0.347650  1.0  -0.1737
  C  C291  1  0.173380  0.558220  0.826620  1.0  0.7598
  C  C292  1  0.152350  0.596900  0.847650  1.0  -0.1737
  C  C293  1  0.826620  0.941780  0.326620  1.0  0.7604
  C  C294  1  0.847650  0.903100  0.347650  1.0  -0.1739
  C  C295  1  0.826620  0.441780  0.826620  1.0  0.7604
  C  C296  1  0.847650  0.403100  0.847650  1.0  -0.1739
  C  C297  1  0.326620  0.441780  0.326620  1.0  0.7604
  C  C298  1  0.347650  0.403100  0.347650  1.0  -0.1739
  C  C299  1  0.826620  0.058220  0.673380  1.0  0.7599
  C  C300  1  0.847650  0.096900  0.652350  1.0  -0.1739
  C  C301  1  0.826620  0.558220  0.173380  1.0  0.7599
  C  C302  1  0.847650  0.596900  0.152350  1.0  -0.1739
  C  C303  1  0.326620  0.058220  0.173380  1.0  0.7599
  C  C304  1  0.347650  0.096900  0.152350  1.0  -0.1739
  C  C305  1  0.173380  0.941780  0.673380  1.0  0.7597
  C  C306  1  0.152350  0.903100  0.652350  1.0  -0.1738
  C  C307  1  0.173380  0.441780  0.173380  1.0  0.7597
  C  C308  1  0.152350  0.403100  0.152350  1.0  -0.1738
  C  C309  1  0.326620  0.173380  0.058220  1.0  0.7617
  C  C310  1  0.347650  0.152350  0.096900  1.0  -0.1761
  C  C311  1  0.326620  0.673380  0.558220  1.0  0.7617
  C  C312  1  0.347650  0.652350  0.596900  1.0  -0.1761
  C  C313  1  0.326620  0.826620  0.941780  1.0  0.7613
  C  C314  1  0.347650  0.847650  0.903100  1.0  -0.1761
  C  C315  1  0.326620  0.326620  0.441780  1.0  0.7613
  C  C316  1  0.347650  0.347650  0.403100  1.0  -0.1761
  C  C317  1  0.673380  0.826620  0.058220  1.0  0.7609
  C  C318  1  0.652350  0.847650  0.096900  1.0  -0.1762
  C  C319  1  0.673380  0.326620  0.558220  1.0  0.7609
  C  C320  1  0.652350  0.347650  0.596900  1.0  -0.1762
  C  C321  1  0.173380  0.326620  0.058220  1.0  0.7609
  C  C322  1  0.152350  0.347650  0.096900  1.0  -0.1762
  C  C323  1  0.673380  0.173380  0.941780  1.0  0.7612
  C  C324  1  0.652350  0.152350  0.903100  1.0  -0.1759
  C  C325  1  0.673380  0.673380  0.441780  1.0  0.7612
  C  C326  1  0.652350  0.652350  0.403100  1.0  -0.1759
  C  C327  1  0.173380  0.173380  0.441780  1.0  0.7612
  C  C328  1  0.152350  0.152350  0.403100  1.0  -0.1759
  C  C329  1  0.058220  0.326620  0.173380  1.0  0.76
  C  C330  1  0.096900  0.347650  0.152350  1.0  -0.1743
  C  C331  1  0.558220  0.326620  0.673380  1.0  0.76
  C  C332  1  0.596900  0.347650  0.652350  1.0  -0.1743
  C  C333  1  0.941780  0.326620  0.826620  1.0  0.7598
  C  C334  1  0.903100  0.347650  0.847650  1.0  -0.174
  C  C335  1  0.441780  0.326620  0.326620  1.0  0.7598
  C  C336  1  0.403100  0.347650  0.347650  1.0  -0.174
  C  C337  1  0.058220  0.673380  0.826620  1.0  0.7606
  C  C338  1  0.096900  0.652350  0.847650  1.0  -0.1742
  C  C339  1  0.058220  0.173380  0.326620  1.0  0.7606
  C  C340  1  0.096900  0.152350  0.347650  1.0  -0.1742
  C  C341  1  0.558220  0.673380  0.326620  1.0  0.7606
  C  C342  1  0.596900  0.652350  0.347650  1.0  -0.1742
  C  C343  1  0.941780  0.673380  0.173380  1.0  0.7596
  C  C344  1  0.903100  0.652350  0.152350  1.0  -0.1738
  C  C345  1  0.441780  0.673380  0.673380  1.0  0.7596
  C  C346  1  0.403100  0.652350  0.652350  1.0  -0.1738
  C  C347  1  0.441780  0.173380  0.173380  1.0  0.7596
  C  C348  1  0.403100  0.152350  0.152350  1.0  -0.1738
  C  C349  1  0.058220  0.173380  0.673380  1.0  0.7604
  C  C350  1  0.096900  0.152350  0.652350  1.0  -0.1742
  C  C351  1  0.558220  0.173380  0.173380  1.0  0.7604
  C  C352  1  0.596900  0.152350  0.152350  1.0  -0.1742
  C  C353  1  0.941780  0.826620  0.673380  1.0  0.7595
  C  C354  1  0.903100  0.847650  0.652350  1.0  -0.174
  C  C355  1  0.941780  0.326620  0.173380  1.0  0.7595
  C  C356  1  0.903100  0.347650  0.152350  1.0  -0.174
  C  C357  1  0.441780  0.826620  0.173380  1.0  0.7595
  C  C358  1  0.403100  0.847650  0.152350  1.0  -0.174
  C  C359  1  0.058220  0.826620  0.326620  1.0  0.7602
  C  C360  1  0.096900  0.847650  0.347650  1.0  -0.1743
  C  C361  1  0.558220  0.826620  0.826620  1.0  0.7602
  C  C362  1  0.596900  0.847650  0.847650  1.0  -0.1743
  C  C363  1  0.558220  0.326620  0.326620  1.0  0.7602
  C  C364  1  0.596900  0.347650  0.347650  1.0  -0.1743
  C  C365  1  0.941780  0.173380  0.326620  1.0  0.7599
  C  C366  1  0.903100  0.152350  0.347650  1.0  -0.1738
  C  C367  1  0.441780  0.173380  0.826620  1.0  0.7599
  C  C368  1  0.403100  0.152350  0.847650  1.0  -0.1738
  C  C369  1  0.173380  0.326620  0.941780  1.0  0.7608
  C  C370  1  0.152350  0.347650  0.903100  1.0  -0.1761
  C  C371  1  0.173380  0.826620  0.441780  1.0  0.7608
  C  C372  1  0.152350  0.847650  0.403100  1.0  -0.1761
  C  C373  1  0.826620  0.326620  0.058220  1.0  0.7613
  C  C374  1  0.847650  0.347650  0.096900  1.0  -0.1763
  C  C375  1  0.826620  0.826620  0.558220  1.0  0.7613
  C  C376  1  0.847650  0.847650  0.596900  1.0  -0.1763
  C  C377  1  0.326620  0.326620  0.558220  1.0  0.7613
  C  C378  1  0.347650  0.347650  0.596900  1.0  -0.1763
  C  C379  1  0.826620  0.673380  0.941780  1.0  0.7616
  C  C380  1  0.847650  0.652350  0.903100  1.0  -0.1759
  C  C381  1  0.826620  0.173380  0.441780  1.0  0.7616
  C  C382  1  0.847650  0.152350  0.403100  1.0  -0.1759
  C  C383  1  0.326620  0.173380  0.941780  1.0  0.7616
  C  C384  1  0.347650  0.152350  0.903100  1.0  -0.1759
  C  C385  1  0.173380  0.673380  0.058220  1.0  0.7614
  C  C386  1  0.152350  0.652350  0.096900  1.0  -0.1759
  C  C387  1  0.173380  0.173380  0.558220  1.0  0.7614
  C  C388  1  0.152350  0.152350  0.596900  1.0  -0.1759
  C  C389  1  0.326620  0.058220  0.826620  1.0  0.7601
  C  C390  1  0.347650  0.096900  0.847650  1.0  -0.1739
  C  C391  1  0.326620  0.558220  0.326620  1.0  0.7601
  C  C392  1  0.347650  0.596900  0.347650  1.0  -0.1739
  C  C393  1  0.326620  0.941780  0.173380  1.0  0.76
  C  C394  1  0.347650  0.903100  0.152350  1.0  -0.174
  C  C395  1  0.326620  0.441780  0.673380  1.0  0.76
  C  C396  1  0.347650  0.403100  0.652350  1.0  -0.174
  C  C397  1  0.673380  0.058220  0.173380  1.0  0.7596
  C  C398  1  0.652350  0.096900  0.152350  1.0  -0.1738
  C  C399  1  0.673380  0.558220  0.673380  1.0  0.7596
  C  C400  1  0.652350  0.596900  0.652350  1.0  -0.1738
  C  C401  1  0.173380  0.558220  0.173380  1.0  0.7596
  C  C402  1  0.152350  0.596900  0.152350  1.0  -0.1738
  C  C403  1  0.673380  0.941780  0.826620  1.0  0.7601
  C  C404  1  0.652350  0.903100  0.847650  1.0  -0.1737
  C  C405  1  0.673380  0.441780  0.326620  1.0  0.7601
  C  C406  1  0.652350  0.403100  0.347650  1.0  -0.1737
  C  C407  1  0.173380  0.941780  0.326620  1.0  0.7601
  C  C408  1  0.152350  0.903100  0.347650  1.0  -0.1737
  C  C409  1  0.826620  0.941780  0.673380  1.0  0.76
  C  C410  1  0.847650  0.903100  0.652350  1.0  -0.174
  C  C411  1  0.826620  0.441780  0.173380  1.0  0.76
  C  C412  1  0.847650  0.403100  0.152350  1.0  -0.174
  C  C413  1  0.173380  0.058220  0.673380  1.0  0.7596
  C  C414  1  0.152350  0.096900  0.652350  1.0  -0.1738
  C  C415  1  0.173380  0.441780  0.826620  1.0  0.7601
  C  C416  1  0.152350  0.403100  0.847650  1.0  -0.1737
  C  C417  1  0.826620  0.058220  0.326620  1.0  0.7601
  C  C418  1  0.847650  0.096900  0.347650  1.0  -0.1739
  C  C419  1  0.826620  0.558220  0.826620  1.0  0.7601
  C  C420  1  0.847650  0.596900  0.847650  1.0  -0.1739
  C  C421  1  0.673380  0.826620  0.941780  1.0  0.7608
  C  C422  1  0.652350  0.847650  0.903100  1.0  -0.1761
  C  C423  1  0.673380  0.326620  0.441780  1.0  0.7608
  C  C424  1  0.652350  0.347650  0.403100  1.0  -0.1761
  C  C425  1  0.673380  0.173380  0.058220  1.0  0.7614
  C  C426  1  0.652350  0.152350  0.096900  1.0  -0.1759
  C  C427  1  0.673380  0.673380  0.558220  1.0  0.7614
  C  C428  1  0.652350  0.652350  0.596900  1.0  -0.1759
  C  C429  1  0.326620  0.673380  0.441780  1.0  0.7616
  C  C430  1  0.347650  0.652350  0.403100  1.0  -0.1759
  C  C431  1  0.326620  0.826620  0.058220  1.0  0.7613
  C  C432  1  0.347650  0.847650  0.096900  1.0  -0.1763
  C  C433  1  0.941780  0.673380  0.826620  1.0  0.7599
  C  C434  1  0.903100  0.652350  0.847650  1.0  -0.1738
  C  C435  1  0.441780  0.673380  0.326620  1.0  0.7599
  C  C436  1  0.403100  0.652350  0.347650  1.0  -0.1738
  C  C437  1  0.058220  0.673380  0.173380  1.0  0.7604
  C  C438  1  0.096900  0.652350  0.152350  1.0  -0.1742
  C  C439  1  0.558220  0.673380  0.673380  1.0  0.7604
  C  C440  1  0.596900  0.652350  0.652350  1.0  -0.1742
  C  C441  1  0.441780  0.326620  0.673380  1.0  0.7595
  C  C442  1  0.403100  0.347650  0.652350  1.0  -0.174
  C  C443  1  0.058220  0.326620  0.826620  1.0  0.7602
  C  C444  1  0.096900  0.347650  0.847650  1.0  -0.1743
  C  C445  1  0.941780  0.826620  0.326620  1.0  0.7598
  C  C446  1  0.903100  0.847650  0.347650  1.0  -0.174
  C  C447  1  0.441780  0.826620  0.826620  1.0  0.7598
  C  C448  1  0.403100  0.847650  0.847650  1.0  -0.174
  C  C449  1  0.558220  0.173380  0.826620  1.0  0.7606
  C  C450  1  0.596900  0.152350  0.847650  1.0  -0.1742
  C  C451  1  0.941780  0.173380  0.673380  1.0  0.7596
  C  C452  1  0.903100  0.152350  0.652350  1.0  -0.1738
  C  C453  1  0.058220  0.826620  0.673380  1.0  0.76
  C  C454  1  0.096900  0.847650  0.652350  1.0  -0.1743
  C  C455  1  0.558220  0.826620  0.173380  1.0  0.76
  C  C456  1  0.596900  0.847650  0.152350  1.0  -0.1743
  C  C457  1  0.826620  0.673380  0.058220  1.0  0.7617
  C  C458  1  0.847650  0.652350  0.096900  1.0  -0.1761
  C  C459  1  0.826620  0.173380  0.558220  1.0  0.7617
  C  C460  1  0.847650  0.152350  0.596900  1.0  -0.1761
  C  C461  1  0.173380  0.673380  0.941780  1.0  0.7612
  C  C462  1  0.152350  0.652350  0.903100  1.0  -0.1759
  C  C463  1  0.173380  0.826620  0.558220  1.0  0.7609
  C  C464  1  0.152350  0.847650  0.596900  1.0  -0.1762
  C  C465  1  0.826620  0.326620  0.941780  1.0  0.7613
  C  C466  1  0.847650  0.347650  0.903100  1.0  -0.1761
  C  C467  1  0.826620  0.826620  0.441780  1.0  0.7613
  C  C468  1  0.847650  0.847650  0.403100  1.0  -0.1761
  C  C469  1  0.673380  0.941780  0.173380  1.0  0.7597
  C  C470  1  0.652350  0.903100  0.152350  1.0  -0.1738
  C  C471  1  0.673380  0.441780  0.673380  1.0  0.7597
  C  C472  1  0.652350  0.403100  0.652350  1.0  -0.1738
  C  C473  1  0.673380  0.058220  0.826620  1.0  0.7598
  C  C474  1  0.652350  0.096900  0.847650  1.0  -0.1737
  C  C475  1  0.673380  0.558220  0.326620  1.0  0.7598
  C  C476  1  0.652350  0.596900  0.347650  1.0  -0.1737
  C  C477  1  0.326620  0.941780  0.826620  1.0  0.7604
  C  C478  1  0.347650  0.903100  0.847650  1.0  -0.1739
  C  C479  1  0.326620  0.558220  0.673380  1.0  0.7599
  C  C480  1  0.347650  0.596900  0.652350  1.0  -0.1739
  C  C481  1  0.115130  0.115130  0.329490  1.0  0.0396
  C  C482  1  0.115130  0.615130  0.829490  1.0  0.0396
  C  C483  1  0.615130  0.115130  0.829490  1.0  0.0396
  C  C484  1  0.615130  0.615130  0.329490  1.0  0.0396
  C  C485  1  0.884870  0.884870  0.329490  1.0  0.0396
  C  C486  1  0.884870  0.384870  0.829490  1.0  0.0396
  C  C487  1  0.384870  0.884870  0.829490  1.0  0.0396
  C  C488  1  0.384870  0.384870  0.329490  1.0  0.0396
  C  C489  1  0.884870  0.115130  0.670510  1.0  0.0404
  C  C490  1  0.884870  0.615130  0.170510  1.0  0.0404
  C  C491  1  0.384870  0.115130  0.170510  1.0  0.0404
  C  C492  1  0.384870  0.615130  0.670510  1.0  0.0404
  C  C493  1  0.115130  0.884870  0.670510  1.0  0.0397
  C  C494  1  0.115130  0.384870  0.170510  1.0  0.0397
  C  C495  1  0.615130  0.884870  0.170510  1.0  0.0397
  C  C496  1  0.615130  0.384870  0.670510  1.0  0.0397
  C  C497  1  0.329490  0.115130  0.115130  1.0  0.039
  C  C498  1  0.329490  0.615130  0.615130  1.0  0.039
  C  C499  1  0.829490  0.115130  0.615130  1.0  0.039
  C  C500  1  0.829490  0.615130  0.115130  1.0  0.039
  C  C501  1  0.329490  0.884870  0.884870  1.0  0.0394
  C  C502  1  0.329490  0.384870  0.384870  1.0  0.0394
  C  C503  1  0.829490  0.884870  0.384870  1.0  0.0394
  C  C504  1  0.829490  0.384870  0.884870  1.0  0.0394
  C  C505  1  0.670510  0.884870  0.115130  1.0  0.0397
  C  C506  1  0.670510  0.384870  0.615130  1.0  0.0397
  C  C507  1  0.170510  0.884870  0.615130  1.0  0.0397
  C  C508  1  0.170510  0.384870  0.115130  1.0  0.0397
  C  C509  1  0.670510  0.115130  0.884870  1.0  0.0406
  C  C510  1  0.670510  0.615130  0.384870  1.0  0.0406
  C  C511  1  0.170510  0.115130  0.384870  1.0  0.0406
  C  C512  1  0.170510  0.615130  0.884870  1.0  0.0406
  C  C513  1  0.115130  0.329490  0.115130  1.0  0.0397
  C  C514  1  0.115130  0.829490  0.615130  1.0  0.0397
  C  C515  1  0.615130  0.329490  0.615130  1.0  0.0397
  C  C516  1  0.615130  0.829490  0.115130  1.0  0.0397
  C  C517  1  0.884870  0.329490  0.884870  1.0  0.0403
  C  C518  1  0.884870  0.829490  0.384870  1.0  0.0403
  C  C519  1  0.384870  0.329490  0.384870  1.0  0.0403
  C  C520  1  0.384870  0.829490  0.884870  1.0  0.0403
  C  C521  1  0.115130  0.670510  0.884870  1.0  0.0397
  C  C522  1  0.115130  0.170510  0.384870  1.0  0.0397
  C  C523  1  0.615130  0.670510  0.384870  1.0  0.0397
  C  C524  1  0.615130  0.170510  0.884870  1.0  0.0397
  C  C525  1  0.884870  0.670510  0.115130  1.0  0.0391
  C  C526  1  0.884870  0.170510  0.615130  1.0  0.0391
  C  C527  1  0.384870  0.670510  0.615130  1.0  0.0391
  C  C528  1  0.384870  0.170510  0.115130  1.0  0.0391
  C  C529  1  0.115130  0.115130  0.670510  1.0  0.0402
  C  C530  1  0.115130  0.615130  0.170510  1.0  0.0402
  C  C531  1  0.615130  0.115130  0.170510  1.0  0.0402
  C  C532  1  0.615130  0.615130  0.670510  1.0  0.0402
  C  C533  1  0.884870  0.884870  0.670510  1.0  0.0398
  C  C534  1  0.884870  0.384870  0.170510  1.0  0.0398
  C  C535  1  0.384870  0.884870  0.170510  1.0  0.0398
  C  C536  1  0.384870  0.384870  0.670510  1.0  0.0398
  C  C537  1  0.115130  0.884870  0.329490  1.0  0.0397
  C  C538  1  0.115130  0.384870  0.829490  1.0  0.0397
  C  C539  1  0.615130  0.884870  0.829490  1.0  0.0397
  C  C540  1  0.615130  0.384870  0.329490  1.0  0.0397
  C  C541  1  0.884870  0.115130  0.329490  1.0  0.0397
  C  C542  1  0.884870  0.615130  0.829490  1.0  0.0397
  C  C543  1  0.384870  0.115130  0.829490  1.0  0.0397
  C  C544  1  0.384870  0.615130  0.329490  1.0  0.0397
  C  C545  1  0.115130  0.329490  0.884870  1.0  0.0401
  C  C546  1  0.115130  0.829490  0.384870  1.0  0.0401
  C  C547  1  0.615130  0.329490  0.384870  1.0  0.0401
  C  C548  1  0.615130  0.829490  0.884870  1.0  0.0401
  C  C549  1  0.884870  0.329490  0.115130  1.0  0.0399
  C  C550  1  0.884870  0.829490  0.615130  1.0  0.0399
  C  C551  1  0.384870  0.329490  0.615130  1.0  0.0399
  C  C552  1  0.384870  0.829490  0.115130  1.0  0.0399
  C  C553  1  0.884870  0.670510  0.884870  1.0  0.0395
  C  C554  1  0.884870  0.170510  0.384870  1.0  0.0395
  C  C555  1  0.384870  0.670510  0.384870  1.0  0.0395
  C  C556  1  0.384870  0.170510  0.884870  1.0  0.0395
  C  C557  1  0.115130  0.670510  0.115130  1.0  0.0393
  C  C558  1  0.115130  0.170510  0.615130  1.0  0.0393
  C  C559  1  0.615130  0.670510  0.615130  1.0  0.0393
  C  C560  1  0.615130  0.170510  0.115130  1.0  0.0393
  C  C561  1  0.329490  0.115130  0.884870  1.0  0.04
  C  C562  1  0.329490  0.615130  0.384870  1.0  0.04
  C  C563  1  0.829490  0.115130  0.384870  1.0  0.04
  C  C564  1  0.829490  0.615130  0.884870  1.0  0.04
  C  C565  1  0.329490  0.884870  0.115130  1.0  0.039
  C  C566  1  0.329490  0.384870  0.615130  1.0  0.039
  C  C567  1  0.829490  0.884870  0.615130  1.0  0.039
  C  C568  1  0.829490  0.384870  0.115130  1.0  0.039
  C  C569  1  0.670510  0.115130  0.115130  1.0  0.0395
  C  C570  1  0.670510  0.615130  0.615130  1.0  0.0395
  C  C571  1  0.170510  0.115130  0.615130  1.0  0.0395
  C  C572  1  0.170510  0.615130  0.115130  1.0  0.0395
  C  C573  1  0.670510  0.884870  0.884870  1.0  0.0401
  C  C574  1  0.670510  0.384870  0.384870  1.0  0.0401
  C  C575  1  0.170510  0.884870  0.384870  1.0  0.0401
  C  C576  1  0.170510  0.384870  0.884870  1.0  0.0401
  C  C577  1  0.173210  0.941260  0.173210  1.0  0.7491
  C  C578  1  0.151850  0.903400  0.151850  1.0  -0.169
  C  C579  1  0.173210  0.441260  0.673210  1.0  0.7491
  C  C580  1  0.151850  0.403400  0.651850  1.0  -0.169
  C  C581  1  0.673210  0.941260  0.673210  1.0  0.7491
  C  C582  1  0.651850  0.903400  0.651850  1.0  -0.169
  C  C583  1  0.673210  0.441260  0.173210  1.0  0.7491
  C  C584  1  0.651850  0.403400  0.151850  1.0  -0.169
  C  C585  1  0.826790  0.058740  0.173210  1.0  0.7497
  C  C586  1  0.848150  0.096600  0.151850  1.0  -0.1694
  C  C587  1  0.826790  0.558740  0.673210  1.0  0.7497
  C  C588  1  0.848150  0.596600  0.651850  1.0  -0.1694
  C  C589  1  0.326790  0.058740  0.673210  1.0  0.7497
  C  C590  1  0.348150  0.096600  0.651850  1.0  -0.1694
  C  C591  1  0.326790  0.558740  0.173210  1.0  0.7497
  C  C592  1  0.348150  0.596600  0.151850  1.0  -0.1694
  C  C593  1  0.826790  0.941260  0.826790  1.0  0.7496
  C  C594  1  0.848150  0.903400  0.848150  1.0  -0.1695
  C  C595  1  0.826790  0.441260  0.326790  1.0  0.7496
  C  C596  1  0.848150  0.403400  0.348150  1.0  -0.1695
  C  C597  1  0.326790  0.941260  0.326790  1.0  0.7496
  C  C598  1  0.348150  0.903400  0.348150  1.0  -0.1695
  C  C599  1  0.326790  0.441260  0.826790  1.0  0.7496
  C  C600  1  0.348150  0.403400  0.848150  1.0  -0.1695
  C  C601  1  0.173210  0.058740  0.826790  1.0  0.7492
  C  C602  1  0.151850  0.096600  0.848150  1.0  -0.169
  C  C603  1  0.173210  0.558740  0.326790  1.0  0.7492
  C  C604  1  0.151850  0.596600  0.348150  1.0  -0.169
  C  C605  1  0.673210  0.058740  0.326790  1.0  0.7492
  C  C606  1  0.651850  0.096600  0.348150  1.0  -0.169
  C  C607  1  0.673210  0.558740  0.826790  1.0  0.7492
  C  C608  1  0.651850  0.596600  0.848150  1.0  -0.169
  C  C609  1  0.173210  0.173210  0.941260  1.0  0.7507
  C  C610  1  0.151850  0.151850  0.903400  1.0  -0.1715
  C  C611  1  0.173210  0.673210  0.441260  1.0  0.7507
  C  C612  1  0.151850  0.651850  0.403400  1.0  -0.1715
  C  C613  1  0.673210  0.173210  0.441260  1.0  0.7507
  C  C614  1  0.651850  0.151850  0.403400  1.0  -0.1715
  C  C615  1  0.673210  0.673210  0.941260  1.0  0.7507
  C  C616  1  0.651850  0.651850  0.903400  1.0  -0.1715
  C  C617  1  0.173210  0.826790  0.058740  1.0  0.7502
  C  C618  1  0.151850  0.848150  0.096600  1.0  -0.1703
  C  C619  1  0.173210  0.326790  0.558740  1.0  0.7502
  C  C620  1  0.151850  0.348150  0.596600  1.0  -0.1703
  C  C621  1  0.673210  0.826790  0.558740  1.0  0.7502
  C  C622  1  0.651850  0.848150  0.596600  1.0  -0.1703
  C  C623  1  0.673210  0.326790  0.058740  1.0  0.7502
  C  C624  1  0.651850  0.348150  0.096600  1.0  -0.1703
  C  C625  1  0.826790  0.826790  0.941260  1.0  0.7508
  C  C626  1  0.848150  0.848150  0.903400  1.0  -0.172
  C  C627  1  0.826790  0.326790  0.441260  1.0  0.7508
  C  C628  1  0.848150  0.348150  0.403400  1.0  -0.172
  C  C629  1  0.326790  0.826790  0.441260  1.0  0.7508
  C  C630  1  0.348150  0.848150  0.403400  1.0  -0.172
  C  C631  1  0.326790  0.326790  0.941260  1.0  0.7508
  C  C632  1  0.348150  0.348150  0.903400  1.0  -0.172
  C  C633  1  0.826790  0.173210  0.058740  1.0  0.7513
  C  C634  1  0.848150  0.151850  0.096600  1.0  -0.1705
  C  C635  1  0.826790  0.673210  0.558740  1.0  0.7513
  C  C636  1  0.848150  0.651850  0.596600  1.0  -0.1705
  C  C637  1  0.326790  0.173210  0.558740  1.0  0.7513
  C  C638  1  0.348150  0.151850  0.596600  1.0  -0.1705
  C  C639  1  0.326790  0.673210  0.058740  1.0  0.7513
  C  C640  1  0.348150  0.651850  0.096600  1.0  -0.1705
  C  C641  1  0.941260  0.173210  0.173210  1.0  0.749
  C  C642  1  0.903400  0.151850  0.151850  1.0  -0.1688
  C  C643  1  0.941260  0.673210  0.673210  1.0  0.749
  C  C644  1  0.903400  0.651850  0.651850  1.0  -0.1688
  C  C645  1  0.441260  0.173210  0.673210  1.0  0.749
  C  C646  1  0.403400  0.151850  0.651850  1.0  -0.1688
  C  C647  1  0.441260  0.673210  0.173210  1.0  0.749
  C  C648  1  0.403400  0.651850  0.151850  1.0  -0.1688
  C  C649  1  0.058740  0.173210  0.826790  1.0  0.7495
  C  C650  1  0.096600  0.151850  0.848150  1.0  -0.1692
  C  C651  1  0.058740  0.673210  0.326790  1.0  0.7495
  C  C652  1  0.096600  0.651850  0.348150  1.0  -0.1692
  C  C653  1  0.558740  0.173210  0.326790  1.0  0.7495
  C  C654  1  0.596600  0.151850  0.348150  1.0  -0.1692
  C  C655  1  0.558740  0.673210  0.826790  1.0  0.7495
  C  C656  1  0.596600  0.651850  0.848150  1.0  -0.1692
  C  C657  1  0.941260  0.826790  0.826790  1.0  0.7486
  C  C658  1  0.903400  0.848150  0.848150  1.0  -0.1691
  C  C659  1  0.941260  0.326790  0.326790  1.0  0.7486
  C  C660  1  0.903400  0.348150  0.348150  1.0  -0.1691
  C  C661  1  0.441260  0.826790  0.326790  1.0  0.7486
  C  C662  1  0.403400  0.848150  0.348150  1.0  -0.1691
  C  C663  1  0.441260  0.326790  0.826790  1.0  0.7486
  C  C664  1  0.403400  0.348150  0.848150  1.0  -0.1691
  C  C665  1  0.058740  0.826790  0.173210  1.0  0.7491
  C  C666  1  0.096600  0.848150  0.151850  1.0  -0.1692
  C  C667  1  0.058740  0.326790  0.673210  1.0  0.7491
  C  C668  1  0.096600  0.348150  0.651850  1.0  -0.1692
  C  C669  1  0.558740  0.826790  0.673210  1.0  0.7491
  C  C670  1  0.596600  0.848150  0.651850  1.0  -0.1692
  C  C671  1  0.558740  0.326790  0.173210  1.0  0.7491
  C  C672  1  0.596600  0.348150  0.151850  1.0  -0.1692
  C  C673  1  0.941260  0.173210  0.826790  1.0  0.7491
  C  C674  1  0.903400  0.151850  0.848150  1.0  -0.169
  C  C675  1  0.941260  0.673210  0.326790  1.0  0.7491
  C  C676  1  0.903400  0.651850  0.348150  1.0  -0.169
  C  C677  1  0.441260  0.173210  0.326790  1.0  0.7491
  C  C678  1  0.403400  0.151850  0.348150  1.0  -0.169
  C  C679  1  0.441260  0.673210  0.826790  1.0  0.7491
  C  C680  1  0.403400  0.651850  0.848150  1.0  -0.169
  C  C681  1  0.058740  0.826790  0.826790  1.0  0.7492
  C  C682  1  0.096600  0.848150  0.848150  1.0  -0.1694
  C  C683  1  0.058740  0.326790  0.326790  1.0  0.7492
  C  C684  1  0.096600  0.348150  0.348150  1.0  -0.1694
  C  C685  1  0.558740  0.826790  0.326790  1.0  0.7492
  C  C686  1  0.596600  0.848150  0.348150  1.0  -0.1694
  C  C687  1  0.558740  0.326790  0.826790  1.0  0.7492
  C  C688  1  0.596600  0.348150  0.848150  1.0  -0.1694
  C  C689  1  0.941260  0.826790  0.173210  1.0  0.7486
  C  C690  1  0.903400  0.848150  0.151850  1.0  -0.1689
  C  C691  1  0.941260  0.326790  0.673210  1.0  0.7486
  C  C692  1  0.903400  0.348150  0.651850  1.0  -0.1689
  C  C693  1  0.441260  0.826790  0.673210  1.0  0.7486
  C  C694  1  0.403400  0.848150  0.651850  1.0  -0.1689
  C  C695  1  0.441260  0.326790  0.173210  1.0  0.7486
  C  C696  1  0.403400  0.348150  0.151850  1.0  -0.1689
  C  C697  1  0.058740  0.173210  0.173210  1.0  0.7493
  C  C698  1  0.096600  0.151850  0.151850  1.0  -0.1691
  C  C699  1  0.058740  0.673210  0.673210  1.0  0.7493
  C  C700  1  0.096600  0.651850  0.651850  1.0  -0.1691
  C  C701  1  0.558740  0.173210  0.673210  1.0  0.7493
  C  C702  1  0.596600  0.151850  0.651850  1.0  -0.1691
  C  C703  1  0.558740  0.673210  0.173210  1.0  0.7493
  C  C704  1  0.596600  0.651850  0.151850  1.0  -0.1691
  C  C705  1  0.173210  0.173210  0.058740  1.0  0.7507
  C  C706  1  0.151850  0.151850  0.096600  1.0  -0.17
  C  C707  1  0.173210  0.673210  0.558740  1.0  0.7507
  C  C708  1  0.151850  0.651850  0.596600  1.0  -0.17
  C  C709  1  0.673210  0.173210  0.558740  1.0  0.7507
  C  C710  1  0.651850  0.151850  0.596600  1.0  -0.17
  C  C711  1  0.673210  0.673210  0.058740  1.0  0.7507
  C  C712  1  0.651850  0.651850  0.096600  1.0  -0.17
  C  C713  1  0.826790  0.173210  0.941260  1.0  0.7512
  C  C714  1  0.848150  0.151850  0.903400  1.0  -0.1719
  C  C715  1  0.826790  0.673210  0.441260  1.0  0.7512
  C  C716  1  0.848150  0.651850  0.403400  1.0  -0.1719
  C  C717  1  0.326790  0.173210  0.441260  1.0  0.7512
  C  C718  1  0.348150  0.151850  0.403400  1.0  -0.1719
  C  C719  1  0.326790  0.673210  0.941260  1.0  0.7512
  C  C720  1  0.348150  0.651850  0.903400  1.0  -0.1719
  C  C721  1  0.826790  0.826790  0.058740  1.0  0.7509
  C  C722  1  0.848150  0.848150  0.096600  1.0  -0.1708
  C  C723  1  0.826790  0.326790  0.558740  1.0  0.7509
  C  C724  1  0.848150  0.348150  0.596600  1.0  -0.1708
  C  C725  1  0.326790  0.826790  0.558740  1.0  0.7509
  C  C726  1  0.348150  0.848150  0.596600  1.0  -0.1708
  C  C727  1  0.326790  0.326790  0.058740  1.0  0.7509
  C  C728  1  0.348150  0.348150  0.096600  1.0  -0.1708
  C  C729  1  0.173210  0.826790  0.941260  1.0  0.7503
  C  C730  1  0.151850  0.848150  0.903400  1.0  -0.1716
  C  C731  1  0.173210  0.326790  0.441260  1.0  0.7503
  C  C732  1  0.151850  0.348150  0.403400  1.0  -0.1716
  C  C733  1  0.673210  0.826790  0.441260  1.0  0.7503
  C  C734  1  0.651850  0.848150  0.403400  1.0  -0.1716
  C  C735  1  0.673210  0.326790  0.941260  1.0  0.7503
  C  C736  1  0.651850  0.348150  0.903400  1.0  -0.1716
  C  C737  1  0.173210  0.941260  0.826790  1.0  0.7492
  C  C738  1  0.151850  0.903400  0.848150  1.0  -0.169
  C  C739  1  0.173210  0.441260  0.326790  1.0  0.7492
  C  C740  1  0.151850  0.403400  0.348150  1.0  -0.169
  C  C741  1  0.673210  0.941260  0.326790  1.0  0.7492
  C  C742  1  0.651850  0.903400  0.348150  1.0  -0.169
  C  C743  1  0.673210  0.441260  0.826790  1.0  0.7492
  C  C744  1  0.651850  0.403400  0.848150  1.0  -0.169
  C  C745  1  0.173210  0.058740  0.173210  1.0  0.7492
  C  C746  1  0.151850  0.096600  0.151850  1.0  -0.1688
  C  C747  1  0.173210  0.558740  0.673210  1.0  0.7492
  C  C748  1  0.151850  0.596600  0.651850  1.0  -0.1688
  C  C749  1  0.673210  0.058740  0.673210  1.0  0.7492
  C  C750  1  0.651850  0.096600  0.651850  1.0  -0.1688
  C  C751  1  0.673210  0.558740  0.173210  1.0  0.7492
  C  C752  1  0.651850  0.596600  0.151850  1.0  -0.1688
  C  C753  1  0.826790  0.941260  0.173210  1.0  0.7494
  C  C754  1  0.848150  0.903400  0.151850  1.0  -0.1695
  C  C755  1  0.826790  0.441260  0.673210  1.0  0.7494
  C  C756  1  0.848150  0.403400  0.651850  1.0  -0.1695
  C  C757  1  0.326790  0.941260  0.673210  1.0  0.7494
  C  C758  1  0.348150  0.903400  0.651850  1.0  -0.1695
  C  C759  1  0.326790  0.441260  0.173210  1.0  0.7494
  C  C760  1  0.348150  0.403400  0.151850  1.0  -0.1695
  C  C761  1  0.826790  0.058740  0.826790  1.0  0.7497
  C  C762  1  0.848150  0.096600  0.848150  1.0  -0.1696
  C  C763  1  0.826790  0.558740  0.326790  1.0  0.7497
  C  C764  1  0.848150  0.596600  0.348150  1.0  -0.1696
  C  C765  1  0.326790  0.058740  0.326790  1.0  0.7497
  C  C766  1  0.348150  0.096600  0.348150  1.0  -0.1696
  C  C767  1  0.326790  0.558740  0.826790  1.0  0.7497
  C  C768  1  0.348150  0.596600  0.848150  1.0  -0.1696
  C  C769  1  0.115030  0.884970  0.170400  1.0  0.0449
  C  C770  1  0.115030  0.384970  0.670400  1.0  0.0449
  C  C771  1  0.615030  0.884970  0.670400  1.0  0.0449
  C  C772  1  0.615030  0.384970  0.170400  1.0  0.0449
  C  C773  1  0.884970  0.115030  0.170400  1.0  0.0452
  C  C774  1  0.884970  0.615030  0.670400  1.0  0.0452
  C  C775  1  0.384970  0.115030  0.670400  1.0  0.0452
  C  C776  1  0.384970  0.615030  0.170400  1.0  0.0452
  C  C777  1  0.884970  0.884970  0.829600  1.0  0.0446
  C  C778  1  0.884970  0.384970  0.329600  1.0  0.0446
  C  C779  1  0.384970  0.884970  0.329600  1.0  0.0446
  C  C780  1  0.384970  0.384970  0.829600  1.0  0.0446
  C  C781  1  0.115030  0.115030  0.829600  1.0  0.0444
  C  C782  1  0.115030  0.615030  0.329600  1.0  0.0444
  C  C783  1  0.615030  0.115030  0.329600  1.0  0.0444
  C  C784  1  0.615030  0.615030  0.829600  1.0  0.0444
  C  C785  1  0.170400  0.115030  0.884970  1.0  0.0451
  C  C786  1  0.170400  0.615030  0.384970  1.0  0.0451
  C  C787  1  0.670400  0.115030  0.384970  1.0  0.0451
  C  C788  1  0.670400  0.615030  0.884970  1.0  0.0451
  C  C789  1  0.170400  0.884970  0.115030  1.0  0.0445
  C  C790  1  0.170400  0.384970  0.615030  1.0  0.0445
  C  C791  1  0.670400  0.884970  0.615030  1.0  0.0445
  C  C792  1  0.670400  0.384970  0.115030  1.0  0.0445
  C  C793  1  0.829600  0.884970  0.884970  1.0  0.0445
  C  C794  1  0.829600  0.384970  0.384970  1.0  0.0445
  C  C795  1  0.329600  0.884970  0.384970  1.0  0.0445
  C  C796  1  0.329600  0.384970  0.884970  1.0  0.0445
  C  C797  1  0.829600  0.115030  0.115030  1.0  0.0435
  C  C798  1  0.829600  0.615030  0.615030  1.0  0.0435
  C  C799  1  0.329600  0.115030  0.615030  1.0  0.0435
  C  C800  1  0.329600  0.615030  0.115030  1.0  0.0435
  C  C801  1  0.884970  0.170400  0.115030  1.0  0.0441
  C  C802  1  0.884970  0.670400  0.615030  1.0  0.0441
  C  C803  1  0.384970  0.170400  0.615030  1.0  0.0441
  C  C804  1  0.384970  0.670400  0.115030  1.0  0.0441
  C  C805  1  0.115030  0.170400  0.884970  1.0  0.0446
  C  C806  1  0.115030  0.670400  0.384970  1.0  0.0446
  C  C807  1  0.615030  0.170400  0.384970  1.0  0.0446
  C  C808  1  0.615030  0.670400  0.884970  1.0  0.0446
  C  C809  1  0.884970  0.829600  0.884970  1.0  0.0447
  C  C810  1  0.884970  0.329600  0.384970  1.0  0.0447
  C  C811  1  0.384970  0.829600  0.384970  1.0  0.0447
  C  C812  1  0.384970  0.329600  0.884970  1.0  0.0447
  C  C813  1  0.115030  0.829600  0.115030  1.0  0.0439
  C  C814  1  0.115030  0.329600  0.615030  1.0  0.0439
  C  C815  1  0.615030  0.829600  0.615030  1.0  0.0439
  C  C816  1  0.615030  0.329600  0.115030  1.0  0.0439
  C  C817  1  0.884970  0.115030  0.829600  1.0  0.0443
  C  C818  1  0.884970  0.615030  0.329600  1.0  0.0443
  C  C819  1  0.384970  0.115030  0.329600  1.0  0.0443
  C  C820  1  0.384970  0.615030  0.829600  1.0  0.0443
  C  C821  1  0.115030  0.884970  0.829600  1.0  0.0449
  C  C822  1  0.115030  0.384970  0.329600  1.0  0.0449
  C  C823  1  0.615030  0.884970  0.329600  1.0  0.0449
  C  C824  1  0.615030  0.384970  0.829600  1.0  0.0449
  C  C825  1  0.884970  0.884970  0.170400  1.0  0.0449
  C  C826  1  0.884970  0.384970  0.670400  1.0  0.0449
  C  C827  1  0.384970  0.884970  0.670400  1.0  0.0449
  C  C828  1  0.384970  0.384970  0.170400  1.0  0.0449
  C  C829  1  0.115030  0.115030  0.170400  1.0  0.0449
  C  C830  1  0.115030  0.615030  0.670400  1.0  0.0449
  C  C831  1  0.615030  0.115030  0.670400  1.0  0.0449
  C  C832  1  0.615030  0.615030  0.170400  1.0  0.0449
  C  C833  1  0.115030  0.170400  0.115030  1.0  0.0443
  C  C834  1  0.115030  0.670400  0.615030  1.0  0.0443
  C  C835  1  0.615030  0.170400  0.615030  1.0  0.0443
  C  C836  1  0.615030  0.670400  0.115030  1.0  0.0443
  C  C837  1  0.884970  0.170400  0.884970  1.0  0.0444
  C  C838  1  0.884970  0.670400  0.384970  1.0  0.0444
  C  C839  1  0.384970  0.170400  0.384970  1.0  0.0444
  C  C840  1  0.384970  0.670400  0.884970  1.0  0.0444
  C  C841  1  0.884970  0.829600  0.115030  1.0  0.0442
  C  C842  1  0.884970  0.329600  0.615030  1.0  0.0442
  C  C843  1  0.384970  0.829600  0.615030  1.0  0.0442
  C  C844  1  0.384970  0.329600  0.115030  1.0  0.0442
  C  C845  1  0.115030  0.829600  0.884970  1.0  0.0446
  C  C846  1  0.115030  0.329600  0.384970  1.0  0.0446
  C  C847  1  0.615030  0.829600  0.384970  1.0  0.0446
  C  C848  1  0.615030  0.329600  0.884970  1.0  0.0446
  C  C849  1  0.170400  0.884970  0.884970  1.0  0.045
  C  C850  1  0.170400  0.384970  0.384970  1.0  0.045
  C  C851  1  0.670400  0.884970  0.384970  1.0  0.045
  C  C852  1  0.670400  0.384970  0.884970  1.0  0.045
  C  C853  1  0.170400  0.115030  0.115030  1.0  0.044
  C  C854  1  0.170400  0.615030  0.615030  1.0  0.044
  C  C855  1  0.670400  0.115030  0.615030  1.0  0.044
  C  C856  1  0.670400  0.615030  0.115030  1.0  0.044
  C  C857  1  0.829600  0.884970  0.115030  1.0  0.0439
  C  C858  1  0.829600  0.384970  0.615030  1.0  0.0439
  C  C859  1  0.329600  0.884970  0.615030  1.0  0.0439
  C  C860  1  0.329600  0.384970  0.115030  1.0  0.0439
  C  C861  1  0.829600  0.115030  0.884970  1.0  0.0447
  C  C862  1  0.829600  0.615030  0.384970  1.0  0.0447
  C  C863  1  0.329600  0.115030  0.384970  1.0  0.0447
  C  C864  1  0.329600  0.615030  0.884970  1.0  0.0447
  Cl  Cl865  1  0.250000  0.000000  0.250000  1.0  -0.1854
  Cl  Cl866  1  0.250000  0.500000  0.750000  1.0  -0.1854
  Cl  Cl867  1  0.750000  0.000000  0.250000  1.0  -0.1854
  Cl  Cl868  1  0.750000  0.500000  0.750000  1.0  -0.1854
  Cl  Cl869  1  0.250000  0.500000  0.250000  1.0  -0.1854
  Cl  Cl870  1  0.750000  0.000000  0.750000  1.0  -0.1854
  Cl  Cl871  1  0.750000  0.500000  0.250000  1.0  -0.1854
  Cl  Cl872  1  0.250000  0.000000  0.750000  1.0  -0.1854
  Cl  Cl873  1  0.250000  0.250000  0.000000  1.0  -0.1854
  Cl  Cl874  1  0.250000  0.750000  0.500000  1.0  -0.1854
  Cl  Cl875  1  0.250000  0.750000  0.000000  1.0  -0.1854
  Cl  Cl876  1  0.250000  0.250000  0.500000  1.0  -0.1854
  Cl  Cl877  1  0.750000  0.750000  0.000000  1.0  -0.1854
  Cl  Cl878  1  0.750000  0.250000  0.500000  1.0  -0.1854
  Cl  Cl879  1  0.750000  0.250000  0.000000  1.0  -0.1854
  Cl  Cl880  1  0.750000  0.750000  0.500000  1.0  -0.1854
  Cl  Cl881  1  0.000000  0.250000  0.250000  1.0  -0.1854
  Cl  Cl882  1  0.500000  0.250000  0.750000  1.0  -0.1854
  Cl  Cl883  1  0.000000  0.250000  0.750000  1.0  -0.1854
  Cl  Cl884  1  0.500000  0.250000  0.250000  1.0  -0.1854
  Cl  Cl885  1  0.000000  0.750000  0.750000  1.0  -0.1854
  Cl  Cl886  1  0.500000  0.750000  0.250000  1.0  -0.1854
  Cl  Cl887  1  0.000000  0.750000  0.250000  1.0  -0.1854
  Cl  Cl888  1  0.500000  0.750000  0.750000  1.0  -0.1854
  O  O889  1  0.155860  0.044620  0.292730  1.0  -0.5885
  O  O890  1  0.156050  0.954970  0.207500  1.0  -0.6006
  O  O891  1  0.155860  0.544620  0.792730  1.0  -0.5885
  O  O892  1  0.156050  0.454970  0.707500  1.0  -0.6006
  O  O893  1  0.655860  0.044620  0.792730  1.0  -0.5885
  O  O894  1  0.656050  0.954970  0.707500  1.0  -0.6006
  O  O895  1  0.655860  0.544620  0.292730  1.0  -0.5885
  O  O896  1  0.656050  0.454970  0.207500  1.0  -0.6005
  O  O897  1  0.844140  0.955380  0.292730  1.0  -0.5883
  O  O898  1  0.843950  0.045030  0.207500  1.0  -0.5992
  O  O899  1  0.844140  0.455380  0.792730  1.0  -0.5883
  O  O900  1  0.843950  0.545030  0.707500  1.0  -0.5992
  O  O901  1  0.344140  0.955380  0.792730  1.0  -0.5883
  O  O902  1  0.343950  0.045030  0.707500  1.0  -0.5992
  O  O903  1  0.344140  0.455380  0.292730  1.0  -0.5881
  O  O904  1  0.343950  0.545030  0.207500  1.0  -0.5992
  O  O905  1  0.844140  0.044620  0.707270  1.0  -0.5894
  O  O906  1  0.843950  0.954970  0.792500  1.0  -0.5988
  O  O907  1  0.844140  0.544620  0.207270  1.0  -0.5894
  O  O908  1  0.843950  0.454970  0.292500  1.0  -0.5988
  O  O909  1  0.344140  0.044620  0.207270  1.0  -0.5894
  O  O910  1  0.343950  0.954970  0.292500  1.0  -0.5988
  O  O911  1  0.344140  0.544620  0.707270  1.0  -0.5894
  O  O912  1  0.343950  0.454970  0.792500  1.0  -0.5988
  O  O913  1  0.155860  0.955380  0.707270  1.0  -0.5896
  O  O914  1  0.156050  0.045030  0.792500  1.0  -0.5999
  O  O915  1  0.155860  0.455380  0.207270  1.0  -0.5896
  O  O916  1  0.156050  0.545030  0.292500  1.0  -0.5999
  O  O917  1  0.655860  0.955380  0.207270  1.0  -0.5894
  O  O918  1  0.656050  0.045030  0.292500  1.0  -0.5999
  O  O919  1  0.655860  0.455380  0.707270  1.0  -0.5896
  O  O920  1  0.656050  0.545030  0.792500  1.0  -0.5999
  O  O921  1  0.292730  0.155860  0.044620  1.0  -0.5892
  O  O922  1  0.207500  0.156050  0.954970  1.0  -0.6005
  O  O923  1  0.292730  0.655860  0.544620  1.0  -0.5896
  O  O924  1  0.207500  0.656050  0.454970  1.0  -0.6005
  O  O925  1  0.792730  0.155860  0.544620  1.0  -0.5896
  O  O926  1  0.707500  0.156050  0.454970  1.0  -0.6005
  O  O927  1  0.792730  0.655860  0.044620  1.0  -0.5892
  O  O928  1  0.707500  0.656050  0.954970  1.0  -0.6005
  O  O929  1  0.292730  0.844140  0.955380  1.0  -0.5894
  O  O930  1  0.207500  0.843950  0.045030  1.0  -0.6006
  O  O931  1  0.292730  0.344140  0.455380  1.0  -0.5894
  O  O932  1  0.207500  0.343950  0.545030  1.0  -0.6006
  O  O933  1  0.792730  0.844140  0.455380  1.0  -0.5894
  O  O934  1  0.707500  0.843950  0.545030  1.0  -0.6006
  O  O935  1  0.792730  0.344140  0.955380  1.0  -0.5894
  O  O936  1  0.707500  0.343950  0.045030  1.0  -0.6006
  O  O937  1  0.707270  0.844140  0.044620  1.0  -0.5903
  O  O938  1  0.792500  0.843950  0.954970  1.0  -0.6003
  O  O939  1  0.707270  0.344140  0.544620  1.0  -0.5903
  O  O940  1  0.792500  0.343950  0.454970  1.0  -0.6003
  O  O941  1  0.207270  0.844140  0.544620  1.0  -0.5903
  O  O942  1  0.292500  0.843950  0.454970  1.0  -0.6003
  O  O943  1  0.207270  0.344140  0.044620  1.0  -0.5903
  O  O944  1  0.292500  0.343950  0.954970  1.0  -0.6003
  O  O945  1  0.707270  0.155860  0.955380  1.0  -0.5902
  O  O946  1  0.792500  0.156050  0.045030  1.0  -0.6006
  O  O947  1  0.707270  0.655860  0.455380  1.0  -0.5902
  O  O948  1  0.792500  0.656050  0.545030  1.0  -0.6007
  O  O949  1  0.207270  0.155860  0.455380  1.0  -0.5902
  O  O950  1  0.292500  0.156050  0.545030  1.0  -0.6007
  O  O951  1  0.207270  0.655860  0.955380  1.0  -0.5902
  O  O952  1  0.292500  0.656050  0.045030  1.0  -0.6006
  O  O953  1  0.044620  0.292730  0.155860  1.0  -0.588
  O  O954  1  0.954970  0.207500  0.156050  1.0  -0.5993
  O  O955  1  0.044620  0.792730  0.655860  1.0  -0.588
  O  O956  1  0.954970  0.707500  0.656050  1.0  -0.5993
  O  O957  1  0.544620  0.292730  0.655860  1.0  -0.5884
  O  O958  1  0.454970  0.207500  0.656050  1.0  -0.5992
  O  O959  1  0.544620  0.792730  0.155860  1.0  -0.5884
  O  O960  1  0.454970  0.707500  0.156050  1.0  -0.5993
  O  O961  1  0.955380  0.292730  0.844140  1.0  -0.589
  O  O962  1  0.045030  0.207500  0.843950  1.0  -0.6005
  O  O963  1  0.955380  0.792730  0.344140  1.0  -0.589
  O  O964  1  0.045030  0.707500  0.343950  1.0  -0.6005
  O  O965  1  0.455380  0.292730  0.344140  1.0  -0.589
  O  O966  1  0.545030  0.207500  0.343950  1.0  -0.6005
  O  O967  1  0.455380  0.792730  0.844140  1.0  -0.589
  O  O968  1  0.545030  0.707500  0.843950  1.0  -0.6005
  O  O969  1  0.044620  0.707270  0.844140  1.0  -0.5898
  O  O970  1  0.954970  0.792500  0.843950  1.0  -0.6002
  O  O971  1  0.044620  0.207270  0.344140  1.0  -0.5898
  O  O972  1  0.954970  0.292500  0.343950  1.0  -0.6002
  O  O973  1  0.544620  0.707270  0.344140  1.0  -0.5898
  O  O974  1  0.454970  0.792500  0.343950  1.0  -0.6002
  O  O975  1  0.544620  0.207270  0.844140  1.0  -0.5898
  O  O976  1  0.454970  0.292500  0.843950  1.0  -0.6002
  O  O977  1  0.955380  0.707270  0.155860  1.0  -0.5883
  O  O978  1  0.045030  0.792500  0.156050  1.0  -0.5991
  O  O979  1  0.955380  0.207270  0.655860  1.0  -0.5883
  O  O980  1  0.045030  0.292500  0.656050  1.0  -0.5991
  O  O981  1  0.455380  0.707270  0.655860  1.0  -0.5883
  O  O982  1  0.545030  0.792500  0.656050  1.0  -0.5991
  O  O983  1  0.455380  0.207270  0.155860  1.0  -0.588
  O  O984  1  0.545030  0.292500  0.156050  1.0  -0.5991
  O  O985  1  0.044620  0.155860  0.707270  1.0  -0.5892
  O  O986  1  0.954970  0.156050  0.792500  1.0  -0.5992
  O  O987  1  0.044620  0.655860  0.207270  1.0  -0.5892
  O  O988  1  0.954970  0.656050  0.292500  1.0  -0.5992
  O  O989  1  0.544620  0.155860  0.207270  1.0  -0.5892
  O  O990  1  0.454970  0.156050  0.292500  1.0  -0.5992
  O  O991  1  0.544620  0.655860  0.707270  1.0  -0.5892
  O  O992  1  0.454970  0.656050  0.792500  1.0  -0.5992
  O  O993  1  0.955380  0.844140  0.707270  1.0  -0.5896
  O  O994  1  0.045030  0.843950  0.792500  1.0  -0.5994
  O  O995  1  0.955380  0.344140  0.207270  1.0  -0.5896
  O  O996  1  0.045030  0.343950  0.292500  1.0  -0.5994
  O  O997  1  0.455380  0.844140  0.207270  1.0  -0.5896
  O  O998  1  0.545030  0.843950  0.292500  1.0  -0.5994
  O  O999  1  0.455380  0.344140  0.707270  1.0  -0.5896
  O  O1000  1  0.545030  0.343950  0.792500  1.0  -0.5994
  O  O1001  1  0.044620  0.844140  0.292730  1.0  -0.5884
  O  O1002  1  0.954970  0.843950  0.207500  1.0  -0.6005
  O  O1003  1  0.044620  0.344140  0.792730  1.0  -0.5884
  O  O1004  1  0.954970  0.343950  0.707500  1.0  -0.6005
  O  O1005  1  0.544620  0.844140  0.792730  1.0  -0.5884
  O  O1006  1  0.454970  0.843950  0.707500  1.0  -0.6005
  O  O1007  1  0.544620  0.344140  0.292730  1.0  -0.5884
  O  O1008  1  0.454970  0.343950  0.207500  1.0  -0.6005
  O  O1009  1  0.955380  0.155860  0.292730  1.0  -0.5876
  O  O1010  1  0.045030  0.156050  0.207500  1.0  -0.5999
  O  O1011  1  0.955380  0.655860  0.792730  1.0  -0.5876
  O  O1012  1  0.045030  0.656050  0.707500  1.0  -0.5999
  O  O1013  1  0.455380  0.155860  0.792730  1.0  -0.5876
  O  O1014  1  0.545030  0.156050  0.707500  1.0  -0.6
  O  O1015  1  0.455380  0.655860  0.292730  1.0  -0.5876
  O  O1016  1  0.545030  0.656050  0.207500  1.0  -0.6
  O  O1017  1  0.155860  0.292730  0.955380  1.0  -0.591
  O  O1018  1  0.156050  0.207500  0.045030  1.0  -0.603
  O  O1019  1  0.155860  0.792730  0.455380  1.0  -0.591
  O  O1020  1  0.156050  0.707500  0.545030  1.0  -0.603
  O  O1021  1  0.655860  0.292730  0.455380  1.0  -0.591
  O  O1022  1  0.656050  0.207500  0.545030  1.0  -0.603
  O  O1023  1  0.655860  0.792730  0.955380  1.0  -0.591
  O  O1024  1  0.656050  0.707500  0.045030  1.0  -0.603
  O  O1025  1  0.844140  0.292730  0.044620  1.0  -0.5906
  O  O1026  1  0.843950  0.207500  0.954970  1.0  -0.6017
  O  O1027  1  0.844140  0.792730  0.544620  1.0  -0.5906
  O  O1028  1  0.843950  0.707500  0.454970  1.0  -0.6017
  O  O1029  1  0.344140  0.292730  0.544620  1.0  -0.5906
  O  O1030  1  0.343950  0.207500  0.454970  1.0  -0.6015
  O  O1031  1  0.344140  0.792730  0.044620  1.0  -0.5906
  O  O1032  1  0.343950  0.707500  0.954970  1.0  -0.6017
  O  O1033  1  0.844140  0.707270  0.955380  1.0  -0.5911
  O  O1034  1  0.843950  0.792500  0.045030  1.0  -0.6014
  O  O1035  1  0.844140  0.207270  0.455380  1.0  -0.5911
  O  O1036  1  0.843950  0.292500  0.545030  1.0  -0.6014
  O  O1037  1  0.344140  0.707270  0.455380  1.0  -0.5911
  O  O1038  1  0.343950  0.792500  0.545030  1.0  -0.6014
  O  O1039  1  0.344140  0.207270  0.955380  1.0  -0.5911
  O  O1040  1  0.343950  0.292500  0.045030  1.0  -0.6014
  O  O1041  1  0.155860  0.707270  0.044620  1.0  -0.5916
  O  O1042  1  0.156050  0.792500  0.954970  1.0  -0.6025
  O  O1043  1  0.155860  0.207270  0.544620  1.0  -0.5916
  O  O1044  1  0.156050  0.292500  0.454970  1.0  -0.6025
  O  O1045  1  0.655860  0.707270  0.544620  1.0  -0.5916
  O  O1046  1  0.656050  0.792500  0.454970  1.0  -0.6025
  O  O1047  1  0.655860  0.207270  0.044620  1.0  -0.5916
  O  O1048  1  0.656050  0.292500  0.954970  1.0  -0.6025
  O  O1049  1  0.292730  0.044620  0.844140  1.0  -0.5885
  O  O1050  1  0.207500  0.954970  0.843950  1.0  -0.599
  O  O1051  1  0.292730  0.544620  0.344140  1.0  -0.5885
  O  O1052  1  0.207500  0.454970  0.343950  1.0  -0.5991
  O  O1053  1  0.792730  0.044620  0.344140  1.0  -0.5885
  O  O1054  1  0.707500  0.954970  0.343950  1.0  -0.5991
  O  O1055  1  0.792730  0.544620  0.844140  1.0  -0.5885
  O  O1056  1  0.707500  0.454970  0.843950  1.0  -0.5991
  O  O1057  1  0.292730  0.955380  0.155860  1.0  -0.5875
  O  O1058  1  0.207500  0.045030  0.156050  1.0  -0.5985
  O  O1059  1  0.292730  0.455380  0.655860  1.0  -0.5875
  O  O1060  1  0.207500  0.545030  0.656050  1.0  -0.5986
  O  O1061  1  0.792730  0.955380  0.655860  1.0  -0.5875
  O  O1062  1  0.707500  0.045030  0.656050  1.0  -0.5986
  O  O1063  1  0.792730  0.455380  0.155860  1.0  -0.5875
  O  O1064  1  0.707500  0.545030  0.156050  1.0  -0.5985
  O  O1065  1  0.707270  0.044620  0.155860  1.0  -0.5887
  O  O1066  1  0.792500  0.954970  0.156050  1.0  -0.5982
  O  O1067  1  0.707270  0.544620  0.655860  1.0  -0.5888
  O  O1068  1  0.792500  0.454970  0.656050  1.0  -0.5982
  O  O1069  1  0.207270  0.044620  0.655860  1.0  -0.5888
  O  O1070  1  0.292500  0.954970  0.656050  1.0  -0.5982
  O  O1071  1  0.207270  0.544620  0.155860  1.0  -0.5887
  O  O1072  1  0.292500  0.454970  0.156050  1.0  -0.5982
  O  O1073  1  0.707270  0.955380  0.844140  1.0  -0.5891
  O  O1074  1  0.792500  0.045030  0.843950  1.0  -0.5991
  O  O1075  1  0.707270  0.455380  0.344140  1.0  -0.5891
  O  O1076  1  0.792500  0.545030  0.343950  1.0  -0.5991
  O  O1077  1  0.207270  0.955380  0.344140  1.0  -0.5892
  O  O1078  1  0.292500  0.045030  0.343950  1.0  -0.5991
  O  O1079  1  0.207270  0.455380  0.844140  1.0  -0.5891
  O  O1080  1  0.292500  0.545030  0.843950  1.0  -0.599
  O  O1081  1  0.844140  0.955380  0.707270  1.0  -0.5895
  O  O1082  1  0.843950  0.045030  0.792500  1.0  -0.5991
  O  O1083  1  0.844140  0.455380  0.207270  1.0  -0.5895
  O  O1084  1  0.843950  0.545030  0.292500  1.0  -0.5991
  O  O1085  1  0.344140  0.955380  0.207270  1.0  -0.5895
  O  O1086  1  0.343950  0.045030  0.292500  1.0  -0.5991
  O  O1087  1  0.344140  0.455380  0.707270  1.0  -0.5893
  O  O1088  1  0.343950  0.545030  0.792500  1.0  -0.5991
  O  O1089  1  0.155860  0.044620  0.707270  1.0  -0.5895
  O  O1090  1  0.156050  0.954970  0.792500  1.0  -0.5997
  O  O1091  1  0.155860  0.544620  0.207270  1.0  -0.5895
  O  O1092  1  0.156050  0.454970  0.292500  1.0  -0.5997
  O  O1093  1  0.655860  0.044620  0.207270  1.0  -0.5895
  O  O1094  1  0.656050  0.954970  0.292500  1.0  -0.5997
  O  O1095  1  0.655860  0.544620  0.707270  1.0  -0.5895
  O  O1096  1  0.656050  0.454970  0.792500  1.0  -0.5997
  O  O1097  1  0.155860  0.955380  0.292730  1.0  -0.5881
  O  O1098  1  0.156050  0.045030  0.207500  1.0  -0.6002
  O  O1099  1  0.155860  0.455380  0.792730  1.0  -0.5881
  O  O1100  1  0.156050  0.545030  0.707500  1.0  -0.6002
  O  O1101  1  0.655860  0.955380  0.792730  1.0  -0.5881
  O  O1102  1  0.656050  0.045030  0.707500  1.0  -0.6002
  O  O1103  1  0.655860  0.455380  0.292730  1.0  -0.5881
  O  O1104  1  0.656050  0.545030  0.207500  1.0  -0.6002
  O  O1105  1  0.844140  0.044620  0.292730  1.0  -0.5887
  O  O1106  1  0.843950  0.954970  0.207500  1.0  -0.5993
  O  O1107  1  0.844140  0.544620  0.792730  1.0  -0.5887
  O  O1108  1  0.843950  0.454970  0.707500  1.0  -0.5993
  O  O1109  1  0.344140  0.044620  0.792730  1.0  -0.5887
  O  O1110  1  0.343950  0.954970  0.707500  1.0  -0.5993
  O  O1111  1  0.344140  0.544620  0.292730  1.0  -0.5887
  O  O1112  1  0.343950  0.454970  0.207500  1.0  -0.5992
  O  O1113  1  0.707270  0.844140  0.955380  1.0  -0.5903
  O  O1114  1  0.792500  0.843950  0.045030  1.0  -0.6005
  O  O1115  1  0.707270  0.344140  0.455380  1.0  -0.5903
  O  O1116  1  0.792500  0.343950  0.545030  1.0  -0.6005
  O  O1117  1  0.207270  0.844140  0.455380  1.0  -0.5903
  O  O1118  1  0.292500  0.843950  0.545030  1.0  -0.6005
  O  O1119  1  0.207270  0.344140  0.955380  1.0  -0.5903
  O  O1120  1  0.292500  0.343950  0.045030  1.0  -0.6005
  O  O1121  1  0.707270  0.155860  0.044620  1.0  -0.5902
  O  O1122  1  0.792500  0.156050  0.954970  1.0  -0.6006
  O  O1123  1  0.707270  0.655860  0.544620  1.0  -0.5902
  O  O1124  1  0.792500  0.656050  0.454970  1.0  -0.6006
  O  O1125  1  0.207270  0.155860  0.544620  1.0  -0.5902
  O  O1126  1  0.292500  0.156050  0.454970  1.0  -0.6006
  O  O1127  1  0.207270  0.655860  0.044620  1.0  -0.5902
  O  O1128  1  0.292500  0.656050  0.954970  1.0  -0.6006
  O  O1129  1  0.292730  0.155860  0.955380  1.0  -0.5896
  O  O1130  1  0.207500  0.156050  0.045030  1.0  -0.6006
  O  O1131  1  0.292730  0.655860  0.455380  1.0  -0.5896
  O  O1132  1  0.207500  0.656050  0.545030  1.0  -0.6006
  O  O1133  1  0.792730  0.155860  0.455380  1.0  -0.5896
  O  O1134  1  0.707500  0.156050  0.545030  1.0  -0.6006
  O  O1135  1  0.792730  0.655860  0.955380  1.0  -0.5896
  O  O1136  1  0.707500  0.656050  0.045030  1.0  -0.6006
  O  O1137  1  0.292730  0.844140  0.044620  1.0  -0.5895
  O  O1138  1  0.207500  0.843950  0.954970  1.0  -0.6005
  O  O1139  1  0.292730  0.344140  0.544620  1.0  -0.5895
  O  O1140  1  0.207500  0.343950  0.454970  1.0  -0.6004
  O  O1141  1  0.792730  0.844140  0.544620  1.0  -0.5895
  O  O1142  1  0.707500  0.843950  0.454970  1.0  -0.6005
  O  O1143  1  0.792730  0.344140  0.044620  1.0  -0.5895
  O  O1144  1  0.707500  0.343950  0.954970  1.0  -0.6005
  O  O1145  1  0.955380  0.707270  0.844140  1.0  -0.5896
  O  O1146  1  0.045030  0.792500  0.843950  1.0  -0.6001
  O  O1147  1  0.955380  0.207270  0.344140  1.0  -0.5896
  O  O1148  1  0.045030  0.292500  0.343950  1.0  -0.6001
  O  O1149  1  0.455380  0.707270  0.344140  1.0  -0.5896
  O  O1150  1  0.545030  0.792500  0.343950  1.0  -0.6002
  O  O1151  1  0.455380  0.207270  0.844140  1.0  -0.5892
  O  O1152  1  0.545030  0.292500  0.843950  1.0  -0.6002
  O  O1153  1  0.044620  0.707270  0.155860  1.0  -0.5886
  O  O1154  1  0.954970  0.792500  0.156050  1.0  -0.5989
  O  O1155  1  0.044620  0.207270  0.655860  1.0  -0.5889
  O  O1156  1  0.954970  0.292500  0.656050  1.0  -0.5989
  O  O1157  1  0.544620  0.707270  0.655860  1.0  -0.5889
  O  O1158  1  0.454970  0.792500  0.656050  1.0  -0.5989
  O  O1159  1  0.544620  0.207270  0.155860  1.0  -0.5886
  O  O1160  1  0.454970  0.292500  0.156050  1.0  -0.5989
  O  O1161  1  0.955380  0.292730  0.155860  1.0  -0.5877
  O  O1162  1  0.045030  0.207500  0.156050  1.0  -0.5994
  O  O1163  1  0.955380  0.792730  0.655860  1.0  -0.5877
  O  O1164  1  0.045030  0.707500  0.656050  1.0  -0.5994
  O  O1165  1  0.455380  0.292730  0.655860  1.0  -0.5877
  O  O1166  1  0.545030  0.207500  0.656050  1.0  -0.5994
  O  O1167  1  0.455380  0.792730  0.155860  1.0  -0.5877
  O  O1168  1  0.545030  0.707500  0.156050  1.0  -0.5993
  O  O1169  1  0.044620  0.292730  0.844140  1.0  -0.5889
  O  O1170  1  0.954970  0.207500  0.843950  1.0  -0.6004
  O  O1171  1  0.044620  0.792730  0.344140  1.0  -0.5889
  O  O1172  1  0.954970  0.707500  0.343950  1.0  -0.6004
  O  O1173  1  0.544620  0.292730  0.344140  1.0  -0.5893
  O  O1174  1  0.454970  0.207500  0.343950  1.0  -0.6003
  O  O1175  1  0.544620  0.792730  0.844140  1.0  -0.5893
  O  O1176  1  0.454970  0.707500  0.843950  1.0  -0.6004
  O  O1177  1  0.955380  0.844140  0.292730  1.0  -0.5881
  O  O1178  1  0.045030  0.843950  0.207500  1.0  -0.6005
  O  O1179  1  0.955380  0.344140  0.792730  1.0  -0.5881
  O  O1180  1  0.045030  0.343950  0.707500  1.0  -0.6005
  O  O1181  1  0.455380  0.844140  0.792730  1.0  -0.5881
  O  O1182  1  0.545030  0.843950  0.707500  1.0  -0.6005
  O  O1183  1  0.455380  0.344140  0.292730  1.0  -0.5881
  O  O1184  1  0.545030  0.343950  0.207500  1.0  -0.6005
  O  O1185  1  0.044620  0.155860  0.292730  1.0  -0.5881
  O  O1186  1  0.954970  0.156050  0.207500  1.0  -0.5999
  O  O1187  1  0.044620  0.655860  0.792730  1.0  -0.5881
  O  O1188  1  0.954970  0.656050  0.707500  1.0  -0.6
  O  O1189  1  0.544620  0.155860  0.792730  1.0  -0.5881
  O  O1190  1  0.454970  0.156050  0.707500  1.0  -0.6
  O  O1191  1  0.544620  0.655860  0.292730  1.0  -0.5881
  O  O1192  1  0.454970  0.656050  0.207500  1.0  -0.5999
  O  O1193  1  0.955380  0.155860  0.707270  1.0  -0.5888
  O  O1194  1  0.045030  0.156050  0.792500  1.0  -0.5993
  O  O1195  1  0.955380  0.655860  0.207270  1.0  -0.5888
  O  O1196  1  0.045030  0.656050  0.292500  1.0  -0.5993
  O  O1197  1  0.455380  0.155860  0.207270  1.0  -0.5888
  O  O1198  1  0.545030  0.156050  0.292500  1.0  -0.5994
  O  O1199  1  0.455380  0.655860  0.707270  1.0  -0.5888
  O  O1200  1  0.545030  0.656050  0.792500  1.0  -0.5994
  O  O1201  1  0.044620  0.844140  0.707270  1.0  -0.5897
  O  O1202  1  0.954970  0.843950  0.792500  1.0  -0.5992
  O  O1203  1  0.044620  0.344140  0.207270  1.0  -0.5897
  O  O1204  1  0.954970  0.343950  0.292500  1.0  -0.5992
  O  O1205  1  0.544620  0.844140  0.207270  1.0  -0.5897
  O  O1206  1  0.454970  0.843950  0.292500  1.0  -0.5992
  O  O1207  1  0.544620  0.344140  0.707270  1.0  -0.5897
  O  O1208  1  0.454970  0.343950  0.792500  1.0  -0.5992
  O  O1209  1  0.844140  0.707270  0.044620  1.0  -0.5912
  O  O1210  1  0.843950  0.792500  0.954970  1.0  -0.6015
  O  O1211  1  0.844140  0.207270  0.544620  1.0  -0.5912
  O  O1212  1  0.843950  0.292500  0.454970  1.0  -0.6015
  O  O1213  1  0.344140  0.707270  0.544620  1.0  -0.5912
  O  O1214  1  0.343950  0.792500  0.454970  1.0  -0.6015
  O  O1215  1  0.344140  0.207270  0.044620  1.0  -0.5912
  O  O1216  1  0.343950  0.292500  0.954970  1.0  -0.6015
  O  O1217  1  0.155860  0.707270  0.955380  1.0  -0.5914
  O  O1218  1  0.156050  0.792500  0.045030  1.0  -0.6026
  O  O1219  1  0.155860  0.207270  0.455380  1.0  -0.5914
  O  O1220  1  0.156050  0.292500  0.545030  1.0  -0.6026
  O  O1221  1  0.655860  0.707270  0.455380  1.0  -0.5914
  O  O1222  1  0.656050  0.792500  0.545030  1.0  -0.6026
  O  O1223  1  0.655860  0.207270  0.955380  1.0  -0.5914
  O  O1224  1  0.656050  0.292500  0.045030  1.0  -0.6026
  O  O1225  1  0.155860  0.292730  0.044620  1.0  -0.5913
  O  O1226  1  0.156050  0.207500  0.954970  1.0  -0.6028
  O  O1227  1  0.155860  0.792730  0.544620  1.0  -0.5913
  O  O1228  1  0.156050  0.707500  0.454970  1.0  -0.6028
  O  O1229  1  0.655860  0.292730  0.544620  1.0  -0.5913
  O  O1230  1  0.656050  0.207500  0.454970  1.0  -0.6028
  O  O1231  1  0.655860  0.792730  0.044620  1.0  -0.5913
  O  O1232  1  0.656050  0.707500  0.954970  1.0  -0.6028
  O  O1233  1  0.844140  0.292730  0.955380  1.0  -0.5906
  O  O1234  1  0.843950  0.207500  0.045030  1.0  -0.6018
  O  O1235  1  0.844140  0.792730  0.455380  1.0  -0.5906
  O  O1236  1  0.843950  0.707500  0.545030  1.0  -0.6018
  O  O1237  1  0.344140  0.292730  0.455380  1.0  -0.5906
  O  O1238  1  0.343950  0.207500  0.545030  1.0  -0.6018
  O  O1239  1  0.344140  0.792730  0.955380  1.0  -0.5906
  O  O1240  1  0.343950  0.707500  0.045030  1.0  -0.6018
  O  O1241  1  0.707270  0.955380  0.155860  1.0  -0.5882
  O  O1242  1  0.792500  0.045030  0.156050  1.0  -0.5986
  O  O1243  1  0.707270  0.455380  0.655860  1.0  -0.5882
  O  O1244  1  0.792500  0.545030  0.656050  1.0  -0.5986
  O  O1245  1  0.207270  0.955380  0.655860  1.0  -0.5882
  O  O1246  1  0.292500  0.045030  0.656050  1.0  -0.5986
  O  O1247  1  0.207270  0.455380  0.155860  1.0  -0.5882
  O  O1248  1  0.292500  0.545030  0.156050  1.0  -0.5985
  O  O1249  1  0.707270  0.044620  0.844140  1.0  -0.5893
  O  O1250  1  0.792500  0.954970  0.843950  1.0  -0.599
  O  O1251  1  0.707270  0.544620  0.344140  1.0  -0.5893
  O  O1252  1  0.792500  0.454970  0.343950  1.0  -0.599
  O  O1253  1  0.207270  0.044620  0.344140  1.0  -0.5893
  O  O1254  1  0.292500  0.954970  0.343950  1.0  -0.599
  O  O1255  1  0.207270  0.544620  0.844140  1.0  -0.5893
  O  O1256  1  0.292500  0.454970  0.843950  1.0  -0.599
  O  O1257  1  0.292730  0.955380  0.844140  1.0  -0.5883
  O  O1258  1  0.207500  0.045030  0.843950  1.0  -0.5993
  O  O1259  1  0.292730  0.455380  0.344140  1.0  -0.5883
  O  O1260  1  0.207500  0.545030  0.343950  1.0  -0.5993
  O  O1261  1  0.792730  0.955380  0.344140  1.0  -0.5883
  O  O1262  1  0.707500  0.045030  0.343950  1.0  -0.5993
  O  O1263  1  0.792730  0.455380  0.844140  1.0  -0.5883
  O  O1264  1  0.707500  0.545030  0.843950  1.0  -0.5993
  O  O1265  1  0.292730  0.044620  0.155860  1.0  -0.5879
  O  O1266  1  0.207500  0.954970  0.156050  1.0  -0.5981
  O  O1267  1  0.292730  0.544620  0.655860  1.0  -0.5879
  O  O1268  1  0.207500  0.454970  0.656050  1.0  -0.5981
  O  O1269  1  0.792730  0.044620  0.655860  1.0  -0.5879
  O  O1270  1  0.707500  0.954970  0.656050  1.0  -0.5981
  O  O1271  1  0.792730  0.544620  0.155860  1.0  -0.5879
  O  O1272  1  0.707500  0.454970  0.156050  1.0  -0.5981
