# generated using pymatgen
data_Zn16H60(C37O20)3
_symmetry_space_group_name_H-M   'P 1'
_cell_length_a   27.03300000
_cell_length_b   27.03300000
_cell_length_c   44.09600000
_cell_angle_alpha   90.00000000
_cell_angle_beta   90.00000000
_cell_angle_gamma   90.00000000
_symmetry_Int_Tables_number   1
_chemical_formula_structural   Zn16H60(C37O20)3
_chemical_formula_sum   'Zn64 H240 C444 O240'
_cell_volume   32224.61109254
_cell_formula_units_Z   4
loop_
 _symmetry_equiv_pos_site_id
 _symmetry_equiv_pos_as_xyz
  1  'x, y, z'
loop_
 _atom_site_type_symbol
 _atom_site_label
 _atom_site_symmetry_multiplicity
 _atom_site_fract_x
 _atom_site_fract_y
 _atom_site_fract_z
 _atom_site_occupancy
 _atom_site_charge
  Zn  Zn1  1  0.224090  0.029040  0.865100  1.0  1.0558
  Zn  Zn2  1  0.766150  0.090580  0.668190  1.0  0.9969
  Zn  Zn3  1  0.733850  0.590580  0.168190  1.0  0.9958
  Zn  Zn4  1  0.445120  0.744250  0.074810  1.0  1.1014
  Zn  Zn5  1  0.987880  0.247610  0.377840  1.0  0.9831
  Zn  Zn6  1  0.755750  0.054880  0.425190  1.0  1.104
  Zn  Zn7  1  0.090580  0.233850  0.331810  1.0  0.9941
  Zn  Zn8  1  0.972010  0.734370  0.933190  1.0  1.048
  Zn  Zn9  1  0.244250  0.945120  0.425190  1.0  1.1006
  Zn  Zn10  1  0.472010  0.765630  0.433190  1.0  1.0477
  Zn  Zn11  1  0.233850  0.909420  0.668190  1.0  0.9951
  Zn  Zn12  1  0.012120  0.752390  0.377840  1.0  0.9876
  Zn  Zn13  1  0.535830  0.778220  0.366820  1.0  0.9033
  Zn  Zn14  1  0.280440  0.421780  0.323240  1.0  1.0252
  Zn  Zn15  1  0.027990  0.265630  0.933190  1.0  1.0494
  Zn  Zn16  1  0.421780  0.719560  0.676760  1.0  1.0262
  Zn  Zn17  1  0.752390  0.987880  0.622160  1.0  0.9919
  Zn  Zn18  1  0.945120  0.755750  0.574810  1.0  1.1011
  Zn  Zn19  1  0.219560  0.921780  0.823240  1.0  1.0258
  Zn  Zn20  1  0.964170  0.278220  0.866820  1.0  0.903
  Zn  Zn21  1  0.527990  0.234370  0.433190  1.0  1.0495
  Zn  Zn22  1  0.035830  0.721780  0.866820  1.0  0.9033
  Zn  Zn23  1  0.909420  0.766150  0.331810  1.0  0.9941
  Zn  Zn24  1  0.247610  0.012120  0.622160  1.0  0.9865
  Zn  Zn25  1  0.780440  0.078220  0.823240  1.0  1.0264
  Zn  Zn26  1  0.078220  0.219560  0.176760  1.0  1.0248
  Zn  Zn27  1  0.529040  0.724090  0.634900  1.0  1.0533
  Zn  Zn28  1  0.744250  0.554880  0.925190  1.0  1.104
  Zn  Zn29  1  0.221780  0.535830  0.633180  1.0  0.906
  Zn  Zn30  1  0.921780  0.780440  0.176760  1.0  1.0255
  Zn  Zn31  1  0.724090  0.470960  0.365100  1.0  1.0556
  Zn  Zn32  1  0.409420  0.733850  0.831810  1.0  0.9945
  Zn  Zn33  1  0.765630  0.527990  0.566810  1.0  1.0504
  Zn  Zn34  1  0.262740  0.008980  0.361170  1.0  0.999
  Zn  Zn35  1  0.008980  0.737260  0.638830  1.0  1.0031
  Zn  Zn36  1  0.590580  0.266150  0.831810  1.0  0.994
  Zn  Zn37  1  0.991020  0.262740  0.638830  1.0  1.0012
  Zn  Zn38  1  0.578220  0.280440  0.676760  1.0  1.0244
  Zn  Zn39  1  0.266150  0.409420  0.168190  1.0  0.9959
  Zn  Zn40  1  0.234370  0.472010  0.566810  1.0  1.0516
  Zn  Zn41  1  0.778220  0.464170  0.633180  1.0  0.9054
  Zn  Zn42  1  0.554880  0.255750  0.074810  1.0  1.1026
  Zn  Zn43  1  0.464170  0.221780  0.366820  1.0  0.9031
  Zn  Zn44  1  0.470960  0.275910  0.634900  1.0  1.0543
  Zn  Zn45  1  0.512120  0.747610  0.877840  1.0  0.9878
  Zn  Zn46  1  0.252390  0.512120  0.122160  1.0  0.9883
  Zn  Zn47  1  0.737260  0.991020  0.361170  1.0  1.0012
  Zn  Zn48  1  0.029040  0.775910  0.134900  1.0  1.0539
  Zn  Zn49  1  0.278220  0.035830  0.133180  1.0  0.9058
  Zn  Zn50  1  0.719560  0.578220  0.323240  1.0  1.0265
  Zn  Zn51  1  0.491020  0.237260  0.138830  1.0  1.0014
  Zn  Zn52  1  0.970960  0.224090  0.134900  1.0  1.0545
  Zn  Zn53  1  0.734370  0.027990  0.066810  1.0  1.0498
  Zn  Zn54  1  0.721780  0.964170  0.133180  1.0  0.9056
  Zn  Zn55  1  0.762740  0.491020  0.861170  1.0  1.0015
  Zn  Zn56  1  0.747610  0.487880  0.122160  1.0  0.9876
  Zn  Zn57  1  0.508980  0.762740  0.138830  1.0  1.004
  Zn  Zn58  1  0.275910  0.529040  0.365100  1.0  1.0556
  Zn  Zn59  1  0.487880  0.252390  0.877840  1.0  0.9829
  Zn  Zn60  1  0.775910  0.970960  0.865100  1.0  1.0547
  Zn  Zn61  1  0.255750  0.445120  0.925190  1.0  1.1003
  Zn  Zn62  1  0.237260  0.508980  0.861170  1.0  0.9996
  Zn  Zn63  1  0.054880  0.244250  0.574810  1.0  1.1026
  Zn  Zn64  1  0.265630  0.972010  0.066810  1.0  1.052
  H  H65  1  0.614200  0.512300  0.418400  1.0  0.1172
  H  H66  1  0.272700  0.827700  0.265400  1.0  0.0715
  H  H67  1  0.987700  0.885800  0.081600  1.0  0.1163
  H  H68  1  0.492800  0.054100  0.936800  1.0  0.061
  H  H69  1  0.250600  0.292500  0.789500  1.0  0.0715
  H  H70  1  0.479600  0.424000  0.008900  1.0  0.0669
  H  H71  1  0.944700  0.015200  0.465800  1.0  0.0885
  H  H72  1  0.275200  0.620800  0.284300  1.0  0.0835
  H  H73  1  0.142000  0.107500  0.122700  1.0  0.0888
  H  H74  1  0.622700  0.896100  0.400200  1.0  0.0948
  H  H75  1  0.602200  0.640500  0.127500  1.0  0.1162
  H  H76  1  0.945900  0.492800  0.063200  1.0  0.0602
  H  H77  1  0.860900  0.506100  0.400800  1.0  0.1215
  H  H78  1  0.657000  0.144400  0.106400  1.0  0.1137
  H  H79  1  0.144400  0.343000  0.893600  1.0  0.1125
  H  H80  1  0.227100  0.357700  0.818300  1.0  0.093
  H  H81  1  0.256800  0.615200  0.198000  1.0  0.085
  H  H82  1  0.727100  0.142300  0.318300  1.0  0.0929
  H  H83  1  0.495300  0.864700  0.036100  1.0  0.1171
  H  H84  1  0.172300  0.272700  0.734600  1.0  0.0759
  H  H85  1  0.576000  0.479600  0.991100  1.0  0.0679
  H  H86  1  0.006100  0.360900  0.099200  1.0  0.1208
  H  H87  1  0.995300  0.635300  0.536100  1.0  0.1175
  H  H88  1  0.378700  0.479800  0.074300  1.0  0.1277
  H  H89  1  0.397800  0.359500  0.127500  1.0  0.1161
  H  H90  1  0.799800  0.252900  0.222600  1.0  0.0624
  H  H91  1  0.528100  0.930400  0.528200  1.0  0.0632
  H  H92  1  0.633300  0.150600  0.644400  1.0  0.0548
  H  H93  1  0.978400  0.121100  0.947400  1.0  0.0666
  H  H94  1  0.488100  0.385100  0.056100  1.0  0.0863
  H  H95  1  0.613700  0.032000  0.589000  1.0  0.0971
  H  H96  1  0.069600  0.528100  0.471800  1.0  0.0652
  H  H97  1  0.859500  0.897800  0.372500  1.0  0.1151
  H  H98  1  0.200200  0.747100  0.222600  1.0  0.0609
  H  H99  1  0.608100  0.230200  0.320100  1.0  0.1104
  H  H100  1  0.067300  0.468100  0.038300  1.0  0.0741
  H  H101  1  0.122700  0.603900  0.900200  1.0  0.0946
  H  H102  1  0.729500  0.508500  0.244200  1.0  0.1059
  H  H103  1  0.866700  0.650600  0.144400  1.0  0.0549
  H  H104  1  0.520200  0.378700  0.925700  1.0  0.1279
  H  H105  1  0.727300  0.172300  0.265400  1.0  0.0709
  H  H106  1  0.615200  0.743200  0.802000  1.0  0.0865
  H  H107  1  0.924000  0.979600  0.491100  1.0  0.0674
  H  H108  1  0.884800  0.243200  0.302000  1.0  0.0863
  H  H109  1  0.444700  0.484800  0.965800  1.0  0.0895
  H  H110  1  0.520900  0.577100  0.494700  1.0  0.0944
  H  H111  1  0.056200  0.492700  0.499000  1.0  0.0633
  H  H112  1  0.532000  0.113700  0.911000  1.0  0.0968
  H  H113  1  0.327700  0.772700  0.234600  1.0  0.0762
  H  H114  1  0.492700  0.943800  0.501000  1.0  0.062
  H  H115  1  0.102200  0.859500  0.627500  1.0  0.115
  H  H116  1  0.121100  0.021600  0.052600  1.0  0.0657
  H  H117  1  0.142300  0.272900  0.681700  1.0  0.0945
  H  H118  1  0.299800  0.247100  0.722600  1.0  0.0619
  H  H119  1  0.443800  0.992700  0.999000  1.0  0.0623
  H  H120  1  0.508500  0.270500  0.755800  1.0  0.1053
  H  H121  1  0.650600  0.133300  0.855600  1.0  0.0554
  H  H122  1  0.076000  0.020400  0.491100  1.0  0.0676
  H  H123  1  0.439300  0.482200  0.530400  1.0  0.1137
  H  H124  1  0.797200  0.197700  0.233600  1.0  0.0548
  H  H125  1  0.857700  0.727100  0.681700  1.0  0.0938
  H  H126  1  0.432700  0.968100  0.538300  1.0  0.0737
  H  H127  1  0.504700  0.135300  0.036100  1.0  0.1173
  H  H128  1  0.982200  0.939300  0.969600  1.0  0.1123
  H  H129  1  0.707500  0.250600  0.210500  1.0  0.0706
  H  H130  1  0.150600  0.366700  0.355600  1.0  0.0555
  H  H131  1  0.620800  0.724800  0.715700  1.0  0.0838
  H  H132  1  0.555300  0.515200  0.965800  1.0  0.0892
  H  H133  1  0.993900  0.639100  0.099200  1.0  0.1215
  H  H134  1  0.606200  0.974000  0.029700  1.0  0.1381
  H  H135  1  0.103900  0.622700  0.599800  1.0  0.0943
  H  H136  1  0.878900  0.978400  0.052600  1.0  0.066
  H  H137  1  0.115200  0.756800  0.302000  1.0  0.0864
  H  H138  1  0.017800  0.060700  0.969600  1.0  0.1132
  H  H139  1  0.642000  0.392500  0.622700  1.0  0.0915
  H  H140  1  0.249400  0.792500  0.289500  1.0  0.0706
  H  H141  1  0.252900  0.200200  0.777400  1.0  0.06
  H  H142  1  0.621100  0.478400  0.552600  1.0  0.0663
  H  H143  1  0.479800  0.621300  0.925700  1.0  0.1271
  H  H144  1  0.392500  0.358000  0.377300  1.0  0.0913
  H  H145  1  0.197700  0.202800  0.766400  1.0  0.0602
  H  H146  1  0.114900  0.011900  0.443900  1.0  0.0862
  H  H147  1  0.379200  0.275200  0.715700  1.0  0.0837
  H  H148  1  0.747100  0.799800  0.777400  1.0  0.0592
  H  H149  1  0.364700  0.995300  0.463900  1.0  0.1175
  H  H150  1  0.772900  0.642300  0.818300  1.0  0.0939
  H  H151  1  0.140500  0.102200  0.372500  1.0  0.1154
  H  H152  1  0.802300  0.797200  0.766400  1.0  0.0587
  H  H153  1  0.769800  0.608100  0.679900  1.0  0.1097
  H  H154  1  0.507300  0.056200  0.501000  1.0  0.0612
  H  H155  1  0.060700  0.982200  0.030400  1.0  0.1137
  H  H156  1  0.384800  0.256800  0.802000  1.0  0.0859
  H  H157  1  0.892500  0.142000  0.877300  1.0  0.0888
  H  H158  1  0.207500  0.249400  0.710500  1.0  0.0699
  H  H159  1  0.358000  0.607500  0.622700  1.0  0.0917
  H  H160  1  0.487700  0.614200  0.581600  1.0  0.1166
  H  H161  1  0.772700  0.672300  0.765400  1.0  0.0711
  H  H162  1  0.922900  0.979100  0.005300  1.0  0.0931
  H  H163  1  0.567300  0.031900  0.538300  1.0  0.0745
  H  H164  1  0.054100  0.507200  0.063200  1.0  0.06
  H  H165  1  0.672300  0.227300  0.234600  1.0  0.0758
  H  H166  1  0.120800  0.775200  0.215700  1.0  0.0838
  H  H167  1  0.984800  0.944700  0.534200  1.0  0.0908
  H  H168  1  0.864700  0.504700  0.963900  1.0  0.1177
  H  H169  1  0.992800  0.445900  0.436800  1.0  0.0605
  H  H170  1  0.227300  0.327700  0.765400  1.0  0.0712
  H  H171  1  0.430400  0.028100  0.971800  1.0  0.0633
  H  H172  1  0.750600  0.207500  0.289500  1.0  0.0718
  H  H173  1  0.055300  0.984800  0.465800  1.0  0.09
  H  H174  1  0.607500  0.642000  0.377300  1.0  0.0918
  H  H175  1  0.272900  0.857700  0.318300  1.0  0.094
  H  H176  1  0.471900  0.069600  0.528200  1.0  0.0631
  H  H177  1  0.229500  0.991500  0.744200  1.0  0.1082
  H  H178  1  0.393800  0.026000  0.029700  1.0  0.1379
  H  H179  1  0.885800  0.012300  0.918400  1.0  0.1172
  H  H180  1  0.108100  0.269800  0.820100  1.0  0.1098
  H  H181  1  0.031900  0.432700  0.461700  1.0  0.0734
  H  H182  1  0.886300  0.532000  0.089000  1.0  0.0969
  H  H183  1  0.028100  0.569600  0.028200  1.0  0.0625
  H  H184  1  0.614900  0.488100  0.943900  1.0  0.086
  H  H185  1  0.603900  0.877300  0.099800  1.0  0.094
  H  H186  1  0.386300  0.968000  0.589000  1.0  0.0974
  H  H187  1  0.157000  0.355600  0.606400  1.0  0.1131
  H  H188  1  0.077100  0.020900  0.005300  1.0  0.0933
  H  H189  1  0.756800  0.884800  0.698000  1.0  0.0855
  H  H190  1  0.971900  0.430400  0.028200  1.0  0.0634
  H  H191  1  0.468100  0.932700  0.961700  1.0  0.0737
  H  H192  1  0.858000  0.892500  0.122700  1.0  0.0889
  H  H193  1  0.743200  0.384800  0.198000  1.0  0.0855
  H  H194  1  0.366700  0.849400  0.644400  1.0  0.0553
  H  H195  1  0.752900  0.299800  0.277400  1.0  0.0602
  H  H196  1  0.468000  0.886300  0.911000  1.0  0.0967
  H  H197  1  0.943800  0.507300  0.499000  1.0  0.0615
  H  H198  1  0.979100  0.077100  0.994700  1.0  0.0942
  H  H199  1  0.968000  0.613700  0.411000  1.0  0.0969
  H  H200  1  0.020400  0.924000  0.508900  1.0  0.0669
  H  H201  1  0.635300  0.004700  0.463900  1.0  0.1175
  H  H202  1  0.891900  0.730200  0.820100  1.0  0.1102
  H  H203  1  0.479100  0.422900  0.494700  1.0  0.0941
  H  H204  1  0.770500  0.008500  0.744200  1.0  0.1068
  H  H205  1  0.422900  0.520900  0.505300  1.0  0.0931
  H  H206  1  0.020900  0.922900  0.994700  1.0  0.0947
  H  H207  1  0.482200  0.560700  0.469600  1.0  0.1123
  H  H208  1  0.974000  0.393800  0.970300  1.0  0.1387
  H  H209  1  0.930400  0.471900  0.471800  1.0  0.0634
  H  H210  1  0.939300  0.017800  0.030400  1.0  0.1129
  H  H211  1  0.378900  0.521600  0.552600  1.0  0.0649
  H  H212  1  0.893800  0.474000  0.529700  1.0  0.1384
  H  H213  1  0.491500  0.729500  0.755800  1.0  0.1044
  H  H214  1  0.991500  0.770500  0.255800  1.0  0.1051
  H  H215  1  0.639100  0.006100  0.900800  1.0  0.122
  H  H216  1  0.988100  0.114900  0.556100  1.0  0.0867
  H  H217  1  0.385100  0.511900  0.943900  1.0  0.0865
  H  H218  1  0.697700  0.297200  0.266400  1.0  0.0604
  H  H219  1  0.007300  0.443800  0.001000  1.0  0.061
  H  H220  1  0.011900  0.885100  0.556100  1.0  0.0869
  H  H221  1  0.979600  0.076000  0.508900  1.0  0.067
  H  H222  1  0.569600  0.971900  0.971800  1.0  0.0648
  H  H223  1  0.269800  0.891900  0.179900  1.0  0.1093
  H  H224  1  0.349400  0.866700  0.855600  1.0  0.0552
  H  H225  1  0.297200  0.302300  0.733600  1.0  0.0565
  H  H226  1  0.247100  0.700200  0.277400  1.0  0.0592
  H  H227  1  0.106200  0.526000  0.529700  1.0  0.1378
  H  H228  1  0.343000  0.855600  0.106400  1.0  0.1132
  H  H229  1  0.021600  0.878900  0.947400  1.0  0.0663
  H  H230  1  0.849400  0.633300  0.355600  1.0  0.055
  H  H231  1  0.391900  0.769800  0.320100  1.0  0.1097
  H  H232  1  0.004700  0.364700  0.536100  1.0  0.1171
  H  H233  1  0.531900  0.067300  0.961700  1.0  0.0731
  H  H234  1  0.396100  0.122700  0.099800  1.0  0.0945
  H  H235  1  0.008500  0.229500  0.255800  1.0  0.1063
  H  H236  1  0.015200  0.055300  0.534200  1.0  0.09
  H  H237  1  0.724800  0.379200  0.284300  1.0  0.0835
  H  H238  1  0.133300  0.349400  0.144400  1.0  0.055
  H  H239  1  0.560700  0.517800  0.530400  1.0  0.1125
  H  H240  1  0.292500  0.749400  0.210500  1.0  0.0698
  H  H241  1  0.877300  0.396100  0.900200  1.0  0.0953
  H  H242  1  0.484800  0.555300  0.034200  1.0  0.09
  H  H243  1  0.640500  0.397800  0.872500  1.0  0.1157
  H  H244  1  0.855600  0.657000  0.893600  1.0  0.1132
  H  H245  1  0.749400  0.707500  0.789500  1.0  0.071
  H  H246  1  0.135300  0.495300  0.963900  1.0  0.1172
  H  H247  1  0.020200  0.121300  0.425700  1.0  0.1275
  H  H248  1  0.114200  0.987700  0.918400  1.0  0.1174
  H  H249  1  0.230200  0.391900  0.679900  1.0  0.1087
  H  H250  1  0.385800  0.487700  0.418400  1.0  0.1175
  H  H251  1  0.424000  0.520400  0.991100  1.0  0.0671
  H  H252  1  0.843000  0.644400  0.606400  1.0  0.1131
  H  H253  1  0.520400  0.576000  0.008900  1.0  0.0667
  H  H254  1  0.621300  0.520200  0.074300  1.0  0.1276
  H  H255  1  0.878700  0.020200  0.574300  1.0  0.1276
  H  H256  1  0.700200  0.752900  0.722600  1.0  0.0612
  H  H257  1  0.702800  0.697700  0.733600  1.0  0.0547
  H  H258  1  0.792500  0.750600  0.710500  1.0  0.0702
  H  H259  1  0.992700  0.556200  0.001000  1.0  0.0613
  H  H260  1  0.512300  0.385800  0.581600  1.0  0.1163
  H  H261  1  0.521600  0.621100  0.447400  1.0  0.066
  H  H262  1  0.113700  0.468000  0.089000  1.0  0.0975
  H  H263  1  0.515200  0.444700  0.034200  1.0  0.0908
  H  H264  1  0.474000  0.106200  0.470300  1.0  0.1385
  H  H265  1  0.493900  0.860900  0.599200  1.0  0.1211
  H  H266  1  0.302300  0.702800  0.266400  1.0  0.0574
  H  H267  1  0.012300  0.114200  0.081600  1.0  0.1159
  H  H268  1  0.139100  0.493900  0.400800  1.0  0.1223
  H  H269  1  0.642300  0.227100  0.181700  1.0  0.0944
  H  H270  1  0.270500  0.491500  0.244200  1.0  0.1069
  H  H271  1  0.243200  0.115200  0.698000  1.0  0.0853
  H  H272  1  0.554100  0.992800  0.563200  1.0  0.0612
  H  H273  1  0.526000  0.893800  0.470300  1.0  0.1381
  H  H274  1  0.897800  0.140500  0.627500  1.0  0.1154
  H  H275  1  0.032000  0.386300  0.411000  1.0  0.0971
  H  H276  1  0.107500  0.858000  0.877300  1.0  0.0894
  H  H277  1  0.360900  0.993900  0.900800  1.0  0.1224
  H  H278  1  0.896100  0.377300  0.599800  1.0  0.0945
  H  H279  1  0.377300  0.103900  0.400200  1.0  0.0947
  H  H280  1  0.507200  0.945900  0.936800  1.0  0.0588
  H  H281  1  0.478400  0.378900  0.447400  1.0  0.0665
  H  H282  1  0.007200  0.554100  0.436800  1.0  0.06
  H  H283  1  0.445900  0.007200  0.563200  1.0  0.0591
  H  H284  1  0.827700  0.727300  0.734600  1.0  0.0762
  H  H285  1  0.026000  0.606200  0.970300  1.0  0.1378
  H  H286  1  0.355600  0.843000  0.393600  1.0  0.1133
  H  H287  1  0.730200  0.108100  0.179900  1.0  0.1088
  H  H288  1  0.644400  0.157000  0.393600  1.0  0.1126
  H  H289  1  0.979800  0.878700  0.425700  1.0  0.1275
  H  H290  1  0.556200  0.007300  0.999000  1.0  0.0625
  H  H291  1  0.121300  0.979800  0.574300  1.0  0.1274
  H  H292  1  0.885100  0.988100  0.443900  1.0  0.0869
  H  H293  1  0.511900  0.614900  0.056100  1.0  0.0865
  H  H294  1  0.879200  0.224800  0.215700  1.0  0.0833
  H  H295  1  0.968100  0.567300  0.461700  1.0  0.0735
  H  H296  1  0.932700  0.531900  0.038300  1.0  0.0741
  H  H297  1  0.517800  0.439300  0.469600  1.0  0.1135
  H  H298  1  0.357700  0.772900  0.181700  1.0  0.094
  H  H299  1  0.506100  0.139100  0.599200  1.0  0.1209
  H  H300  1  0.224800  0.120800  0.784300  1.0  0.0831
  H  H301  1  0.775200  0.879200  0.784300  1.0  0.0836
  H  H302  1  0.202800  0.802300  0.233600  1.0  0.0563
  H  H303  1  0.577100  0.479100  0.505300  1.0  0.0931
  H  H304  1  0.359500  0.602200  0.872500  1.0  0.1157
  C  C305  1  0.426000  0.668600  0.877200  1.0  0.359
  C  C306  1  0.709500  0.069700  0.123400  1.0  0.6324
  C  C307  1  0.560600  0.640600  0.412300  1.0  -0.1724
  C  C308  1  0.064100  0.935800  0.559200  1.0  0.2339
  C  C309  1  0.688500  0.111800  0.144000  1.0  -0.0387
  C  C310  1  0.635400  0.447100  0.909100  1.0  -0.1405
  C  C311  1  0.471100  0.275500  0.695400  1.0  0.3559
  C  C312  1  0.546500  0.610100  0.434500  1.0  -0.1414
  C  C313  1  0.649800  0.070200  0.876300  1.0  -0.1475
  C  C314  1  0.102500  0.955400  0.917300  1.0  -0.0776
  C  C315  1  0.121500  0.097000  0.107000  1.0  -0.0054
  C  C316  1  0.594500  0.622300  0.110300  1.0  -0.0583
  C  C317  1  0.956000  0.337800  0.919900  1.0  0.6615
  C  C318  1  0.050600  0.301900  0.135700  1.0  0.6961
  C  C319  1  0.239600  0.260400  0.750000  1.0  0.1043
  C  C320  1  0.090100  0.366300  0.380200  1.0  -0.14
  C  C321  1  0.582500  0.378500  0.898000  1.0  -0.1515
  C  C322  1  0.938200  0.581300  0.091000  1.0  0.1267
  C  C323  1  0.605200  0.550000  0.077700  1.0  -0.0278
  C  C324  1  0.903000  0.121500  0.893000  1.0  -0.0055
  C  C325  1  0.427200  0.113700  0.431000  1.0  -0.1152
  C  C326  1  0.618600  0.576300  0.394800  1.0  -0.1295
  C  C327  1  0.090900  0.610800  0.581700  1.0  -0.0264
  C  C328  1  0.040900  0.480300  0.051100  1.0  0.0352
  C  C329  1  0.449400  0.801900  0.635700  1.0  0.6952
  C  C330  1  0.917500  0.878500  0.398000  1.0  -0.1511
  C  C331  1  0.147000  0.339500  0.872700  1.0  -0.0272
  C  C332  1  0.462400  0.872300  0.603900  1.0  -0.1258
  C  C333  1  0.945500  0.229600  0.229800  1.0  -0.168
  C  C334  1  0.231800  0.207400  0.760200  1.0  0.0178
  C  C335  1  0.735300  0.451300  0.215000  1.0  -0.0748
  C  C336  1  0.705400  0.125900  0.170200  1.0  -0.0946
  C  C337  1  0.662200  0.956000  0.080100  1.0  0.6605
  C  C338  1  0.103200  0.438300  0.097500  1.0  -0.0521
  C  C339  1  0.878500  0.082500  0.602000  1.0  -0.1511
  C  C340  1  0.660500  0.147000  0.127300  1.0  -0.0305
  C  C341  1  0.397300  0.269700  0.733300  1.0  -0.0767
  C  C342  1  0.548700  0.735300  0.785000  1.0  -0.0778
  C  C343  1  0.110800  0.590900  0.918300  1.0  -0.0275
  C  C344  1  0.377700  0.594500  0.889700  1.0  -0.0574
  C  C345  1  0.264700  0.518500  0.188200  1.0  0.7544
  C  C346  1  0.953500  0.110100  0.934500  1.0  -0.1419
  C  C347  1  0.561800  0.081300  0.591000  1.0  0.1273
  C  C348  1  0.316700  0.525300  0.900500  1.0  0.6745
  C  C349  1  0.919700  0.449500  0.971000  1.0  0.1356
  C  C350  1  0.381400  0.423700  0.394800  1.0  -0.1303
  C  C351  1  0.553600  0.343100  0.625400  1.0  0.6711
  C  C352  1  0.544000  0.837800  0.419900  1.0  0.6611
  C  C353  1  0.510700  0.550300  0.481400  1.0  -0.0746
  C  C354  1  0.429800  0.850200  0.623700  1.0  -0.1468
  C  C355  1  0.451900  0.135100  0.069900  1.0  -0.0523
  C  C356  1  0.160500  0.353000  0.627300  1.0  -0.0287
  C  C357  1  0.633700  0.090100  0.619800  1.0  -0.1406
  C  C358  1  0.111800  0.311500  0.856000  1.0  -0.0406
  C  C359  1  0.705400  0.225500  0.226200  1.0  0.0332
  C  C360  1  0.199000  0.346400  0.828200  1.0  -0.0761
  C  C361  1  0.622300  0.405500  0.889700  1.0  -0.0586
  C  C362  1  0.975200  0.323700  0.582200  1.0  0.5746
  C  C363  1  0.156900  0.946400  0.874600  1.0  0.6706
  C  C364  1  0.837800  0.456000  0.580100  1.0  0.6619
  C  C365  1  0.896800  0.561700  0.097500  1.0  -0.0532
  C  C366  1  0.054500  0.770400  0.229800  1.0  -0.168
  C  C367  1  0.926000  0.831400  0.377200  1.0  0.3576
  C  C368  1  0.525800  0.731200  0.756900  1.0  0.0054
  C  C369  1  0.048700  0.764700  0.285000  1.0  -0.0778
  C  C370  1  0.653600  0.199000  0.171800  1.0  -0.0758
  C  C371  1  0.606000  0.460400  0.932600  1.0  -0.1291
  C  C372  1  0.909900  0.633700  0.380200  1.0  -0.1398
  C  C373  1  0.564200  0.435900  0.940800  1.0  0.2352
  C  C374  1  0.346400  0.801000  0.171800  1.0  -0.0739
  C  C375  1  0.935800  0.935900  0.440800  1.0  0.234
  C  C376  1  0.102700  0.769700  0.233300  1.0  -0.073
  C  C377  1  0.831400  0.074000  0.622800  1.0  0.3576
  C  C378  1  0.811500  0.611800  0.644000  1.0  -0.0382
  C  C379  1  0.394800  0.450000  0.077700  1.0  -0.027
  C  C380  1  0.386300  0.072800  0.069000  1.0  -0.1166
  C  C381  1  0.971100  0.224500  0.195400  1.0  0.3588
  C  C382  1  0.069700  0.290500  0.876600  1.0  0.6354
  C  C383  1  0.455400  0.602500  0.582700  1.0  -0.0783
  C  C384  1  0.735300  0.481500  0.188200  1.0  0.7535
  C  C385  1  0.188500  0.388200  0.644000  1.0  -0.04
  C  C386  1  0.434400  0.436100  0.440000  1.0  0.2016
  C  C387  1  0.950000  0.894800  0.422300  1.0  -0.0277
  C  C388  1  0.460400  0.394000  0.067400  1.0  -0.1245
  C  C389  1  0.378500  0.417500  0.102000  1.0  -0.1498
  C  C390  1  0.110100  0.046500  0.065500  1.0  -0.145
  C  C391  1  0.405500  0.377700  0.110300  1.0  -0.0585
  C  C392  1  0.602500  0.544600  0.417300  1.0  -0.0762
  C  C393  1  0.019700  0.459100  0.448900  1.0  0.0339
  C  C394  1  0.388200  0.811500  0.356000  1.0  -0.0386
  C  C395  1  0.400300  0.260900  0.783300  1.0  -0.0634
  C  C396  1  0.927200  0.386300  0.931000  1.0  -0.1159
  C  C397  1  0.331400  0.426000  0.122800  1.0  0.3584
  C  C398  1  0.613700  0.927200  0.069000  1.0  -0.1165
  C  C399  1  0.225500  0.294600  0.773800  1.0  0.0296
  C  C400  1  0.768200  0.792600  0.760200  1.0  0.0189
  C  C401  1  0.949700  0.989300  0.018600  1.0  -0.0733
  C  C402  1  0.063900  0.065600  0.060000  1.0  0.2037
  C  C403  1  0.081300  0.438200  0.409000  1.0  0.1306
  C  C404  1  0.268200  0.707400  0.260200  1.0  0.0194
  C  C405  1  0.569700  0.209500  0.376600  1.0  0.6351
  C  C406  1  0.481500  0.264700  0.811800  1.0  0.7553
  C  C407  1  0.074000  0.168600  0.377200  1.0  0.3571
  C  C408  1  0.730300  0.397300  0.266700  1.0  -0.0717
  C  C409  1  0.449700  0.510700  0.518600  1.0  -0.0743
  C  C410  1  0.140600  0.060600  0.087700  1.0  -0.1749
  C  C411  1  0.668600  0.574000  0.122800  1.0  0.359
  C  C412  1  0.403000  0.378500  0.393000  1.0  -0.0062
  C  C413  1  0.980300  0.540900  0.448900  1.0  0.0325
  C  C414  1  0.260900  0.599700  0.216700  1.0  -0.0663
  C  C415  1  0.374100  0.794600  0.329800  1.0  -0.0933
  C  C416  1  0.072800  0.613700  0.931000  1.0  -0.1187
  C  C417  1  0.627700  0.037600  0.896100  1.0  -0.1254
  C  C418  1  0.359400  0.560600  0.587700  1.0  -0.1783
  C  C419  1  0.614300  0.132400  0.630800  1.0  0.0151
  C  C420  1  0.397500  0.455400  0.417300  1.0  -0.0762
  C  C421  1  0.037600  0.372300  0.103900  1.0  -0.1268
  C  C422  1  0.731800  0.292600  0.260200  1.0  0.0171
  C  C423  1  0.000000  0.500000  0.468700  1.0  0.0213
  C  C424  1  0.394000  0.539600  0.932600  1.0  -0.1261
  C  C425  1  0.361500  0.814600  0.143300  1.0  -0.1239
  C  C426  1  0.685600  0.168200  0.183500  1.0  0.2162
  C  C427  1  0.590900  0.889200  0.081700  1.0  -0.0263
  C  C428  1  0.229600  0.054500  0.770200  1.0  -0.1644
  C  C429  1  0.323700  0.024800  0.417800  1.0  0.5768
  C  C430  1  0.099700  0.760900  0.283300  1.0  -0.0638
  C  C431  1  0.621500  0.403000  0.607000  1.0  -0.005
  C  C432  1  0.423700  0.618600  0.605200  1.0  -0.1295
  C  C433  1  0.274500  0.794600  0.273800  1.0  0.0313
  C  C434  1  0.638500  0.185400  0.143300  1.0  -0.1236
  C  C435  1  0.193100  0.039600  0.091200  1.0  0.7326
  C  C436  1  0.886300  0.427200  0.569000  1.0  -0.1162
  C  C437  1  0.512700  0.547300  0.021200  1.0  -0.0051
  C  C438  1  0.294600  0.774500  0.226200  1.0  0.0329
  C  C439  1  0.209500  0.430300  0.623400  1.0  0.6338
  C  C440  1  0.823700  0.475200  0.917800  1.0  0.5767
  C  C441  1  0.438300  0.896800  0.902500  1.0  -0.054
  C  C442  1  0.597000  0.621500  0.393000  1.0  -0.006
  C  C443  1  0.907000  0.446900  0.539800  1.0  -0.0811
  C  C444  1  0.952700  0.987300  0.478800  1.0  -0.0057
  C  C445  1  0.012700  0.952700  0.521200  1.0  -0.0043
  C  C446  1  0.275500  0.528900  0.304600  1.0  0.3606
  C  C447  1  0.407000  0.053100  0.039800  1.0  -0.0805
  C  C448  1  0.409100  0.110800  0.081700  1.0  -0.0283
  C  C449  1  0.610800  0.909100  0.418300  1.0  -0.0269
  C  C450  1  0.739600  0.239600  0.250000  1.0  0.1037
  C  C451  1  0.106000  0.039600  0.432600  1.0  -0.1297
  C  C452  1  0.050000  0.105200  0.422300  1.0  -0.03
  C  C453  1  0.430300  0.790500  0.376600  1.0  0.6332
  C  C454  1  0.599700  0.739100  0.783300  1.0  -0.0628
  C  C455  1  0.024200  0.620900  0.543500  1.0  -0.1451
  C  C456  1  0.975800  0.379100  0.543500  1.0  -0.147
  C  C457  1  0.450000  0.605200  0.922300  1.0  -0.0279
  C  C458  1  0.127700  0.462400  0.396100  1.0  -0.1269
  C  C459  1  0.460400  0.306900  0.408800  1.0  0.733
  C  C460  1  0.861500  0.685400  0.643300  1.0  -0.1239
  C  C461  1  0.018100  0.543500  0.014400  1.0  0.0483
  C  C462  1  0.576300  0.381400  0.605200  1.0  -0.1301
  C  C463  1  0.725500  0.205400  0.273800  1.0  0.0306
  C  C464  1  0.951300  0.235300  0.285000  1.0  -0.0781
  C  C465  1  0.135100  0.548100  0.930100  1.0  -0.0498
  C  C466  1  0.724500  0.471100  0.304600  1.0  0.3588
  C  C467  1  0.331800  0.814400  0.316500  1.0  0.2154
  C  C468  1  0.052900  0.864600  0.590900  1.0  -0.1413
  C  C469  1  0.285900  0.913100  0.370600  1.0  0.6094
  C  C470  1  0.867600  0.614300  0.369200  1.0  0.0132
  C  C471  1  0.459100  0.980300  0.551100  1.0  0.035
  C  C472  1  0.048100  0.635100  0.569900  1.0  -0.0493
  C  C473  1  0.774500  0.705400  0.773800  1.0  0.0316
  C  C474  1  0.133700  0.409900  0.119800  1.0  -0.1403
  C  C475  1  0.900300  0.239100  0.283300  1.0  -0.063
  C  C476  1  0.794600  0.725500  0.726200  1.0  0.0308
  C  C477  1  0.413100  0.785900  0.129400  1.0  0.6078
  C  C478  1  0.864900  0.451900  0.930100  1.0  -0.0488
  C  C479  1  0.044000  0.662200  0.919900  1.0  0.6612
  C  C480  1  0.290500  0.930300  0.123400  1.0  0.6324
  C  C481  1  0.934600  0.679000  0.373700  1.0  0.6939
  C  C482  1  0.814600  0.638500  0.856700  1.0  -0.1248
  C  C483  1  0.938300  0.603200  0.402500  1.0  -0.0525
  C  C484  1  0.070200  0.350200  0.123700  1.0  -0.146
  C  C485  1  0.525300  0.683300  0.099500  1.0  0.677
  C  C486  1  0.082500  0.121500  0.398000  1.0  -0.1496
  C  C487  1  0.770400  0.945500  0.770200  1.0  -0.1638
  C  C488  1  0.366300  0.909900  0.619800  1.0  -0.1395
  C  C489  1  0.053100  0.593000  0.960200  1.0  -0.0799
  C  C490  1  0.000000  0.000000  0.500000  1.0  -0.0933
  C  C491  1  0.846400  0.699000  0.671800  1.0  -0.0747
  C  C492  1  0.897300  0.230300  0.233300  1.0  -0.0716
  C  C493  1  0.435800  0.564100  0.940800  1.0  0.2354
  C  C494  1  0.949500  0.419700  0.529000  1.0  0.1339
  C  C495  1  0.947100  0.135400  0.590900  1.0  -0.1412
  C  C496  1  0.185400  0.361500  0.856700  1.0  -0.1235
  C  C497  1  0.456000  0.162200  0.419900  1.0  0.6618
  C  C498  1  0.205400  0.274500  0.726200  1.0  0.0327
  C  C499  1  0.543500  0.981900  0.985600  1.0  0.0504
  C  C500  1  0.775500  0.971100  0.804600  1.0  0.3614
  C  C501  1  0.449500  0.080300  0.029000  1.0  0.1352
  C  C502  1  0.794600  0.625900  0.670200  1.0  -0.0935
  C  C503  1  0.590100  0.133700  0.880200  1.0  -0.1391
  C  C504  1  0.909100  0.389200  0.581700  1.0  -0.0283
  C  C505  1  0.086900  0.285900  0.629400  1.0  0.6071
  C  C506  1  0.548100  0.864900  0.069900  1.0  -0.0502
  C  C507  1  0.959100  0.519700  0.051100  1.0  0.033
  C  C508  1  0.372300  0.962400  0.896100  1.0  -0.1265
  C  C509  1  0.550600  0.198100  0.635700  1.0  0.6935
  C  C510  1  0.306900  0.539600  0.591200  1.0  0.7341
  C  C511  1  0.874100  0.705400  0.829800  1.0  -0.0932
  C  C512  1  0.452700  0.512700  0.978800  1.0  -0.0061
  C  C513  1  0.850200  0.570200  0.376300  1.0  -0.1471
  C  C514  1  0.760400  0.739600  0.750000  1.0  0.1036
  C  C515  1  0.570200  0.149800  0.623700  1.0  -0.1456
  C  C516  1  0.114300  0.367600  0.130800  1.0  0.0136
  C  C517  1  0.550000  0.394800  0.922300  1.0  -0.028
  C  C518  1  0.378500  0.597000  0.607000  1.0  -0.0051
  C  C519  1  0.918700  0.561800  0.409000  1.0  0.131
  C  C520  1  0.539600  0.606000  0.067400  1.0  -0.1266
  C  C521  1  0.500000  0.000000  0.531300  1.0  0.0214
  C  C522  1  0.179000  0.434600  0.126300  1.0  0.6945
  C  C523  1  0.806900  0.960400  0.091200  1.0  0.7342
  C  C524  1  0.565400  0.179000  0.873700  1.0  0.6949
  C  C525  1  0.453500  0.389900  0.434500  1.0  -0.1433
  C  C526  1  0.235300  0.018500  0.688200  1.0  0.7535
  C  C527  1  0.132400  0.385700  0.369200  1.0  0.0132
  C  C528  1  0.314400  0.831800  0.183500  1.0  0.2152
  C  C529  1  0.574000  0.331400  0.877200  1.0  0.3575
  C  C530  1  0.046500  0.889900  0.934500  1.0  -0.141
  C  C531  1  0.764700  0.981500  0.688200  1.0  0.7539
  C  C532  1  0.621500  0.582500  0.102000  1.0  -0.1505
  C  C533  1  0.839500  0.647000  0.627300  1.0  -0.031
  C  C534  1  0.550300  0.489300  0.518600  1.0  -0.0748
  C  C535  1  0.956500  0.481900  0.485600  1.0  0.0511
  C  C536  1  0.792600  0.231800  0.239800  1.0  0.0193
  C  C537  1  0.518500  0.735300  0.811800  1.0  0.7557
  C  C538  1  0.640600  0.439400  0.587700  1.0  -0.1749
  C  C539  1  0.960400  0.106000  0.567400  1.0  -0.1223
  C  C540  1  0.000000  0.500000  0.031300  1.0  0.0214
  C  C541  1  0.168200  0.314400  0.816500  1.0  0.2153
  C  C542  1  0.769700  0.897300  0.766700  1.0  -0.0686
  C  C543  1  0.367600  0.885700  0.869200  1.0  0.0116
  C  C544  1  0.065600  0.936100  0.940000  1.0  0.2009
  C  C545  1  0.270400  0.554500  0.270200  1.0  -0.1714
  C  C546  1  0.043500  0.518100  0.485600  1.0  0.0499
  C  C547  1  0.039600  0.806900  0.908800  1.0  0.7345
  C  C548  1  0.153600  0.301000  0.671800  1.0  -0.0748
  C  C549  1  0.138500  0.314600  0.643300  1.0  -0.1245
  C  C550  1  0.120900  0.524200  0.956500  1.0  -0.1445
  C  C551  1  0.866300  0.590100  0.119800  1.0  -0.14
  C  C552  1  0.762000  0.868900  0.740400  1.0  0.209
  C  C553  1  0.539600  0.693100  0.408800  1.0  0.734
  C  C554  1  0.929800  0.649800  0.123700  1.0  -0.1467
  C  C555  1  0.897500  0.044600  0.917300  1.0  -0.0764
  C  C556  1  0.396800  0.938300  0.597500  1.0  -0.0522
  C  C557  1  0.552900  0.635400  0.090900  1.0  -0.1413
  C  C558  1  0.693100  0.460400  0.591200  1.0  0.7328
  C  C559  1  0.131100  0.762000  0.259600  1.0  0.2054
  C  C560  1  0.185600  0.331800  0.683500  1.0  0.2164
  C  C561  1  0.205400  0.374100  0.670200  1.0  -0.0943
  C  C562  1  0.389900  0.546500  0.565500  1.0  -0.1432
  C  C563  1  0.935900  0.064200  0.559200  1.0  0.2346
  C  C564  1  0.603200  0.061700  0.597500  1.0  -0.0534
  C  C565  1  0.010700  0.949700  0.981400  1.0  -0.0736
  C  C566  1  0.739100  0.400300  0.216700  1.0  -0.0639
  C  C567  1  0.544600  0.397500  0.582700  1.0  -0.0813
  C  C568  1  0.868900  0.238000  0.259600  1.0  0.2046
  C  C569  1  0.981500  0.235300  0.311800  1.0  0.7549
  C  C570  1  0.039600  0.894000  0.567400  1.0  -0.1233
  C  C571  1  0.050500  0.580300  0.529000  1.0  0.1368
  C  C572  1  0.877700  0.905500  0.389700  1.0  -0.0577
  C  C573  1  0.314600  0.861500  0.356700  1.0  -0.1231
  C  C574  1  0.214100  0.413100  0.870600  1.0  0.6065
  C  C575  1  0.446400  0.656900  0.625400  1.0  0.671
  C  C576  1  0.480300  0.959100  0.948900  1.0  0.0337
  C  C577  1  0.913100  0.714100  0.629400  1.0  0.6073
  C  C578  1  0.951900  0.364900  0.569900  1.0  -0.0431
  C  C579  1  0.949400  0.698100  0.135700  1.0  0.6948
  C  C580  1  0.563900  0.434400  0.560000  1.0  0.2041
  C  C581  1  0.894800  0.050000  0.577700  1.0  -0.0284
  C  C582  1  0.528900  0.724500  0.695400  1.0  0.3615
  C  C583  1  0.224500  0.028900  0.804600  1.0  0.3614
  C  C584  1  0.474200  0.268800  0.756900  1.0  0.0072
  C  C585  1  0.044600  0.102500  0.082700  1.0  -0.078
  C  C586  1  0.553100  0.907000  0.460200  1.0  -0.0791
  C  C587  1  0.554500  0.729600  0.729800  1.0  -0.1746
  C  C588  1  0.872300  0.537600  0.396100  1.0  -0.1224
  C  C589  1  0.487300  0.452700  0.021200  1.0  -0.0047
  C  C590  1  0.409900  0.866300  0.880200  1.0  -0.1404
  C  C591  1  0.231200  0.025800  0.743100  1.0  0.0002
  C  C592  1  0.097000  0.878500  0.893000  1.0  -0.0063
  C  C593  1  0.379100  0.024200  0.456500  1.0  -0.1463
  C  C594  1  0.418700  0.938200  0.909000  1.0  0.1304
  C  C595  1  0.321000  0.934600  0.626300  1.0  0.6921
  C  C596  1  0.647000  0.160500  0.372700  1.0  -0.027
  C  C597  1  0.974700  0.183300  0.599500  1.0  0.6808
  C  C598  1  0.738000  0.368900  0.240400  1.0  0.2089
  C  C599  1  0.176300  0.524800  0.917800  1.0  0.5732
  C  C600  1  0.475800  0.120900  0.043500  1.0  -0.1464
  C  C601  1  0.611800  0.188500  0.356000  1.0  -0.0406
  C  C602  1  0.879100  0.475800  0.956500  1.0  -0.145
  C  C603  1  0.080300  0.550500  0.971000  1.0  0.1345
  C  C604  1  0.438200  0.918700  0.591000  1.0  0.1298
  C  C605  1  0.500000  0.500000  0.500000  1.0  -0.0522
  C  C606  1  0.061700  0.396800  0.402500  1.0  -0.0531
  C  C607  1  0.445500  0.270400  0.729800  1.0  -0.1748
  C  C608  1  0.024800  0.676300  0.582200  1.0  0.5747
  C  C609  1  0.419700  0.050500  0.471000  1.0  0.1341
  C  C610  1  0.436100  0.565600  0.560000  1.0  0.2031
  C  C611  1  0.888200  0.688500  0.856000  1.0  -0.0381
  C  C612  1  0.602700  0.730300  0.733300  1.0  -0.0754
  C  C613  1  0.050300  0.010700  0.018600  1.0  -0.0749
  C  C614  1  0.301900  0.949400  0.864300  1.0  0.6936
  C  C615  1  0.656900  0.553600  0.374600  1.0  0.6705
  C  C616  1  0.547300  0.487300  0.978800  1.0  -0.0044
  C  C617  1  0.974200  0.231200  0.256900  1.0  0.0004
  C  C618  1  0.889900  0.953500  0.065500  1.0  -0.1437
  C  C619  1  0.676300  0.975200  0.417800  1.0  0.5742
  C  C620  1  0.076300  0.118600  0.105200  1.0  -0.1297
  C  C621  1  0.685400  0.138500  0.356700  1.0  -0.1241
  C  C622  1  0.785900  0.586900  0.870600  1.0  0.6089
  C  C623  1  0.113700  0.572800  0.569000  1.0  -0.1169
  C  C624  1  0.593000  0.946900  0.039800  1.0  -0.0801
  C  C625  1  0.149800  0.429800  0.376300  1.0  -0.1481
  C  C626  1  0.260400  0.760400  0.250000  1.0  0.104
  C  C627  1  0.729600  0.445500  0.270200  1.0  -0.17
  C  C628  1  0.889200  0.409100  0.918300  1.0  -0.0263
  C  C629  1  0.439400  0.359400  0.412300  1.0  -0.1735
  C  C630  1  0.831800  0.685600  0.816500  1.0  0.2159
  C  C631  1  0.292600  0.268200  0.739800  1.0  0.0188
  C  C632  1  0.946400  0.843100  0.125400  1.0  0.6706
  C  C633  1  0.540900  0.019700  0.551100  1.0  0.0345
  C  C634  1  0.474700  0.316700  0.099500  1.0  0.6803
  C  C635  1  0.238000  0.131100  0.740400  1.0  0.2079
  C  C636  1  0.047300  0.012700  0.478800  1.0  -0.005
  C  C637  1  0.025300  0.816700  0.599500  1.0  0.6804
  C  C638  1  0.353000  0.839500  0.372700  1.0  -0.0274
  C  C639  1  0.524800  0.823700  0.082200  1.0  0.5754
  C  C640  1  0.235300  0.048700  0.715000  1.0  -0.0752
  C  C641  1  0.631100  0.738000  0.759600  1.0  0.2051
  C  C642  1  0.456500  0.018100  0.985600  1.0  0.0499
  C  C643  1  0.301000  0.846400  0.328200  1.0  -0.0768
  C  C644  1  0.435900  0.435800  0.059200  1.0  0.2346
  C  C645  1  0.843100  0.053600  0.874600  1.0  0.6719
  C  C646  1  0.269700  0.602700  0.266700  1.0  -0.0743
  C  C647  1  0.731200  0.474200  0.243100  1.0  0.0062
  C  C648  1  0.821000  0.565400  0.126300  1.0  0.693
  C  C649  1  0.699000  0.153600  0.328200  1.0  -0.0758
  C  C650  1  0.025800  0.768800  0.256900  1.0  -0.0012
  C  C651  1  0.122300  0.094500  0.389700  1.0  -0.0596
  C  C652  1  0.364900  0.048100  0.430100  1.0  -0.0426
  C  C653  1  0.635100  0.951900  0.430100  1.0  -0.0494
  C  C654  1  0.451300  0.264700  0.785000  1.0  -0.0781
  C  C655  1  0.385700  0.867600  0.630800  1.0  0.0129
  C  C656  1  0.162200  0.544000  0.580100  1.0  0.6601
  C  C657  1  0.447100  0.364600  0.090900  1.0  -0.1411
  C  C658  1  0.061800  0.418700  0.091000  1.0  0.1305
  C  C659  1  0.707400  0.731800  0.739800  1.0  0.0198
  C  C660  1  0.094500  0.877700  0.610300  1.0  -0.0573
  C  C661  1  0.564100  0.564200  0.059200  1.0  0.234
  C  C662  1  0.550500  0.919700  0.029000  1.0  0.1339
  C  C663  1  0.368900  0.262000  0.759600  1.0  0.2049
  C  C664  1  0.625900  0.205400  0.329800  1.0  -0.0924
  C  C665  1  0.350200  0.929800  0.876300  1.0  -0.1466
  C  C666  1  0.989300  0.050300  0.981400  1.0  -0.0742
  C  C667  1  0.894000  0.960400  0.432600  1.0  -0.1274
  C  C668  1  0.489300  0.449700  0.481400  1.0  -0.0735
  C  C669  1  0.518100  0.956500  0.514400  1.0  0.051
  C  C670  1  0.905500  0.122300  0.610300  1.0  -0.0592
  C  C671  1  0.683300  0.474700  0.900500  1.0  0.6803
  C  C672  1  0.264700  0.548700  0.215000  1.0  -0.075
  C  C673  1  0.524200  0.879100  0.043500  1.0  -0.145
  C  C674  1  0.955400  0.897500  0.082700  1.0  -0.0785
  C  C675  1  0.946900  0.407000  0.960200  1.0  -0.0783
  C  C676  1  0.500000  0.000000  0.968700  1.0  0.0213
  C  C677  1  0.816700  0.974700  0.400500  1.0  0.6803
  C  C678  1  0.125900  0.294600  0.829800  1.0  -0.0931
  C  C679  1  0.885700  0.632400  0.130800  1.0  0.0149
  C  C680  1  0.121500  0.917500  0.602000  1.0  -0.1503
  C  C681  1  0.434600  0.821000  0.873700  1.0  0.6961
  C  C682  1  0.878500  0.903000  0.107000  1.0  -0.0048
  C  C683  1  0.018500  0.764700  0.311800  1.0  0.7546
  C  C684  1  0.311500  0.888200  0.144000  1.0  -0.0395
  C  C685  1  0.060600  0.859400  0.912300  1.0  -0.1737
  C  C686  1  0.183300  0.025300  0.400500  1.0  0.68
  C  C687  1  0.760900  0.900300  0.716700  1.0  -0.0635
  C  C688  1  0.668200  0.185600  0.316500  1.0  0.2183
  C  C689  1  0.207400  0.768200  0.239800  1.0  0.0195
  C  C690  1  0.481900  0.043500  0.514400  1.0  0.0491
  C  C691  1  0.859400  0.939400  0.087700  1.0  -0.1783
  C  C692  1  0.500000  0.500000  0.000000  1.0  -0.0933
  C  C693  1  0.364600  0.552900  0.909100  1.0  -0.1421
  C  C694  1  0.168600  0.926000  0.622800  1.0  0.3591
  C  C695  1  0.936100  0.934400  0.060000  1.0  0.2041
  C  C696  1  0.343100  0.446400  0.374600  1.0  0.6722
  C  C697  1  0.610100  0.453500  0.565500  1.0  -0.146
  C  C698  1  0.093000  0.553100  0.539800  1.0  -0.0784
  C  C699  1  0.000000  0.000000  0.000000  1.0  -0.0522
  C  C700  1  0.790500  0.569700  0.623400  1.0  0.6319
  C  C701  1  0.268800  0.525800  0.243100  1.0  0.0068
  C  C702  1  0.053600  0.156900  0.125400  1.0  0.6716
  C  C703  1  0.714100  0.086900  0.370600  1.0  0.6077
  C  C704  1  0.679000  0.065400  0.626300  1.0  0.6947
  C  C705  1  0.923700  0.881400  0.105200  1.0  -0.13
  C  C706  1  0.987300  0.047300  0.521200  1.0  -0.0057
  C  C707  1  0.960400  0.193100  0.908800  1.0  0.7325
  C  C708  1  0.064200  0.064100  0.440800  1.0  0.2365
  C  C709  1  0.572800  0.886300  0.431000  1.0  -0.1191
  C  C710  1  0.198100  0.449400  0.364300  1.0  0.693
  C  C711  1  0.337800  0.044000  0.080100  1.0  0.6614
  C  C712  1  0.262000  0.631100  0.240400  1.0  0.2078
  C  C713  1  0.417500  0.621500  0.898000  1.0  -0.1496
  C  C714  1  0.581300  0.061800  0.909000  1.0  0.1315
  C  C715  1  0.698100  0.050600  0.864300  1.0  0.6945
  C  C716  1  0.768800  0.974200  0.743100  1.0  1e-04
  C  C717  1  0.764700  0.951300  0.715000  1.0  -0.0747
  C  C718  1  0.230300  0.102700  0.766700  1.0  -0.0737
  C  C719  1  0.389200  0.090900  0.418300  1.0  -0.0269
  C  C720  1  0.814400  0.668200  0.683500  1.0  0.2153
  C  C721  1  0.105200  0.950000  0.577700  1.0  -0.0287
  C  C722  1  0.981900  0.456500  0.014400  1.0  0.0508
  C  C723  1  0.118600  0.923700  0.894800  1.0  -0.1296
  C  C724  1  0.339500  0.853000  0.127300  1.0  -0.0311
  C  C725  1  0.801900  0.550600  0.364300  1.0  0.6938
  C  C726  1  0.934400  0.063900  0.940000  1.0  0.2013
  C  C727  1  0.632400  0.114300  0.869200  1.0  0.0135
  C  C728  1  0.561700  0.103200  0.902500  1.0  -0.0531
  C  C729  1  0.565600  0.563900  0.440000  1.0  0.2011
  C  C730  1  0.519700  0.040900  0.948900  1.0  0.0319
  C  C731  1  0.028900  0.775500  0.195400  1.0  0.3607
  C  C732  1  0.620900  0.975800  0.456500  1.0  -0.1442
  C  C733  1  0.864600  0.947100  0.409100  1.0  -0.1419
  C  C734  1  0.294600  0.874100  0.170200  1.0  -0.0941
  C  C735  1  0.475200  0.176300  0.082200  1.0  0.5752
  C  C736  1  0.853000  0.660500  0.872700  1.0  -0.0269
  C  C737  1  0.537600  0.127700  0.603900  1.0  -0.1267
  C  C738  1  0.939400  0.140600  0.912300  1.0  -0.1725
  C  C739  1  0.446900  0.093000  0.460200  1.0  -0.0781
  C  C740  1  0.065400  0.321000  0.373700  1.0  0.6961
  C  C741  1  0.135400  0.052900  0.409100  1.0  -0.1405
  C  C742  1  0.580300  0.949500  0.471000  1.0  0.1372
  C  C743  1  0.239100  0.099700  0.716700  1.0  -0.0622
  C  C744  1  0.962400  0.627700  0.103900  1.0  -0.1253
  C  C745  1  0.586900  0.214100  0.129400  1.0  0.6064
  C  C746  1  0.881400  0.076300  0.894800  1.0  -0.1302
  C  C747  1  0.930300  0.709500  0.876600  1.0  0.633
  C  C748  1  0.801000  0.653600  0.828200  1.0  -0.0771
  O  O749  1  0.036200  0.277100  0.857800  1.0  -0.6534
  O  O750  1  0.991400  0.810000  0.580700  1.0  -0.6245
  O  O751  1  0.726900  0.446300  0.322200  1.0  -0.5453
  O  O752  1  0.931600  0.706400  0.902900  1.0  -0.555
  O  O753  1  0.538000  0.743200  0.837000  1.0  -0.6369
  O  O754  1  0.795800  0.505000  0.929700  1.0  -0.6684
  O  O755  1  0.285000  0.553200  0.614600  1.0  -0.6166
  O  O756  1  0.713600  0.008700  0.872630  1.0  -0.6187
  O  O757  1  0.690000  0.508600  0.919300  1.0  -0.6251
  O  O758  1  0.516700  0.325000  0.618300  1.0  -0.5574
  O  O759  1  0.315800  0.036000  0.389600  1.0  -0.6449
  O  O760  1  0.320200  0.016400  0.062600  1.0  -0.5791
  O  O761  1  0.920800  0.718700  0.154200  1.0  -0.6195
  O  O762  1  0.190600  0.971500  0.611580  1.0  -0.7051
  O  O763  1  0.594500  0.205200  0.856100  1.0  -0.6372
  O  O764  1  0.218000  0.983200  0.799200  1.0  -0.6257
  O  O765  1  0.310000  0.491400  0.919300  1.0  -0.6242
  O  O766  1  0.440000  0.767500  0.144800  1.0  -0.5705
  O  O767  1  0.553200  0.715000  0.385400  1.0  -0.6159
  O  O768  1  0.706400  0.068400  0.097100  1.0  -0.5567
  O  O769  1  0.464000  0.184200  0.110400  1.0  -0.6442
  O  O770  1  0.690600  0.528500  0.111580  1.0  -0.7022
  O  O771  1  0.964000  0.315800  0.610400  1.0  -0.6442
  O  O772  1  0.032500  0.052500  0.038500  1.0  -0.4063
  O  O773  1  0.975000  0.439100  0.503000  1.0  -0.3499
  O  O774  1  0.525900  0.057700  0.570660  1.0  -0.3118
  O  O775  1  0.232500  0.440000  0.855200  1.0  -0.5733
  O  O776  1  0.670500  0.940700  0.105600  1.0  -0.6127
  O  O777  1  0.290100  0.820000  0.212100  1.0  -0.3197
  O  O778  1  0.471500  0.690600  0.888420  1.0  -0.7016
  O  O779  1  0.059300  0.670500  0.894400  1.0  -0.6168
  O  O780  1  0.536200  0.222900  0.357800  1.0  -0.6528
  O  O781  1  0.483200  0.718000  0.700800  1.0  -0.6316
  O  O782  1  0.972300  0.695900  0.384370  1.0  -0.5977
  O  O783  1  0.715000  0.446800  0.614600  1.0  -0.6179
  O  O784  1  0.052500  0.967500  0.961500  1.0  -0.4074
  O  O785  1  0.773100  0.946300  0.822200  1.0  -0.5447
  O  O786  1  0.060900  0.525000  0.997000  1.0  -0.3528
  O  O787  1  0.329500  0.059300  0.105600  1.0  -0.6132
  O  O788  1  0.095100  0.181900  0.359200  1.0  -0.6032
  O  O789  1  0.273100  0.553700  0.322200  1.0  -0.5443
  O  O790  1  0.983300  0.825000  0.118300  1.0  -0.5576
  O  O791  1  0.420800  0.781300  0.654200  1.0  -0.6199
  O  O792  1  0.704500  0.490600  0.573900  1.0  -0.5829
  O  O793  1  0.675000  0.516700  0.381700  1.0  -0.5572
  O  O794  1  0.297100  0.538200  0.877300  1.0  -0.5938
  O  O795  1  0.491300  0.786400  0.627370  1.0  -0.6194
  O  O796  1  0.033600  0.053100  0.461600  1.0  -0.31
  O  O797  1  0.527700  0.195900  0.884370  1.0  -0.5963
  O  O798  1  0.505000  0.204200  0.070300  1.0  -0.6713
  O  O799  1  0.794800  0.594500  0.143900  1.0  -0.6387
  O  O800  1  0.974100  0.557700  0.070660  1.0  -0.3106
  O  O801  1  0.005000  0.295800  0.570300  1.0  -0.6706
  O  O802  1  0.204500  0.009400  0.073900  1.0  -0.5822
  O  O803  1  0.475000  0.060900  0.003000  1.0  -0.3515
  O  O804  1  0.036000  0.684200  0.610400  1.0  -0.6442
  O  O805  1  0.318100  0.404900  0.140800  1.0  -0.6019
  O  O806  1  0.267500  0.940000  0.355200  1.0  -0.5747
  O  O807  1  0.532500  0.447500  0.538500  1.0  -0.4063
  O  O808  1  0.983200  0.782000  0.200800  1.0  -0.6268
  O  O809  1  0.053700  0.773100  0.177800  1.0  -0.5489
  O  O810  1  0.025900  0.442300  0.070660  1.0  -0.3102
  O  O811  1  0.226900  0.053700  0.822200  1.0  -0.5449
  O  O812  1  0.595100  0.318100  0.859200  1.0  -0.6034
  O  O813  1  0.483600  0.179800  0.437400  1.0  -0.5781
  O  O814  1  0.016800  0.218000  0.200800  1.0  -0.6258
  O  O815  1  0.559300  0.829500  0.394400  1.0  -0.617
  O  O816  1  0.184200  0.536000  0.889600  1.0  -0.6442
  O  O817  1  0.008700  0.286400  0.127370  1.0  -0.6198
  O  O818  1  0.284800  0.904500  0.398500  1.0  -0.6089
  O  O819  1  0.205200  0.405500  0.143900  1.0  -0.6376
  O  O820  1  0.730500  0.526900  0.192400  1.0  -0.6392
  O  O821  1  0.790100  0.680000  0.712100  1.0  -0.3207
  O  O822  1  0.797100  0.961800  0.377300  1.0  -0.5936
  O  O823  1  0.757600  0.822900  0.737600  1.0  -0.3601
  O  O824  1  0.781300  0.579200  0.345800  1.0  -0.6186
  O  O825  1  0.195900  0.472300  0.115630  1.0  -0.599
  O  O826  1  0.508700  0.213600  0.627370  1.0  -0.619
  O  O827  1  0.533600  0.446900  0.961600  1.0  -0.3101
  O  O828  1  0.756800  0.962000  0.663000  1.0  -0.6295
  O  O829  1  0.905500  0.705200  0.356100  1.0  -0.6376
  O  O830  1  0.702900  0.461800  0.877300  1.0  -0.5926
  O  O831  1  0.553700  0.726900  0.677800  1.0  -0.549
  O  O832  1  0.483300  0.675000  0.618300  1.0  -0.5576
  O  O833  1  0.583400  0.332400  0.647000  1.0  -0.6535
  O  O834  1  0.204200  0.495000  0.929700  1.0  -0.6694
  O  O835  1  0.447500  0.467500  0.461500  1.0  -0.4077
  O  O836  1  0.695900  0.027700  0.615630  1.0  -0.5994
  O  O837  1  0.557700  0.025900  0.929340  1.0  -0.3106
  O  O838  1  0.053100  0.966400  0.538400  1.0  -0.3147
  O  O839  1  0.818100  0.095100  0.640800  1.0  -0.6019
  O  O840  1  0.526900  0.269500  0.807600  1.0  -0.6358
  O  O841  1  0.947500  0.032500  0.961500  1.0  -0.407
  O  O842  1  0.491400  0.690000  0.080700  1.0  -0.624
  O  O843  1  0.416600  0.667600  0.647000  1.0  -0.6568
  O  O844  1  0.784800  0.595500  0.898500  1.0  -0.6094
  O  O845  1  0.916600  0.832400  0.147000  1.0  -0.644
  O  O846  1  0.961800  0.202900  0.622700  1.0  -0.5904
  O  O847  1  0.009400  0.795500  0.926100  1.0  -0.5817
  O  O848  1  0.904900  0.818100  0.359200  1.0  -0.6049
  O  O849  1  0.963800  0.722900  0.857800  1.0  -0.6534
  O  O850  1  0.820200  0.483600  0.562600  1.0  -0.581
  O  O851  1  0.439100  0.025000  0.497000  1.0  -0.3544
  O  O852  1  0.822900  0.242400  0.262400  1.0  -0.3621
  O  O853  1  0.722900  0.036200  0.142200  1.0  -0.6504
  O  O854  1  0.472300  0.804100  0.884370  1.0  -0.5984
  O  O855  1  0.230500  0.973100  0.692400  1.0  -0.6375
  O  O856  1  0.180000  0.290100  0.787900  1.0  -0.3215
  O  O857  1  0.516800  0.282000  0.700800  1.0  -0.6302
  O  O858  1  0.038200  0.797100  0.622700  1.0  -0.5913
  O  O859  1  0.462000  0.256800  0.837000  1.0  -0.6324
  O  O860  1  0.026900  0.230500  0.307600  1.0  -0.6356
  O  O861  1  0.209900  0.320000  0.712100  1.0  -0.3204
  O  O862  1  0.804100  0.527700  0.115630  1.0  -0.5983
  O  O863  1  0.782000  0.016800  0.799200  1.0  -0.6262
  O  O864  1  0.946300  0.226900  0.177800  1.0  -0.5487
  O  O865  1  0.971500  0.809400  0.388420  1.0  -0.7013
  O  O866  1  0.332400  0.416600  0.353000  1.0  -0.6567
  O  O867  1  0.474100  0.942300  0.570660  1.0  -0.3107
  O  O868  1  0.785000  0.946800  0.114600  1.0  -0.6169
  O  O869  1  0.256800  0.538000  0.163000  1.0  -0.6301
  O  O870  1  0.282000  0.483200  0.299200  1.0  -0.631
  O  O871  1  0.463800  0.777100  0.357800  1.0  -0.6532
  O  O872  1  0.170500  0.559300  0.605600  1.0  -0.6132
  O  O873  1  0.904500  0.715200  0.601500  1.0  -0.6087
  O  O874  1  0.495000  0.795800  0.070300  1.0  -0.6683
  O  O875  1  0.940700  0.329500  0.894400  1.0  -0.6176
  O  O876  1  0.016700  0.175000  0.118300  1.0  -0.5571
  O  O877  1  0.293600  0.931600  0.097100  1.0  -0.5571
  O  O878  1  0.202900  0.038200  0.377300  1.0  -0.5928
  O  O879  1  0.967500  0.947500  0.038500  1.0  -0.4062
  O  O880  1  0.473100  0.730500  0.807600  1.0  -0.6368
  O  O881  1  0.793600  0.568400  0.597100  1.0  -0.5571
  O  O882  1  0.440700  0.170500  0.394400  1.0  -0.6175
  O  O883  1  0.446800  0.285000  0.385400  1.0  -0.6166
  O  O884  1  0.215000  0.053200  0.114600  1.0  -0.618
  O  O885  1  0.742400  0.322900  0.237600  1.0  -0.3597
  O  O886  1  0.769500  0.026900  0.692400  1.0  -0.6389
  O  O887  1  0.431600  0.793600  0.402900  1.0  -0.5546
  O  O888  1  0.767500  0.560000  0.855200  1.0  -0.5746
  O  O889  1  0.446900  0.466400  0.038400  1.0  -0.3159
  O  O890  1  0.038000  0.756800  0.337000  1.0  -0.6342
  O  O891  1  0.528500  0.309400  0.888420  1.0  -0.7017
  O  O892  1  0.167600  0.916600  0.853000  1.0  -0.6437
  O  O893  1  0.942300  0.525900  0.429340  1.0  -0.3082
  O  O894  1  0.777100  0.536200  0.642200  1.0  -0.6516
  O  O895  1  0.190000  0.991400  0.419300  1.0  -0.6243
  O  O896  1  0.983600  0.320200  0.937400  1.0  -0.5784
  O  O897  1  0.269500  0.473100  0.192400  1.0  -0.6379
  O  O898  1  0.705200  0.094500  0.643900  1.0  -0.6379
  O  O899  1  0.704200  0.005000  0.429700  1.0  -0.67
  O  O900  1  0.025000  0.560900  0.503000  1.0  -0.3507
  O  O901  1  0.322900  0.257600  0.762400  1.0  -0.3616
  O  O902  1  0.810000  0.008600  0.419300  1.0  -0.6249
  O  O903  1  0.560000  0.232500  0.144800  1.0  -0.5709
  O  O904  1  0.946900  0.033600  0.538400  1.0  -0.313
  O  O905  1  0.277100  0.963800  0.142200  1.0  -0.6515
  O  O906  1  0.677100  0.742400  0.762400  1.0  -0.3615
  O  O907  1  0.681900  0.595100  0.140800  1.0  -0.603
  O  O908  1  0.553100  0.533600  0.038400  1.0  -0.3131
  O  O909  1  0.442300  0.974100  0.929340  1.0  -0.3077
  O  O910  1  0.991300  0.713600  0.127370  1.0  -0.6185
  O  O911  1  0.177100  0.757600  0.262400  1.0  -0.3616
  O  O912  1  0.966400  0.946900  0.461600  1.0  -0.3118
  O  O913  1  0.405500  0.794800  0.856100  1.0  -0.6373
  O  O914  1  0.679800  0.983600  0.062600  1.0  -0.5807
  O  O915  1  0.490600  0.295500  0.426100  1.0  -0.5813
  O  O916  1  0.946800  0.215000  0.885400  1.0  -0.6162
  O  O917  1  0.815800  0.464000  0.889600  1.0  -0.646
  O  O918  1  0.538200  0.702900  0.122700  1.0  -0.5908
  O  O919  1  0.595500  0.215200  0.101500  1.0  -0.6075
  O  O920  1  0.215200  0.404500  0.898500  1.0  -0.607
  O  O921  1  0.286400  0.991300  0.872630  1.0  -0.6175
  O  O922  1  0.094500  0.294800  0.356100  1.0  -0.6367
  O  O923  1  0.509400  0.704500  0.426100  1.0  -0.5815
  O  O924  1  0.083400  0.167600  0.147000  1.0  -0.6442
  O  O925  1  0.175000  0.983300  0.881700  1.0  -0.5582
  O  O926  1  0.257600  0.677100  0.237600  1.0  -0.3619
  O  O927  1  0.213600  0.491300  0.372630  1.0  -0.6179
  O  O928  1  0.295500  0.509400  0.573900  1.0  -0.582
  O  O929  1  0.995000  0.704200  0.570300  1.0  -0.6688
  O  O930  1  0.973100  0.769500  0.307600  1.0  -0.6368
  O  O931  1  0.684200  0.964000  0.389600  1.0  -0.6454
  O  O932  1  0.516400  0.820200  0.437400  1.0  -0.5776
  O  O933  1  0.743200  0.462000  0.163000  1.0  -0.6328
  O  O934  1  0.028500  0.190600  0.388420  1.0  -0.702
  O  O935  1  0.079200  0.281300  0.154200  1.0  -0.6195
  O  O936  1  0.243200  0.038000  0.663000  1.0  -0.6308
  O  O937  1  0.560900  0.975000  0.497000  1.0  -0.3521
  O  O938  1  0.068400  0.293600  0.902900  1.0  -0.5536
  O  O939  1  0.095500  0.284800  0.601500  1.0  -0.6066
  O  O940  1  0.667600  0.583400  0.353000  1.0  -0.6574
  O  O941  1  0.718000  0.516800  0.299200  1.0  -0.6323
  O  O942  1  0.795500  0.990600  0.073900  1.0  -0.5825
  O  O943  1  0.579200  0.218700  0.654200  1.0  -0.6198
  O  O944  1  0.404500  0.784800  0.101500  1.0  -0.6086
  O  O945  1  0.179800  0.516400  0.562600  1.0  -0.58
  O  O946  1  0.057700  0.474100  0.429340  1.0  -0.3093
  O  O947  1  0.467500  0.552500  0.538500  1.0  -0.4065
  O  O948  1  0.825000  0.016700  0.881700  1.0  -0.5563
  O  O949  1  0.508600  0.310000  0.080700  1.0  -0.6238
  O  O950  1  0.939100  0.475000  0.997000  1.0  -0.3532
  O  O951  1  0.060000  0.267500  0.644800  1.0  -0.5705
  O  O952  1  0.320000  0.790100  0.287900  1.0  -0.3229
  O  O953  1  0.940000  0.732500  0.644800  1.0  -0.5708
  O  O954  1  0.568400  0.206400  0.402900  1.0  -0.5541
  O  O955  1  0.962000  0.243200  0.337000  1.0  -0.6361
  O  O956  1  0.325000  0.483300  0.381700  1.0  -0.5571
  O  O957  1  0.552500  0.532500  0.461500  1.0  -0.4066
  O  O958  1  0.446300  0.273100  0.677800  1.0  -0.5482
  O  O959  1  0.832400  0.083400  0.853000  1.0  -0.6471
  O  O960  1  0.008600  0.190000  0.580700  1.0  -0.6238
  O  O961  1  0.820000  0.709900  0.787900  1.0  -0.3233
  O  O962  1  0.309400  0.471500  0.111580  1.0  -0.7049
  O  O963  1  0.404900  0.681900  0.859200  1.0  -0.6052
  O  O964  1  0.718700  0.079200  0.845800  1.0  -0.619
  O  O965  1  0.525000  0.939100  0.003000  1.0  -0.3495
  O  O966  1  0.829500  0.440700  0.605600  1.0  -0.6128
  O  O967  1  0.536000  0.815800  0.110400  1.0  -0.6438
  O  O968  1  0.218700  0.420800  0.345800  1.0  -0.619
  O  O969  1  0.461800  0.297100  0.122700  1.0  -0.5914
  O  O970  1  0.304100  0.972300  0.615630  1.0  -0.5977
  O  O971  1  0.281300  0.920800  0.845800  1.0  -0.619
  O  O972  1  0.809400  0.028500  0.611580  1.0  -0.7021
  O  O973  1  0.027700  0.304100  0.384370  1.0  -0.597
  O  O974  1  0.715200  0.095500  0.398500  1.0  -0.6074
  O  O975  1  0.242400  0.177100  0.737600  1.0  -0.3614
  O  O976  1  0.990600  0.204500  0.926100  1.0  -0.5811
  O  O977  1  0.016400  0.679800  0.937400  1.0  -0.5767
  O  O978  1  0.181900  0.904900  0.640800  1.0  -0.6025
  O  O979  1  0.709900  0.180000  0.212100  1.0  -0.3205
  O  O980  1  0.732500  0.060000  0.355200  1.0  -0.5729
  O  O981  1  0.206400  0.431600  0.597100  1.0  -0.557
  O  O982  1  0.222900  0.463800  0.642200  1.0  -0.6501
  O  O983  1  0.786400  0.508700  0.372630  1.0  -0.6187
  O  O984  1  0.680000  0.209900  0.287900  1.0  -0.3209
  O  O985  1  0.053200  0.785000  0.885400  1.0  -0.6166
  O  O986  1  0.466400  0.553100  0.961600  1.0  -0.3128
  O  O987  1  0.295800  0.995000  0.429700  1.0  -0.6681
  O  O988  1  0.294800  0.905500  0.643900  1.0  -0.638
