# generated using pymatgen
data_Zn5Fe6B6H54(C4N3)18
_symmetry_space_group_name_H-M   'P 1'
_cell_length_a   35.49450000
_cell_length_b   35.49450000
_cell_length_c   35.49450000
_cell_angle_alpha   109.47100000
_cell_angle_beta   109.47100000
_cell_angle_gamma   109.47100000
_symmetry_Int_Tables_number   1
_chemical_formula_structural   Zn5Fe6B6H54(C4N3)18
_chemical_formula_sum   'Zn40 Fe48 B48 H432 C576 N432'
_cell_volume   34424.27838672
_cell_formula_units_Z   8
loop_
 _symmetry_equiv_pos_site_id
 _symmetry_equiv_pos_as_xyz
  1  'x, y, z'
loop_
 _atom_site_type_symbol
 _atom_site_label
 _atom_site_symmetry_multiplicity
 _atom_site_fract_x
 _atom_site_fract_y
 _atom_site_fract_z
 _atom_site_occupancy
 _atom_site_charge
  Zn  Zn1  1  0.406060  0.601850  0.655320  1.0  0.9155
  Zn  Zn2  1  0.446540  0.750750  0.844680  1.0  0.9163
  Zn  Zn3  1  0.053460  0.898140  0.304200  1.0  0.917
  Zn  Zn4  1  0.093940  0.749260  0.195800  1.0  0.9158
  Zn  Zn5  1  0.804210  0.053470  0.398150  1.0  0.9158
  Zn  Zn6  1  0.695790  0.093930  0.249250  1.0  0.916
  Zn  Zn7  1  0.155320  0.406060  0.101860  1.0  0.9163
  Zn  Zn8  1  0.344680  0.446540  0.250740  1.0  0.9161
  Zn  Zn9  1  0.750740  0.344680  0.946530  1.0  0.9167
  Zn  Zn10  1  0.601860  0.155320  0.906070  1.0  0.9168
  Zn  Zn11  1  0.749260  0.695800  0.593940  1.0  0.9167
  Zn  Zn12  1  0.898140  0.804200  0.553460  1.0  0.9169
  Zn  Zn13  1  0.250740  0.946530  0.344680  1.0  0.916
  Zn  Zn14  1  0.101860  0.906070  0.155320  1.0  0.9161
  Zn  Zn15  1  0.249260  0.593940  0.695800  1.0  0.9162
  Zn  Zn16  1  0.398140  0.553460  0.804200  1.0  0.9158
  Zn  Zn17  1  0.906060  0.655320  0.601850  1.0  0.9162
  Zn  Zn18  1  0.946540  0.844680  0.750750  1.0  0.9169
  Zn  Zn19  1  0.553460  0.304200  0.898140  1.0  0.917
  Zn  Zn20  1  0.593940  0.195800  0.749260  1.0  0.9164
  Zn  Zn21  1  0.304210  0.398150  0.053470  1.0  0.9165
  Zn  Zn22  1  0.195790  0.249250  0.093930  1.0  0.9164
  Zn  Zn23  1  0.655320  0.101860  0.406060  1.0  0.9165
  Zn  Zn24  1  0.844680  0.250740  0.446540  1.0  0.9156
  Zn  Zn25  1  0.500000  0.648520  0.500000  1.0  0.6059
  Zn  Zn26  1  0.500000  0.480220  0.500000  1.0  0.5942
  Zn  Zn27  1  0.648520  0.000000  0.000000  1.0  0.6116
  Zn  Zn28  1  0.480220  0.000000  0.000000  1.0  0.5953
  Zn  Zn29  1  0.851480  0.851480  0.351480  1.0  0.6052
  Zn  Zn30  1  0.019780  0.019780  0.519780  1.0  0.5951
  Zn  Zn31  1  0.000000  0.500000  0.148520  1.0  0.6199
  Zn  Zn32  1  0.000000  0.500000  0.980220  1.0  0.6037
  Zn  Zn33  1  0.500000  0.148520  0.500000  1.0  0.6059
  Zn  Zn34  1  0.500000  0.980220  0.500000  1.0  0.5942
  Zn  Zn35  1  0.148520  0.000000  0.000000  1.0  0.6116
  Zn  Zn36  1  0.980220  0.000000  0.000000  1.0  0.5953
  Zn  Zn37  1  0.000000  0.500000  0.648520  1.0  0.6201
  Zn  Zn38  1  0.000000  0.500000  0.480220  1.0  0.6037
  Zn  Zn39  1  0.351480  0.351480  0.851480  1.0  0.6052
  Zn  Zn40  1  0.519780  0.519780  0.019780  1.0  0.5951
  Fe  Fe41  1  0.379120  0.521980  0.499220  1.0  0.4628
  Fe  Fe42  1  0.282270  0.467360  0.637450  1.0  0.5485
  Fe  Fe43  1  0.522760  0.879900  0.000780  1.0  0.4632
  Fe  Fe44  1  0.329910  0.644820  0.862550  1.0  0.5496
  Fe  Fe45  1  0.977240  0.978020  0.357140  1.0  0.4672
  Fe  Fe46  1  0.170090  0.032640  0.314910  1.0  0.548
  Fe  Fe47  1  0.120880  0.620100  0.142860  1.0  0.4638
  Fe  Fe48  1  0.217730  0.855180  0.185090  1.0  0.5533
  Fe  Fe49  1  0.857140  0.977240  0.478020  1.0  0.4626
  Fe  Fe50  1  0.814910  0.170090  0.532640  1.0  0.5519
  Fe  Fe51  1  0.642860  0.120880  0.120100  1.0  0.4629
  Fe  Fe52  1  0.685090  0.217730  0.355180  1.0  0.5506
  Fe  Fe53  1  0.999220  0.379120  0.021980  1.0  0.4648
  Fe  Fe54  1  0.137450  0.282270  0.967360  1.0  0.5501
  Fe  Fe55  1  0.500780  0.522760  0.379900  1.0  0.4663
  Fe  Fe56  1  0.362550  0.329910  0.144820  1.0  0.5515
  Fe  Fe57  1  0.879900  0.500780  0.022760  1.0  0.4643
  Fe  Fe58  1  0.644820  0.362550  0.829910  1.0  0.5499
  Fe  Fe59  1  0.521980  0.999220  0.879120  1.0  0.467
  Fe  Fe60  1  0.467360  0.137450  0.782270  1.0  0.5482
  Fe  Fe61  1  0.620100  0.642860  0.620880  1.0  0.4625
  Fe  Fe62  1  0.855180  0.685090  0.717730  1.0  0.5489
  Fe  Fe63  1  0.978020  0.857140  0.477240  1.0  0.4612
  Fe  Fe64  1  0.032640  0.814910  0.670090  1.0  0.5533
  Fe  Fe65  1  0.379900  0.022760  0.500780  1.0  0.4626
  Fe  Fe66  1  0.144820  0.829910  0.362550  1.0  0.5525
  Fe  Fe67  1  0.021980  0.879120  0.999220  1.0  0.4628
  Fe  Fe68  1  0.967360  0.782270  0.137450  1.0  0.549
  Fe  Fe69  1  0.120100  0.620880  0.642860  1.0  0.4654
  Fe  Fe70  1  0.355180  0.717730  0.685090  1.0  0.5514
  Fe  Fe71  1  0.478020  0.477240  0.857140  1.0  0.4661
  Fe  Fe72  1  0.532640  0.670090  0.814910  1.0  0.5507
  Fe  Fe73  1  0.879120  0.499220  0.521980  1.0  0.4644
  Fe  Fe74  1  0.782270  0.637450  0.467360  1.0  0.549
  Fe  Fe75  1  0.022760  0.000780  0.879900  1.0  0.4668
  Fe  Fe76  1  0.829910  0.862550  0.644820  1.0  0.5485
  Fe  Fe77  1  0.477240  0.357140  0.978020  1.0  0.4623
  Fe  Fe78  1  0.670090  0.314910  0.032640  1.0  0.5488
  Fe  Fe79  1  0.620880  0.142860  0.620100  1.0  0.4612
  Fe  Fe80  1  0.717730  0.185090  0.855180  1.0  0.5533
  Fe  Fe81  1  0.357140  0.478020  0.977240  1.0  0.4621
  Fe  Fe82  1  0.314910  0.532640  0.170090  1.0  0.5494
  Fe  Fe83  1  0.142860  0.120100  0.120880  1.0  0.4635
  Fe  Fe84  1  0.185090  0.355180  0.217730  1.0  0.5493
  Fe  Fe85  1  0.499220  0.021980  0.379120  1.0  0.4671
  Fe  Fe86  1  0.637450  0.967360  0.282270  1.0  0.5478
  Fe  Fe87  1  0.000780  0.379900  0.522760  1.0  0.4636
  Fe  Fe88  1  0.862550  0.144820  0.329910  1.0  0.5539
  B  B89  1  0.217500  0.363300  0.564800  1.0  0.4077
  B  B90  1  0.276200  0.454300  0.429700  1.0  0.4301
  B  B91  1  0.298500  0.652700  0.935200  1.0  0.405
  B  B92  1  0.524600  0.846500  0.070300  1.0  0.4352
  B  B93  1  0.201500  0.136700  0.354200  1.0  0.4046
  B  B94  1  0.975400  0.045700  0.321900  1.0  0.4311
  B  B95  1  0.282500  0.847300  0.145800  1.0  0.4056
  B  B96  1  0.223800  0.653500  0.178100  1.0  0.4323
  B  B97  1  0.854200  0.201500  0.636700  1.0  0.4081
  B  B98  1  0.821900  0.975400  0.545700  1.0  0.4318
  B  B99  1  0.645800  0.282500  0.347300  1.0  0.4055
  B  B100  1  0.678100  0.223800  0.153500  1.0  0.4303
  B  B101  1  0.064800  0.217500  0.863300  1.0  0.4047
  B  B102  1  0.929700  0.276200  0.954300  1.0  0.4283
  B  B103  1  0.435200  0.298500  0.152700  1.0  0.4084
  B  B104  1  0.570300  0.524600  0.346500  1.0  0.4333
  B  B105  1  0.652700  0.435200  0.798500  1.0  0.4043
  B  B106  1  0.846500  0.570300  0.024600  1.0  0.4318
  B  B107  1  0.363300  0.064800  0.717500  1.0  0.4057
  B  B108  1  0.454300  0.929700  0.776200  1.0  0.4295
  B  B109  1  0.847300  0.645800  0.782500  1.0  0.4069
  B  B110  1  0.653500  0.678100  0.723800  1.0  0.4355
  B  B111  1  0.136700  0.854200  0.701500  1.0  0.4061
  B  B112  1  0.045700  0.821900  0.475400  1.0  0.432
  B  B113  1  0.152700  0.798500  0.435200  1.0  0.4071
  B  B114  1  0.346500  0.024600  0.570300  1.0  0.4321
  B  B115  1  0.863300  0.717500  0.064800  1.0  0.405
  B  B116  1  0.954300  0.776200  0.929700  1.0  0.4295
  B  B117  1  0.347300  0.782500  0.645800  1.0  0.406
  B  B118  1  0.153500  0.723800  0.678100  1.0  0.4289
  B  B119  1  0.636700  0.701500  0.854200  1.0  0.4086
  B  B120  1  0.545700  0.475400  0.821900  1.0  0.4331
  B  B121  1  0.717500  0.564800  0.363300  1.0  0.4038
  B  B122  1  0.776200  0.429700  0.454300  1.0  0.4301
  B  B123  1  0.798500  0.935200  0.652700  1.0  0.4052
  B  B124  1  0.024600  0.070300  0.846500  1.0  0.4309
  B  B125  1  0.701500  0.354200  0.136700  1.0  0.4073
  B  B126  1  0.475400  0.321900  0.045700  1.0  0.4353
  B  B127  1  0.782500  0.145800  0.847300  1.0  0.4062
  B  B128  1  0.723800  0.178100  0.653500  1.0  0.4322
  B  B129  1  0.354200  0.636700  0.201500  1.0  0.4059
  B  B130  1  0.321900  0.545700  0.975400  1.0  0.4312
  B  B131  1  0.145800  0.347300  0.282500  1.0  0.4052
  B  B132  1  0.178100  0.153500  0.223800  1.0  0.4355
  B  B133  1  0.564800  0.863300  0.217500  1.0  0.4067
  B  B134  1  0.429700  0.954300  0.276200  1.0  0.4305
  B  B135  1  0.935200  0.152700  0.298500  1.0  0.4055
  B  B136  1  0.070300  0.346500  0.524600  1.0  0.4322
  H  H137  1  0.196700  0.330200  0.541500  1.0  0.083
  H  H138  1  0.274000  0.319700  0.555500  1.0  0.0955
  H  H139  1  0.358100  0.371800  0.606100  1.0  0.092
  H  H140  1  0.371000  0.450700  0.650700  1.0  0.0739
  H  H141  1  0.157000  0.320500  0.595900  1.0  0.088
  H  H142  1  0.164100  0.373700  0.667400  1.0  0.0885
  H  H143  1  0.228200  0.451500  0.694700  1.0  0.0744
  H  H144  1  0.164200  0.354200  0.475800  1.0  0.0917
  H  H145  1  0.181600  0.427800  0.474400  1.0  0.1002
  H  H146  1  0.243400  0.490600  0.554800  1.0  0.0798
  H  H147  1  0.243100  0.432400  0.407100  1.0  0.0881
  H  H148  1  0.351100  0.607000  0.521100  1.0  0.1111
  H  H149  1  0.244000  0.382100  0.454100  1.0  0.0818
  H  H150  1  0.299300  0.392600  0.523500  1.0  0.0785
  H  H151  1  0.372600  0.464500  0.555100  1.0  0.07
  H  H152  1  0.264700  0.411200  0.336100  1.0  0.0785
  H  H153  1  0.337300  0.437600  0.333333  1.0  0.0947
  H  H154  1  0.400600  0.491300  0.413500  1.0  0.0788
  H  H155  1  0.288700  0.655200  0.958500  1.0  0.085
  H  H156  1  0.264200  0.718500  0.944500  1.0  0.0958
  H  H157  1  0.265700  0.752000  0.893900  1.0  0.0941
  H  H158  1  0.300000  0.720300  0.849300  1.0  0.0712
  H  H159  1  0.224600  0.561100  0.904100  1.0  0.0886
  H  H160  1  0.206300  0.496700  0.832600  1.0  0.0896
  H  H161  1  0.256800  0.533500  0.805300  1.0  0.0745
  H  H162  1  0.378400  0.688400  0.024200  1.0  0.0913
  H  H163  1  0.453400  0.707200  0.025600  1.0  0.0986
  H  H164  1  0.435800  0.688600  0.945200  1.0  0.0792
  H  H165  1  0.525300  0.836000  0.092900  1.0  0.0848
  H  H166  1  0.585900  0.830000  0.978900  1.0  0.1067
  H  H167  1  0.428000  0.789900  0.045900  1.0  0.0819
  H  H168  1  0.369100  0.775800  0.976500  1.0  0.0787
  H  H169  1  0.409400  0.817500  0.944900  1.0  0.0711
  H  H170  1  0.575100  0.928600  0.163900  1.0  0.0801
  H  H171  1  0.604300  0.004000  0.166700  1.0  0.0946
  H  H172  1  0.577800  0.987100  0.086500  1.0  0.0789
  H  H173  1  0.211300  0.169800  0.366500  1.0  0.0836
  H  H174  1  0.235800  0.180300  0.454300  1.0  0.0958
  H  H175  1  0.234300  0.128200  0.486300  1.0  0.0923
  H  H176  1  0.200000  0.049300  0.420300  1.0  0.0727
  H  H177  1  0.275400  0.179500  0.336500  1.0  0.0874
  H  H178  1  0.293700  0.126300  0.290400  1.0  0.0901
  H  H179  1  0.243200  0.048500  0.276700  1.0  0.0737
  H  H180  1  0.121600  0.145800  0.310000  1.0  0.0915
  H  H181  1  0.046600  0.072200  0.253800  1.0  0.0973
  H  H182  1  0.064200  0.009400  0.252800  1.0  0.0805
  H  H183  1  0.974700  0.067600  0.310700  1.0  0.0866
  H  H184  1  0.914100  0.893000  0.244100  1.0  0.1126
  H  H185  1  0.072000  0.117900  0.361900  1.0  0.0828
  H  H186  1  0.130900  0.107400  0.406700  1.0  0.0816
  H  H187  1  0.090600  0.035500  0.408100  1.0  0.0722
  H  H188  1  0.924900  0.088800  0.353500  1.0  0.0801
  H  H189  1  0.895700  0.062400  0.399700  1.0  0.093
  H  H190  1  0.922200  0.008700  0.409300  1.0  0.08
  H  H191  1  0.303300  0.844800  0.133500  1.0  0.084
  H  H192  1  0.226000  0.781500  0.045700  1.0  0.0955
  H  H193  1  0.141900  0.748000  0.013700  1.0  0.0925
  H  H194  1  0.129000  0.779700  0.079700  1.0  0.0731
  H  H195  1  0.343000  0.938900  0.163500  1.0  0.0893
  H  H196  1  0.335900  0.003300  0.209600  1.0  0.09
  H  H197  1  0.271800  0.966500  0.223300  1.0  0.0735
  H  H198  1  0.335800  0.811600  0.190000  1.0  0.091
  H  H199  1  0.318400  0.792800  0.246200  1.0  0.0995
  H  H200  1  0.256600  0.811400  0.247200  1.0  0.078
  H  H201  1  0.256900  0.664000  0.189300  1.0  0.0879
  H  H202  1  0.148900  0.670000  0.255900  1.0  0.1105
  H  H203  1  0.256000  0.710100  0.138100  1.0  0.0824
  H  H204  1  0.200700  0.724200  0.093300  1.0  0.0794
  H  H205  1  0.127400  0.682500  0.091900  1.0  0.0715
  H  H206  1  0.235300  0.571400  0.146500  1.0  0.0788
  H  H207  1  0.162700  0.496000  0.100300  1.0  0.0941
  H  H208  1  0.099400  0.512900  0.090700  1.0  0.0793
  H  H209  1  0.866500  0.211300  0.669800  1.0  0.0836
  H  H210  1  0.954300  0.235800  0.680300  1.0  0.0948
  H  H211  1  0.986300  0.234300  0.628200  1.0  0.0923
  H  H212  1  0.920300  0.200000  0.549300  1.0  0.0713
  H  H213  1  0.836500  0.275400  0.679500  1.0  0.0887
  H  H214  1  0.790400  0.293700  0.626300  1.0  0.0912
  H  H215  1  0.776700  0.243200  0.548500  1.0  0.0726
  H  H216  1  0.810000  0.121600  0.645800  1.0  0.0916
  H  H217  1  0.753800  0.046600  0.572200  1.0  0.1042
  H  H218  1  0.752800  0.064200  0.509400  1.0  0.0803
  H  H219  1  0.810700  0.974700  0.567600  1.0  0.0852
  H  H220  1  0.744100  0.914100  0.393000  1.0  0.1081
  H  H221  1  0.861900  0.072000  0.617900  1.0  0.0813
  H  H222  1  0.906700  0.130900  0.607400  1.0  0.079
  H  H223  1  0.908100  0.090600  0.535500  1.0  0.0712
  H  H224  1  0.853500  0.924900  0.588800  1.0  0.0804
  H  H225  1  0.899700  0.895700  0.562400  1.0  0.0933
  H  H226  1  0.909300  0.922200  0.508700  1.0  0.0784
  H  H227  1  0.633500  0.303300  0.344800  1.0  0.0836
  H  H228  1  0.545700  0.226000  0.281500  1.0  0.0956
  H  H229  1  0.513700  0.141900  0.248000  1.0  0.0934
  H  H230  1  0.579700  0.129000  0.279700  1.0  0.0747
  H  H231  1  0.663500  0.343000  0.438900  1.0  0.0888
  H  H232  1  0.709600  0.335900  0.503300  1.0  0.0881
  H  H233  1  0.723300  0.271800  0.466500  1.0  0.074
  H  H234  1  0.690000  0.335800  0.311600  1.0  0.0912
  H  H235  1  0.746200  0.318400  0.292800  1.0  0.1009
  H  H236  1  0.747200  0.256600  0.311400  1.0  0.0801
  H  H237  1  0.689300  0.256900  0.164000  1.0  0.0883
  H  H238  1  0.755900  0.148900  0.170000  1.0  0.1089
  H  H239  1  0.638100  0.256000  0.210100  1.0  0.0821
  H  H240  1  0.593300  0.200700  0.224200  1.0  0.079
  H  H241  1  0.591900  0.127400  0.182500  1.0  0.0714
  H  H242  1  0.646500  0.235300  0.071400  1.0  0.0794
  H  H243  1  0.600300  0.162700  0.996000  1.0  0.094
  H  H244  1  0.590700  0.099400  0.012900  1.0  0.0816
  H  H245  1  0.041500  0.196700  0.830200  1.0  0.0847
  H  H246  1  0.055500  0.274000  0.819700  1.0  0.096
  H  H247  1  0.106100  0.358100  0.871800  1.0  0.0931
  H  H248  1  0.150700  0.371000  0.950700  1.0  0.0753
  H  H249  1  0.095900  0.157000  0.820500  1.0  0.0857
  H  H250  1  0.167400  0.164100  0.873700  1.0  0.0883
  H  H251  1  0.194700  0.228200  0.951500  1.0  0.073
  H  H252  1  0.975800  0.164200  0.854200  1.0  0.092
  H  H253  1  0.974400  0.181600  0.927800  1.0  0.1023
  H  H254  1  0.054800  0.243400  0.990600  1.0  0.0774
  H  H255  1  0.907100  0.243100  0.932400  1.0  0.0867
  H  H256  1  0.021100  0.351100  0.107000  1.0  0.1099
  H  H257  1  0.954100  0.244000  0.882100  1.0  0.0824
  H  H258  1  0.023500  0.299300  0.892600  1.0  0.0789
  H  H259  1  0.055100  0.372600  0.964500  1.0  0.0733
  H  H260  1  0.836100  0.264700  0.911200  1.0  0.0797
  H  H261  1  0.833300  0.337300  0.937600  1.0  0.0937
  H  H262  1  0.913500  0.400600  0.991300  1.0  0.0809
  H  H263  1  0.458500  0.288700  0.155200  1.0  0.082
  H  H264  1  0.444500  0.264200  0.218500  1.0  0.0951
  H  H265  1  0.393900  0.265700  0.252000  1.0  0.0922
  H  H266  1  0.349300  0.300000  0.220300  1.0  0.0717
  H  H267  1  0.404100  0.224600  0.061100  1.0  0.0893
  H  H268  1  0.332600  0.206300  0.996700  1.0  0.0913
  H  H269  1  0.305300  0.256800  0.033500  1.0  0.075
  H  H270  1  0.524200  0.378400  0.188400  1.0  0.091
  H  H271  1  0.525600  0.453400  0.207200  1.0  0.1024
  H  H272  1  0.445200  0.435800  0.188600  1.0  0.0791
  H  H273  1  0.592900  0.525300  0.336000  1.0  0.0862
  H  H274  1  0.478900  0.585900  0.330000  1.0  0.1096
  H  H275  1  0.545900  0.428000  0.289900  1.0  0.0817
  H  H276  1  0.476500  0.369100  0.275800  1.0  0.0799
  H  H277  1  0.444900  0.409400  0.317500  1.0  0.0723
  H  H278  1  0.663900  0.575100  0.428600  1.0  0.0796
  H  H279  1  0.666667  0.604300  0.504000  1.0  0.0936
  H  H280  1  0.586500  0.577800  0.487100  1.0  0.08
  H  H281  1  0.655200  0.458500  0.788700  1.0  0.0858
  H  H282  1  0.718500  0.444500  0.764200  1.0  0.0962
  H  H283  1  0.752000  0.393900  0.765700  1.0  0.0924
  H  H284  1  0.720300  0.349300  0.800000  1.0  0.0737
  H  H285  1  0.561100  0.404100  0.724600  1.0  0.0876
  H  H286  1  0.496700  0.332600  0.706300  1.0  0.0888
  H  H287  1  0.533500  0.305300  0.756800  1.0  0.0739
  H  H288  1  0.688400  0.524200  0.878400  1.0  0.0923
  H  H289  1  0.707200  0.525600  0.953400  1.0  0.1032
  H  H290  1  0.688600  0.445200  0.935800  1.0  0.0777
  H  H291  1  0.836000  0.592900  0.025300  1.0  0.0879
  H  H292  1  0.830000  0.478900  0.085900  1.0  0.1103
  H  H293  1  0.789900  0.545900  0.928000  1.0  0.0827
  H  H294  1  0.775800  0.476500  0.869100  1.0  0.0803
  H  H295  1  0.817500  0.444900  0.909400  1.0  0.071
  H  H296  1  0.928600  0.663900  0.075100  1.0  0.0783
  H  H297  1  0.004000  0.666667  0.104300  1.0  0.0934
  H  H298  1  0.987100  0.586500  0.077800  1.0  0.079
  H  H299  1  0.330200  0.041500  0.696700  1.0  0.0835
  H  H300  1  0.319700  0.055500  0.774000  1.0  0.0962
  H  H301  1  0.371800  0.106100  0.858100  1.0  0.0927
  H  H302  1  0.450700  0.150700  0.871000  1.0  0.0727
  H  H303  1  0.320500  0.095900  0.657000  1.0  0.0881
  H  H304  1  0.373700  0.167400  0.664100  1.0  0.091
  H  H305  1  0.451500  0.194700  0.728200  1.0  0.0749
  H  H306  1  0.354200  0.975800  0.664200  1.0  0.0914
  H  H307  1  0.427800  0.974400  0.681600  1.0  0.1017
  H  H308  1  0.490600  0.054800  0.743400  1.0  0.0776
  H  H309  1  0.432400  0.907100  0.743100  1.0  0.0864
  H  H310  1  0.607000  0.021100  0.851100  1.0  0.1093
  H  H311  1  0.382100  0.954100  0.744000  1.0  0.0816
  H  H312  1  0.392600  0.023500  0.799300  1.0  0.0792
  H  H313  1  0.464500  0.055100  0.872600  1.0  0.0718
  H  H314  1  0.411200  0.836100  0.764700  1.0  0.0801
  H  H315  1  0.437600  0.833300  0.837300  1.0  0.0928
  H  H316  1  0.491300  0.913500  0.900600  1.0  0.0796
  H  H317  1  0.844800  0.633500  0.803300  1.0  0.0838
  H  H318  1  0.781500  0.545700  0.726000  1.0  0.0958
  H  H319  1  0.748000  0.513700  0.641900  1.0  0.0937
  H  H320  1  0.779700  0.579700  0.629000  1.0  0.0716
  H  H321  1  0.938900  0.663500  0.843000  1.0  0.0871
  H  H322  1  0.003300  0.709600  0.835900  1.0  0.088
  H  H323  1  0.966500  0.723300  0.771800  1.0  0.0733
  H  H324  1  0.811600  0.690000  0.835800  1.0  0.0921
  H  H325  1  0.792800  0.746200  0.818400  1.0  0.1023
  H  H326  1  0.811400  0.747200  0.756600  1.0  0.0789
  H  H327  1  0.664000  0.689300  0.756900  1.0  0.0862
  H  H328  1  0.670000  0.755900  0.648900  1.0  0.1074
  H  H329  1  0.710100  0.638100  0.756000  1.0  0.0818
  H  H330  1  0.724200  0.593300  0.700700  1.0  0.0817
  H  H331  1  0.682500  0.591900  0.627400  1.0  0.073
  H  H332  1  0.571400  0.646500  0.735300  1.0  0.0815
  H  H333  1  0.496000  0.600300  0.662700  1.0  0.0933
  H  H334  1  0.512900  0.590700  0.599400  1.0  0.079
  H  H335  1  0.169800  0.866500  0.711300  1.0  0.0825
  H  H336  1  0.180300  0.954300  0.735800  1.0  0.0967
  H  H337  1  0.128200  0.986300  0.734300  1.0  0.0944
  H  H338  1  0.049300  0.920300  0.700000  1.0  0.074
  H  H339  1  0.179500  0.836500  0.775400  1.0  0.0885
  H  H340  1  0.126300  0.790400  0.793700  1.0  0.0885
  H  H341  1  0.048500  0.776700  0.743200  1.0  0.0742
  H  H342  1  0.145800  0.810000  0.621600  1.0  0.0901
  H  H343  1  0.072200  0.753800  0.546600  1.0  0.1021
  H  H344  1  0.009400  0.752800  0.564200  1.0  0.0792
  H  H345  1  0.067600  0.810700  0.474700  1.0  0.0882
  H  H346  1  0.893000  0.744100  0.414100  1.0  0.1085
  H  H347  1  0.117900  0.861900  0.572000  1.0  0.0812
  H  H348  1  0.107400  0.906700  0.630900  1.0  0.0802
  H  H349  1  0.035500  0.908100  0.590600  1.0  0.0701
  H  H350  1  0.088800  0.853500  0.424900  1.0  0.0783
  H  H351  1  0.062400  0.899700  0.395700  1.0  0.0938
  H  H352  1  0.008700  0.909300  0.422200  1.0  0.0789
  H  H353  1  0.155200  0.788700  0.458500  1.0  0.0837
  H  H354  1  0.218500  0.764200  0.444500  1.0  0.0949
  H  H355  1  0.252000  0.765700  0.393900  1.0  0.092
  H  H356  1  0.220300  0.800000  0.349300  1.0  0.0712
  H  H357  1  0.061100  0.724600  0.404100  1.0  0.0887
  H  H358  1  0.996700  0.706300  0.332600  1.0  0.0894
  H  H359  1  0.033500  0.756800  0.305300  1.0  0.0723
  H  H360  1  0.188400  0.878400  0.524200  1.0  0.0917
  H  H361  1  0.207200  0.953400  0.525600  1.0  0.1026
  H  H362  1  0.188600  0.935800  0.445200  1.0  0.0797
  H  H363  1  0.336000  0.025300  0.592900  1.0  0.0854
  H  H364  1  0.330000  0.085900  0.478900  1.0  0.108
  H  H365  1  0.289900  0.928000  0.545900  1.0  0.0812
  H  H366  1  0.275800  0.869100  0.476500  1.0  0.0795
  H  H367  1  0.317500  0.909400  0.444900  1.0  0.0711
  H  H368  1  0.428600  0.075100  0.663900  1.0  0.0802
  H  H369  1  0.504000  0.104300  0.666667  1.0  0.0932
  H  H370  1  0.487100  0.077800  0.586500  1.0  0.0786
  H  H371  1  0.830200  0.696700  0.041500  1.0  0.0836
  H  H372  1  0.819700  0.774000  0.055500  1.0  0.0952
  H  H373  1  0.871800  0.858100  0.106100  1.0  0.0941
  H  H374  1  0.950700  0.871000  0.150700  1.0  0.0752
  H  H375  1  0.820500  0.657000  0.095900  1.0  0.0884
  H  H376  1  0.873700  0.664100  0.167400  1.0  0.0882
  H  H377  1  0.951500  0.728200  0.194700  1.0  0.0737
  H  H378  1  0.854200  0.664200  0.975800  1.0  0.0912
  H  H379  1  0.927800  0.681600  0.974400  1.0  0.1014
  H  H380  1  0.990600  0.743400  0.054800  1.0  0.0796
  H  H381  1  0.932400  0.743100  0.907100  1.0  0.0879
  H  H382  1  0.107000  0.851100  0.021100  1.0  0.1086
  H  H383  1  0.882100  0.744000  0.954100  1.0  0.0813
  H  H384  1  0.892600  0.799300  0.023500  1.0  0.0789
  H  H385  1  0.964500  0.872600  0.055100  1.0  0.0708
  H  H386  1  0.911200  0.764700  0.836100  1.0  0.0793
  H  H387  1  0.937600  0.837300  0.833300  1.0  0.0943
  H  H388  1  0.991300  0.900600  0.913500  1.0  0.0807
  H  H389  1  0.344800  0.803300  0.633500  1.0  0.0851
  H  H390  1  0.281500  0.726000  0.545700  1.0  0.0961
  H  H391  1  0.248000  0.641900  0.513700  1.0  0.0923
  H  H392  1  0.279700  0.629000  0.579700  1.0  0.0749
  H  H393  1  0.438900  0.843000  0.663500  1.0  0.0869
  H  H394  1  0.503300  0.835900  0.709600  1.0  0.0888
  H  H395  1  0.466500  0.771800  0.723300  1.0  0.0728
  H  H396  1  0.311600  0.835800  0.690000  1.0  0.0922
  H  H397  1  0.292800  0.818400  0.746200  1.0  0.1023
  H  H398  1  0.311400  0.756600  0.747200  1.0  0.0778
  H  H399  1  0.164000  0.756900  0.689300  1.0  0.0873
  H  H400  1  0.170000  0.648900  0.755900  1.0  0.1103
  H  H401  1  0.210100  0.756000  0.638100  1.0  0.0826
  H  H402  1  0.224200  0.700700  0.593300  1.0  0.0788
  H  H403  1  0.182500  0.627400  0.591900  1.0  0.0733
  H  H404  1  0.071400  0.735300  0.646500  1.0  0.0801
  H  H405  1  0.996000  0.662700  0.600300  1.0  0.0935
  H  H406  1  0.012900  0.599400  0.590700  1.0  0.0817
  H  H407  1  0.669800  0.711300  0.866500  1.0  0.082
  H  H408  1  0.680300  0.735800  0.954300  1.0  0.095
  H  H409  1  0.628200  0.734300  0.986300  1.0  0.0922
  H  H410  1  0.549300  0.700000  0.920300  1.0  0.0721
  H  H411  1  0.679500  0.775400  0.836500  1.0  0.0897
  H  H412  1  0.626300  0.793700  0.790400  1.0  0.0935
  H  H413  1  0.548500  0.743200  0.776700  1.0  0.0746
  H  H414  1  0.645800  0.621600  0.810000  1.0  0.0912
  H  H415  1  0.572200  0.546600  0.753800  1.0  0.1033
  H  H416  1  0.509400  0.564200  0.752800  1.0  0.0792
  H  H417  1  0.567600  0.474700  0.810700  1.0  0.0862
  H  H418  1  0.393000  0.414100  0.744100  1.0  0.1092
  H  H419  1  0.617900  0.572000  0.861900  1.0  0.082
  H  H420  1  0.607400  0.630900  0.906700  1.0  0.0797
  H  H421  1  0.535500  0.590600  0.908100  1.0  0.0718
  H  H422  1  0.588800  0.424900  0.853500  1.0  0.0794
  H  H423  1  0.562400  0.395700  0.899700  1.0  0.0938
  H  H424  1  0.508700  0.422200  0.909300  1.0  0.0799
  H  H425  1  0.696700  0.541500  0.330200  1.0  0.0852
  H  H426  1  0.774000  0.555500  0.319700  1.0  0.0951
  H  H427  1  0.858100  0.606100  0.371800  1.0  0.0925
  H  H428  1  0.871000  0.650700  0.450700  1.0  0.0739
  H  H429  1  0.657000  0.595900  0.320500  1.0  0.0872
  H  H430  1  0.664100  0.667400  0.373700  1.0  0.0889
  H  H431  1  0.728200  0.694700  0.451500  1.0  0.0735
  H  H432  1  0.664200  0.475800  0.354200  1.0  0.0917
  H  H433  1  0.681600  0.474400  0.427800  1.0  0.1045
  H  H434  1  0.743400  0.554800  0.490600  1.0  0.0771
  H  H435  1  0.743100  0.407100  0.432400  1.0  0.0875
  H  H436  1  0.851100  0.521100  0.607000  1.0  0.1105
  H  H437  1  0.744000  0.454100  0.382100  1.0  0.082
  H  H438  1  0.799300  0.523500  0.392600  1.0  0.0801
  H  H439  1  0.872600  0.555100  0.464500  1.0  0.0715
  H  H440  1  0.764700  0.336100  0.411200  1.0  0.0785
  H  H441  1  0.837300  0.333333  0.437600  1.0  0.0935
  H  H442  1  0.900600  0.413500  0.491300  1.0  0.0792
  H  H443  1  0.788700  0.958500  0.655200  1.0  0.0838
  H  H444  1  0.764200  0.944500  0.718500  1.0  0.0958
  H  H445  1  0.765700  0.893900  0.752000  1.0  0.0928
  H  H446  1  0.800000  0.849300  0.720300  1.0  0.0732
  H  H447  1  0.724600  0.904100  0.561100  1.0  0.0887
  H  H448  1  0.706300  0.832600  0.496700  1.0  0.09
  H  H449  1  0.756800  0.805300  0.533500  1.0  0.0749
  H  H450  1  0.878400  0.024200  0.688400  1.0  0.0914
  H  H451  1  0.953400  0.025600  0.707200  1.0  0.1011
  H  H452  1  0.935800  0.945200  0.688600  1.0  0.0778
  H  H453  1  0.025300  0.092900  0.836000  1.0  0.0867
  H  H454  1  0.085900  0.978900  0.830000  1.0  0.1088
  H  H455  1  0.928000  0.045900  0.789900  1.0  0.0824
  H  H456  1  0.869100  0.976500  0.775800  1.0  0.0795
  H  H457  1  0.909400  0.944900  0.817500  1.0  0.0721
  H  H458  1  0.075100  0.163900  0.928600  1.0  0.0799
  H  H459  1  0.104300  0.166700  0.004000  1.0  0.0929
  H  H460  1  0.077800  0.086500  0.987100  1.0  0.0794
  H  H461  1  0.711300  0.366500  0.169800  1.0  0.0843
  H  H462  1  0.735800  0.454300  0.180300  1.0  0.0963
  H  H463  1  0.734300  0.486300  0.128200  1.0  0.094
  H  H464  1  0.700000  0.420300  0.049300  1.0  0.0719
  H  H465  1  0.775400  0.336500  0.179500  1.0  0.0872
  H  H466  1  0.793700  0.290400  0.126300  1.0  0.0882
  H  H467  1  0.743200  0.276700  0.048500  1.0  0.0733
  H  H468  1  0.621600  0.310000  0.145800  1.0  0.0915
  H  H469  1  0.546600  0.253800  0.072200  1.0  0.1026
  H  H470  1  0.564200  0.252800  0.009400  1.0  0.0788
  H  H471  1  0.474700  0.310700  0.067600  1.0  0.0855
  H  H472  1  0.414100  0.244100  0.893000  1.0  0.1072
  H  H473  1  0.572000  0.361900  0.117900  1.0  0.0814
  H  H474  1  0.630900  0.406700  0.107400  1.0  0.0813
  H  H475  1  0.590600  0.408100  0.035500  1.0  0.0729
  H  H476  1  0.424900  0.353500  0.088800  1.0  0.081
  H  H477  1  0.395700  0.399700  0.062400  1.0  0.0929
  H  H478  1  0.422200  0.409300  0.008700  1.0  0.0794
  H  H479  1  0.803300  0.133500  0.844800  1.0  0.0824
  H  H480  1  0.726000  0.045700  0.781500  1.0  0.0964
  H  H481  1  0.641900  0.013700  0.748000  1.0  0.0936
  H  H482  1  0.629000  0.079700  0.779700  1.0  0.0742
  H  H483  1  0.843000  0.163500  0.938900  1.0  0.0899
  H  H484  1  0.835900  0.209600  0.003300  1.0  0.0884
  H  H485  1  0.771800  0.223300  0.966500  1.0  0.0738
  H  H486  1  0.835800  0.190000  0.811600  1.0  0.0902
  H  H487  1  0.818400  0.246200  0.792800  1.0  0.1017
  H  H488  1  0.756600  0.247200  0.811400  1.0  0.0789
  H  H489  1  0.756900  0.189300  0.664000  1.0  0.0885
  H  H490  1  0.648900  0.255900  0.670000  1.0  0.1087
  H  H491  1  0.756000  0.138100  0.710100  1.0  0.0813
  H  H492  1  0.700700  0.093300  0.724200  1.0  0.0806
  H  H493  1  0.627400  0.091900  0.682500  1.0  0.0706
  H  H494  1  0.735300  0.146500  0.571400  1.0  0.078
  H  H495  1  0.662700  0.100300  0.496000  1.0  0.0938
  H  H496  1  0.599400  0.090700  0.512900  1.0  0.0787
  H  H497  1  0.366500  0.669800  0.211300  1.0  0.0828
  H  H498  1  0.454300  0.680300  0.235800  1.0  0.0956
  H  H499  1  0.486300  0.628200  0.234300  1.0  0.092
  H  H500  1  0.420300  0.549300  0.200000  1.0  0.0736
  H  H501  1  0.336500  0.679500  0.275400  1.0  0.0882
  H  H502  1  0.290400  0.626300  0.293700  1.0  0.0888
  H  H503  1  0.276700  0.548500  0.243200  1.0  0.0746
  H  H504  1  0.310000  0.645800  0.121600  1.0  0.0916
  H  H505  1  0.253800  0.572200  0.046600  1.0  0.1005
  H  H506  1  0.252800  0.509400  0.064200  1.0  0.0805
  H  H507  1  0.310700  0.567600  0.974700  1.0  0.0883
  H  H508  1  0.244100  0.393000  0.914100  1.0  0.1116
  H  H509  1  0.361900  0.617900  0.072000  1.0  0.0822
  H  H510  1  0.406700  0.607400  0.130900  1.0  0.0788
  H  H511  1  0.408100  0.535500  0.090600  1.0  0.0706
  H  H512  1  0.353500  0.588800  0.924900  1.0  0.0782
  H  H513  1  0.399700  0.562400  0.895700  1.0  0.0939
  H  H514  1  0.409300  0.508700  0.922200  1.0  0.0785
  H  H515  1  0.133500  0.344800  0.303300  1.0  0.0854
  H  H516  1  0.045700  0.281500  0.226000  1.0  0.096
  H  H517  1  0.013700  0.248000  0.141900  1.0  0.0935
  H  H518  1  0.079700  0.279700  0.129000  1.0  0.0712
  H  H519  1  0.163500  0.438900  0.343000  1.0  0.0882
  H  H520  1  0.209600  0.503300  0.335900  1.0  0.09
  H  H521  1  0.223300  0.466500  0.271800  1.0  0.0735
  H  H522  1  0.190000  0.311600  0.335800  1.0  0.0918
  H  H523  1  0.246200  0.292800  0.318400  1.0  0.0987
  H  H524  1  0.247200  0.311400  0.256600  1.0  0.0789
  H  H525  1  0.189300  0.164000  0.256900  1.0  0.0855
  H  H526  1  0.255900  0.170000  0.148900  1.0  0.1067
  H  H527  1  0.138100  0.210100  0.256000  1.0  0.0819
  H  H528  1  0.093300  0.224200  0.200700  1.0  0.0783
  H  H529  1  0.091900  0.182500  0.127400  1.0  0.0708
  H  H530  1  0.146500  0.071400  0.235300  1.0  0.0807
  H  H531  1  0.100300  0.996000  0.162700  1.0  0.0946
  H  H532  1  0.090700  0.012900  0.099400  1.0  0.0788
  H  H533  1  0.541500  0.830200  0.196700  1.0  0.0835
  H  H534  1  0.555500  0.819700  0.274000  1.0  0.0965
  H  H535  1  0.606100  0.871800  0.358100  1.0  0.0924
  H  H536  1  0.650700  0.950700  0.371000  1.0  0.0728
  H  H537  1  0.595900  0.820500  0.157000  1.0  0.0873
  H  H538  1  0.667400  0.873700  0.164100  1.0  0.0898
  H  H539  1  0.694700  0.951500  0.228200  1.0  0.0733
  H  H540  1  0.475800  0.854200  0.164200  1.0  0.0914
  H  H541  1  0.474400  0.927800  0.181600  1.0  0.097
  H  H542  1  0.554800  0.990600  0.243400  1.0  0.0796
  H  H543  1  0.407100  0.932400  0.243100  1.0  0.086
  H  H544  1  0.521100  0.107000  0.351100  1.0  0.1123
  H  H545  1  0.454100  0.882100  0.244000  1.0  0.0826
  H  H546  1  0.523500  0.892600  0.299300  1.0  0.0809
  H  H547  1  0.555100  0.964500  0.372600  1.0  0.0715
  H  H548  1  0.336100  0.911200  0.264700  1.0  0.0803
  H  H549  1  0.333333  0.937600  0.337300  1.0  0.0937
  H  H550  1  0.413500  0.991300  0.400600  1.0  0.0801
  H  H551  1  0.958500  0.155200  0.288700  1.0  0.084
  H  H552  1  0.944500  0.218500  0.264200  1.0  0.0961
  H  H553  1  0.893900  0.252000  0.265700  1.0  0.0937
  H  H554  1  0.849300  0.220300  0.300000  1.0  0.0729
  H  H555  1  0.904100  0.061100  0.224600  1.0  0.0869
  H  H556  1  0.832600  0.996700  0.206300  1.0  0.0894
  H  H557  1  0.805300  0.033500  0.256800  1.0  0.0735
  H  H558  1  0.024200  0.188400  0.378400  1.0  0.0911
  H  H559  1  0.025600  0.207200  0.453400  1.0  0.0995
  H  H560  1  0.945200  0.188600  0.435800  1.0  0.0777
  H  H561  1  0.092900  0.336000  0.525300  1.0  0.0873
  H  H562  1  0.978900  0.330000  0.585900  1.0  0.1104
  H  H563  1  0.045900  0.289900  0.428000  1.0  0.0825
  H  H564  1  0.976500  0.275800  0.369100  1.0  0.0785
  H  H565  1  0.944900  0.317500  0.409400  1.0  0.0714
  H  H566  1  0.163900  0.428600  0.575100  1.0  0.0785
  H  H567  1  0.166700  0.504000  0.604300  1.0  0.0945
  H  H568  1  0.086500  0.487100  0.577800  1.0  0.0793
  C  C569  1  0.420500  0.573630  0.500330  1.0  0.1343
  C  C570  1  0.425870  0.505670  0.509800  1.0  0.1179
  C  C571  1  0.375790  0.674870  0.668200  1.0  0.2105
  C  C572  1  0.487880  0.643980  0.751380  1.0  0.1962
  C  C573  1  0.404070  0.560500  0.564170  1.0  0.1477
  C  C574  1  0.329670  0.514350  0.638020  1.0  0.1379
  C  C575  1  0.289000  0.351300  0.576900  1.0  -0.0692
  C  C576  1  0.335200  0.379900  0.604300  1.0  -0.1991
  C  C577  1  0.342190  0.423770  0.629560  1.0  -0.0359
  C  C578  1  0.177500  0.352400  0.613900  1.0  -0.0661
  C  C579  1  0.181400  0.381100  0.653300  1.0  -0.1838
  C  C580  1  0.217100  0.424200  0.667700  1.0  0.0131
  C  C581  1  0.185900  0.384000  0.500900  1.0  -0.0786
  C  C582  1  0.195300  0.424400  0.499900  1.0  -0.1754
  C  C583  1  0.229400  0.458870  0.544670  1.0  -0.0109
  C  C584  1  0.249900  0.510800  0.453700  1.0  0.021
  C  C585  1  0.280200  0.559800  0.487200  1.0  0.0288
  C  C586  1  0.326800  0.576100  0.502900  1.0  0.0871
  C  C587  1  0.274800  0.406600  0.473400  1.0  0.0053
  C  C588  1  0.304300  0.411800  0.510700  1.0  -0.1651
  C  C589  1  0.345000  0.451800  0.528000  1.0  -0.0111
  C  C590  1  0.294630  0.432800  0.361430  1.0  -0.0672
  C  C591  1  0.334300  0.446800  0.359700  1.0  -0.1444
  C  C592  1  0.369100  0.476900  0.404200  1.0  -0.0192
  C  C593  1  0.573300  0.920170  0.999670  1.0  0.1358
  C  C594  1  0.495870  0.916070  0.990200  1.0  0.1175
  C  C595  1  0.506670  0.707590  0.831800  1.0  0.2112
  C  C596  1  0.392600  0.736500  0.748620  1.0  0.193
  C  C597  1  0.496330  0.839900  0.935830  1.0  0.1518
  C  C598  1  0.376330  0.691650  0.861980  1.0  0.1379
  C  C599  1  0.274400  0.712100  0.923100  1.0  -0.0707
  C  C600  1  0.275600  0.730900  0.895700  1.0  -0.2043
  C  C601  1  0.294210  0.712630  0.870440  1.0  -0.0269
  C  C602  1  0.238500  0.563600  0.886100  1.0  -0.0638
  C  C603  1  0.227800  0.528100  0.846700  1.0  -0.1805
  C  C604  1  0.256500  0.549400  0.832300  1.0  0.0171
  C  C605  1  0.383100  0.685000  0.999100  1.0  -0.0756
  C  C606  1  0.424500  0.695400  0.000100  1.0  -0.1785
  C  C607  1  0.414200  0.684730  0.955330  1.0  -0.0089
  C  C608  1  0.557100  0.796200  0.046300  1.0  0.012
  C  C609  1  0.572600  0.793000  0.012800  1.0  0.0339
  C  C610  1  0.573200  0.823900  0.997100  1.0  0.0861
  C  C611  1  0.433200  0.801400  0.026600  1.0  0.0079
  C  C612  1  0.401100  0.793600  0.989300  1.0  -0.1669
  C  C613  1  0.423800  0.817000  0.972000  1.0  -0.0126
  C  C614  1  0.571370  0.933200  0.138570  1.0  -0.0639
  C  C615  1  0.587100  0.974600  0.140300  1.0  -0.1419
  C  C616  1  0.572700  0.964900  0.095800  1.0  -0.0205
  C  C617  1  0.926700  0.926370  0.346870  1.0  0.1359
  C  C618  1  0.004130  0.994330  0.420200  1.0  0.1135
  C  C619  1  0.993330  0.825130  0.200920  1.0  0.2071
  C  C620  1  0.107400  0.856020  0.343900  1.0  0.1962
  C  C621  1  0.003670  0.939500  0.343570  1.0  0.1518
  C  C622  1  0.123670  0.985650  0.315320  1.0  0.1368
  C  C623  1  0.225600  0.148700  0.437700  1.0  -0.0711
  C  C624  1  0.224400  0.120100  0.455300  1.0  -0.1995
  C  C625  1  0.205790  0.076230  0.418420  1.0  -0.034
  C  C626  1  0.261500  0.147600  0.325100  1.0  -0.064
  C  C627  1  0.272200  0.118900  0.300300  1.0  -0.1772
  C  C628  1  0.243500  0.075800  0.292900  1.0  0.0138
  C  C629  1  0.116900  0.116000  0.301900  1.0  -0.0816
  C  C630  1  0.075500  0.075600  0.270900  1.0  -0.1783
  C  C631  1  0.085800  0.041130  0.270530  1.0  -0.0096
  C  C632  1  0.942900  0.989200  0.239100  1.0  0.0109
  C  C633  1  0.927400  0.940200  0.220400  1.0  0.0249
  C  C634  1  0.926800  0.923900  0.250700  1.0  0.0858
  C  C635  1  0.066800  0.093400  0.368200  1.0  0.0096
  C  C636  1  0.098900  0.088200  0.392500  1.0  -0.1695
  C  C637  1  0.076200  0.048200  0.393200  1.0  -0.0126
  C  C638  1  0.928630  0.067200  0.361830  1.0  -0.0636
  C  C639  1  0.912900  0.053200  0.387500  1.0  -0.1424
  C  C640  1  0.927300  0.023100  0.392200  1.0  -0.0189
  C  C641  1  0.079500  0.579830  0.153130  1.0  0.1342
  C  C642  1  0.074130  0.583930  0.079800  1.0  0.1116
  C  C643  1  0.124210  0.792410  0.299080  1.0  0.208
  C  C644  1  0.012120  0.763500  0.156100  1.0  0.1943
  C  C645  1  0.095930  0.660100  0.156430  1.0  0.1509
  C  C646  1  0.170330  0.808350  0.184680  1.0  0.1386
  C  C647  1  0.211000  0.787900  0.062300  1.0  -0.0685
  C  C648  1  0.164800  0.769100  0.044700  1.0  -0.2007
  C  C649  1  0.157810  0.787370  0.081580  1.0  -0.0325
  C  C650  1  0.322500  0.936400  0.174900  1.0  -0.0655
  C  C651  1  0.318600  0.971900  0.199700  1.0  -0.1741
  C  C652  1  0.282900  0.950600  0.207100  1.0  0.0134
  C  C653  1  0.314100  0.815000  0.198100  1.0  -0.0756
  C  C654  1  0.304700  0.804600  0.229100  1.0  -0.1774
  C  C655  1  0.270600  0.815270  0.229470  1.0  -0.0083
  C  C656  1  0.250100  0.703800  0.260900  1.0  0.0183
  C  C657  1  0.219800  0.707000  0.279600  1.0  0.027
  C  C658  1  0.173200  0.676100  0.249300  1.0  0.0876
  C  C659  1  0.225200  0.698600  0.131800  1.0  0.0086
  C  C660  1  0.195700  0.706400  0.107500  1.0  -0.1644
  C  C661  1  0.155000  0.683000  0.106800  1.0  -0.0122
  C  C662  1  0.205370  0.566800  0.138170  1.0  -0.0665
  C  C663  1  0.165700  0.525400  0.112500  1.0  -0.1442
  C  C664  1  0.130900  0.535100  0.107800  1.0  -0.0208
  C  C665  1  0.846870  0.926700  0.426370  1.0  0.1345
  C  C666  1  0.920200  0.004130  0.494330  1.0  0.1124
  C  C667  1  0.700920  0.993330  0.325130  1.0  0.2099
  C  C668  1  0.843900  0.107400  0.356020  1.0  0.1926
  C  C669  1  0.843570  0.003670  0.439500  1.0  0.1497
  C  C670  1  0.815320  0.123670  0.485650  1.0  0.1386
  C  C671  1  0.937700  0.225600  0.648700  1.0  -0.076
  C  C672  1  0.955300  0.224400  0.620100  1.0  -0.201
  C  C673  1  0.918420  0.205790  0.576230  1.0  -0.0294
  C  C674  1  0.825100  0.261500  0.647600  1.0  -0.0644
  C  C675  1  0.800300  0.272200  0.618900  1.0  -0.1775
  C  C676  1  0.792900  0.243500  0.575800  1.0  0.0161
  C  C677  1  0.801900  0.116900  0.616000  1.0  -0.0743
  C  C678  1  0.770900  0.075500  0.575600  1.0  -0.1788
  C  C679  1  0.770530  0.085800  0.541130  1.0  -0.0127
  C  C680  1  0.739100  0.942900  0.489200  1.0  0.0151
  C  C681  1  0.720400  0.927400  0.440200  1.0  0.0257
  C  C682  1  0.750700  0.926800  0.423900  1.0  0.0855
  C  C683  1  0.868200  0.066800  0.593400  1.0  0.0069
  C  C684  1  0.892500  0.098900  0.588200  1.0  -0.1634
  C  C685  1  0.893200  0.076200  0.548200  1.0  -0.0126
  C  C686  1  0.861830  0.928630  0.567200  1.0  -0.0638
  C  C687  1  0.887500  0.912900  0.553200  1.0  -0.1382
  C  C688  1  0.892200  0.927300  0.523100  1.0  -0.0169
  C  C689  1  0.653130  0.079500  0.079830  1.0  0.1395
  C  C690  1  0.579800  0.074130  0.083930  1.0  0.1139
  C  C691  1  0.799080  0.124210  0.292410  1.0  0.2136
  C  C692  1  0.656100  0.012120  0.263500  1.0  0.1939
  C  C693  1  0.656430  0.095930  0.160100  1.0  0.1512
  C  C694  1  0.684680  0.170330  0.308350  1.0  0.1386
  C  C695  1  0.562300  0.211000  0.287900  1.0  -0.0704
  C  C696  1  0.544700  0.164800  0.269100  1.0  -0.2054
  C  C697  1  0.581580  0.157810  0.287370  1.0  -0.0324
  C  C698  1  0.674900  0.322500  0.436400  1.0  -0.0656
  C  C699  1  0.699700  0.318600  0.471900  1.0  -0.182
  C  C700  1  0.707100  0.282900  0.450600  1.0  0.0141
  C  C701  1  0.698100  0.314100  0.315000  1.0  -0.0773
  C  C702  1  0.729100  0.304700  0.304600  1.0  -0.1758
  C  C703  1  0.729470  0.270600  0.315270  1.0  -0.0088
  C  C704  1  0.760900  0.250100  0.203800  1.0  0.0157
  C  C705  1  0.779600  0.219800  0.207000  1.0  0.0347
  C  C706  1  0.749300  0.173200  0.176100  1.0  0.0875
  C  C707  1  0.631800  0.225200  0.198600  1.0  0.0012
  C  C708  1  0.607500  0.195700  0.206400  1.0  -0.1656
  C  C709  1  0.606800  0.155000  0.183000  1.0  -0.0123
  C  C710  1  0.638170  0.205370  0.066800  1.0  -0.0668
  C  C711  1  0.612500  0.165700  0.025400  1.0  -0.1422
  C  C712  1  0.607800  0.130900  0.035100  1.0  -0.021
  C  C713  1  0.000330  0.420500  0.073630  1.0  0.1332
  C  C714  1  0.009800  0.425870  0.005670  1.0  0.1117
  C  C715  1  0.168200  0.375790  0.174870  1.0  0.2084
  C  C716  1  0.251380  0.487880  0.143980  1.0  0.194
  C  C717  1  0.064170  0.404070  0.060500  1.0  0.1505
  C  C718  1  0.138020  0.329670  0.014350  1.0  0.1375
  C  C719  1  0.076900  0.289000  0.851300  1.0  -0.0704
  C  C720  1  0.104300  0.335200  0.879900  1.0  -0.2015
  C  C721  1  0.129560  0.342190  0.923770  1.0  -0.0339
  C  C722  1  0.113900  0.177500  0.852400  1.0  -0.0634
  C  C723  1  0.153300  0.181400  0.881100  1.0  -0.1752
  C  C724  1  0.167700  0.217100  0.924200  1.0  0.0182
  C  C725  1  0.000900  0.185900  0.884000  1.0  -0.0807
  C  C726  1  0.999900  0.195300  0.924400  1.0  -0.1789
  C  C727  1  0.044670  0.229400  0.958870  1.0  -0.0071
  C  C728  1  0.953700  0.249900  0.010800  1.0  0.0151
  C  C729  1  0.987200  0.280200  0.059800  1.0  0.0266
  C  C730  1  0.002900  0.326800  0.076100  1.0  0.0872
  C  C731  1  0.973400  0.274800  0.906600  1.0  0.0078
  C  C732  1  0.010700  0.304300  0.911800  1.0  -0.163
  C  C733  1  0.028000  0.345000  0.951800  1.0  -0.0162
  C  C734  1  0.861430  0.294630  0.932800  1.0  -0.0673
  C  C735  1  0.859700  0.334300  0.946800  1.0  -0.1397
  C  C736  1  0.904200  0.369100  0.976900  1.0  -0.0208
  C  C737  1  0.499670  0.573300  0.420170  1.0  0.1334
  C  C738  1  0.490200  0.495870  0.416070  1.0  0.1108
  C  C739  1  0.331800  0.506670  0.207590  1.0  0.2057
  C  C740  1  0.248620  0.392600  0.236500  1.0  0.1958
  C  C741  1  0.435830  0.496330  0.339900  1.0  0.1502
  C  C742  1  0.361980  0.376330  0.191650  1.0  0.1424
  C  C743  1  0.423100  0.274400  0.212100  1.0  -0.0755
  C  C744  1  0.395700  0.275600  0.230900  1.0  -0.199
  C  C745  1  0.370440  0.294210  0.212630  1.0  -0.0346
  C  C746  1  0.386100  0.238500  0.063600  1.0  -0.065
  C  C747  1  0.346700  0.227800  0.028100  1.0  -0.1785
  C  C748  1  0.332300  0.256500  0.049400  1.0  0.0162
  C  C749  1  0.499100  0.383100  0.185000  1.0  -0.0739
  C  C750  1  0.500100  0.424500  0.195400  1.0  -0.1811
  C  C751  1  0.455330  0.414200  0.184730  1.0  -0.012
  C  C752  1  0.546300  0.557100  0.296200  1.0  0.0101
  C  C753  1  0.512800  0.572600  0.293000  1.0  0.026
  C  C754  1  0.497100  0.573200  0.323900  1.0  0.0851
  C  C755  1  0.526600  0.433200  0.301400  1.0  0.0083
  C  C756  1  0.489300  0.401100  0.293600  1.0  -0.1689
  C  C757  1  0.472000  0.423800  0.317000  1.0  -0.0126
  C  C758  1  0.638570  0.571370  0.433200  1.0  -0.0609
  C  C759  1  0.640300  0.587100  0.474600  1.0  -0.14
  C  C760  1  0.595800  0.572700  0.464900  1.0  -0.0195
  C  C761  1  0.920170  0.499670  0.073300  1.0  0.1346
  C  C762  1  0.916070  0.490200  0.995870  1.0  0.1124
  C  C763  1  0.707590  0.331800  0.006670  1.0  0.2076
  C  C764  1  0.736500  0.248620  0.892600  1.0  0.1938
  C  C765  1  0.839900  0.435830  0.996330  1.0  0.1519
  C  C766  1  0.691650  0.361980  0.876330  1.0  0.1383
  C  C767  1  0.712100  0.423100  0.774400  1.0  -0.0701
  C  C768  1  0.730900  0.395700  0.775600  1.0  -0.1979
  C  C769  1  0.712630  0.370440  0.794210  1.0  -0.0337
  C  C770  1  0.563600  0.386100  0.738500  1.0  -0.0637
  C  C771  1  0.528100  0.346700  0.727800  1.0  -0.1789
  C  C772  1  0.549400  0.332300  0.756500  1.0  0.0208
  C  C773  1  0.685000  0.499100  0.883100  1.0  -0.0763
  C  C774  1  0.695400  0.500100  0.924500  1.0  -0.1781
  C  C775  1  0.684730  0.455330  0.914200  1.0  -0.0078
  C  C776  1  0.796200  0.546300  0.057100  1.0  0.0198
  C  C777  1  0.793000  0.512800  0.072600  1.0  0.0212
  C  C778  1  0.823900  0.497100  0.073200  1.0  0.0885
  C  C779  1  0.801400  0.526600  0.933200  1.0  0.0078
  C  C780  1  0.793600  0.489300  0.901100  1.0  -0.1635
  C  C781  1  0.817000  0.472000  0.923800  1.0  -0.0154
  C  C782  1  0.933200  0.638570  0.071370  1.0  -0.0645
  C  C783  1  0.974600  0.640300  0.087100  1.0  -0.1399
  C  C784  1  0.964900  0.595800  0.072700  1.0  -0.0188
  C  C785  1  0.573630  0.000330  0.920500  1.0  0.1385
  C  C786  1  0.505670  0.009800  0.925870  1.0  0.1123
  C  C787  1  0.674870  0.168200  0.875790  1.0  0.2072
  C  C788  1  0.643980  0.251380  0.987880  1.0  0.1966
  C  C789  1  0.560500  0.064170  0.904070  1.0  0.1494
  C  C790  1  0.514350  0.138020  0.829670  1.0  0.1379
  C  C791  1  0.351300  0.076900  0.789000  1.0  -0.0725
  C  C792  1  0.379900  0.104300  0.835200  1.0  -0.1969
  C  C793  1  0.423770  0.129560  0.842190  1.0  -0.0338
  C  C794  1  0.352400  0.113900  0.677500  1.0  -0.0635
  C  C795  1  0.381100  0.153300  0.681400  1.0  -0.1794
  C  C796  1  0.424200  0.167700  0.717100  1.0  0.0185
  C  C797  1  0.384000  0.000900  0.685900  1.0  -0.0757
  C  C798  1  0.424400  0.999900  0.695300  1.0  -0.181
  C  C799  1  0.458870  0.044670  0.729400  1.0  -0.0074
  C  C800  1  0.510800  0.953700  0.749900  1.0  0.0114
  C  C801  1  0.559800  0.987200  0.780200  1.0  0.0272
  C  C802  1  0.576100  0.002900  0.826800  1.0  0.0868
  C  C803  1  0.406600  0.973400  0.774800  1.0  0.0028
  C  C804  1  0.411800  0.010700  0.804300  1.0  -0.1682
  C  C805  1  0.451800  0.028000  0.845000  1.0  -0.0143
  C  C806  1  0.432800  0.861430  0.794630  1.0  -0.0633
  C  C807  1  0.446800  0.859700  0.834300  1.0  -0.1409
  C  C808  1  0.476900  0.904200  0.869100  1.0  -0.0195
  C  C809  1  0.579830  0.653130  0.579500  1.0  0.1335
  C  C810  1  0.583930  0.579800  0.574130  1.0  0.1107
  C  C811  1  0.792410  0.799080  0.624210  1.0  0.2057
  C  C812  1  0.763500  0.656100  0.512120  1.0  0.1891
  C  C813  1  0.660100  0.656430  0.595930  1.0  0.1503
  C  C814  1  0.808350  0.684680  0.670330  1.0  0.1401
  C  C815  1  0.787900  0.562300  0.711000  1.0  -0.0711
  C  C816  1  0.769100  0.544700  0.664800  1.0  -0.2011
  C  C817  1  0.787370  0.581580  0.657810  1.0  -0.0319
  C  C818  1  0.936400  0.674900  0.822500  1.0  -0.0664
  C  C819  1  0.971900  0.699700  0.818600  1.0  -0.1778
  C  C820  1  0.950600  0.707100  0.782900  1.0  0.015
  C  C821  1  0.815000  0.698100  0.814100  1.0  -0.0729
  C  C822  1  0.804600  0.729100  0.804700  1.0  -0.1814
  C  C823  1  0.815270  0.729470  0.770600  1.0  -0.0128
  C  C824  1  0.703800  0.760900  0.750100  1.0  0.015
  C  C825  1  0.707000  0.779600  0.719800  1.0  0.0323
  C  C826  1  0.676100  0.749300  0.673200  1.0  0.0861
  C  C827  1  0.698600  0.631800  0.725200  1.0  0.0088
  C  C828  1  0.706400  0.607500  0.695700  1.0  -0.169
  C  C829  1  0.683000  0.606800  0.655000  1.0  -0.0156
  C  C830  1  0.566800  0.638170  0.705370  1.0  -0.0653
  C  C831  1  0.525400  0.612500  0.665700  1.0  -0.1393
  C  C832  1  0.535100  0.607800  0.630900  1.0  -0.0181
  C  C833  1  0.926370  0.846870  0.426700  1.0  0.1358
  C  C834  1  0.994330  0.920200  0.504130  1.0  0.1101
  C  C835  1  0.825130  0.700920  0.493330  1.0  0.2087
  C  C836  1  0.856020  0.843900  0.607400  1.0  0.1928
  C  C837  1  0.939500  0.843570  0.503670  1.0  0.1501
  C  C838  1  0.985650  0.815320  0.623670  1.0  0.1429
  C  C839  1  0.148700  0.937700  0.725600  1.0  -0.0701
  C  C840  1  0.120100  0.955300  0.724400  1.0  -0.1976
  C  C841  1  0.076230  0.918420  0.705790  1.0  -0.0328
  C  C842  1  0.147600  0.825100  0.761500  1.0  -0.0649
  C  C843  1  0.118900  0.800300  0.772200  1.0  -0.1813
  C  C844  1  0.075800  0.792900  0.743500  1.0  0.0134
  C  C845  1  0.116000  0.801900  0.616900  1.0  -0.076
  C  C846  1  0.075600  0.770900  0.575500  1.0  -0.1779
  C  C847  1  0.041130  0.770530  0.585800  1.0  -0.0131
  C  C848  1  0.989200  0.739100  0.442900  1.0  0.0214
  C  C849  1  0.940200  0.720400  0.427400  1.0  0.0333
  C  C850  1  0.923900  0.750700  0.426800  1.0  0.0868
  C  C851  1  0.093400  0.868200  0.566800  1.0  0.0076
  C  C852  1  0.088200  0.892500  0.598900  1.0  -0.1681
  C  C853  1  0.048200  0.893200  0.576200  1.0  -0.0148
  C  C854  1  0.067200  0.861830  0.428630  1.0  -0.066
  C  C855  1  0.053200  0.887500  0.412900  1.0  -0.1413
  C  C856  1  0.023100  0.892200  0.427300  1.0  -0.019
  C  C857  1  0.420170  0.073300  0.499670  1.0  0.134
  C  C858  1  0.416070  0.995870  0.490200  1.0  0.1128
  C  C859  1  0.207590  0.006670  0.331800  1.0  0.21
  C  C860  1  0.236500  0.892600  0.248620  1.0  0.192
  C  C861  1  0.339900  0.996330  0.435830  1.0  0.1501
  C  C862  1  0.191650  0.876330  0.361980  1.0  0.1382
  C  C863  1  0.212100  0.774400  0.423100  1.0  -0.0754
  C  C864  1  0.230900  0.775600  0.395700  1.0  -0.2006
  C  C865  1  0.212630  0.794210  0.370440  1.0  -0.0295
  C  C866  1  0.063600  0.738500  0.386100  1.0  -0.0667
  C  C867  1  0.028100  0.727800  0.346700  1.0  -0.181
  C  C868  1  0.049400  0.756500  0.332300  1.0  0.0181
  C  C869  1  0.185000  0.883100  0.499100  1.0  -0.0747
  C  C870  1  0.195400  0.924500  0.500100  1.0  -0.1794
  C  C871  1  0.184730  0.914200  0.455330  1.0  -0.0133
  C  C872  1  0.296200  0.057100  0.546300  1.0  0.0148
  C  C873  1  0.293000  0.072600  0.512800  1.0  0.0286
  C  C874  1  0.323900  0.073200  0.497100  1.0  0.0864
  C  C875  1  0.301400  0.933200  0.526600  1.0  0.007
  C  C876  1  0.293600  0.901100  0.489300  1.0  -0.1655
  C  C877  1  0.317000  0.923800  0.472000  1.0  -0.0137
  C  C878  1  0.433200  0.071370  0.638570  1.0  -0.0627
  C  C879  1  0.474600  0.087100  0.640300  1.0  -0.1383
  C  C880  1  0.464900  0.072700  0.595800  1.0  -0.0172
  C  C881  1  0.073630  0.920500  0.000330  1.0  0.1383
  C  C882  1  0.005670  0.925870  0.009800  1.0  0.1135
  C  C883  1  0.174870  0.875790  0.168200  1.0  0.2134
  C  C884  1  0.143980  0.987880  0.251380  1.0  0.1939
  C  C885  1  0.060500  0.904070  0.064170  1.0  0.1497
  C  C886  1  0.014350  0.829670  0.138020  1.0  0.1391
  C  C887  1  0.851300  0.789000  0.076900  1.0  -0.0712
  C  C888  1  0.879900  0.835200  0.104300  1.0  -0.2053
  C  C889  1  0.923770  0.842190  0.129560  1.0  -0.0318
  C  C890  1  0.852400  0.677500  0.113900  1.0  -0.0655
  C  C891  1  0.881100  0.681400  0.153300  1.0  -0.1804
  C  C892  1  0.924200  0.717100  0.167700  1.0  0.0137
  C  C893  1  0.884000  0.685900  0.000900  1.0  -0.077
  C  C894  1  0.924400  0.695300  0.999900  1.0  -0.1775
  C  C895  1  0.958870  0.729400  0.044670  1.0  -0.008
  C  C896  1  0.010800  0.749900  0.953700  1.0  0.0159
  C  C897  1  0.059800  0.780200  0.987200  1.0  0.034
  C  C898  1  0.076100  0.826800  0.002900  1.0  0.0876
  C  C899  1  0.906600  0.774800  0.973400  1.0  0.0017
  C  C900  1  0.911800  0.804300  0.010700  1.0  -0.1649
  C  C901  1  0.951800  0.845000  0.028000  1.0  -0.0117
  C  C902  1  0.932800  0.794630  0.861430  1.0  -0.0663
  C  C903  1  0.946800  0.834300  0.859700  1.0  -0.1416
  C  C904  1  0.976900  0.869100  0.904200  1.0  -0.0198
  C  C905  1  0.079830  0.579500  0.653130  1.0  0.1341
  C  C906  1  0.083930  0.574130  0.579800  1.0  0.1121
  C  C907  1  0.292410  0.624210  0.799080  1.0  0.2092
  C  C908  1  0.263500  0.512120  0.656100  1.0  0.1923
  C  C909  1  0.160100  0.595930  0.656430  1.0  0.1523
  C  C910  1  0.308350  0.670330  0.684680  1.0  0.1376
  C  C911  1  0.287900  0.711000  0.562300  1.0  -0.0699
  C  C912  1  0.269100  0.664800  0.544700  1.0  -0.2013
  C  C913  1  0.287370  0.657810  0.581580  1.0  -0.0338
  C  C914  1  0.436400  0.822500  0.674900  1.0  -0.064
  C  C915  1  0.471900  0.818600  0.699700  1.0  -0.1752
  C  C916  1  0.450600  0.782900  0.707100  1.0  0.0181
  C  C917  1  0.315000  0.814100  0.698100  1.0  -0.0798
  C  C918  1  0.304600  0.804700  0.729100  1.0  -0.179
  C  C919  1  0.315270  0.770600  0.729470  1.0  -0.0067
  C  C920  1  0.203800  0.750100  0.760900  1.0  0.0152
  C  C921  1  0.207000  0.719800  0.779600  1.0  0.028
  C  C922  1  0.176100  0.673200  0.749300  1.0  0.0883
  C  C923  1  0.198600  0.725200  0.631800  1.0  0.008
  C  C924  1  0.206400  0.695700  0.607500  1.0  -0.1638
  C  C925  1  0.183000  0.655000  0.606800  1.0  -0.0166
  C  C926  1  0.066800  0.705370  0.638170  1.0  -0.0675
  C  C927  1  0.025400  0.665700  0.612500  1.0  -0.14
  C  C928  1  0.035100  0.630900  0.607800  1.0  -0.0212
  C  C929  1  0.426370  0.426700  0.846870  1.0  0.1347
  C  C930  1  0.494330  0.504130  0.920200  1.0  0.1115
  C  C931  1  0.325130  0.493330  0.700920  1.0  0.2059
  C  C932  1  0.356020  0.607400  0.843900  1.0  0.1953
  C  C933  1  0.439500  0.503670  0.843570  1.0  0.1505
  C  C934  1  0.485650  0.623670  0.815320  1.0  0.1428
  C  C935  1  0.648700  0.725600  0.937700  1.0  -0.0755
  C  C936  1  0.620100  0.724400  0.955300  1.0  -0.2002
  C  C937  1  0.576230  0.705790  0.918420  1.0  -0.0348
  C  C938  1  0.647600  0.761500  0.825100  1.0  -0.0642
  C  C939  1  0.618900  0.772200  0.800300  1.0  -0.1757
  C  C940  1  0.575800  0.743500  0.792900  1.0  0.0152
  C  C941  1  0.616000  0.616900  0.801900  1.0  -0.0752
  C  C942  1  0.575600  0.575500  0.770900  1.0  -0.1815
  C  C943  1  0.541130  0.585800  0.770530  1.0  -0.0103
  C  C944  1  0.489200  0.442900  0.739100  1.0  0.0103
  C  C945  1  0.440200  0.427400  0.720400  1.0  0.0261
  C  C946  1  0.423900  0.426800  0.750700  1.0  0.0846
  C  C947  1  0.593400  0.566800  0.868200  1.0  0.0089
  C  C948  1  0.588200  0.598900  0.892500  1.0  -0.1672
  C  C949  1  0.548200  0.576200  0.893200  1.0  -0.0129
  C  C950  1  0.567200  0.428630  0.861830  1.0  -0.0624
  C  C951  1  0.553200  0.412900  0.887500  1.0  -0.1403
  C  C952  1  0.523100  0.427300  0.892200  1.0  -0.0191
  C  C953  1  0.920500  0.500330  0.573630  1.0  0.135
  C  C954  1  0.925870  0.509800  0.505670  1.0  0.1124
  C  C955  1  0.875790  0.668200  0.674870  1.0  0.2082
  C  C956  1  0.987880  0.751380  0.643980  1.0  0.1947
  C  C957  1  0.904070  0.564170  0.560500  1.0  0.1489
  C  C958  1  0.829670  0.638020  0.514350  1.0  0.1383
  C  C959  1  0.789000  0.576900  0.351300  1.0  -0.0702
  C  C960  1  0.835200  0.604300  0.379900  1.0  -0.1976
  C  C961  1  0.842190  0.629560  0.423770  1.0  -0.0334
  C  C962  1  0.677500  0.613900  0.352400  1.0  -0.0642
  C  C963  1  0.681400  0.653300  0.381100  1.0  -0.1779
  C  C964  1  0.717100  0.667700  0.424200  1.0  0.0199
  C  C965  1  0.685900  0.500900  0.384000  1.0  -0.0773
  C  C966  1  0.695300  0.499900  0.424400  1.0  -0.1778
  C  C967  1  0.729400  0.544670  0.458870  1.0  -0.0077
  C  C968  1  0.749900  0.453700  0.510800  1.0  0.0193
  C  C969  1  0.780200  0.487200  0.559800  1.0  0.0208
  C  C970  1  0.826800  0.502900  0.576100  1.0  0.087
  C  C971  1  0.774800  0.473400  0.406600  1.0  0.006
  C  C972  1  0.804300  0.510700  0.411800  1.0  -0.1631
  C  C973  1  0.845000  0.528000  0.451800  1.0  -0.0139
  C  C974  1  0.794630  0.361430  0.432800  1.0  -0.0664
  C  C975  1  0.834300  0.359700  0.446800  1.0  -0.143
  C  C976  1  0.869100  0.404200  0.476900  1.0  -0.0184
  C  C977  1  0.073300  0.999670  0.920170  1.0  0.1385
  C  C978  1  0.995870  0.990200  0.916070  1.0  0.1124
  C  C979  1  0.006670  0.831800  0.707590  1.0  0.2072
  C  C980  1  0.892600  0.748620  0.736500  1.0  0.1956
  C  C981  1  0.996330  0.935830  0.839900  1.0  0.152
  C  C982  1  0.876330  0.861980  0.691650  1.0  0.1383
  C  C983  1  0.774400  0.923100  0.712100  1.0  -0.0721
  C  C984  1  0.775600  0.895700  0.730900  1.0  -0.1966
  C  C985  1  0.794210  0.870440  0.712630  1.0  -0.0343
  C  C986  1  0.738500  0.886100  0.563600  1.0  -0.0629
  C  C987  1  0.727800  0.846700  0.528100  1.0  -0.1811
  C  C988  1  0.756500  0.832300  0.549400  1.0  0.018
  C  C989  1  0.883100  0.999100  0.685000  1.0  -0.0765
  C  C990  1  0.924500  0.000100  0.695400  1.0  -0.1805
  C  C991  1  0.914200  0.955330  0.684730  1.0  -0.0078
  C  C992  1  0.057100  0.046300  0.796200  1.0  0.0113
  C  C993  1  0.072600  0.012800  0.793000  1.0  0.0255
  C  C994  1  0.073200  0.997100  0.823900  1.0  0.0869
  C  C995  1  0.933200  0.026600  0.801400  1.0  0.005
  C  C996  1  0.901100  0.989300  0.793600  1.0  -0.1685
  C  C997  1  0.923800  0.972000  0.817000  1.0  -0.0137
  C  C998  1  0.071370  0.138570  0.933200  1.0  -0.0634
  C  C999  1  0.087100  0.140300  0.974600  1.0  -0.1412
  C  C1000  1  0.072700  0.095800  0.964900  1.0  -0.0196
  C  C1001  1  0.426700  0.346870  0.926370  1.0  0.1333
  C  C1002  1  0.504130  0.420200  0.994330  1.0  0.1101
  C  C1003  1  0.493330  0.200920  0.825130  1.0  0.2077
  C  C1004  1  0.607400  0.343900  0.856020  1.0  0.1903
  C  C1005  1  0.503670  0.343570  0.939500  1.0  0.1502
  C  C1006  1  0.623670  0.315320  0.985650  1.0  0.1408
  C  C1007  1  0.725600  0.437700  0.148700  1.0  -0.0699
  C  C1008  1  0.724400  0.455300  0.120100  1.0  -0.1972
  C  C1009  1  0.705790  0.418420  0.076230  1.0  -0.0325
  C  C1010  1  0.761500  0.325100  0.147600  1.0  -0.0668
  C  C1011  1  0.772200  0.300300  0.118900  1.0  -0.177
  C  C1012  1  0.743500  0.292900  0.075800  1.0  0.0147
  C  C1013  1  0.616900  0.301900  0.116000  1.0  -0.0732
  C  C1014  1  0.575500  0.270900  0.075600  1.0  -0.1807
  C  C1015  1  0.585800  0.270530  0.041130  1.0  -0.0136
  C  C1016  1  0.442900  0.239100  0.989200  1.0  0.0151
  C  C1017  1  0.427400  0.220400  0.940200  1.0  0.034
  C  C1018  1  0.426800  0.250700  0.923900  1.0  0.0858
  C  C1019  1  0.566800  0.368200  0.093400  1.0  0.0094
  C  C1020  1  0.598900  0.392500  0.088200  1.0  -0.1683
  C  C1021  1  0.576200  0.393200  0.048200  1.0  -0.0155
  C  C1022  1  0.428630  0.361830  0.067200  1.0  -0.0647
  C  C1023  1  0.412900  0.387500  0.053200  1.0  -0.14
  C  C1024  1  0.427300  0.392200  0.023100  1.0  -0.0176
  C  C1025  1  0.579500  0.153130  0.579830  1.0  0.1354
  C  C1026  1  0.574130  0.079800  0.583930  1.0  0.1111
  C  C1027  1  0.624210  0.299080  0.792410  1.0  0.2056
  C  C1028  1  0.512120  0.156100  0.763500  1.0  0.1922
  C  C1029  1  0.595930  0.156430  0.660100  1.0  0.1505
  C  C1030  1  0.670330  0.184680  0.808350  1.0  0.1425
  C  C1031  1  0.711000  0.062300  0.787900  1.0  -0.0713
  C  C1032  1  0.664800  0.044700  0.769100  1.0  -0.2013
  C  C1033  1  0.657810  0.081580  0.787370  1.0  -0.0331
  C  C1034  1  0.822500  0.174900  0.936400  1.0  -0.0657
  C  C1035  1  0.818600  0.199700  0.971900  1.0  -0.1817
  C  C1036  1  0.782900  0.207100  0.950600  1.0  0.0128
  C  C1037  1  0.814100  0.198100  0.815000  1.0  -0.076
  C  C1038  1  0.804700  0.229100  0.804600  1.0  -0.1765
  C  C1039  1  0.770600  0.229470  0.815270  1.0  -0.0125
  C  C1040  1  0.750100  0.260900  0.703800  1.0  0.0202
  C  C1041  1  0.719800  0.279600  0.707000  1.0  0.0328
  C  C1042  1  0.673200  0.249300  0.676100  1.0  0.0864
  C  C1043  1  0.725200  0.131800  0.698600  1.0  0.0062
  C  C1044  1  0.695700  0.107500  0.706400  1.0  -0.1686
  C  C1045  1  0.655000  0.106800  0.683000  1.0  -0.0145
  C  C1046  1  0.705370  0.138170  0.566800  1.0  -0.0668
  C  C1047  1  0.665700  0.112500  0.525400  1.0  -0.1415
  C  C1048  1  0.630900  0.107800  0.535100  1.0  -0.0194
  C  C1049  1  0.346870  0.426370  0.926700  1.0  0.1353
  C  C1050  1  0.420200  0.494330  0.004130  1.0  0.1163
  C  C1051  1  0.200920  0.325130  0.993330  1.0  0.2111
  C  C1052  1  0.343900  0.356020  0.107400  1.0  0.1963
  C  C1053  1  0.343570  0.439500  0.003670  1.0  0.151
  C  C1054  1  0.315320  0.485650  0.123670  1.0  0.137
  C  C1055  1  0.437700  0.648700  0.225600  1.0  -0.068
  C  C1056  1  0.455300  0.620100  0.224400  1.0  -0.1993
  C  C1057  1  0.418420  0.576230  0.205790  1.0  -0.0355
  C  C1058  1  0.325100  0.647600  0.261500  1.0  -0.0656
  C  C1059  1  0.300300  0.618900  0.272200  1.0  -0.1839
  C  C1060  1  0.292900  0.575800  0.243500  1.0  0.0133
  C  C1061  1  0.301900  0.616000  0.116900  1.0  -0.0779
  C  C1062  1  0.270900  0.575600  0.075500  1.0  -0.1756
  C  C1063  1  0.270530  0.541130  0.085800  1.0  -0.0115
  C  C1064  1  0.239100  0.489200  0.942900  1.0  0.0218
  C  C1065  1  0.220400  0.440200  0.927400  1.0  0.026
  C  C1066  1  0.250700  0.423900  0.926800  1.0  0.0867
  C  C1067  1  0.368200  0.593400  0.066800  1.0  0.0059
  C  C1068  1  0.392500  0.588200  0.098900  1.0  -0.1643
  C  C1069  1  0.393200  0.548200  0.076200  1.0  -0.0118
  C  C1070  1  0.361830  0.567200  0.928630  1.0  -0.0671
  C  C1071  1  0.387500  0.553200  0.912900  1.0  -0.1407
  C  C1072  1  0.392200  0.523100  0.927300  1.0  -0.0192
  C  C1073  1  0.153130  0.079830  0.079500  1.0  0.1368
  C  C1074  1  0.079800  0.083930  0.074130  1.0  0.1168
  C  C1075  1  0.299080  0.292410  0.124210  1.0  0.211
  C  C1076  1  0.156100  0.263500  0.012120  1.0  0.1926
  C  C1077  1  0.156430  0.160100  0.095930  1.0  0.1498
  C  C1078  1  0.184680  0.308350  0.170330  1.0  0.1386
  C  C1079  1  0.062300  0.287900  0.211000  1.0  -0.0707
  C  C1080  1  0.044700  0.269100  0.164800  1.0  -0.2035
  C  C1081  1  0.081580  0.287370  0.157810  1.0  -0.027
  C  C1082  1  0.174900  0.436400  0.322500  1.0  -0.0639
  C  C1083  1  0.199700  0.471900  0.318600  1.0  -0.1772
  C  C1084  1  0.207100  0.450600  0.282900  1.0  0.016
  C  C1085  1  0.198100  0.315000  0.314100  1.0  -0.0751
  C  C1086  1  0.229100  0.304600  0.304700  1.0  -0.178
  C  C1087  1  0.229470  0.315270  0.270600  1.0  -0.0094
  C  C1088  1  0.260900  0.203800  0.250100  1.0  0.012
  C  C1089  1  0.279600  0.207000  0.219800  1.0  0.0341
  C  C1090  1  0.249300  0.176100  0.173200  1.0  0.0863
  C  C1091  1  0.131800  0.198600  0.225200  1.0  0.0085
  C  C1092  1  0.107500  0.206400  0.195700  1.0  -0.1662
  C  C1093  1  0.106800  0.183000  0.155000  1.0  -0.0129
  C  C1094  1  0.138170  0.066800  0.205370  1.0  -0.0647
  C  C1095  1  0.112500  0.025400  0.165700  1.0  -0.1409
  C  C1096  1  0.107800  0.035100  0.130900  1.0  -0.0206
  C  C1097  1  0.500330  0.073630  0.420500  1.0  0.1336
  C  C1098  1  0.509800  0.005670  0.425870  1.0  0.1142
  C  C1099  1  0.668200  0.174870  0.375790  1.0  0.2065
  C  C1100  1  0.751380  0.143980  0.487880  1.0  0.1952
  C  C1101  1  0.564170  0.060500  0.404070  1.0  0.1487
  C  C1102  1  0.638020  0.014350  0.329670  1.0  0.1371
  C  C1103  1  0.576900  0.851300  0.289000  1.0  -0.0714
  C  C1104  1  0.604300  0.879900  0.335200  1.0  -0.1985
  C  C1105  1  0.629560  0.923770  0.342190  1.0  -0.0349
  C  C1106  1  0.613900  0.852400  0.177500  1.0  -0.064
  C  C1107  1  0.653300  0.881100  0.181400  1.0  -0.1772
  C  C1108  1  0.667700  0.924200  0.217100  1.0  0.0145
  C  C1109  1  0.500900  0.884000  0.185900  1.0  -0.0825
  C  C1110  1  0.499900  0.924400  0.195300  1.0  -0.1781
  C  C1111  1  0.544670  0.958870  0.229400  1.0  -0.0102
  C  C1112  1  0.453700  0.010800  0.249900  1.0  0.0101
  C  C1113  1  0.487200  0.059800  0.280200  1.0  0.027
  C  C1114  1  0.502900  0.076100  0.326800  1.0  0.0861
  C  C1115  1  0.473400  0.906600  0.274800  1.0  0.0088
  C  C1116  1  0.510700  0.911800  0.304300  1.0  -0.1693
  C  C1117  1  0.528000  0.951800  0.345000  1.0  -0.0123
  C  C1118  1  0.361430  0.932800  0.294630  1.0  -0.0641
  C  C1119  1  0.359700  0.946800  0.334300  1.0  -0.1459
  C  C1120  1  0.404200  0.976900  0.369100  1.0  -0.0196
  C  C1121  1  0.999670  0.420170  0.573300  1.0  0.1334
  C  C1122  1  0.990200  0.416070  0.495870  1.0  0.1118
  C  C1123  1  0.831800  0.207590  0.506670  1.0  0.2075
  C  C1124  1  0.748620  0.236500  0.392600  1.0  0.1946
  C  C1125  1  0.935830  0.339900  0.496330  1.0  0.1524
  C  C1126  1  0.861980  0.191650  0.376330  1.0  0.1394
  C  C1127  1  0.923100  0.212100  0.274400  1.0  -0.0683
  C  C1128  1  0.895700  0.230900  0.275600  1.0  -0.2009
  C  C1129  1  0.870440  0.212630  0.294210  1.0  -0.0325
  C  C1130  1  0.886100  0.063600  0.238500  1.0  -0.0653
  C  C1131  1  0.846700  0.028100  0.227800  1.0  -0.1775
  C  C1132  1  0.832300  0.049400  0.256500  1.0  0.0134
  C  C1133  1  0.999100  0.185000  0.383100  1.0  -0.0745
  C  C1134  1  0.000100  0.195400  0.424500  1.0  -0.1778
  C  C1135  1  0.955330  0.184730  0.414200  1.0  -0.0084
  C  C1136  1  0.046300  0.296200  0.557100  1.0  0.0178
  C  C1137  1  0.012800  0.293000  0.572600  1.0  0.0258
  C  C1138  1  0.997100  0.323900  0.573200  1.0  0.0872
  C  C1139  1  0.026600  0.301400  0.433200  1.0  0.0087
  C  C1140  1  0.989300  0.293600  0.401100  1.0  -0.1643
  C  C1141  1  0.972000  0.317000  0.423800  1.0  -0.0126
  C  C1142  1  0.138570  0.433200  0.571370  1.0  -0.0652
  C  C1143  1  0.140300  0.474600  0.587100  1.0  -0.145
  C  C1144  1  0.095800  0.464900  0.572700  1.0  -0.0211
  N  N1145  1  0.446650  0.604200  0.500250  1.0  -0.421
  N  N1146  1  0.453780  0.495660  0.512000  1.0  -0.4481
  N  N1147  1  0.386570  0.647740  0.658510  1.0  -0.3968
  N  N1148  1  0.460640  0.627900  0.714300  1.0  -0.4201
  N  N1149  1  0.415460  0.582370  0.601270  1.0  -0.4384
  N  N1150  1  0.358490  0.544500  0.642270  1.0  -0.4376
  N  N1151  1  0.268760  0.375860  0.585640  1.0  -0.065
  N  N1152  1  0.301670  0.421380  0.619050  1.0  -0.3456
  N  N1153  1  0.207850  0.376750  0.604540  1.0  -0.0638
  N  N1154  1  0.233000  0.421960  0.639220  1.0  -0.2932
  N  N1155  1  0.212620  0.394320  0.543560  1.0  0.032
  N  N1156  1  0.239200  0.440670  0.570910  1.0  -0.2274
  N  N1157  1  0.284480  0.502230  0.454790  1.0  -0.1118
  N  N1158  1  0.329470  0.537310  0.486080  1.0  -0.3524
  N  N1159  1  0.293670  0.440410  0.465840  1.0  -0.0077
  N  N1160  1  0.338330  0.468900  0.500330  1.0  -0.2983
  N  N1161  1  0.305440  0.455010  0.405330  1.0  0.0469
  N  N1162  1  0.351470  0.483040  0.432830  1.0  -0.3361
  N  N1163  1  0.603950  0.946400  0.999750  1.0  -0.4153
  N  N1164  1  0.483660  0.941780  0.988000  1.0  -0.4634
  N  N1165  1  0.489230  0.728060  0.841490  1.0  -0.3988
  N  N1166  1  0.413600  0.746340  0.785700  1.0  -0.419
  N  N1167  1  0.481100  0.814190  0.898730  1.0  -0.4335
  N  N1168  1  0.402230  0.716220  0.857730  1.0  -0.4367
  N  N1169  1  0.290220  0.683120  0.914360  1.0  -0.0681
  N  N1170  1  0.302330  0.682620  0.880950  1.0  -0.3461
  N  N1171  1  0.272210  0.603310  0.895460  1.0  -0.0661
  N  N1172  1  0.282740  0.593780  0.860780  1.0  -0.2925
  N  N1173  1  0.350760  0.669060  0.956440  1.0  0.0323
  N  N1174  1  0.369760  0.668290  0.929090  1.0  -0.2237
  N  N1175  1  0.547440  0.829690  0.045210  1.0  -0.1127
  N  N1176  1  0.551230  0.843390  0.013920  1.0  -0.3502
  N  N1177  1  0.474570  0.827830  0.034160  1.0  -0.0099
  N  N1178  1  0.468570  0.838000  0.999670  1.0  -0.2977
  N  N1179  1  0.549680  0.900110  0.094670  1.0  0.046
  N  N1180  1  0.550210  0.918640  0.067170  1.0  -0.3384
  N  N1181  1  0.896050  0.895800  0.342450  1.0  -0.4281
  N  N1182  1  0.016340  0.004340  0.458120  1.0  -0.4685
  N  N1183  1  0.010770  0.852260  0.238830  1.0  -0.4005
  N  N1184  1  0.086400  0.872100  0.332740  1.0  -0.4194
  N  N1185  1  0.018900  0.917630  0.333090  1.0  -0.4347
  N  N1186  1  0.097770  0.955500  0.313990  1.0  -0.437
  N  N1187  1  0.209780  0.124140  0.392900  1.0  -0.0661
  N  N1188  1  0.197670  0.078620  0.380290  1.0  -0.3452
  N  N1189  1  0.227790  0.123250  0.331100  1.0  -0.0634
  N  N1190  1  0.217260  0.078040  0.311040  1.0  -0.2941
  N  N1191  1  0.149240  0.105680  0.318300  1.0  0.0291
  N  N1192  1  0.130240  0.059330  0.298530  1.0  -0.2251
  N  N1193  1  0.952560  0.997770  0.282250  1.0  -0.1119
  N  N1194  1  0.948770  0.962690  0.292160  1.0  -0.3527
  N  N1195  1  0.025430  0.059590  0.353260  1.0  -0.0076
  N  N1196  1  0.031430  0.031100  0.369430  1.0  -0.297
  N  N1197  1  0.950320  0.044990  0.350430  1.0  0.0475
  N  N1198  1  0.949790  0.016960  0.368430  1.0  -0.3347
  N  N1199  1  0.053350  0.553600  0.157550  1.0  -0.4328
  N  N1200  1  0.046220  0.558220  0.041880  1.0  -0.4563
  N  N1201  1  0.113430  0.771940  0.261170  1.0  -0.4
  N  N1202  1  0.039360  0.753660  0.167260  1.0  -0.4189
  N  N1203  1  0.084540  0.685810  0.166910  1.0  -0.4339
  N  N1204  1  0.141510  0.783780  0.186010  1.0  -0.4345
  N  N1205  1  0.231240  0.816880  0.107100  1.0  -0.0632
  N  N1206  1  0.198330  0.817380  0.119710  1.0  -0.3475
  N  N1207  1  0.292150  0.896690  0.168900  1.0  -0.0666
  N  N1208  1  0.267000  0.906220  0.188960  1.0  -0.2941
  N  N1209  1  0.287380  0.830940  0.181700  1.0  0.0315
  N  N1210  1  0.260800  0.831710  0.201470  1.0  -0.2273
  N  N1211  1  0.215520  0.670310  0.217750  1.0  -0.1087
  N  N1212  1  0.170530  0.656610  0.207840  1.0  -0.3497
  N  N1213  1  0.206330  0.672170  0.146740  1.0  -0.0097
  N  N1214  1  0.161670  0.662000  0.130570  1.0  -0.2996
  N  N1215  1  0.194560  0.599890  0.149570  1.0  0.0465
  N  N1216  1  0.148530  0.581360  0.131570  1.0  -0.3382
  N  N1217  1  0.842450  0.896050  0.395800  1.0  -0.4303
  N  N1218  1  0.958120  0.016340  0.504340  1.0  -0.4623
  N  N1219  1  0.738830  0.010770  0.352260  1.0  -0.3968
  N  N1220  1  0.832740  0.086400  0.372100  1.0  -0.4205
  N  N1221  1  0.833090  0.018900  0.417630  1.0  -0.4328
  N  N1222  1  0.813990  0.097770  0.455500  1.0  -0.4363
  N  N1223  1  0.892900  0.209780  0.624140  1.0  -0.0675
  N  N1224  1  0.880290  0.197670  0.578620  1.0  -0.3463
  N  N1225  1  0.831100  0.227790  0.623250  1.0  -0.0644
  N  N1226  1  0.811040  0.217260  0.578040  1.0  -0.2941
  N  N1227  1  0.818300  0.149240  0.605680  1.0  0.033
  N  N1228  1  0.798530  0.130240  0.559330  1.0  -0.224
  N  N1229  1  0.782250  0.952560  0.497770  1.0  -0.1135
  N  N1230  1  0.792160  0.948770  0.462690  1.0  -0.3492
  N  N1231  1  0.853260  0.025430  0.559590  1.0  -0.0093
  N  N1232  1  0.869430  0.031430  0.531100  1.0  -0.2993
  N  N1233  1  0.850430  0.950320  0.544990  1.0  0.0467
  N  N1234  1  0.868430  0.949790  0.516960  1.0  -0.336
  N  N1235  1  0.657550  0.053350  0.053600  1.0  -0.4279
  N  N1236  1  0.541880  0.046220  0.058220  1.0  -0.4512
  N  N1237  1  0.761170  0.113430  0.271940  1.0  -0.3965
  N  N1238  1  0.667260  0.039360  0.253660  1.0  -0.4204
  N  N1239  1  0.666910  0.084540  0.185810  1.0  -0.4331
  N  N1240  1  0.686010  0.141510  0.283780  1.0  -0.4356
  N  N1241  1  0.607100  0.231240  0.316880  1.0  -0.0696
  N  N1242  1  0.619710  0.198330  0.317380  1.0  -0.3458
  N  N1243  1  0.668900  0.292150  0.396690  1.0  -0.0625
  N  N1244  1  0.688960  0.267000  0.406220  1.0  -0.2919
  N  N1245  1  0.681700  0.287380  0.330940  1.0  0.0323
  N  N1246  1  0.701470  0.260800  0.331710  1.0  -0.2264
  N  N1247  1  0.717750  0.215520  0.170310  1.0  -0.113
  N  N1248  1  0.707840  0.170530  0.156610  1.0  -0.3531
  N  N1249  1  0.646740  0.206330  0.172170  1.0  -0.0076
  N  N1250  1  0.630570  0.161670  0.162000  1.0  -0.2999
  N  N1251  1  0.649570  0.194560  0.099890  1.0  0.0481
  N  N1252  1  0.631570  0.148530  0.081360  1.0  -0.3371
  N  N1253  1  0.000250  0.446650  0.104200  1.0  -0.4215
  N  N1254  1  0.012000  0.453780  0.995660  1.0  -0.4562
  N  N1255  1  0.158510  0.386570  0.147740  1.0  -0.3984
  N  N1256  1  0.214300  0.460640  0.127900  1.0  -0.4194
  N  N1257  1  0.101270  0.415460  0.082370  1.0  -0.4334
  N  N1258  1  0.142270  0.358490  0.044500  1.0  -0.4373
  N  N1259  1  0.085640  0.268760  0.875860  1.0  -0.0654
  N  N1260  1  0.119050  0.301670  0.921380  1.0  -0.349
  N  N1261  1  0.104540  0.207850  0.876750  1.0  -0.0647
  N  N1262  1  0.139220  0.233000  0.921960  1.0  -0.295
  N  N1263  1  0.043560  0.212620  0.894320  1.0  0.031
  N  N1264  1  0.070910  0.239200  0.940670  1.0  -0.2267
  N  N1265  1  0.954790  0.284480  0.002230  1.0  -0.1069
  N  N1266  1  0.986080  0.329470  0.037310  1.0  -0.3489
  N  N1267  1  0.965840  0.293670  0.940410  1.0  -0.0087
  N  N1268  1  0.000330  0.338330  0.968900  1.0  -0.3003
  N  N1269  1  0.905330  0.305440  0.955010  1.0  0.045
  N  N1270  1  0.932830  0.351470  0.983040  1.0  -0.3362
  N  N1271  1  0.499750  0.603950  0.446400  1.0  -0.4183
  N  N1272  1  0.488000  0.483660  0.441780  1.0  -0.4679
  N  N1273  1  0.341490  0.489230  0.228060  1.0  -0.3977
  N  N1274  1  0.285700  0.413600  0.246340  1.0  -0.4186
  N  N1275  1  0.398730  0.481100  0.314190  1.0  -0.4329
  N  N1276  1  0.357730  0.402230  0.216220  1.0  -0.4369
  N  N1277  1  0.414360  0.290220  0.183120  1.0  -0.0639
  N  N1278  1  0.380950  0.302330  0.182620  1.0  -0.3496
  N  N1279  1  0.395460  0.272210  0.103310  1.0  -0.0645
  N  N1280  1  0.360780  0.282740  0.093780  1.0  -0.2943
  N  N1281  1  0.456440  0.350760  0.169060  1.0  0.0322
  N  N1282  1  0.429090  0.369760  0.168290  1.0  -0.2276
  N  N1283  1  0.545210  0.547440  0.329690  1.0  -0.1114
  N  N1284  1  0.513920  0.551230  0.343390  1.0  -0.3499
  N  N1285  1  0.534160  0.474570  0.327830  1.0  -0.0064
  N  N1286  1  0.499670  0.468570  0.338000  1.0  -0.2995
  N  N1287  1  0.594670  0.549680  0.400110  1.0  0.0479
  N  N1288  1  0.567170  0.550210  0.418640  1.0  -0.3387
  N  N1289  1  0.946400  0.499750  0.103950  1.0  -0.418
  N  N1290  1  0.941780  0.488000  0.983660  1.0  -0.4698
  N  N1291  1  0.728060  0.341490  0.989230  1.0  -0.397
  N  N1292  1  0.746340  0.285700  0.913600  1.0  -0.4226
  N  N1293  1  0.814190  0.398730  0.981100  1.0  -0.4353
  N  N1294  1  0.716220  0.357730  0.902230  1.0  -0.4325
  N  N1295  1  0.683120  0.414360  0.790220  1.0  -0.0634
  N  N1296  1  0.682620  0.380950  0.802330  1.0  -0.3488
  N  N1297  1  0.603310  0.395460  0.772210  1.0  -0.0647
  N  N1298  1  0.593780  0.360780  0.782740  1.0  -0.2939
  N  N1299  1  0.669060  0.456440  0.850760  1.0  0.0302
  N  N1300  1  0.668290  0.429090  0.869760  1.0  -0.2254
  N  N1301  1  0.829690  0.545210  0.047440  1.0  -0.1103
  N  N1302  1  0.843390  0.513920  0.051230  1.0  -0.3492
  N  N1303  1  0.827830  0.534160  0.974570  1.0  -0.0082
  N  N1304  1  0.838000  0.499670  0.968570  1.0  -0.3024
  N  N1305  1  0.900110  0.594670  0.049680  1.0  0.0465
  N  N1306  1  0.918640  0.567170  0.050210  1.0  -0.3373
  N  N1307  1  0.604200  0.000250  0.946650  1.0  -0.4129
  N  N1308  1  0.495660  0.012000  0.953780  1.0  -0.4522
  N  N1309  1  0.647740  0.158510  0.886570  1.0  -0.3983
  N  N1310  1  0.627900  0.214300  0.960640  1.0  -0.4186
  N  N1311  1  0.582370  0.101270  0.915460  1.0  -0.4362
  N  N1312  1  0.544500  0.142270  0.858490  1.0  -0.4332
  N  N1313  1  0.375860  0.085640  0.768760  1.0  -0.0659
  N  N1314  1  0.421380  0.119050  0.801670  1.0  -0.3467
  N  N1315  1  0.376750  0.104540  0.707850  1.0  -0.0661
  N  N1316  1  0.421960  0.139220  0.733000  1.0  -0.2935
  N  N1317  1  0.394320  0.043560  0.712620  1.0  0.0299
  N  N1318  1  0.440670  0.070910  0.739200  1.0  -0.2259
  N  N1319  1  0.502230  0.954790  0.784480  1.0  -0.1124
  N  N1320  1  0.537310  0.986080  0.829470  1.0  -0.3525
  N  N1321  1  0.440410  0.965840  0.793670  1.0  -0.007
  N  N1322  1  0.468900  0.000330  0.838330  1.0  -0.2988
  N  N1323  1  0.455010  0.905330  0.805440  1.0  0.048
  N  N1324  1  0.483040  0.932830  0.851470  1.0  -0.3353
  N  N1325  1  0.553600  0.657550  0.553350  1.0  -0.4291
  N  N1326  1  0.558220  0.541880  0.546220  1.0  -0.4534
  N  N1327  1  0.771940  0.761170  0.613430  1.0  -0.4015
  N  N1328  1  0.753660  0.667260  0.539360  1.0  -0.4184
  N  N1329  1  0.685810  0.666910  0.584540  1.0  -0.4331
  N  N1330  1  0.783780  0.686010  0.641510  1.0  -0.4341
  N  N1331  1  0.816880  0.607100  0.731240  1.0  -0.0636
  N  N1332  1  0.817380  0.619710  0.698330  1.0  -0.3454
  N  N1333  1  0.896690  0.668900  0.792150  1.0  -0.0651
  N  N1334  1  0.906220  0.688960  0.767000  1.0  -0.2905
  N  N1335  1  0.830940  0.681700  0.787380  1.0  0.0332
  N  N1336  1  0.831710  0.701470  0.760800  1.0  -0.2249
  N  N1337  1  0.670310  0.717750  0.715520  1.0  -0.1068
  N  N1338  1  0.656610  0.707840  0.670530  1.0  -0.3502
  N  N1339  1  0.672170  0.646740  0.706330  1.0  -0.0089
  N  N1340  1  0.662000  0.630570  0.661670  1.0  -0.2997
  N  N1341  1  0.599890  0.649570  0.694560  1.0  0.0445
  N  N1342  1  0.581360  0.631570  0.648530  1.0  -0.3366
  N  N1343  1  0.895800  0.842450  0.396050  1.0  -0.4278
  N  N1344  1  0.004340  0.958120  0.516340  1.0  -0.4665
  N  N1345  1  0.852260  0.738830  0.510770  1.0  -0.3998
  N  N1346  1  0.872100  0.832740  0.586400  1.0  -0.4194
  N  N1347  1  0.917630  0.833090  0.518900  1.0  -0.4343
  N  N1348  1  0.955500  0.813990  0.597770  1.0  -0.4341
  N  N1349  1  0.124140  0.892900  0.709780  1.0  -0.064
  N  N1350  1  0.078620  0.880290  0.697670  1.0  -0.3467
  N  N1351  1  0.123250  0.831100  0.727790  1.0  -0.0637
  N  N1352  1  0.078040  0.811040  0.717260  1.0  -0.2954
  N  N1353  1  0.105680  0.818300  0.649240  1.0  0.0341
  N  N1354  1  0.059330  0.798530  0.630240  1.0  -0.2267
  N  N1355  1  0.997770  0.782250  0.452560  1.0  -0.1098
  N  N1356  1  0.962690  0.792160  0.448770  1.0  -0.3508
  N  N1357  1  0.059590  0.853260  0.525430  1.0  -0.0081
  N  N1358  1  0.031100  0.869430  0.531430  1.0  -0.3005
  N  N1359  1  0.044990  0.850430  0.450320  1.0  0.0464
  N  N1360  1  0.016960  0.868430  0.449790  1.0  -0.3378
  N  N1361  1  0.446400  0.103950  0.499750  1.0  -0.4202
  N  N1362  1  0.441780  0.983660  0.488000  1.0  -0.4625
  N  N1363  1  0.228060  0.989230  0.341490  1.0  -0.3966
  N  N1364  1  0.246340  0.913600  0.285700  1.0  -0.4209
  N  N1365  1  0.314190  0.981100  0.398730  1.0  -0.4326
  N  N1366  1  0.216220  0.902230  0.357730  1.0  -0.4403
  N  N1367  1  0.183120  0.790220  0.414360  1.0  -0.0646
  N  N1368  1  0.182620  0.802330  0.380950  1.0  -0.3466
  N  N1369  1  0.103310  0.772210  0.395460  1.0  -0.0642
  N  N1370  1  0.093780  0.782740  0.360780  1.0  -0.2936
  N  N1371  1  0.169060  0.850760  0.456440  1.0  0.0337
  N  N1372  1  0.168290  0.869760  0.429090  1.0  -0.2248
  N  N1373  1  0.329690  0.047440  0.545210  1.0  -0.1139
  N  N1374  1  0.343390  0.051230  0.513920  1.0  -0.3491
  N  N1375  1  0.327830  0.974570  0.534160  1.0  -0.008
  N  N1376  1  0.338000  0.968570  0.499670  1.0  -0.2989
  N  N1377  1  0.400110  0.049680  0.594670  1.0  0.0465
  N  N1378  1  0.418640  0.050210  0.567170  1.0  -0.3378
  N  N1379  1  0.104200  0.946650  0.000250  1.0  -0.4163
  N  N1380  1  0.995660  0.953780  0.012000  1.0  -0.4508
  N  N1381  1  0.147740  0.886570  0.158510  1.0  -0.3966
  N  N1382  1  0.127900  0.960640  0.214300  1.0  -0.4199
  N  N1383  1  0.082370  0.915460  0.101270  1.0  -0.4332
  N  N1384  1  0.044500  0.858490  0.142270  1.0  -0.4394
  N  N1385  1  0.875860  0.768760  0.085640  1.0  -0.0691
  N  N1386  1  0.921380  0.801670  0.119050  1.0  -0.3459
  N  N1387  1  0.876750  0.707850  0.104540  1.0  -0.0623
  N  N1388  1  0.921960  0.733000  0.139220  1.0  -0.2936
  N  N1389  1  0.894320  0.712620  0.043560  1.0  0.0317
  N  N1390  1  0.940670  0.739200  0.070910  1.0  -0.2268
  N  N1391  1  0.002230  0.784480  0.954790  1.0  -0.1115
  N  N1392  1  0.037310  0.829470  0.986080  1.0  -0.3524
  N  N1393  1  0.940410  0.793670  0.965840  1.0  -0.0075
  N  N1394  1  0.968900  0.838330  0.000330  1.0  -0.3002
  N  N1395  1  0.955010  0.805440  0.905330  1.0  0.0475
  N  N1396  1  0.983040  0.851470  0.932830  1.0  -0.3367
  N  N1397  1  0.053600  0.553350  0.657550  1.0  -0.433
  N  N1398  1  0.058220  0.546220  0.541880  1.0  -0.4584
  N  N1399  1  0.271940  0.613430  0.761170  1.0  -0.3987
  N  N1400  1  0.253660  0.539360  0.667260  1.0  -0.4199
  N  N1401  1  0.185810  0.584540  0.666910  1.0  -0.4329
  N  N1402  1  0.283780  0.641510  0.686010  1.0  -0.4382
  N  N1403  1  0.316880  0.731240  0.607100  1.0  -0.0649
  N  N1404  1  0.317380  0.698330  0.619710  1.0  -0.3484
  N  N1405  1  0.396690  0.792150  0.668900  1.0  -0.0653
  N  N1406  1  0.406220  0.767000  0.688960  1.0  -0.2949
  N  N1407  1  0.330940  0.787380  0.681700  1.0  0.0312
  N  N1408  1  0.331710  0.760800  0.701470  1.0  -0.2253
  N  N1409  1  0.170310  0.715520  0.717750  1.0  -0.1075
  N  N1410  1  0.156610  0.670530  0.707840  1.0  -0.349
  N  N1411  1  0.172170  0.706330  0.646740  1.0  -0.0085
  N  N1412  1  0.162000  0.661670  0.630570  1.0  -0.3015
  N  N1413  1  0.099890  0.694560  0.649570  1.0  0.0455
  N  N1414  1  0.081360  0.648530  0.631570  1.0  -0.3364
  N  N1415  1  0.395800  0.396050  0.842450  1.0  -0.4284
  N  N1416  1  0.504340  0.516340  0.958120  1.0  -0.4684
  N  N1417  1  0.352260  0.510770  0.738830  1.0  -0.398
  N  N1418  1  0.372100  0.586400  0.832740  1.0  -0.4185
  N  N1419  1  0.417630  0.518900  0.833090  1.0  -0.4328
  N  N1420  1  0.455500  0.597770  0.813990  1.0  -0.437
  N  N1421  1  0.624140  0.709780  0.892900  1.0  -0.0664
  N  N1422  1  0.578620  0.697670  0.880290  1.0  -0.3497
  N  N1423  1  0.623250  0.727790  0.831100  1.0  -0.0649
  N  N1424  1  0.578040  0.717260  0.811040  1.0  -0.2944
  N  N1425  1  0.605680  0.649240  0.818300  1.0  0.0318
  N  N1426  1  0.559330  0.630240  0.798530  1.0  -0.227
  N  N1427  1  0.497770  0.452560  0.782250  1.0  -0.1117
  N  N1428  1  0.462690  0.448770  0.792160  1.0  -0.3509
  N  N1429  1  0.559590  0.525430  0.853260  1.0  -0.0077
  N  N1430  1  0.531100  0.531430  0.869430  1.0  -0.2989
  N  N1431  1  0.544990  0.450320  0.850430  1.0  0.048
  N  N1432  1  0.516960  0.449790  0.868430  1.0  -0.3365
  N  N1433  1  0.946650  0.500250  0.604200  1.0  -0.4183
  N  N1434  1  0.953780  0.512000  0.495660  1.0  -0.4541
  N  N1435  1  0.886570  0.658510  0.647740  1.0  -0.3974
  N  N1436  1  0.960640  0.714300  0.627900  1.0  -0.4216
  N  N1437  1  0.915460  0.601270  0.582370  1.0  -0.4365
  N  N1438  1  0.858490  0.642270  0.544500  1.0  -0.4352
  N  N1439  1  0.768760  0.585640  0.375860  1.0  -0.0632
  N  N1440  1  0.801670  0.619050  0.421380  1.0  -0.3479
  N  N1441  1  0.707850  0.604540  0.376750  1.0  -0.0658
  N  N1442  1  0.733000  0.639220  0.421960  1.0  -0.2935
  N  N1443  1  0.712620  0.543560  0.394320  1.0  0.0294
  N  N1444  1  0.739200  0.570910  0.440670  1.0  -0.2258
  N  N1445  1  0.784480  0.454790  0.502230  1.0  -0.1095
  N  N1446  1  0.829470  0.486080  0.537310  1.0  -0.3495
  N  N1447  1  0.793670  0.465840  0.440410  1.0  -0.0085
  N  N1448  1  0.838330  0.500330  0.468900  1.0  -0.3021
  N  N1449  1  0.805440  0.405330  0.455010  1.0  0.0465
  N  N1450  1  0.851470  0.432830  0.483040  1.0  -0.3358
  N  N1451  1  0.103950  0.999750  0.946400  1.0  -0.4126
  N  N1452  1  0.983660  0.988000  0.941780  1.0  -0.4664
  N  N1453  1  0.989230  0.841490  0.728060  1.0  -0.3986
  N  N1454  1  0.913600  0.785700  0.746340  1.0  -0.4196
  N  N1455  1  0.981100  0.898730  0.814190  1.0  -0.4354
  N  N1456  1  0.902230  0.857730  0.716220  1.0  -0.4348
  N  N1457  1  0.790220  0.914360  0.683120  1.0  -0.0664
  N  N1458  1  0.802330  0.880950  0.682620  1.0  -0.3468
  N  N1459  1  0.772210  0.895460  0.603310  1.0  -0.0657
  N  N1460  1  0.782740  0.860780  0.593780  1.0  -0.2938
  N  N1461  1  0.850760  0.956440  0.669060  1.0  0.0309
  N  N1462  1  0.869760  0.929090  0.668290  1.0  -0.2261
  N  N1463  1  0.047440  0.045210  0.829690  1.0  -0.1116
  N  N1464  1  0.051230  0.013920  0.843390  1.0  -0.3525
  N  N1465  1  0.974570  0.034160  0.827830  1.0  -0.007
  N  N1466  1  0.968570  0.999670  0.838000  1.0  -0.2986
  N  N1467  1  0.049680  0.094670  0.900110  1.0  0.0481
  N  N1468  1  0.050210  0.067170  0.918640  1.0  -0.3365
  N  N1469  1  0.396050  0.342450  0.895800  1.0  -0.4282
  N  N1470  1  0.516340  0.458120  0.004340  1.0  -0.467
  N  N1471  1  0.510770  0.238830  0.852260  1.0  -0.4011
  N  N1472  1  0.586400  0.332740  0.872100  1.0  -0.4187
  N  N1473  1  0.518900  0.333090  0.917630  1.0  -0.4333
  N  N1474  1  0.597770  0.313990  0.955500  1.0  -0.4361
  N  N1475  1  0.709780  0.392900  0.124140  1.0  -0.064
  N  N1476  1  0.697670  0.380290  0.078620  1.0  -0.3459
  N  N1477  1  0.727790  0.331100  0.123250  1.0  -0.0643
  N  N1478  1  0.717260  0.311040  0.078040  1.0  -0.2909
  N  N1479  1  0.649240  0.318300  0.105680  1.0  0.0321
  N  N1480  1  0.630240  0.298530  0.059330  1.0  -0.2243
  N  N1481  1  0.452560  0.282250  0.997770  1.0  -0.1102
  N  N1482  1  0.448770  0.292160  0.962690  1.0  -0.3501
  N  N1483  1  0.525430  0.353260  0.059590  1.0  -0.0091
  N  N1484  1  0.531430  0.369430  0.031100  1.0  -0.299
  N  N1485  1  0.450320  0.350430  0.044990  1.0  0.0441
  N  N1486  1  0.449790  0.368430  0.016960  1.0  -0.3363
  N  N1487  1  0.553350  0.157550  0.553600  1.0  -0.4286
  N  N1488  1  0.546220  0.041880  0.558220  1.0  -0.4534
  N  N1489  1  0.613430  0.261170  0.771940  1.0  -0.4004
  N  N1490  1  0.539360  0.167260  0.753660  1.0  -0.4189
  N  N1491  1  0.584540  0.166910  0.685810  1.0  -0.4345
  N  N1492  1  0.641510  0.186010  0.783780  1.0  -0.4365
  N  N1493  1  0.731240  0.107100  0.816880  1.0  -0.0642
  N  N1494  1  0.698330  0.119710  0.817380  1.0  -0.347
  N  N1495  1  0.792150  0.168900  0.896690  1.0  -0.064
  N  N1496  1  0.767000  0.188960  0.906220  1.0  -0.2951
  N  N1497  1  0.787380  0.181700  0.830940  1.0  0.0343
  N  N1498  1  0.760800  0.201470  0.831710  1.0  -0.2271
  N  N1499  1  0.715520  0.217750  0.670310  1.0  -0.1073
  N  N1500  1  0.670530  0.207840  0.656610  1.0  -0.3507
  N  N1501  1  0.706330  0.146740  0.672170  1.0  -0.0075
  N  N1502  1  0.661670  0.130570  0.662000  1.0  -0.3016
  N  N1503  1  0.694560  0.149570  0.599890  1.0  0.0467
  N  N1504  1  0.648530  0.131570  0.581360  1.0  -0.3382
  N  N1505  1  0.342450  0.395800  0.896050  1.0  -0.4309
  N  N1506  1  0.458120  0.504340  0.016340  1.0  -0.4629
  N  N1507  1  0.238830  0.352260  0.010770  1.0  -0.397
  N  N1508  1  0.332740  0.372100  0.086400  1.0  -0.4197
  N  N1509  1  0.333090  0.417630  0.018900  1.0  -0.4357
  N  N1510  1  0.313990  0.455500  0.097770  1.0  -0.4386
  N  N1511  1  0.392900  0.624140  0.209780  1.0  -0.0676
  N  N1512  1  0.380290  0.578620  0.197670  1.0  -0.3448
  N  N1513  1  0.331100  0.623250  0.227790  1.0  -0.0639
  N  N1514  1  0.311040  0.578040  0.217260  1.0  -0.2916
  N  N1515  1  0.318300  0.605680  0.149240  1.0  0.0318
  N  N1516  1  0.298530  0.559330  0.130240  1.0  -0.2267
  N  N1517  1  0.282250  0.497770  0.952560  1.0  -0.1125
  N  N1518  1  0.292160  0.462690  0.948770  1.0  -0.3519
  N  N1519  1  0.353260  0.559590  0.025430  1.0  -0.0075
  N  N1520  1  0.369430  0.531100  0.031430  1.0  -0.2983
  N  N1521  1  0.350430  0.544990  0.950320  1.0  0.047
  N  N1522  1  0.368430  0.516960  0.949790  1.0  -0.3361
  N  N1523  1  0.157550  0.053600  0.053350  1.0  -0.428
  N  N1524  1  0.041880  0.058220  0.046220  1.0  -0.4504
  N  N1525  1  0.261170  0.271940  0.113430  1.0  -0.3981
  N  N1526  1  0.167260  0.253660  0.039360  1.0  -0.4188
  N  N1527  1  0.166910  0.185810  0.084540  1.0  -0.4336
  N  N1528  1  0.186010  0.283780  0.141510  1.0  -0.4373
  N  N1529  1  0.107100  0.316880  0.231240  1.0  -0.0671
  N  N1530  1  0.119710  0.317380  0.198330  1.0  -0.3456
  N  N1531  1  0.168900  0.396690  0.292150  1.0  -0.0668
  N  N1532  1  0.188960  0.406220  0.267000  1.0  -0.2934
  N  N1533  1  0.181700  0.330940  0.287380  1.0  0.0324
  N  N1534  1  0.201470  0.331710  0.260800  1.0  -0.2233
  N  N1535  1  0.217750  0.170310  0.215520  1.0  -0.1132
  N  N1536  1  0.207840  0.156610  0.170530  1.0  -0.3509
  N  N1537  1  0.146740  0.172170  0.206330  1.0  -0.0099
  N  N1538  1  0.130570  0.162000  0.161670  1.0  -0.2981
  N  N1539  1  0.149570  0.099890  0.194560  1.0  0.0467
  N  N1540  1  0.131570  0.081360  0.148530  1.0  -0.3374
  N  N1541  1  0.500250  0.104200  0.446650  1.0  -0.4178
  N  N1542  1  0.512000  0.995660  0.453780  1.0  -0.4529
  N  N1543  1  0.658510  0.147740  0.386570  1.0  -0.3999
  N  N1544  1  0.714300  0.127900  0.460640  1.0  -0.4201
  N  N1545  1  0.601270  0.082370  0.415460  1.0  -0.4374
  N  N1546  1  0.642270  0.044500  0.358490  1.0  -0.4398
  N  N1547  1  0.585640  0.875860  0.268760  1.0  -0.0633
  N  N1548  1  0.619050  0.921380  0.301670  1.0  -0.3462
  N  N1549  1  0.604540  0.876750  0.207850  1.0  -0.064
  N  N1550  1  0.639220  0.921960  0.233000  1.0  -0.295
  N  N1551  1  0.543560  0.894320  0.212620  1.0  0.0293
  N  N1552  1  0.570910  0.940670  0.239200  1.0  -0.2263
  N  N1553  1  0.454790  0.002230  0.284480  1.0  -0.1107
  N  N1554  1  0.486080  0.037310  0.329470  1.0  -0.3524
  N  N1555  1  0.465840  0.940410  0.293670  1.0  -0.0082
  N  N1556  1  0.500330  0.968900  0.338330  1.0  -0.297
  N  N1557  1  0.405330  0.955010  0.305440  1.0  0.0473
  N  N1558  1  0.432830  0.983040  0.351470  1.0  -0.3357
  N  N1559  1  0.999750  0.446400  0.603950  1.0  -0.4207
  N  N1560  1  0.988000  0.441780  0.483660  1.0  -0.4691
  N  N1561  1  0.841490  0.228060  0.489230  1.0  -0.4003
  N  N1562  1  0.785700  0.246340  0.413600  1.0  -0.4194
  N  N1563  1  0.898730  0.314190  0.481100  1.0  -0.4331
  N  N1564  1  0.857730  0.216220  0.402230  1.0  -0.4383
  N  N1565  1  0.914360  0.183120  0.290220  1.0  -0.0647
  N  N1566  1  0.880950  0.182620  0.302330  1.0  -0.3479
  N  N1567  1  0.895460  0.103310  0.272210  1.0  -0.0654
  N  N1568  1  0.860780  0.093780  0.282740  1.0  -0.2935
  N  N1569  1  0.956440  0.169060  0.350760  1.0  0.0313
  N  N1570  1  0.929090  0.168290  0.369760  1.0  -0.2271
  N  N1571  1  0.045210  0.329690  0.547440  1.0  -0.1095
  N  N1572  1  0.013920  0.343390  0.551230  1.0  -0.3496
  N  N1573  1  0.034160  0.327830  0.474570  1.0  -0.0092
  N  N1574  1  0.999670  0.338000  0.468570  1.0  -0.2993
  N  N1575  1  0.094670  0.400110  0.549680  1.0  0.0459
  N  N1576  1  0.067170  0.418640  0.550210  1.0  -0.3399
