# generated using pymatgen
data_LaNi6Ag8H87C62S12(N6O13)2
_symmetry_space_group_name_H-M   'P 1'
_cell_length_a   24.36870000
_cell_length_b   24.36870000
_cell_length_c   47.32200000
_cell_angle_alpha   90.00000000
_cell_angle_beta   90.00000000
_cell_angle_gamma   90.00000000
_symmetry_Int_Tables_number   1
_chemical_formula_structural   LaNi6Ag8H87C62S12(N6O13)2
_chemical_formula_sum   'La8 Ni48 Ag64 H696 C496 S96 N96 O208'
_cell_volume   28101.39076521
_cell_formula_units_Z   8
loop_
 _symmetry_equiv_pos_site_id
 _symmetry_equiv_pos_as_xyz
  1  'x, y, z'
loop_
 _atom_site_type_symbol
 _atom_site_label
 _atom_site_symmetry_multiplicity
 _atom_site_fract_x
 _atom_site_fract_y
 _atom_site_fract_z
 _atom_site_occupancy
 _atom_site_charge
  La  La1  1  0.081480  0.378470  0.637240  1.0  2.1128
  La  La2  1  0.918520  0.621530  0.137240  1.0  2.114
  La  La3  1  0.121530  0.581480  0.887240  1.0  2.113
  La  La4  1  0.878470  0.418520  0.387240  1.0  2.1135
  La  La5  1  0.418520  0.878470  0.612760  1.0  2.1122
  La  La6  1  0.581480  0.121530  0.112760  1.0  2.1136
  La  La7  1  0.378470  0.081480  0.362760  1.0  2.1128
  La  La8  1  0.621530  0.918520  0.862760  1.0  2.1123
  Ni  Ni9  1  0.044220  0.565120  0.436590  1.0  0.509
  Ni  Ni10  1  0.426240  0.687740  0.482270  1.0  0.5623
  Ni  Ni11  1  0.235530  0.747590  0.377100  1.0  0.5619
  Ni  Ni12  1  0.242930  0.495930  0.545250  1.0  0.6857
  Ni  Ni13  1  0.160950  0.773550  0.520760  1.0  0.6171
  Ni  Ni14  1  0.315560  0.473070  0.404710  1.0  0.5243
  Ni  Ni15  1  0.955780  0.434880  0.936590  1.0  0.5107
  Ni  Ni16  1  0.573760  0.312260  0.982270  1.0  0.5603
  Ni  Ni17  1  0.764470  0.252410  0.877100  1.0  0.5614
  Ni  Ni18  1  0.757070  0.504070  0.045250  1.0  0.6838
  Ni  Ni19  1  0.839050  0.226450  0.020760  1.0  0.6173
  Ni  Ni20  1  0.684440  0.526930  0.904710  1.0  0.5231
  Ni  Ni21  1  0.934880  0.544220  0.686590  1.0  0.5121
  Ni  Ni22  1  0.812260  0.926240  0.732270  1.0  0.5613
  Ni  Ni23  1  0.752410  0.735530  0.627100  1.0  0.5647
  Ni  Ni24  1  0.004070  0.742930  0.795250  1.0  0.6837
  Ni  Ni25  1  0.726450  0.660950  0.770760  1.0  0.6166
  Ni  Ni26  1  0.026930  0.815560  0.654710  1.0  0.5246
  Ni  Ni27  1  0.065120  0.455780  0.186590  1.0  0.5123
  Ni  Ni28  1  0.187740  0.073760  0.232270  1.0  0.5609
  Ni  Ni29  1  0.247590  0.264470  0.127100  1.0  0.5631
  Ni  Ni30  1  0.995930  0.257070  0.295250  1.0  0.6837
  Ni  Ni31  1  0.273550  0.339050  0.270760  1.0  0.6174
  Ni  Ni32  1  0.973070  0.184440  0.154710  1.0  0.521
  Ni  Ni33  1  0.455780  0.065120  0.813410  1.0  0.5106
  Ni  Ni34  1  0.073760  0.187740  0.767730  1.0  0.5611
  Ni  Ni35  1  0.264470  0.247590  0.872900  1.0  0.5627
  Ni  Ni36  1  0.257070  0.995930  0.704750  1.0  0.6832
  Ni  Ni37  1  0.339050  0.273550  0.729240  1.0  0.6168
  Ni  Ni38  1  0.184440  0.973070  0.845290  1.0  0.5251
  Ni  Ni39  1  0.544220  0.934880  0.313410  1.0  0.509
  Ni  Ni40  1  0.926240  0.812260  0.267730  1.0  0.5615
  Ni  Ni41  1  0.735530  0.752410  0.372900  1.0  0.5629
  Ni  Ni42  1  0.742930  0.004070  0.204750  1.0  0.6834
  Ni  Ni43  1  0.660950  0.726450  0.229240  1.0  0.6171
  Ni  Ni44  1  0.815560  0.026930  0.345290  1.0  0.5248
  Ni  Ni45  1  0.565120  0.044220  0.563410  1.0  0.512
  Ni  Ni46  1  0.687740  0.426240  0.517730  1.0  0.5614
  Ni  Ni47  1  0.747590  0.235530  0.622900  1.0  0.5635
  Ni  Ni48  1  0.495930  0.242930  0.454750  1.0  0.6821
  Ni  Ni49  1  0.773550  0.160950  0.479240  1.0  0.6171
  Ni  Ni50  1  0.473070  0.315560  0.595290  1.0  0.523
  Ni  Ni51  1  0.434880  0.955780  0.063410  1.0  0.5124
  Ni  Ni52  1  0.312260  0.573760  0.017730  1.0  0.5615
  Ni  Ni53  1  0.252410  0.764470  0.122900  1.0  0.5654
  Ni  Ni54  1  0.504070  0.757070  0.954750  1.0  0.6825
  Ni  Ni55  1  0.226450  0.839050  0.979240  1.0  0.6168
  Ni  Ni56  1  0.526930  0.684440  0.095290  1.0  0.525
  Ag  Ag57  1  0.129700  0.706740  0.441150  1.0  0.2661
  Ag  Ag58  1  0.147490  0.607450  0.499870  1.0  0.2783
  Ag  Ag59  1  0.189130  0.503530  0.462870  1.0  0.2709
  Ag  Ag60  1  0.201920  0.592850  0.406450  1.0  0.2158
  Ag  Ag61  1  0.267580  0.737020  0.460550  1.0  0.21
  Ag  Ag62  1  0.277960  0.655840  0.518660  1.0  0.2403
  Ag  Ag63  1  0.325180  0.556880  0.477450  1.0  0.1982
  Ag  Ag64  1  0.339700  0.639700  0.412680  1.0  0.1735
  Ag  Ag65  1  0.870300  0.293260  0.941150  1.0  0.2679
  Ag  Ag66  1  0.852510  0.392550  0.999870  1.0  0.2784
  Ag  Ag67  1  0.810870  0.496470  0.962870  1.0  0.2696
  Ag  Ag68  1  0.798080  0.407150  0.906450  1.0  0.2121
  Ag  Ag69  1  0.732420  0.262980  0.960550  1.0  0.2144
  Ag  Ag70  1  0.722040  0.344160  0.018660  1.0  0.2398
  Ag  Ag71  1  0.674820  0.443120  0.977450  1.0  0.1932
  Ag  Ag72  1  0.660300  0.360300  0.912680  1.0  0.1718
  Ag  Ag73  1  0.793260  0.629700  0.691150  1.0  0.2665
  Ag  Ag74  1  0.892550  0.647490  0.749870  1.0  0.2779
  Ag  Ag75  1  0.996470  0.689130  0.712870  1.0  0.2697
  Ag  Ag76  1  0.907150  0.701920  0.656450  1.0  0.2138
  Ag  Ag77  1  0.762980  0.767580  0.710550  1.0  0.211
  Ag  Ag78  1  0.844160  0.777960  0.768660  1.0  0.2395
  Ag  Ag79  1  0.943120  0.825180  0.727450  1.0  0.194
  Ag  Ag80  1  0.860300  0.839700  0.662680  1.0  0.1742
  Ag  Ag81  1  0.206740  0.370300  0.191150  1.0  0.268
  Ag  Ag82  1  0.107450  0.352510  0.249870  1.0  0.276
  Ag  Ag83  1  0.003530  0.310870  0.212870  1.0  0.2685
  Ag  Ag84  1  0.092850  0.298080  0.156450  1.0  0.214
  Ag  Ag85  1  0.237020  0.232420  0.210550  1.0  0.2116
  Ag  Ag86  1  0.155840  0.222040  0.268660  1.0  0.2408
  Ag  Ag87  1  0.056880  0.174820  0.227450  1.0  0.197
  Ag  Ag88  1  0.139700  0.160300  0.162680  1.0  0.1743
  Ag  Ag89  1  0.370300  0.206740  0.808850  1.0  0.2674
  Ag  Ag90  1  0.352510  0.107450  0.750130  1.0  0.2831
  Ag  Ag91  1  0.310870  0.003530  0.787130  1.0  0.2718
  Ag  Ag92  1  0.298080  0.092850  0.843550  1.0  0.2093
  Ag  Ag93  1  0.232420  0.237020  0.789450  1.0  0.21
  Ag  Ag94  1  0.222040  0.155840  0.731340  1.0  0.2476
  Ag  Ag95  1  0.174820  0.056880  0.772550  1.0  0.1991
  Ag  Ag96  1  0.160300  0.139700  0.837320  1.0  0.1721
  Ag  Ag97  1  0.629700  0.793260  0.308850  1.0  0.2665
  Ag  Ag98  1  0.647490  0.892550  0.250130  1.0  0.2826
  Ag  Ag99  1  0.689130  0.996470  0.287130  1.0  0.2692
  Ag  Ag100  1  0.701920  0.907150  0.343550  1.0  0.2078
  Ag  Ag101  1  0.767580  0.762980  0.289450  1.0  0.2132
  Ag  Ag102  1  0.777960  0.844160  0.231340  1.0  0.2479
  Ag  Ag103  1  0.825180  0.943120  0.272550  1.0  0.1968
  Ag  Ag104  1  0.839700  0.860300  0.337320  1.0  0.1731
  Ag  Ag105  1  0.706740  0.129700  0.558850  1.0  0.2682
  Ag  Ag106  1  0.607450  0.147490  0.500130  1.0  0.2829
  Ag  Ag107  1  0.503530  0.189130  0.537130  1.0  0.2692
  Ag  Ag108  1  0.592850  0.201920  0.593550  1.0  0.21
  Ag  Ag109  1  0.737020  0.267580  0.539450  1.0  0.2099
  Ag  Ag110  1  0.655840  0.277960  0.481340  1.0  0.2474
  Ag  Ag111  1  0.556880  0.325180  0.522550  1.0  0.1957
  Ag  Ag112  1  0.639700  0.339700  0.587320  1.0  0.1738
  Ag  Ag113  1  0.293260  0.870300  0.058850  1.0  0.2663
  Ag  Ag114  1  0.392550  0.852510  0.000130  1.0  0.2805
  Ag  Ag115  1  0.496470  0.810870  0.037130  1.0  0.2692
  Ag  Ag116  1  0.407150  0.798080  0.093550  1.0  0.2076
  Ag  Ag117  1  0.262980  0.732420  0.039450  1.0  0.2123
  Ag  Ag118  1  0.344160  0.722040  0.981340  1.0  0.2477
  Ag  Ag119  1  0.443120  0.674820  0.022550  1.0  0.2001
  Ag  Ag120  1  0.360300  0.660300  0.087320  1.0  0.174
  H  H121  1  0.975400  0.675700  0.442900  1.0  0.1066
  H  H122  1  0.986500  0.724000  0.500400  1.0  0.111
  H  H123  1  0.028100  0.734900  0.475800  1.0  0.1217
  H  H124  1  0.049200  0.712200  0.504800  1.0  0.1172
  H  H125  1  0.965000  0.627600  0.514300  1.0  0.1142
  H  H126  1  0.027900  0.617300  0.518900  1.0  0.1244
  H  H127  1  0.994100  0.578500  0.499000  1.0  0.119
  H  H128  1  0.054300  0.441600  0.430700  1.0  0.1206
  H  H129  1  0.091600  0.468900  0.358500  1.0  0.1039
  H  H130  1  0.136400  0.513000  0.365500  1.0  0.1091
  H  H131  1  0.074200  0.526600  0.370100  1.0  0.1118
  H  H132  1  0.140500  0.403800  0.390600  1.0  0.1082
  H  H133  1  0.152000  0.420800  0.422000  1.0  0.112
  H  H134  1  0.183800  0.449600  0.397300  1.0  0.1078
  H  H135  1  0.410200  0.723600  0.542400  1.0  0.088
  H  H136  1  0.381300  0.856600  0.511000  1.0  0.1212
  H  H137  1  0.338100  0.833500  0.489600  1.0  0.1133
  H  H138  1  0.400400  0.819200  0.485900  1.0  0.1137
  H  H139  1  0.327400  0.811600  0.552100  1.0  0.1182
  H  H140  1  0.315600  0.748400  0.550600  1.0  0.1223
  H  H141  1  0.284600  0.788700  0.530300  1.0  0.1234
  H  H142  1  0.488200  0.653000  0.427000  1.0  0.1125
  H  H143  1  0.485500  0.533200  0.417000  1.0  0.1206
  H  H144  1  0.441200  0.574900  0.406300  1.0  0.1194
  H  H145  1  0.423800  0.525200  0.425300  1.0  0.1121
  H  H146  1  0.509300  0.531600  0.469100  1.0  0.1171
  H  H147  1  0.446900  0.524700  0.476300  1.0  0.1136
  H  H148  1  0.480300  0.573700  0.489100  1.0  0.1101
  H  H149  1  0.362300  0.761800  0.360900  1.0  0.1175
  H  H150  1  0.428800  0.795200  0.409700  1.0  0.1172
  H  H151  1  0.411900  0.733800  0.404900  1.0  0.1161
  H  H152  1  0.397900  0.762800  0.433500  1.0  0.1205
  H  H153  1  0.356000  0.867400  0.412400  1.0  0.1071
  H  H154  1  0.328600  0.832600  0.436400  1.0  0.1173
  H  H155  1  0.294200  0.850000  0.409900  1.0  0.1122
  H  H156  1  0.108700  0.773200  0.368400  1.0  0.1129
  H  H157  1  0.043100  0.669300  0.363200  1.0  0.1128
  H  H158  1  0.059200  0.696300  0.392100  1.0  0.1214
  H  H159  1  0.074600  0.634900  0.386100  1.0  0.1296
  H  H160  1  0.119900  0.646000  0.327700  1.0  0.1172
  H  H161  1  0.150700  0.613000  0.351300  1.0  0.1236
  H  H162  1  0.180200  0.661700  0.335800  1.0  0.1139
  H  H163  1  0.317700  0.554800  0.590600  1.0  0.0921
  H  H164  1  0.417100  0.599400  0.569600  1.0  0.113
  H  H165  1  0.360000  0.628300  0.566100  1.0  0.1291
  H  H166  1  0.397400  0.618300  0.539600  1.0  0.1202
  H  H167  1  0.430900  0.503500  0.549700  1.0  0.102
  H  H168  1  0.409800  0.523800  0.520200  1.0  0.1143
  H  H169  1  0.381100  0.474100  0.535100  1.0  0.1085
  H  H170  1  0.158400  0.397400  0.527200  1.0  0.1087
  H  H171  1  0.066500  0.486900  0.563400  1.0  0.1135
  H  H172  1  0.083400  0.541800  0.548400  1.0  0.1203
  H  H173  1  0.124300  0.512900  0.569200  1.0  0.1109
  H  H174  1  0.050300  0.441000  0.515400  1.0  0.1144
  H  H175  1  0.099100  0.439300  0.493800  1.0  0.122
  H  H176  1  0.067700  0.494400  0.499200  1.0  0.1379
  H  H177  1  0.223000  0.741400  0.575500  1.0  0.114
  H  H178  1  0.094400  0.668600  0.588900  1.0  0.1028
  H  H179  1  0.093200  0.639200  0.559500  1.0  0.1253
  H  H180  1  0.083600  0.702700  0.561400  1.0  0.1106
  H  H181  1  0.188800  0.631400  0.597900  1.0  0.1195
  H  H182  1  0.235800  0.641500  0.575900  1.0  0.1274
  H  H183  1  0.187300  0.601800  0.568400  1.0  0.1136
  H  H184  1  0.085900  0.843900  0.480500  1.0  0.0978
  H  H185  1  0.220500  0.911700  0.469400  1.0  0.1091
  H  H186  1  0.252100  0.857100  0.462900  1.0  0.0992
  H  H187  1  0.231400  0.869200  0.493700  1.0  0.1162
  H  H188  1  0.150200  0.886500  0.431000  1.0  0.1053
  H  H189  1  0.121700  0.828800  0.431500  1.0  0.1333
  H  H190  1  0.184800  0.833400  0.425300  1.0  0.1341
  H  H191  1  0.259900  0.373000  0.433000  1.0  0.1153
  H  H192  1  0.379800  0.381200  0.476100  1.0  0.0984
  H  H193  1  0.372900  0.443700  0.483200  1.0  0.1087
  H  H194  1  0.388900  0.425500  0.452500  1.0  0.1007
  H  H195  1  0.287100  0.363500  0.493900  1.0  0.1158
  H  H196  1  0.237100  0.397100  0.482400  1.0  0.1151
  H  H197  1  0.281500  0.425900  0.501200  1.0  0.1146
  H  H198  1  0.383300  0.533200  0.354900  1.0  0.1182
  H  H199  1  0.254000  0.520900  0.322200  1.0  0.1111
  H  H200  1  0.219400  0.546500  0.346900  1.0  0.1168
  H  H201  1  0.245900  0.488300  0.350400  1.0  0.1147
  H  H202  1  0.314300  0.605500  0.322200  1.0  0.1072
  H  H203  1  0.343400  0.622200  0.350400  1.0  0.1202
  H  H204  1  0.279900  0.630300  0.347100  1.0  0.13
  H  H205  1  0.149300  0.462000  0.731300  1.0  0.1407
  H  H206  1  0.163100  0.510200  0.710500  1.0  0.1419
  H  H207  1  0.204300  0.461300  0.714100  1.0  0.1371
  H  H208  1  0.024600  0.324300  0.942900  1.0  0.107
  H  H209  1  0.013500  0.276000  0.000400  1.0  0.1108
  H  H210  1  0.971900  0.265100  0.975800  1.0  0.1218
  H  H211  1  0.950800  0.287800  0.004800  1.0  0.116
  H  H212  1  0.035000  0.372400  0.014300  1.0  0.1136
  H  H213  1  0.972100  0.382700  0.018900  1.0  0.1234
  H  H214  1  0.005900  0.421500  0.999000  1.0  0.1212
  H  H215  1  0.945700  0.558400  0.930700  1.0  0.1203
  H  H216  1  0.908400  0.531100  0.858500  1.0  0.1035
  H  H217  1  0.863600  0.487000  0.865500  1.0  0.1064
  H  H218  1  0.925800  0.473400  0.870100  1.0  0.1117
  H  H219  1  0.859500  0.596200  0.890600  1.0  0.1075
  H  H220  1  0.848000  0.579200  0.922000  1.0  0.1117
  H  H221  1  0.816200  0.550400  0.897300  1.0  0.1086
  H  H222  1  0.589800  0.276400  0.042400  1.0  0.0887
  H  H223  1  0.618700  0.143400  0.011000  1.0  0.1219
  H  H224  1  0.661900  0.166500  0.989600  1.0  0.1138
  H  H225  1  0.599600  0.180800  0.985900  1.0  0.1143
  H  H226  1  0.672600  0.188400  0.052100  1.0  0.1191
  H  H227  1  0.684400  0.251600  0.050600  1.0  0.1224
  H  H228  1  0.715400  0.211300  0.030300  1.0  0.1242
  H  H229  1  0.511800  0.347000  0.927000  1.0  0.1123
  H  H230  1  0.514500  0.466800  0.917000  1.0  0.1188
  H  H231  1  0.558800  0.425100  0.906300  1.0  0.119
  H  H232  1  0.576200  0.474800  0.925300  1.0  0.1142
  H  H233  1  0.490700  0.468400  0.969100  1.0  0.1144
  H  H234  1  0.553100  0.475300  0.976300  1.0  0.1147
  H  H235  1  0.519700  0.426300  0.989100  1.0  0.1104
  H  H236  1  0.637700  0.238200  0.860900  1.0  0.1177
  H  H237  1  0.571200  0.204800  0.909700  1.0  0.1168
  H  H238  1  0.588100  0.266200  0.904900  1.0  0.1178
  H  H239  1  0.602100  0.237200  0.933500  1.0  0.1214
  H  H240  1  0.644000  0.132600  0.912400  1.0  0.1048
  H  H241  1  0.671400  0.167400  0.936400  1.0  0.117
  H  H242  1  0.705800  0.150000  0.909900  1.0  0.1087
  H  H243  1  0.891300  0.226800  0.868400  1.0  0.1141
  H  H244  1  0.956900  0.330700  0.863200  1.0  0.114
  H  H245  1  0.940800  0.303700  0.892100  1.0  0.1208
  H  H246  1  0.925400  0.365100  0.886100  1.0  0.1283
  H  H247  1  0.880100  0.354000  0.827700  1.0  0.1182
  H  H248  1  0.849300  0.387000  0.851300  1.0  0.1245
  H  H249  1  0.819800  0.338300  0.835800  1.0  0.1107
  H  H250  1  0.682300  0.445200  0.090600  1.0  0.0928
  H  H251  1  0.582900  0.400600  0.069600  1.0  0.1149
  H  H252  1  0.640000  0.371700  0.066100  1.0  0.1299
  H  H253  1  0.602600  0.381700  0.039600  1.0  0.1209
  H  H254  1  0.569100  0.496500  0.049700  1.0  0.0995
  H  H255  1  0.590200  0.476200  0.020200  1.0  0.1151
  H  H256  1  0.618900  0.525900  0.035100  1.0  0.1082
  H  H257  1  0.841600  0.602600  0.027200  1.0  0.1086
  H  H258  1  0.933500  0.513100  0.063400  1.0  0.1138
  H  H259  1  0.916600  0.458200  0.048400  1.0  0.1195
  H  H260  1  0.875700  0.487100  0.069200  1.0  0.1099
  H  H261  1  0.949700  0.559000  0.015400  1.0  0.115
  H  H262  1  0.900900  0.560700  0.993800  1.0  0.1228
  H  H263  1  0.932300  0.505600  0.999200  1.0  0.1365
  H  H264  1  0.777000  0.258600  0.075500  1.0  0.1166
  H  H265  1  0.905600  0.331400  0.088900  1.0  0.1026
  H  H266  1  0.906800  0.360800  0.059500  1.0  0.1257
  H  H267  1  0.916400  0.297300  0.061400  1.0  0.1101
  H  H268  1  0.811200  0.368600  0.097900  1.0  0.1202
  H  H269  1  0.764200  0.358500  0.075900  1.0  0.1292
  H  H270  1  0.812700  0.398200  0.068400  1.0  0.114
  H  H271  1  0.914100  0.156100  0.980500  1.0  0.0979
  H  H272  1  0.779500  0.088300  0.969400  1.0  0.1092
  H  H273  1  0.747900  0.142900  0.962900  1.0  0.0997
  H  H274  1  0.768600  0.130800  0.993700  1.0  0.1161
  H  H275  1  0.849800  0.113500  0.931000  1.0  0.1054
  H  H276  1  0.878300  0.171200  0.931500  1.0  0.135
  H  H277  1  0.815200  0.166600  0.925300  1.0  0.1343
  H  H278  1  0.740100  0.627000  0.933000  1.0  0.1152
  H  H279  1  0.620200  0.618800  0.976100  1.0  0.0982
  H  H280  1  0.627100  0.556300  0.983200  1.0  0.1094
  H  H281  1  0.611100  0.574500  0.952500  1.0  0.1012
  H  H282  1  0.712900  0.636500  0.993900  1.0  0.1136
  H  H283  1  0.762900  0.602900  0.982400  1.0  0.1143
  H  H284  1  0.718500  0.574100  0.001200  1.0  0.1153
  H  H285  1  0.616700  0.466800  0.854900  1.0  0.1201
  H  H286  1  0.746000  0.479100  0.822200  1.0  0.1103
  H  H287  1  0.780600  0.453500  0.846900  1.0  0.116
  H  H288  1  0.754100  0.511700  0.850400  1.0  0.1162
  H  H289  1  0.685700  0.394500  0.822200  1.0  0.1066
  H  H290  1  0.656600  0.377800  0.850400  1.0  0.1204
  H  H291  1  0.720100  0.369700  0.847100  1.0  0.131
  H  H292  1  0.850700  0.538000  0.231300  1.0  0.1413
  H  H293  1  0.836900  0.489800  0.210500  1.0  0.143
  H  H294  1  0.795700  0.538700  0.214100  1.0  0.1372
  H  H295  1  0.824300  0.475400  0.692900  1.0  0.1072
  H  H296  1  0.776000  0.486500  0.750400  1.0  0.1122
  H  H297  1  0.765100  0.528100  0.725800  1.0  0.1209
  H  H298  1  0.787800  0.549200  0.754800  1.0  0.1183
  H  H299  1  0.872400  0.465000  0.764300  1.0  0.1136
  H  H300  1  0.882700  0.527900  0.768900  1.0  0.1241
  H  H301  1  0.921500  0.494100  0.749000  1.0  0.1236
  H  H302  1  0.058400  0.554300  0.680700  1.0  0.1219
  H  H303  1  0.031100  0.591600  0.608500  1.0  0.1026
  H  H304  1  0.987000  0.636400  0.615500  1.0  0.1073
  H  H305  1  0.973400  0.574200  0.620100  1.0  0.1104
  H  H306  1  0.096200  0.640500  0.640600  1.0  0.1085
  H  H307  1  0.079200  0.652000  0.672000  1.0  0.1118
  H  H308  1  0.050400  0.683800  0.647300  1.0  0.1114
  H  H309  1  0.776400  0.910200  0.792400  1.0  0.0875
  H  H310  1  0.643400  0.881300  0.761000  1.0  0.1209
  H  H311  1  0.666500  0.838100  0.739600  1.0  0.1139
  H  H312  1  0.680800  0.900400  0.735900  1.0  0.1133
  H  H313  1  0.688400  0.827400  0.802100  1.0  0.1183
  H  H314  1  0.751600  0.815600  0.800600  1.0  0.1207
  H  H315  1  0.711300  0.784600  0.780300  1.0  0.1261
  H  H316  1  0.847000  0.988200  0.677000  1.0  0.1121
  H  H317  1  0.966800  0.985500  0.667000  1.0  0.1209
  H  H318  1  0.925100  0.941200  0.656300  1.0  0.1182
  H  H319  1  0.974800  0.923800  0.675300  1.0  0.1146
  H  H320  1  0.968400  0.009300  0.719100  1.0  0.1167
  H  H321  1  0.975300  0.946900  0.726300  1.0  0.1135
  H  H322  1  0.926300  0.980300  0.739100  1.0  0.1085
  H  H323  1  0.738200  0.862300  0.610900  1.0  0.1181
  H  H324  1  0.704800  0.928800  0.659700  1.0  0.1168
  H  H325  1  0.766200  0.911900  0.654900  1.0  0.112
  H  H326  1  0.737200  0.897900  0.683500  1.0  0.1204
  H  H327  1  0.632600  0.856000  0.662400  1.0  0.1085
  H  H328  1  0.667400  0.828600  0.686400  1.0  0.1192
  H  H329  1  0.650000  0.794200  0.659900  1.0  0.1144
  H  H330  1  0.726800  0.608700  0.618400  1.0  0.114
  H  H331  1  0.830700  0.543100  0.613200  1.0  0.1131
  H  H332  1  0.803700  0.559200  0.642100  1.0  0.1207
  H  H333  1  0.865100  0.574600  0.636100  1.0  0.1277
  H  H334  1  0.854000  0.619900  0.577700  1.0  0.118
  H  H335  1  0.887000  0.650700  0.601300  1.0  0.1228
  H  H336  1  0.838300  0.680200  0.585800  1.0  0.116
  H  H337  1  0.945200  0.817700  0.840600  1.0  0.0922
  H  H338  1  0.900600  0.917100  0.819600  1.0  0.1168
  H  H339  1  0.871700  0.860000  0.816100  1.0  0.1292
  H  H340  1  0.881700  0.897400  0.789600  1.0  0.1213
  H  H341  1  0.996500  0.930900  0.799700  1.0  0.1022
  H  H342  1  0.976200  0.909800  0.770200  1.0  0.1157
  H  H343  1  0.025900  0.881100  0.785100  1.0  0.1074
  H  H344  1  0.102600  0.658400  0.777200  1.0  0.1091
  H  H345  1  0.013100  0.566500  0.813400  1.0  0.1143
  H  H346  1  0.958200  0.583400  0.798400  1.0  0.1165
  H  H347  1  0.987100  0.624300  0.819200  1.0  0.1113
  H  H348  1  0.059000  0.550300  0.765400  1.0  0.1129
  H  H349  1  0.060700  0.599100  0.743800  1.0  0.1227
  H  H350  1  0.005600  0.567700  0.749200  1.0  0.1344
  H  H351  1  0.758600  0.723000  0.825500  1.0  0.1122
  H  H352  1  0.831400  0.594400  0.838900  1.0  0.1025
  H  H353  1  0.860800  0.593200  0.809500  1.0  0.1246
  H  H354  1  0.797300  0.583600  0.811400  1.0  0.11
  H  H355  1  0.868600  0.688800  0.847900  1.0  0.1191
  H  H356  1  0.858500  0.735800  0.825900  1.0  0.1264
  H  H357  1  0.898200  0.687300  0.818400  1.0  0.1121
  H  H358  1  0.656100  0.585900  0.730500  1.0  0.0964
  H  H359  1  0.588300  0.720500  0.719400  1.0  0.1124
  H  H360  1  0.642900  0.752100  0.712900  1.0  0.1013
  H  H361  1  0.630800  0.731400  0.743700  1.0  0.119
  H  H362  1  0.613500  0.650200  0.681000  1.0  0.1072
  H  H363  1  0.671200  0.621700  0.681500  1.0  0.1351
  H  H364  1  0.666667  0.684800  0.675300  1.0  0.1346
  H  H365  1  0.127000  0.759900  0.683000  1.0  0.1142
  H  H366  1  0.118800  0.879800  0.726100  1.0  0.0985
  H  H367  1  0.056300  0.872900  0.733200  1.0  0.1078
  H  H368  1  0.074500  0.888900  0.702500  1.0  0.1009
  H  H369  1  0.136500  0.787100  0.743900  1.0  0.1127
  H  H370  1  0.102900  0.737100  0.732400  1.0  0.1152
  H  H371  1  0.074100  0.781500  0.751200  1.0  0.1131
  H  H372  1  0.966800  0.883300  0.604900  1.0  0.1164
  H  H373  1  0.979100  0.754000  0.572200  1.0  0.1109
  H  H374  1  0.953500  0.719400  0.596900  1.0  0.1175
  H  H375  1  0.011700  0.745900  0.600400  1.0  0.1162
  H  H376  1  0.894500  0.814300  0.572200  1.0  0.1063
  H  H377  1  0.877800  0.843400  0.600400  1.0  0.1199
  H  H378  1  0.869700  0.779900  0.597100  1.0  0.1304
  H  H379  1  0.038000  0.649300  0.981300  1.0  0.141
  H  H380  1  0.989800  0.663100  0.960500  1.0  0.1383
  H  H381  1  0.038700  0.704300  0.964100  1.0  0.1376
  H  H382  1  0.175700  0.524600  0.192900  1.0  0.1072
  H  H383  1  0.224000  0.513500  0.250400  1.0  0.1116
  H  H384  1  0.234900  0.471900  0.225800  1.0  0.1213
  H  H385  1  0.212200  0.450800  0.254800  1.0  0.1195
  H  H386  1  0.127600  0.535000  0.264300  1.0  0.1131
  H  H387  1  0.117300  0.472100  0.268900  1.0  0.124
  H  H388  1  0.078500  0.505900  0.249000  1.0  0.1234
  H  H389  1  0.941600  0.445700  0.180700  1.0  0.1213
  H  H390  1  0.968900  0.408400  0.108500  1.0  0.1036
  H  H391  1  0.013000  0.363600  0.115500  1.0  0.108
  H  H392  1  0.026600  0.425800  0.120100  1.0  0.1108
  H  H393  1  0.903800  0.359500  0.140600  1.0  0.1096
  H  H394  1  0.920800  0.348000  0.172000  1.0  0.1123
  H  H395  1  0.949600  0.316200  0.147300  1.0  0.1095
  H  H396  1  0.223600  0.089800  0.292400  1.0  0.0873
  H  H397  1  0.356600  0.118700  0.261000  1.0  0.1211
  H  H398  1  0.333500  0.161900  0.239600  1.0  0.114
  H  H399  1  0.319200  0.099600  0.235900  1.0  0.1141
  H  H400  1  0.311600  0.172600  0.302100  1.0  0.1179
  H  H401  1  0.248400  0.184400  0.300600  1.0  0.119
  H  H402  1  0.288700  0.215400  0.280300  1.0  0.127
  H  H403  1  0.153000  0.011800  0.177000  1.0  0.1119
  H  H404  1  0.033200  0.014500  0.167000  1.0  0.1201
  H  H405  1  0.074900  0.058800  0.156300  1.0  0.1185
  H  H406  1  0.025200  0.076200  0.175300  1.0  0.1147
  H  H407  1  0.031600  0.990700  0.219100  1.0  0.116
  H  H408  1  0.024700  0.053100  0.226300  1.0  0.1149
  H  H409  1  0.073700  0.019700  0.239100  1.0  0.1085
  H  H410  1  0.261800  0.137700  0.110900  1.0  0.1174
  H  H411  1  0.295200  0.071200  0.159700  1.0  0.117
  H  H412  1  0.233800  0.088100  0.154900  1.0  0.1143
  H  H413  1  0.262800  0.102100  0.183500  1.0  0.1205
  H  H414  1  0.367400  0.144000  0.162400  1.0  0.1075
  H  H415  1  0.332600  0.171400  0.186400  1.0  0.1197
  H  H416  1  0.350000  0.205800  0.159900  1.0  0.1163
  H  H417  1  0.273200  0.391300  0.118400  1.0  0.1132
  H  H418  1  0.169300  0.456900  0.113200  1.0  0.1134
  H  H419  1  0.196300  0.440800  0.142100  1.0  0.1209
  H  H420  1  0.134900  0.425400  0.136100  1.0  0.126
  H  H421  1  0.146000  0.380100  0.077700  1.0  0.1179
  H  H422  1  0.113000  0.349300  0.101300  1.0  0.1202
  H  H423  1  0.161700  0.319800  0.085800  1.0  0.1162
  H  H424  1  0.054800  0.182300  0.340600  1.0  0.0924
  H  H425  1  0.099400  0.082900  0.319600  1.0  0.1173
  H  H426  1  0.128300  0.140000  0.316100  1.0  0.128
  H  H427  1  0.118300  0.102600  0.289600  1.0  0.1207
  H  H428  1  0.003500  0.069100  0.299700  1.0  0.1035
  H  H429  1  0.023800  0.090200  0.270200  1.0  0.1154
  H  H430  1  0.974100  0.118900  0.285100  1.0  0.1081
  H  H431  1  0.897400  0.341600  0.277200  1.0  0.1106
  H  H432  1  0.986900  0.433500  0.313400  1.0  0.1144
  H  H433  1  0.041800  0.416600  0.298400  1.0  0.1184
  H  H434  1  0.012900  0.375700  0.319200  1.0  0.1117
  H  H435  1  0.941000  0.449700  0.265400  1.0  0.1131
  H  H436  1  0.939300  0.400900  0.243800  1.0  0.1218
  H  H437  1  0.994400  0.432300  0.249200  1.0  0.136
  H  H438  1  0.241400  0.277000  0.325500  1.0  0.1119
  H  H439  1  0.168600  0.405600  0.338900  1.0  0.1027
  H  H440  1  0.139200  0.406800  0.309500  1.0  0.1251
  H  H441  1  0.202700  0.416400  0.311400  1.0  0.1107
  H  H442  1  0.131400  0.311200  0.347900  1.0  0.1187
  H  H443  1  0.141500  0.264200  0.325900  1.0  0.1249
  H  H444  1  0.101800  0.312700  0.318400  1.0  0.11
  H  H445  1  0.343900  0.414100  0.230500  1.0  0.0969
  H  H446  1  0.411700  0.279500  0.219400  1.0  0.1136
  H  H447  1  0.357100  0.247900  0.212900  1.0  0.1029
  H  H448  1  0.369200  0.268600  0.243700  1.0  0.1192
  H  H449  1  0.386500  0.349800  0.181000  1.0  0.1066
  H  H450  1  0.328800  0.378300  0.181500  1.0  0.1347
  H  H451  1  0.333400  0.315200  0.175300  1.0  0.136
  H  H452  1  0.873000  0.240100  0.183000  1.0  0.1149
  H  H453  1  0.881200  0.120200  0.226100  1.0  0.0976
  H  H454  1  0.943700  0.127100  0.233200  1.0  0.1083
  H  H455  1  0.925500  0.111100  0.202500  1.0  0.1004
  H  H456  1  0.863500  0.212900  0.243900  1.0  0.1136
  H  H457  1  0.897100  0.262900  0.232400  1.0  0.1145
  H  H458  1  0.925900  0.218500  0.251200  1.0  0.1126
  H  H459  1  0.033200  0.116700  0.104900  1.0  0.1167
  H  H460  1  0.020900  0.246000  0.072200  1.0  0.1109
  H  H461  1  0.046500  0.280600  0.096900  1.0  0.1176
  H  H462  1  0.988300  0.254100  0.100400  1.0  0.1136
  H  H463  1  0.105500  0.185700  0.072200  1.0  0.107
  H  H464  1  0.122200  0.156600  0.100400  1.0  0.1201
  H  H465  1  0.130300  0.220100  0.097100  1.0  0.1321
  H  H466  1  0.962000  0.350700  0.481300  1.0  0.1411
  H  H467  1  0.010200  0.336900  0.460500  1.0  0.1391
  H  H468  1  0.961300  0.295700  0.464100  1.0  0.1393
  H  H469  1  0.524600  0.175700  0.807100  1.0  0.1075
  H  H470  1  0.513500  0.224000  0.749600  1.0  0.1111
  H  H471  1  0.471900  0.234900  0.774200  1.0  0.122
  H  H472  1  0.450800  0.212200  0.745200  1.0  0.1161
  H  H473  1  0.535000  0.127600  0.735700  1.0  0.1136
  H  H474  1  0.472100  0.117300  0.731100  1.0  0.1228
  H  H475  1  0.505900  0.078500  0.751000  1.0  0.1199
  H  H476  1  0.445700  0.941600  0.819300  1.0  0.1207
  H  H477  1  0.408400  0.968900  0.891500  1.0  0.104
  H  H478  1  0.363600  0.013000  0.884500  1.0  0.1064
  H  H479  1  0.425800  0.026600  0.879900  1.0  0.1114
  H  H480  1  0.359500  0.903800  0.859400  1.0  0.1086
  H  H481  1  0.348000  0.920800  0.828000  1.0  0.1115
  H  H482  1  0.316200  0.949600  0.852700  1.0  0.1083
  H  H483  1  0.089800  0.223600  0.707600  1.0  0.0874
  H  H484  1  0.118700  0.356600  0.739000  1.0  0.1225
  H  H485  1  0.161900  0.333500  0.760400  1.0  0.1138
  H  H486  1  0.099600  0.319200  0.764100  1.0  0.1138
  H  H487  1  0.172600  0.311600  0.697900  1.0  0.1173
  H  H488  1  0.184400  0.248400  0.699400  1.0  0.1212
  H  H489  1  0.215400  0.288700  0.719700  1.0  0.1233
  H  H490  1  0.011800  0.153000  0.823000  1.0  0.1125
  H  H491  1  0.014500  0.033200  0.833000  1.0  0.1204
  H  H492  1  0.058800  0.074900  0.843700  1.0  0.1199
  H  H493  1  0.076200  0.025200  0.824700  1.0  0.1134
  H  H494  1  0.990700  0.031600  0.780900  1.0  0.1154
  H  H495  1  0.053100  0.024700  0.773700  1.0  0.1143
  H  H496  1  0.019700  0.073700  0.760900  1.0  0.11
  H  H497  1  0.137700  0.261800  0.889100  1.0  0.1184
  H  H498  1  0.071200  0.295200  0.840300  1.0  0.1167
  H  H499  1  0.088100  0.233800  0.845100  1.0  0.115
  H  H500  1  0.102100  0.262800  0.816500  1.0  0.1223
  H  H501  1  0.144000  0.367400  0.837600  1.0  0.1081
  H  H502  1  0.171400  0.332600  0.813600  1.0  0.1184
  H  H503  1  0.205800  0.350000  0.840100  1.0  0.1091
  H  H504  1  0.391300  0.273200  0.881600  1.0  0.1137
  H  H505  1  0.456900  0.169300  0.886800  1.0  0.1144
  H  H506  1  0.440800  0.196300  0.857900  1.0  0.1209
  H  H507  1  0.425400  0.134900  0.863900  1.0  0.129
  H  H508  1  0.380100  0.146000  0.922300  1.0  0.1175
  H  H509  1  0.349300  0.113000  0.898700  1.0  0.1249
  H  H510  1  0.319800  0.161700  0.914200  1.0  0.1132
  H  H511  1  0.182300  0.054800  0.659400  1.0  0.093
  H  H512  1  0.082900  0.099400  0.680400  1.0  0.1128
  H  H513  1  0.140000  0.128300  0.683900  1.0  0.1288
  H  H514  1  0.102600  0.118300  0.710400  1.0  0.1193
  H  H515  1  0.069100  0.003500  0.700300  1.0  0.101
  H  H516  1  0.090200  0.023800  0.729800  1.0  0.1139
  H  H517  1  0.118900  0.974100  0.714900  1.0  0.1083
  H  H518  1  0.341600  0.897400  0.722800  1.0  0.1092
  H  H519  1  0.433500  0.986900  0.686600  1.0  0.1149
  H  H520  1  0.416600  0.041800  0.701600  1.0  0.1201
  H  H521  1  0.375700  0.012900  0.680800  1.0  0.1093
  H  H522  1  0.449700  0.941000  0.734600  1.0  0.1143
  H  H523  1  0.400900  0.939300  0.756200  1.0  0.1231
  H  H524  1  0.432300  0.994400  0.750800  1.0  0.1366
  H  H525  1  0.277000  0.241400  0.674500  1.0  0.1162
  H  H526  1  0.405600  0.168600  0.661100  1.0  0.1034
  H  H527  1  0.406800  0.139200  0.690500  1.0  0.1251
  H  H528  1  0.416400  0.202700  0.688600  1.0  0.1097
  H  H529  1  0.311200  0.131400  0.652100  1.0  0.1198
  H  H530  1  0.264200  0.141500  0.674100  1.0  0.1283
  H  H531  1  0.312700  0.101800  0.681600  1.0  0.1143
  H  H532  1  0.414100  0.343900  0.769500  1.0  0.098
  H  H533  1  0.279500  0.411700  0.780600  1.0  0.1094
  H  H534  1  0.247900  0.357100  0.787100  1.0  0.0995
  H  H535  1  0.268600  0.369200  0.756300  1.0  0.117
  H  H536  1  0.349800  0.386500  0.819000  1.0  0.104
  H  H537  1  0.378300  0.328800  0.818500  1.0  0.1334
  H  H538  1  0.315200  0.333400  0.824700  1.0  0.1334
  H  H539  1  0.240100  0.873000  0.817000  1.0  0.1154
  H  H540  1  0.120200  0.881200  0.773900  1.0  0.1013
  H  H541  1  0.127100  0.943700  0.766800  1.0  0.1093
  H  H542  1  0.111100  0.925500  0.797500  1.0  0.1002
  H  H543  1  0.212900  0.863500  0.756100  1.0  0.1151
  H  H544  1  0.262900  0.897100  0.767600  1.0  0.1138
  H  H545  1  0.218500  0.925900  0.748800  1.0  0.1147
  H  H546  1  0.116700  0.033200  0.895100  1.0  0.1192
  H  H547  1  0.246000  0.020900  0.927800  1.0  0.1098
  H  H548  1  0.280600  0.046500  0.903100  1.0  0.116
  H  H549  1  0.254100  0.988300  0.899600  1.0  0.1141
  H  H550  1  0.185700  0.105500  0.927800  1.0  0.1076
  H  H551  1  0.156600  0.122200  0.899600  1.0  0.1202
  H  H552  1  0.220100  0.130300  0.902900  1.0  0.1301
  H  H553  1  0.350700  0.962000  0.518700  1.0  0.1399
  H  H554  1  0.336900  0.010200  0.539500  1.0  0.1416
  H  H555  1  0.295700  0.961300  0.535900  1.0  0.1363
  H  H556  1  0.475400  0.824300  0.307100  1.0  0.1087
  H  H557  1  0.486500  0.776000  0.249600  1.0  0.1117
  H  H558  1  0.528100  0.765100  0.274200  1.0  0.1221
  H  H559  1  0.549200  0.787800  0.245200  1.0  0.1164
  H  H560  1  0.465000  0.872400  0.235700  1.0  0.1141
  H  H561  1  0.527900  0.882700  0.231100  1.0  0.1233
  H  H562  1  0.494100  0.921500  0.251000  1.0  0.1221
  H  H563  1  0.554300  0.058400  0.319300  1.0  0.1205
  H  H564  1  0.591600  0.031100  0.391500  1.0  0.1045
  H  H565  1  0.636400  0.987000  0.384500  1.0  0.1104
  H  H566  1  0.574200  0.973400  0.379900  1.0  0.1119
  H  H567  1  0.640500  0.096200  0.359400  1.0  0.107
  H  H568  1  0.652000  0.079200  0.328000  1.0  0.1117
  H  H569  1  0.683800  0.050400  0.352700  1.0  0.1088
  H  H570  1  0.910200  0.776400  0.207600  1.0  0.0878
  H  H571  1  0.881300  0.643400  0.239000  1.0  0.1213
  H  H572  1  0.838100  0.666500  0.260400  1.0  0.1133
  H  H573  1  0.900400  0.680800  0.264100  1.0  0.1137
  H  H574  1  0.827400  0.688400  0.197900  1.0  0.1179
  H  H575  1  0.815600  0.751600  0.199400  1.0  0.1225
  H  H576  1  0.784600  0.711300  0.219700  1.0  0.1225
  H  H577  1  0.988200  0.847000  0.323000  1.0  0.1126
  H  H578  1  0.985500  0.966800  0.333000  1.0  0.1197
  H  H579  1  0.941200  0.925100  0.343700  1.0  0.1196
  H  H580  1  0.923800  0.974800  0.324700  1.0  0.1117
  H  H581  1  0.009300  0.968400  0.280900  1.0  0.1183
  H  H582  1  0.946900  0.975300  0.273700  1.0  0.1135
  H  H583  1  0.980300  0.926300  0.260900  1.0  0.1096
  H  H584  1  0.862300  0.738200  0.389100  1.0  0.1174
  H  H585  1  0.928800  0.704800  0.340300  1.0  0.1169
  H  H586  1  0.911900  0.766200  0.345100  1.0  0.1166
  H  H587  1  0.897900  0.737200  0.316500  1.0  0.1216
  H  H588  1  0.856000  0.632600  0.337600  1.0  0.107
  H  H589  1  0.828600  0.667400  0.313600  1.0  0.1175
  H  H590  1  0.794200  0.650000  0.340100  1.0  0.112
  H  H591  1  0.608700  0.726800  0.381600  1.0  0.113
  H  H592  1  0.543100  0.830700  0.386800  1.0  0.1137
  H  H593  1  0.559200  0.803700  0.357900  1.0  0.1199
  H  H594  1  0.574600  0.865100  0.363900  1.0  0.1292
  H  H595  1  0.619900  0.854000  0.422300  1.0  0.1189
  H  H596  1  0.650700  0.887000  0.398700  1.0  0.1244
  H  H597  1  0.680200  0.838300  0.414200  1.0  0.1138
  H  H598  1  0.817700  0.945200  0.159400  1.0  0.0936
  H  H599  1  0.917100  0.900600  0.180400  1.0  0.1137
  H  H600  1  0.860000  0.871700  0.183900  1.0  0.1294
  H  H601  1  0.897400  0.881700  0.210400  1.0  0.1192
  H  H602  1  0.930900  0.996500  0.200300  1.0  0.102
  H  H603  1  0.909800  0.976200  0.229800  1.0  0.1145
  H  H604  1  0.881100  0.025900  0.214900  1.0  0.1086
  H  H605  1  0.658400  0.102600  0.222800  1.0  0.108
  H  H606  1  0.566500  0.013100  0.186600  1.0  0.1136
  H  H607  1  0.583400  0.958200  0.201600  1.0  0.1192
  H  H608  1  0.624300  0.987100  0.180800  1.0  0.1097
  H  H609  1  0.550300  0.059000  0.234600  1.0  0.1141
  H  H610  1  0.599100  0.060700  0.256200  1.0  0.1226
  H  H611  1  0.567700  0.005600  0.250800  1.0  0.1364
  H  H612  1  0.723000  0.758600  0.174500  1.0  0.1144
  H  H613  1  0.594400  0.831400  0.161100  1.0  0.1036
  H  H614  1  0.593200  0.860800  0.190500  1.0  0.1247
  H  H615  1  0.583600  0.797300  0.188600  1.0  0.1101
  H  H616  1  0.688800  0.868600  0.152100  1.0  0.1209
  H  H617  1  0.735800  0.858500  0.174100  1.0  0.1285
  H  H618  1  0.687300  0.898200  0.181600  1.0  0.1133
  H  H619  1  0.585900  0.656100  0.269500  1.0  0.0978
  H  H620  1  0.720500  0.588300  0.280600  1.0  0.1092
  H  H621  1  0.752100  0.642900  0.287100  1.0  0.1008
  H  H622  1  0.731400  0.630800  0.256300  1.0  0.1164
  H  H623  1  0.650200  0.613500  0.319000  1.0  0.1048
  H  H624  1  0.621700  0.671200  0.318500  1.0  0.1338
  H  H625  1  0.684800  0.666667  0.324700  1.0  0.134
  H  H626  1  0.759900  0.127000  0.317000  1.0  0.1156
  H  H627  1  0.879800  0.118800  0.273900  1.0  0.0996
  H  H628  1  0.872900  0.056300  0.266800  1.0  0.1078
  H  H629  1  0.888900  0.074500  0.297500  1.0  0.101
  H  H630  1  0.787100  0.136500  0.256100  1.0  0.1152
  H  H631  1  0.737100  0.102900  0.267600  1.0  0.1146
  H  H632  1  0.781500  0.074100  0.248800  1.0  0.1132
  H  H633  1  0.883300  0.966800  0.395100  1.0  0.1185
  H  H634  1  0.754000  0.979100  0.427800  1.0  0.1101
  H  H635  1  0.719400  0.953500  0.403100  1.0  0.1165
  H  H636  1  0.745900  0.011700  0.399600  1.0  0.1154
  H  H637  1  0.814300  0.894500  0.427800  1.0  0.1056
  H  H638  1  0.843400  0.877800  0.399600  1.0  0.1197
  H  H639  1  0.779900  0.869700  0.402900  1.0  0.1312
  H  H640  1  0.649300  0.038000  0.018700  1.0  0.1401
  H  H641  1  0.663100  0.989800  0.039500  1.0  0.1435
  H  H642  1  0.704300  0.038700  0.035900  1.0  0.1375
  H  H643  1  0.675700  0.975400  0.557100  1.0  0.1086
  H  H644  1  0.724000  0.986500  0.499600  1.0  0.1123
  H  H645  1  0.734900  0.028100  0.524200  1.0  0.1219
  H  H646  1  0.712200  0.049200  0.495200  1.0  0.1176
  H  H647  1  0.627600  0.965000  0.485700  1.0  0.1137
  H  H648  1  0.617300  0.027900  0.481100  1.0  0.1232
  H  H649  1  0.578500  0.994100  0.501000  1.0  0.1234
  H  H650  1  0.441600  0.054300  0.569300  1.0  0.1213
  H  H651  1  0.468900  0.091600  0.641500  1.0  0.1039
  H  H652  1  0.513000  0.136400  0.634500  1.0  0.1069
  H  H653  1  0.526600  0.074200  0.629900  1.0  0.1107
  H  H654  1  0.403800  0.140500  0.609400  1.0  0.1095
  H  H655  1  0.420800  0.152000  0.578000  1.0  0.111
  H  H656  1  0.449600  0.183800  0.602700  1.0  0.1116
  H  H657  1  0.723600  0.410200  0.457600  1.0  0.0868
  H  H658  1  0.856600  0.381300  0.489000  1.0  0.1214
  H  H659  1  0.833500  0.338100  0.510400  1.0  0.1146
  H  H660  1  0.819200  0.400400  0.514100  1.0  0.1129
  H  H661  1  0.811600  0.327400  0.447900  1.0  0.1179
  H  H662  1  0.748400  0.315600  0.449400  1.0  0.1187
  H  H663  1  0.788700  0.284600  0.469700  1.0  0.1261
  H  H664  1  0.653000  0.488200  0.573000  1.0  0.1124
  H  H665  1  0.533200  0.485500  0.583000  1.0  0.1207
  H  H666  1  0.574900  0.441200  0.593700  1.0  0.1192
  H  H667  1  0.525200  0.423800  0.574700  1.0  0.1139
  H  H668  1  0.531600  0.509300  0.530900  1.0  0.1179
  H  H669  1  0.524700  0.446900  0.523700  1.0  0.1138
  H  H670  1  0.573700  0.480300  0.510900  1.0  0.1079
  H  H671  1  0.761800  0.362300  0.639100  1.0  0.118
  H  H672  1  0.795200  0.428800  0.590300  1.0  0.1167
  H  H673  1  0.733800  0.411900  0.595100  1.0  0.1149
  H  H674  1  0.762800  0.397900  0.566500  1.0  0.1215
  H  H675  1  0.867400  0.356000  0.587600  1.0  0.1083
  H  H676  1  0.832600  0.328600  0.563600  1.0  0.1204
  H  H677  1  0.850000  0.294200  0.590100  1.0  0.1149
  H  H678  1  0.773200  0.108700  0.631600  1.0  0.1134
  H  H679  1  0.669300  0.043100  0.636800  1.0  0.1142
  H  H680  1  0.696300  0.059200  0.607900  1.0  0.1202
  H  H681  1  0.634900  0.074600  0.613900  1.0  0.1259
  H  H682  1  0.646000  0.119900  0.672300  1.0  0.1177
  H  H683  1  0.613000  0.150700  0.648700  1.0  0.1219
  H  H684  1  0.661700  0.180200  0.664200  1.0  0.1163
  H  H685  1  0.554800  0.317700  0.409400  1.0  0.0933
  H  H686  1  0.599400  0.417100  0.430400  1.0  0.116
  H  H687  1  0.628300  0.360000  0.433900  1.0  0.1288
  H  H688  1  0.618300  0.397400  0.460400  1.0  0.1203
  H  H689  1  0.503500  0.430900  0.450300  1.0  0.1031
  H  H690  1  0.523800  0.409800  0.479800  1.0  0.1153
  H  H691  1  0.474100  0.381100  0.464900  1.0  0.107
  H  H692  1  0.397400  0.158400  0.472800  1.0  0.1105
  H  H693  1  0.486900  0.066500  0.436600  1.0  0.1146
  H  H694  1  0.541800  0.083400  0.451600  1.0  0.1191
  H  H695  1  0.512900  0.124300  0.430800  1.0  0.1113
  H  H696  1  0.441000  0.050300  0.484600  1.0  0.112
  H  H697  1  0.439300  0.099100  0.506200  1.0  0.1229
  H  H698  1  0.494400  0.067700  0.500800  1.0  0.136
  H  H699  1  0.741400  0.223000  0.424500  1.0  0.1129
  H  H700  1  0.668600  0.094400  0.411100  1.0  0.1039
  H  H701  1  0.639200  0.093200  0.440500  1.0  0.1241
  H  H702  1  0.702700  0.083600  0.438600  1.0  0.1107
  H  H703  1  0.631400  0.188800  0.402100  1.0  0.1201
  H  H704  1  0.641500  0.235800  0.424100  1.0  0.1273
  H  H705  1  0.601800  0.187300  0.431600  1.0  0.1098
  H  H706  1  0.843900  0.085900  0.519500  1.0  0.0969
  H  H707  1  0.911700  0.220500  0.530600  1.0  0.1132
  H  H708  1  0.857100  0.252100  0.537100  1.0  0.1018
  H  H709  1  0.869200  0.231400  0.506300  1.0  0.1198
  H  H710  1  0.886500  0.150200  0.569000  1.0  0.1039
  H  H711  1  0.828800  0.121700  0.568500  1.0  0.1349
  H  H712  1  0.833400  0.184800  0.574700  1.0  0.1342
  H  H713  1  0.373000  0.259900  0.567000  1.0  0.1154
  H  H714  1  0.381200  0.379800  0.523900  1.0  0.099
  H  H715  1  0.443700  0.372900  0.516800  1.0  0.1083
  H  H716  1  0.425500  0.388900  0.547500  1.0  0.1
  H  H717  1  0.363500  0.287100  0.506100  1.0  0.1131
  H  H718  1  0.397100  0.237100  0.517600  1.0  0.1134
  H  H719  1  0.425900  0.281500  0.498800  1.0  0.1122
  H  H720  1  0.533200  0.383300  0.645100  1.0  0.1161
  H  H721  1  0.520900  0.254000  0.677800  1.0  0.1095
  H  H722  1  0.546500  0.219400  0.653100  1.0  0.1173
  H  H723  1  0.488300  0.245900  0.649600  1.0  0.1139
  H  H724  1  0.605500  0.314300  0.677800  1.0  0.1054
  H  H725  1  0.622200  0.343400  0.649600  1.0  0.1189
  H  H726  1  0.630300  0.279900  0.652900  1.0  0.1318
  H  H727  1  0.462000  0.149300  0.268700  1.0  0.1406
  H  H728  1  0.510200  0.163100  0.289500  1.0  0.14
  H  H729  1  0.461300  0.204300  0.285900  1.0  0.138
  H  H730  1  0.324300  0.024600  0.057100  1.0  0.1081
  H  H731  1  0.276000  0.013500  0.999600  1.0  0.1134
  H  H732  1  0.265100  0.971900  0.024200  1.0  0.1217
  H  H733  1  0.287800  0.950800  0.995200  1.0  0.1175
  H  H734  1  0.372400  0.035000  0.985700  1.0  0.1133
  H  H735  1  0.382700  0.972100  0.981100  1.0  0.1233
  H  H736  1  0.421500  0.005900  0.001000  1.0  0.124
  H  H737  1  0.558400  0.945700  0.069300  1.0  0.1218
  H  H738  1  0.531100  0.908400  0.141500  1.0  0.1034
  H  H739  1  0.487000  0.863600  0.134500  1.0  0.108
  H  H740  1  0.473400  0.925800  0.129900  1.0  0.1098
  H  H741  1  0.596200  0.859500  0.109400  1.0  0.1092
  H  H742  1  0.579200  0.848000  0.078000  1.0  0.1118
  H  H743  1  0.550400  0.816200  0.102700  1.0  0.1114
  H  H744  1  0.276400  0.589800  0.957600  1.0  0.0868
  H  H745  1  0.143400  0.618700  0.989000  1.0  0.1212
  H  H746  1  0.166500  0.661900  0.010400  1.0  0.1149
  H  H747  1  0.180800  0.599600  0.014100  1.0  0.1146
  H  H748  1  0.188400  0.672600  0.947900  1.0  0.1167
  H  H749  1  0.251600  0.684400  0.949400  1.0  0.1201
  H  H750  1  0.211300  0.715400  0.969700  1.0  0.1263
  H  H751  1  0.347000  0.511800  0.073000  1.0  0.1125
  H  H752  1  0.466800  0.514500  0.083000  1.0  0.1212
  H  H753  1  0.425100  0.558800  0.093700  1.0  0.1197
  H  H754  1  0.474800  0.576200  0.074700  1.0  0.1137
  H  H755  1  0.468400  0.490700  0.030900  1.0  0.1163
  H  H756  1  0.475300  0.553100  0.023700  1.0  0.1133
  H  H757  1  0.426300  0.519700  0.010900  1.0  0.1083
  H  H758  1  0.238200  0.637700  0.139100  1.0  0.1182
  H  H759  1  0.204800  0.571200  0.090300  1.0  0.1166
  H  H760  1  0.266200  0.588100  0.095100  1.0  0.1121
  H  H761  1  0.237200  0.602100  0.066500  1.0  0.1211
  H  H762  1  0.132600  0.644000  0.087600  1.0  0.1086
  H  H763  1  0.167400  0.671400  0.063600  1.0  0.1204
  H  H764  1  0.150000  0.705800  0.090100  1.0  0.1164
  H  H765  1  0.226800  0.891300  0.131600  1.0  0.1139
  H  H766  1  0.330700  0.956900  0.136800  1.0  0.1132
  H  H767  1  0.303700  0.940800  0.107900  1.0  0.1202
  H  H768  1  0.365100  0.925400  0.113900  1.0  0.128
  H  H769  1  0.354000  0.880100  0.172300  1.0  0.1186
  H  H770  1  0.387000  0.849300  0.148700  1.0  0.1228
  H  H771  1  0.338300  0.819800  0.164200  1.0  0.117
  H  H772  1  0.445200  0.682300  0.909400  1.0  0.0933
  H  H773  1  0.400600  0.582900  0.930400  1.0  0.1152
  H  H774  1  0.371700  0.640000  0.933900  1.0  0.1289
  H  H775  1  0.381700  0.602600  0.960400  1.0  0.1195
  H  H776  1  0.496500  0.569100  0.950300  1.0  0.1027
  H  H777  1  0.476200  0.590200  0.979800  1.0  0.1152
  H  H778  1  0.525900  0.618900  0.964900  1.0  0.1071
  H  H779  1  0.602600  0.841600  0.972800  1.0  0.1082
  H  H780  1  0.513100  0.933500  0.936600  1.0  0.1148
  H  H781  1  0.458200  0.916600  0.951600  1.0  0.1169
  H  H782  1  0.487100  0.875700  0.930800  1.0  0.11
  H  H783  1  0.559000  0.949700  0.984600  1.0  0.1118
  H  H784  1  0.560700  0.900900  0.006200  1.0  0.1227
  H  H785  1  0.505600  0.932300  0.000800  1.0  0.1339
  H  H786  1  0.258600  0.777000  0.924500  1.0  0.1123
  H  H787  1  0.331400  0.905600  0.911100  1.0  0.1034
  H  H788  1  0.360800  0.906800  0.940500  1.0  0.1247
  H  H789  1  0.297300  0.916400  0.938600  1.0  0.1091
  H  H790  1  0.368600  0.811200  0.902100  1.0  0.1188
  H  H791  1  0.358500  0.764200  0.924100  1.0  0.1247
  H  H792  1  0.398200  0.812700  0.931600  1.0  0.1129
  H  H793  1  0.156100  0.914100  0.019500  1.0  0.0964
  H  H794  1  0.088300  0.779500  0.030600  1.0  0.1123
  H  H795  1  0.142900  0.747900  0.037100  1.0  0.1022
  H  H796  1  0.130800  0.768600  0.006300  1.0  0.1193
  H  H797  1  0.113500  0.849800  0.069000  1.0  0.1076
  H  H798  1  0.171200  0.878300  0.068500  1.0  0.1342
  H  H799  1  0.166600  0.815200  0.074700  1.0  0.1345
  H  H800  1  0.627000  0.740100  0.067000  1.0  0.1144
  H  H801  1  0.618800  0.620200  0.023900  1.0  0.101
  H  H802  1  0.556300  0.627100  0.016800  1.0  0.1074
  H  H803  1  0.574500  0.611100  0.047500  1.0  0.1008
  H  H804  1  0.636500  0.712900  0.006100  1.0  0.1144
  H  H805  1  0.602900  0.762900  0.017600  1.0  0.114
  H  H806  1  0.574100  0.718500  0.998800  1.0  0.1122
  H  H807  1  0.466800  0.616700  0.145100  1.0  0.1167
  H  H808  1  0.479100  0.746000  0.177800  1.0  0.1103
  H  H809  1  0.453500  0.780600  0.153100  1.0  0.1177
  H  H810  1  0.511700  0.754100  0.149600  1.0  0.1161
  H  H811  1  0.394500  0.685700  0.177800  1.0  0.1075
  H  H812  1  0.377800  0.656600  0.149600  1.0  0.12
  H  H813  1  0.369700  0.720100  0.152900  1.0  0.1317
  H  H814  1  0.538000  0.850700  0.768700  1.0  0.1401
  H  H815  1  0.489800  0.836900  0.789500  1.0  0.1392
  H  H816  1  0.538700  0.795700  0.785900  1.0  0.1379
  C  C817  1  0.968600  0.647500  0.457200  1.0  0.0375
  C  C818  1  0.011200  0.652200  0.480840  1.0  0.094
  C  C819  1  0.019500  0.711400  0.491500  1.0  -0.3896
  C  C820  1  0.998400  0.615600  0.505500  1.0  -0.3643
  C  C821  1  0.910800  0.655900  0.470300  1.0  0.6474
  C  C822  1  0.048900  0.457700  0.411880  1.0  0.012
  C  C823  1  0.105200  0.476600  0.401050  1.0  0.1327
  C  C824  1  0.101500  0.498300  0.371040  1.0  -0.3564
  C  C825  1  0.149400  0.433800  0.402900  1.0  -0.3815
  C  C826  1  0.021900  0.413500  0.392800  1.0  0.6481
  C  C827  1  0.418100  0.755700  0.530620  1.0  -0.0087
  C  C828  1  0.364100  0.775000  0.517920  1.0  0.1438
  C  C829  1  0.371700  0.825800  0.499370  1.0  -0.3755
  C  C830  1  0.318700  0.781500  0.539760  1.0  -0.3829
  C  C831  1  0.443600  0.802000  0.550800  1.0  0.6385
  C  C832  1  0.499600  0.632300  0.443700  1.0  -0.0325
  C  C833  1  0.460800  0.585900  0.447530  1.0  0.1221
  C  C834  1  0.452000  0.551800  0.421760  1.0  -0.3708
  C  C835  1  0.475700  0.550700  0.472800  1.0  -0.3652
  C  C836  1  0.560300  0.613600  0.439200  1.0  0.5586
  C  C837  1  0.345300  0.794100  0.369680  1.0  0.0046
  C  C838  1  0.346800  0.786500  0.401410  1.0  0.1165
  C  C839  1  0.401400  0.767900  0.413500  1.0  -0.3841
  C  C840  1  0.329800  0.838900  0.416400  1.0  -0.3686
  C  C841  1  0.377500  0.845400  0.360100  1.0  0.6274
  C  C842  1  0.125000  0.748600  0.354300  1.0  0.0258
  C  C843  1  0.123900  0.688700  0.365440  1.0  0.1248
  C  C844  1  0.070400  0.670700  0.377800  1.0  -0.3935
  C  C845  1  0.145700  0.648600  0.343000  1.0  -0.3796
  C  C846  1  0.090900  0.750500  0.326500  1.0  0.6915
  C  C847  1  0.335900  0.525300  0.580060  1.0  -0.0302
  C  C848  1  0.359000  0.548600  0.552930  1.0  0.14
  C  C849  1  0.385800  0.603600  0.557500  1.0  -0.3757
  C  C850  1  0.399000  0.508700  0.538050  1.0  -0.3679
  C  C851  1  0.383500  0.499700  0.599160  1.0  0.6409
  C  C852  1  0.148600  0.421400  0.543010  1.0  0.0294
  C  C853  1  0.120100  0.474900  0.531090  1.0  0.0761
  C  C854  1  0.096400  0.507000  0.555200  1.0  -0.3697
  C  C855  1  0.080700  0.461200  0.507780  1.0  -0.3813
  C  C856  1  0.108700  0.389400  0.563500  1.0  0.6824
  C  C857  1  0.183200  0.738300  0.577890  1.0  0.0068
  C  C858  1  0.165800  0.682000  0.566040  1.0  0.1094
  C  C859  1  0.103300  0.672200  0.569300  1.0  -0.3569
  C  C860  1  0.197200  0.635000  0.578140  1.0  -0.3582
  C  C861  1  0.170700  0.745300  0.609300  1.0  0.6847
  C  C862  1  0.120300  0.861100  0.486500  1.0  -0.0481
  C  C863  1  0.166500  0.843600  0.466900  1.0  0.089
  C  C864  1  0.223300  0.873400  0.473900  1.0  -0.3614
  C  C865  1  0.114100  0.926500  0.485800  1.0  0.6091
  C  C866  1  0.154700  0.848500  0.435900  1.0  -0.3738
  C  C867  1  0.299300  0.374500  0.437070  1.0  -0.0321
  C  C868  1  0.307500  0.412900  0.461150  1.0  0.0974
  C  C869  1  0.367800  0.416100  0.468980  1.0  -0.382
  C  C870  1  0.275400  0.398600  0.486990  1.0  -0.3819
  C  C871  1  0.319400  0.314300  0.442950  1.0  0.6634
  C  C872  1  0.350500  0.512800  0.349130  1.0  0.002
  C  C873  1  0.300900  0.549700  0.354020  1.0  0.1359
  C  C874  1  0.250600  0.524100  0.342400  1.0  -0.3473
  C  C875  1  0.310500  0.607300  0.342400  1.0  -0.3813
  C  C876  1  0.358200  0.495700  0.318900  1.0  0.6676
  C  C877  1  0.134800  0.437700  0.687300  1.0  0.4207
  C  C878  1  0.166200  0.471400  0.713600  1.0  -0.3421
  C  C879  1  0.031400  0.352500  0.957200  1.0  0.038
  C  C880  1  0.988800  0.347800  0.980840  1.0  0.0939
  C  C881  1  0.980500  0.288600  0.991500  1.0  -0.389
  C  C882  1  0.001600  0.384400  0.005500  1.0  -0.3636
  C  C883  1  0.089200  0.344100  0.970300  1.0  0.6475
  C  C884  1  0.951100  0.542300  0.911880  1.0  0.0123
  C  C885  1  0.894800  0.523400  0.901050  1.0  0.1325
  C  C886  1  0.898500  0.501700  0.871040  1.0  -0.3566
  C  C887  1  0.850600  0.566200  0.902900  1.0  -0.381
  C  C888  1  0.978100  0.586500  0.892800  1.0  0.647
  C  C889  1  0.581900  0.244300  0.030620  1.0  -0.0085
  C  C890  1  0.635900  0.225000  0.017920  1.0  0.143
  C  C891  1  0.628300  0.174200  0.999370  1.0  -0.3751
  C  C892  1  0.681300  0.218500  0.039760  1.0  -0.3835
  C  C893  1  0.556400  0.198000  0.050800  1.0  0.6407
  C  C894  1  0.500400  0.367700  0.943700  1.0  -0.0316
  C  C895  1  0.539200  0.414100  0.947530  1.0  0.1219
  C  C896  1  0.548000  0.448200  0.921760  1.0  -0.371
  C  C897  1  0.524300  0.449300  0.972800  1.0  -0.3639
  C  C898  1  0.439700  0.386400  0.939200  1.0  0.5586
  C  C899  1  0.654700  0.205900  0.869680  1.0  0.003
  C  C900  1  0.653200  0.213500  0.901410  1.0  0.1143
  C  C901  1  0.598600  0.232100  0.913500  1.0  -0.3834
  C  C902  1  0.670200  0.161100  0.916400  1.0  -0.368
  C  C903  1  0.622500  0.154600  0.860100  1.0  0.6293
  C  C904  1  0.875000  0.251400  0.854300  1.0  0.0286
  C  C905  1  0.876100  0.311300  0.865440  1.0  0.1261
  C  C906  1  0.929600  0.329300  0.877800  1.0  -0.3925
  C  C907  1  0.854300  0.351400  0.843000  1.0  -0.3795
  C  C908  1  0.909100  0.249500  0.826500  1.0  0.6906
  C  C909  1  0.664100  0.474700  0.080060  1.0  -0.0292
  C  C910  1  0.641000  0.451400  0.052930  1.0  0.1396
  C  C911  1  0.614200  0.396400  0.057500  1.0  -0.3747
  C  C912  1  0.601000  0.491300  0.038050  1.0  -0.3679
  C  C913  1  0.616500  0.500300  0.099160  1.0  0.6382
  C  C914  1  0.851400  0.578600  0.043010  1.0  0.0283
  C  C915  1  0.879900  0.525100  0.031090  1.0  0.0747
  C  C916  1  0.903600  0.493000  0.055200  1.0  -0.3692
  C  C917  1  0.919300  0.538800  0.007780  1.0  -0.3817
  C  C918  1  0.891300  0.610600  0.063500  1.0  0.6806
  C  C919  1  0.816800  0.261700  0.077890  1.0  0.0072
  C  C920  1  0.834200  0.318000  0.066040  1.0  0.1102
  C  C921  1  0.896700  0.327800  0.069300  1.0  -0.3547
  C  C922  1  0.802800  0.365000  0.078140  1.0  -0.36
  C  C923  1  0.829300  0.254700  0.109300  1.0  0.6819
  C  C924  1  0.879700  0.138900  0.986500  1.0  -0.0476
  C  C925  1  0.833500  0.156400  0.966900  1.0  0.0891
  C  C926  1  0.776700  0.126600  0.973900  1.0  -0.3631
  C  C927  1  0.885900  0.073500  0.985800  1.0  0.6112
  C  C928  1  0.845300  0.151500  0.935900  1.0  -0.3759
  C  C929  1  0.700700  0.625500  0.937070  1.0  -0.0314
  C  C930  1  0.692500  0.587100  0.961150  1.0  0.0979
  C  C931  1  0.632200  0.583900  0.968980  1.0  -0.3836
  C  C932  1  0.724600  0.601400  0.986990  1.0  -0.3802
  C  C933  1  0.680600  0.685700  0.942950  1.0  0.6634
  C  C934  1  0.649500  0.487200  0.849130  1.0  0.0014
  C  C935  1  0.699100  0.450300  0.854020  1.0  0.1363
  C  C936  1  0.749400  0.475900  0.842400  1.0  -0.3473
  C  C937  1  0.689500  0.392700  0.842400  1.0  -0.3809
  C  C938  1  0.641800  0.504300  0.818900  1.0  0.6706
  C  C939  1  0.865200  0.562300  0.187300  1.0  0.4203
  C  C940  1  0.833800  0.528600  0.213600  1.0  -0.3419
  C  C941  1  0.852500  0.468600  0.707200  1.0  0.0387
  C  C942  1  0.847800  0.511200  0.730840  1.0  0.0918
  C  C943  1  0.788600  0.519500  0.741500  1.0  -0.3911
  C  C944  1  0.884400  0.498400  0.755500  1.0  -0.3617
  C  C945  1  0.844100  0.410800  0.720300  1.0  0.6467
  C  C946  1  0.042300  0.548900  0.661880  1.0  0.0145
  C  C947  1  0.023400  0.605200  0.651050  1.0  0.135
  C  C948  1  0.001700  0.601500  0.621040  1.0  -0.3563
  C  C949  1  0.066200  0.649400  0.652900  1.0  -0.3826
  C  C950  1  0.086500  0.521900  0.642800  1.0  0.6437
  C  C951  1  0.744300  0.918100  0.780620  1.0  -0.0037
  C  C952  1  0.725000  0.864100  0.767920  1.0  0.1441
  C  C953  1  0.674200  0.871700  0.749370  1.0  -0.3731
  C  C954  1  0.718500  0.818700  0.789760  1.0  -0.3833
  C  C955  1  0.698000  0.943600  0.800800  1.0  0.6295
  C  C956  1  0.867700  0.999600  0.693700  1.0  -0.0338
  C  C957  1  0.914100  0.960800  0.697530  1.0  0.1231
  C  C958  1  0.948200  0.952000  0.671760  1.0  -0.3716
  C  C959  1  0.949300  0.975700  0.722800  1.0  -0.3648
  C  C960  1  0.886400  0.060300  0.689200  1.0  0.5608
  C  C961  1  0.705900  0.845300  0.619680  1.0  0.0029
  C  C962  1  0.713500  0.846800  0.651410  1.0  0.115
  C  C963  1  0.732100  0.901400  0.663500  1.0  -0.382
  C  C964  1  0.661100  0.829800  0.666400  1.0  -0.3673
  C  C965  1  0.654600  0.877500  0.610100  1.0  0.6274
  C  C966  1  0.751400  0.625000  0.604300  1.0  0.0268
  C  C967  1  0.811300  0.623900  0.615440  1.0  0.1246
  C  C968  1  0.829300  0.570400  0.627800  1.0  -0.3931
  C  C969  1  0.851400  0.645700  0.593000  1.0  -0.3795
  C  C970  1  0.749500  0.590900  0.576500  1.0  0.6936
  C  C971  1  0.974700  0.835900  0.830060  1.0  -0.0261
  C  C972  1  0.951400  0.859000  0.802930  1.0  0.1377
  C  C973  1  0.896400  0.885800  0.807500  1.0  -0.3769
  C  C974  1  0.991300  0.899000  0.788050  1.0  -0.3694
  C  C975  1  0.000300  0.883500  0.849160  1.0  0.6424
  C  C976  1  0.078600  0.648600  0.793010  1.0  0.0286
  C  C977  1  0.025100  0.620100  0.781090  1.0  0.0768
  C  C978  1  0.993000  0.596400  0.805200  1.0  -0.3694
  C  C979  1  0.038800  0.580700  0.757780  1.0  -0.3836
  C  C980  1  0.110600  0.608700  0.813500  1.0  0.6825
  C  C981  1  0.761700  0.683200  0.827890  1.0  0.0042
  C  C982  1  0.818000  0.665800  0.816040  1.0  0.1102
  C  C983  1  0.827800  0.603300  0.819300  1.0  -0.3562
  C  C984  1  0.865000  0.697200  0.828140  1.0  -0.3568
  C  C985  1  0.754700  0.670700  0.859300  1.0  0.6822
  C  C986  1  0.638900  0.620300  0.736500  1.0  -0.0493
  C  C987  1  0.656400  0.666500  0.716900  1.0  0.0913
  C  C988  1  0.626600  0.723300  0.723900  1.0  -0.3649
  C  C989  1  0.573500  0.614100  0.735800  1.0  0.6085
  C  C990  1  0.651500  0.654700  0.685900  1.0  -0.3734
  C  C991  1  0.125500  0.799300  0.687070  1.0  -0.0325
  C  C992  1  0.087100  0.807500  0.711150  1.0  0.0966
  C  C993  1  0.083900  0.867800  0.718980  1.0  -0.3849
  C  C994  1  0.101400  0.775400  0.736990  1.0  -0.3778
  C  C995  1  0.185700  0.819400  0.692950  1.0  0.6642
  C  C996  1  0.987200  0.850500  0.599130  1.0  0.0008
  C  C997  1  0.950300  0.800900  0.604020  1.0  0.1359
  C  C998  1  0.975900  0.750600  0.592400  1.0  -0.3497
  C  C999  1  0.892700  0.810500  0.592400  1.0  -0.3773
  C  C1000  1  0.004300  0.858200  0.568900  1.0  0.6668
  C  C1001  1  0.062300  0.634800  0.937300  1.0  0.4202
  C  C1002  1  0.028600  0.666200  0.963600  1.0  -0.3416
  C  C1003  1  0.147500  0.531400  0.207200  1.0  0.0394
  C  C1004  1  0.152200  0.488800  0.230840  1.0  0.0913
  C  C1005  1  0.211400  0.480500  0.241500  1.0  -0.3889
  C  C1006  1  0.115600  0.501600  0.255500  1.0  -0.3621
  C  C1007  1  0.155900  0.589200  0.220300  1.0  0.6482
  C  C1008  1  0.957700  0.451100  0.161880  1.0  0.0142
  C  C1009  1  0.976600  0.394800  0.151050  1.0  0.1331
  C  C1010  1  0.998300  0.398500  0.121040  1.0  -0.3573
  C  C1011  1  0.933800  0.350600  0.152900  1.0  -0.3824
  C  C1012  1  0.913500  0.478100  0.142800  1.0  0.6456
  C  C1013  1  0.255700  0.081900  0.280620  1.0  -0.0061
  C  C1014  1  0.275000  0.135900  0.267920  1.0  0.1471
  C  C1015  1  0.325800  0.128300  0.249370  1.0  -0.3736
  C  C1016  1  0.281500  0.181300  0.289760  1.0  -0.3831
  C  C1017  1  0.302000  0.056400  0.300800  1.0  0.6287
  C  C1018  1  0.132300  0.000400  0.193700  1.0  -0.0337
  C  C1019  1  0.085900  0.039200  0.197530  1.0  0.1212
  C  C1020  1  0.051800  0.048000  0.171760  1.0  -0.3704
  C  C1021  1  0.050700  0.024300  0.222800  1.0  -0.3635
  C  C1022  1  0.113600  0.939700  0.189200  1.0  0.5624
  C  C1023  1  0.294100  0.154700  0.119680  1.0  0.0031
  C  C1024  1  0.286500  0.153200  0.151410  1.0  0.1158
  C  C1025  1  0.267900  0.098600  0.163500  1.0  -0.3809
  C  C1026  1  0.338900  0.170200  0.166400  1.0  -0.3657
  C  C1027  1  0.345400  0.122500  0.110100  1.0  0.6267
  C  C1028  1  0.248600  0.375000  0.104300  1.0  0.0267
  C  C1029  1  0.188700  0.376100  0.115440  1.0  0.125
  C  C1030  1  0.170700  0.429600  0.127800  1.0  -0.3925
  C  C1031  1  0.148600  0.354300  0.093000  1.0  -0.379
  C  C1032  1  0.250500  0.409100  0.076500  1.0  0.6925
  C  C1033  1  0.025300  0.164100  0.330060  1.0  -0.0265
  C  C1034  1  0.048600  0.141000  0.302930  1.0  0.1397
  C  C1035  1  0.103600  0.114200  0.307500  1.0  -0.3737
  C  C1036  1  0.008700  0.101000  0.288050  1.0  -0.3685
  C  C1037  1  0.999700  0.116500  0.349160  1.0  0.6413
  C  C1038  1  0.921400  0.351400  0.293010  1.0  0.0295
  C  C1039  1  0.974900  0.379900  0.281090  1.0  0.075
  C  C1040  1  0.007000  0.403600  0.305200  1.0  -0.37
  C  C1041  1  0.961200  0.419300  0.257780  1.0  -0.3823
  C  C1042  1  0.889400  0.391300  0.313500  1.0  0.681
  C  C1043  1  0.238300  0.316800  0.327890  1.0  0.0069
  C  C1044  1  0.182000  0.334200  0.316040  1.0  0.1086
  C  C1045  1  0.172200  0.396700  0.319300  1.0  -0.3559
  C  C1046  1  0.135000  0.302800  0.328140  1.0  -0.3578
  C  C1047  1  0.245300  0.329300  0.359300  1.0  0.6825
  C  C1048  1  0.361100  0.379700  0.236500  1.0  -0.049
  C  C1049  1  0.343600  0.333500  0.216900  1.0  0.0915
  C  C1050  1  0.373400  0.276700  0.223900  1.0  -0.366
  C  C1051  1  0.426500  0.385900  0.235800  1.0  0.6071
  C  C1052  1  0.348500  0.345300  0.185900  1.0  -0.374
  C  C1053  1  0.874500  0.200700  0.187070  1.0  -0.0334
  C  C1054  1  0.912900  0.192500  0.211150  1.0  0.0974
  C  C1055  1  0.916100  0.132200  0.218980  1.0  -0.3853
  C  C1056  1  0.898600  0.224600  0.236990  1.0  -0.3783
  C  C1057  1  0.814300  0.180600  0.192950  1.0  0.6656
  C  C1058  1  0.012800  0.149500  0.099130  1.0  0.0012
  C  C1059  1  0.049700  0.199100  0.104020  1.0  0.1368
  C  C1060  1  0.024100  0.249400  0.092400  1.0  -0.3489
  C  C1061  1  0.107300  0.189500  0.092400  1.0  -0.378
  C  C1062  1  0.995700  0.141800  0.068900  1.0  0.672
  C  C1063  1  0.937700  0.365200  0.437300  1.0  0.4198
  C  C1064  1  0.971400  0.333800  0.463600  1.0  -0.3414
  C  C1065  1  0.531400  0.147500  0.792800  1.0  0.0378
  C  C1066  1  0.488800  0.152200  0.769160  1.0  0.0951
  C  C1067  1  0.480500  0.211400  0.758500  1.0  -0.3888
  C  C1068  1  0.501600  0.115600  0.744500  1.0  -0.3659
  C  C1069  1  0.589200  0.155900  0.779700  1.0  0.6467
  C  C1070  1  0.451100  0.957700  0.838120  1.0  0.0123
  C  C1071  1  0.394800  0.976600  0.848950  1.0  0.1296
  C  C1072  1  0.398500  0.998300  0.878960  1.0  -0.3576
  C  C1073  1  0.350600  0.933800  0.847100  1.0  -0.3811
  C  C1074  1  0.478100  0.913500  0.857200  1.0  0.6488
  C  C1075  1  0.081900  0.255700  0.719380  1.0  -0.0115
  C  C1076  1  0.135900  0.275000  0.732080  1.0  0.1441
  C  C1077  1  0.128300  0.325800  0.750630  1.0  -0.3745
  C  C1078  1  0.181300  0.281500  0.710240  1.0  -0.3846
  C  C1079  1  0.056400  0.302000  0.699200  1.0  0.6411
  C  C1080  1  0.000400  0.132300  0.806300  1.0  -0.0323
  C  C1081  1  0.039200  0.085900  0.802470  1.0  0.1229
  C  C1082  1  0.048000  0.051800  0.828240  1.0  -0.3722
  C  C1083  1  0.024300  0.050700  0.777200  1.0  -0.3638
  C  C1084  1  0.939700  0.113600  0.810800  1.0  0.5587
  C  C1085  1  0.154700  0.294100  0.880320  1.0  0.003
  C  C1086  1  0.153200  0.286500  0.848590  1.0  0.1159
  C  C1087  1  0.098600  0.267900  0.836500  1.0  -0.383
  C  C1088  1  0.170200  0.338900  0.833600  1.0  -0.3686
  C  C1089  1  0.122500  0.345400  0.889900  1.0  0.6283
  C  C1090  1  0.375000  0.248600  0.895700  1.0  0.0268
  C  C1091  1  0.376100  0.188700  0.884560  1.0  0.1232
  C  C1092  1  0.429600  0.170700  0.872200  1.0  -0.3941
  C  C1093  1  0.354300  0.148600  0.907000  1.0  -0.3796
  C  C1094  1  0.409100  0.250500  0.923500  1.0  0.6909
  C  C1095  1  0.164100  0.025300  0.669940  1.0  -0.0311
  C  C1096  1  0.141000  0.048600  0.697070  1.0  0.1412
  C  C1097  1  0.114200  0.103600  0.692500  1.0  -0.3739
  C  C1098  1  0.101000  0.008700  0.711950  1.0  -0.3681
  C  C1099  1  0.116500  0.999700  0.650840  1.0  0.6469
  C  C1100  1  0.351400  0.921400  0.706990  1.0  0.028
  C  C1101  1  0.379900  0.974900  0.718910  1.0  0.0763
  C  C1102  1  0.403600  0.007000  0.694800  1.0  -0.3705
  C  C1103  1  0.419300  0.961200  0.742220  1.0  -0.3796
  C  C1104  1  0.391300  0.889400  0.686500  1.0  0.6809
  C  C1105  1  0.316800  0.238300  0.672110  1.0  0.0065
  C  C1106  1  0.334200  0.182000  0.683960  1.0  0.1135
  C  C1107  1  0.396700  0.172200  0.680700  1.0  -0.3544
  C  C1108  1  0.302800  0.135000  0.671860  1.0  -0.3605
  C  C1109  1  0.329300  0.245300  0.640700  1.0  0.6879
  C  C1110  1  0.379700  0.361100  0.763500  1.0  -0.0474
  C  C1111  1  0.333500  0.343600  0.783100  1.0  0.0893
  C  C1112  1  0.276700  0.373400  0.776100  1.0  -0.3623
  C  C1113  1  0.385900  0.426500  0.764200  1.0  0.6088
  C  C1114  1  0.345300  0.348500  0.814100  1.0  -0.3776
  C  C1115  1  0.200700  0.874500  0.812930  1.0  -0.0297
  C  C1116  1  0.192500  0.912900  0.788850  1.0  0.1001
  C  C1117  1  0.132200  0.916100  0.781020  1.0  -0.3837
  C  C1118  1  0.224600  0.898600  0.763010  1.0  -0.3792
  C  C1119  1  0.180600  0.814300  0.807050  1.0  0.6629
  C  C1120  1  0.149500  0.012800  0.900870  1.0  0.0022
  C  C1121  1  0.199100  0.049700  0.895980  1.0  0.1334
  C  C1122  1  0.249400  0.024100  0.907600  1.0  -0.3481
  C  C1123  1  0.189500  0.107300  0.907600  1.0  -0.3809
  C  C1124  1  0.141800  0.995700  0.931100  1.0  0.6699
  C  C1125  1  0.365200  0.937700  0.562700  1.0  0.4191
  C  C1126  1  0.333800  0.971400  0.536400  1.0  -0.3404
  C  C1127  1  0.468600  0.852500  0.292800  1.0  0.0381
  C  C1128  1  0.511200  0.847800  0.269160  1.0  0.095
  C  C1129  1  0.519500  0.788600  0.258500  1.0  -0.3891
  C  C1130  1  0.498400  0.884400  0.244500  1.0  -0.3641
  C  C1131  1  0.410800  0.844100  0.279700  1.0  0.6472
  C  C1132  1  0.548900  0.042300  0.338120  1.0  0.0112
  C  C1133  1  0.605200  0.023400  0.348950  1.0  0.1293
  C  C1134  1  0.601500  0.001700  0.378960  1.0  -0.3581
  C  C1135  1  0.649400  0.066200  0.347100  1.0  -0.3806
  C  C1136  1  0.521900  0.086500  0.357200  1.0  0.6488
  C  C1137  1  0.918100  0.744300  0.219380  1.0  -0.009
  C  C1138  1  0.864100  0.725000  0.232080  1.0  0.1441
  C  C1139  1  0.871700  0.674200  0.250630  1.0  -0.3753
  C  C1140  1  0.818700  0.718500  0.210240  1.0  -0.3832
  C  C1141  1  0.943600  0.698000  0.199200  1.0  0.6382
  C  C1142  1  0.999600  0.867700  0.306300  1.0  -0.033
  C  C1143  1  0.960800  0.914100  0.302470  1.0  0.1231
  C  C1144  1  0.952000  0.948200  0.328240  1.0  -0.3697
  C  C1145  1  0.975700  0.949300  0.277200  1.0  -0.3653
  C  C1146  1  0.060300  0.886400  0.310800  1.0  0.5596
  C  C1147  1  0.845300  0.705900  0.380320  1.0  0.0043
  C  C1148  1  0.846800  0.713500  0.348590  1.0  0.1164
  C  C1149  1  0.901400  0.732100  0.336500  1.0  -0.3838
  C  C1150  1  0.829800  0.661100  0.333600  1.0  -0.3672
  C  C1151  1  0.877500  0.654600  0.389900  1.0  0.6309
  C  C1152  1  0.625000  0.751400  0.395700  1.0  0.0282
  C  C1153  1  0.623900  0.811300  0.384560  1.0  0.123
  C  C1154  1  0.570400  0.829300  0.372200  1.0  -0.3941
  C  C1155  1  0.645700  0.851400  0.407000  1.0  -0.3796
  C  C1156  1  0.590900  0.749500  0.423500  1.0  0.6913
  C  C1157  1  0.835900  0.974700  0.169940  1.0  -0.0288
  C  C1158  1  0.859000  0.951400  0.197070  1.0  0.1419
  C  C1159  1  0.885800  0.896400  0.192500  1.0  -0.3758
  C  C1160  1  0.899000  0.991300  0.211950  1.0  -0.3691
  C  C1161  1  0.883500  0.000300  0.150840  1.0  0.6469
  C  C1162  1  0.648600  0.078600  0.206990  1.0  0.0282
  C  C1163  1  0.620100  0.025100  0.218910  1.0  0.0762
  C  C1164  1  0.596400  0.993000  0.194800  1.0  -0.3695
  C  C1165  1  0.580700  0.038800  0.242220  1.0  -0.3792
  C  C1166  1  0.608700  0.110600  0.186500  1.0  0.683
  C  C1167  1  0.683200  0.761700  0.172110  1.0  0.0063
  C  C1168  1  0.665800  0.818000  0.183960  1.0  0.113
  C  C1169  1  0.603300  0.827800  0.180700  1.0  -0.3566
  C  C1170  1  0.697200  0.865000  0.171860  1.0  -0.3596
  C  C1171  1  0.670700  0.754700  0.140700  1.0  0.6875
  C  C1172  1  0.620300  0.638900  0.263500  1.0  -0.047
  C  C1173  1  0.666500  0.656400  0.283100  1.0  0.0895
  C  C1174  1  0.723300  0.626600  0.276100  1.0  -0.3631
  C  C1175  1  0.614100  0.573500  0.264200  1.0  0.6103
  C  C1176  1  0.654700  0.651500  0.314100  1.0  -0.3779
  C  C1177  1  0.799300  0.125500  0.312930  1.0  -0.0322
  C  C1178  1  0.807500  0.087100  0.288850  1.0  0.099
  C  C1179  1  0.867800  0.083900  0.281020  1.0  -0.3819
  C  C1180  1  0.775400  0.101400  0.263010  1.0  -0.3807
  C  C1181  1  0.819400  0.185700  0.307050  1.0  0.6611
  C  C1182  1  0.850500  0.987200  0.400870  1.0  0.0032
  C  C1183  1  0.800900  0.950300  0.395980  1.0  0.1339
  C  C1184  1  0.750600  0.975900  0.407600  1.0  -0.3466
  C  C1185  1  0.810500  0.892700  0.407600  1.0  -0.381
  C  C1186  1  0.858200  0.004300  0.431100  1.0  0.6682
  C  C1187  1  0.634800  0.062300  0.062700  1.0  0.4204
  C  C1188  1  0.666200  0.028600  0.036400  1.0  -0.3406
  C  C1189  1  0.647500  0.968600  0.542800  1.0  0.0386
  C  C1190  1  0.652200  0.011200  0.519160  1.0  0.0927
  C  C1191  1  0.711400  0.019500  0.508500  1.0  -0.3887
  C  C1192  1  0.615600  0.998400  0.494500  1.0  -0.3624
  C  C1193  1  0.655900  0.910800  0.529700  1.0  0.6458
  C  C1194  1  0.457700  0.048900  0.588120  1.0  0.0131
  C  C1195  1  0.476600  0.105200  0.598950  1.0  0.1301
  C  C1196  1  0.498300  0.101500  0.628960  1.0  -0.3578
  C  C1197  1  0.433800  0.149400  0.597100  1.0  -0.3813
  C  C1198  1  0.413500  0.021900  0.607200  1.0  0.645
  C  C1199  1  0.755700  0.418100  0.469380  1.0  -0.0063
  C  C1200  1  0.775000  0.364100  0.482080  1.0  0.1476
  C  C1201  1  0.825800  0.371700  0.500630  1.0  -0.3736
  C  C1202  1  0.781500  0.318700  0.460240  1.0  -0.3835
  C  C1203  1  0.802000  0.443600  0.449200  1.0  0.6305
  C  C1204  1  0.632300  0.499600  0.556300  1.0  -0.0344
  C  C1205  1  0.585900  0.460800  0.552470  1.0  0.1238
  C  C1206  1  0.551800  0.452000  0.578240  1.0  -0.3704
  C  C1207  1  0.550700  0.475700  0.527200  1.0  -0.3636
  C  C1208  1  0.613600  0.560300  0.560800  1.0  0.5613
  C  C1209  1  0.794100  0.345300  0.630320  1.0  0.0035
  C  C1210  1  0.786500  0.346800  0.598590  1.0  0.1166
  C  C1211  1  0.767900  0.401400  0.586500  1.0  -0.3807
  C  C1212  1  0.838900  0.329800  0.583600  1.0  -0.366
  C  C1213  1  0.845400  0.377500  0.639900  1.0  0.6295
  C  C1214  1  0.748600  0.125000  0.645700  1.0  0.0277
  C  C1215  1  0.688700  0.123900  0.634560  1.0  0.1229
  C  C1216  1  0.670700  0.070400  0.622200  1.0  -0.3939
  C  C1217  1  0.648600  0.145700  0.657000  1.0  -0.3802
  C  C1218  1  0.750500  0.090900  0.673500  1.0  0.6941
  C  C1219  1  0.525300  0.335900  0.419940  1.0  -0.0284
  C  C1220  1  0.548600  0.359000  0.447070  1.0  0.1394
  C  C1221  1  0.603600  0.385800  0.442500  1.0  -0.3727
  C  C1222  1  0.508700  0.399000  0.461950  1.0  -0.3688
  C  C1223  1  0.499700  0.383500  0.400840  1.0  0.6499
  C  C1224  1  0.421400  0.148600  0.456990  1.0  0.0267
  C  C1225  1  0.474900  0.120100  0.468910  1.0  0.0772
  C  C1226  1  0.507000  0.096400  0.444800  1.0  -0.3707
  C  C1227  1  0.461200  0.080700  0.492220  1.0  -0.3811
  C  C1228  1  0.389400  0.108700  0.436500  1.0  0.6811
  C  C1229  1  0.738300  0.183200  0.422110  1.0  0.0054
  C  C1230  1  0.682000  0.165800  0.433960  1.0  0.1122
  C  C1231  1  0.672200  0.103300  0.430700  1.0  -0.3555
  C  C1232  1  0.635000  0.197200  0.421860  1.0  -0.3587
  C  C1233  1  0.745300  0.170700  0.390700  1.0  0.6845
  C  C1234  1  0.861100  0.120300  0.513500  1.0  -0.048
  C  C1235  1  0.843600  0.166500  0.533100  1.0  0.092
  C  C1236  1  0.873400  0.223300  0.526100  1.0  -0.3655
  C  C1237  1  0.926500  0.114100  0.514200  1.0  0.6101
  C  C1238  1  0.848500  0.154700  0.564100  1.0  -0.3765
  C  C1239  1  0.374500  0.299300  0.562930  1.0  -0.0328
  C  C1240  1  0.412900  0.307500  0.538850  1.0  0.0985
  C  C1241  1  0.416100  0.367800  0.531020  1.0  -0.3842
  C  C1242  1  0.398600  0.275400  0.513010  1.0  -0.3768
  C  C1243  1  0.314300  0.319400  0.557050  1.0  0.6629
  C  C1244  1  0.512800  0.350500  0.650870  1.0  0.0006
  C  C1245  1  0.549700  0.300900  0.645980  1.0  0.1333
  C  C1246  1  0.524100  0.250600  0.657600  1.0  -0.3489
  C  C1247  1  0.607300  0.310500  0.657600  1.0  -0.3774
  C  C1248  1  0.495700  0.358200  0.681100  1.0  0.6699
  C  C1249  1  0.437700  0.134800  0.312700  1.0  0.4195
  C  C1250  1  0.471400  0.166200  0.286400  1.0  -0.3415
  C  C1251  1  0.352500  0.031400  0.042800  1.0  0.0394
  C  C1252  1  0.347800  0.988800  0.019160  1.0  0.0927
  C  C1253  1  0.288600  0.980500  0.008500  1.0  -0.3895
  C  C1254  1  0.384400  0.001600  0.994500  1.0  -0.3638
  C  C1255  1  0.344100  0.089200  0.029700  1.0  0.6474
  C  C1256  1  0.542300  0.951100  0.088120  1.0  0.0143
  C  C1257  1  0.523400  0.894800  0.098950  1.0  0.1313
  C  C1258  1  0.501700  0.898500  0.128960  1.0  -0.3574
  C  C1259  1  0.566200  0.850600  0.097100  1.0  -0.3832
  C  C1260  1  0.586500  0.978100  0.107200  1.0  0.6452
  C  C1261  1  0.244300  0.581900  0.969380  1.0  -0.0058
  C  C1262  1  0.225000  0.635900  0.982080  1.0  0.1456
  C  C1263  1  0.174200  0.628300  0.000630  1.0  -0.3736
  C  C1264  1  0.218500  0.681300  0.960240  1.0  -0.3836
  C  C1265  1  0.198000  0.556400  0.949200  1.0  0.6324
  C  C1266  1  0.367700  0.500400  0.056300  1.0  -0.0345
  C  C1267  1  0.414100  0.539200  0.052470  1.0  0.1232
  C  C1268  1  0.448200  0.548000  0.078240  1.0  -0.3717
  C  C1269  1  0.449300  0.524300  0.027200  1.0  -0.3647
  C  C1270  1  0.386400  0.439700  0.060800  1.0  0.5631
  C  C1271  1  0.205900  0.654700  0.130320  1.0  0.0023
  C  C1272  1  0.213500  0.653200  0.098590  1.0  0.1152
  C  C1273  1  0.232100  0.598600  0.086500  1.0  -0.3818
  C  C1274  1  0.161100  0.670200  0.083600  1.0  -0.3672
  C  C1275  1  0.154600  0.622500  0.139900  1.0  0.6269
  C  C1276  1  0.251400  0.875000  0.145700  1.0  0.0274
  C  C1277  1  0.311300  0.876100  0.134560  1.0  0.1224
  C  C1278  1  0.329300  0.929600  0.122200  1.0  -0.3933
  C  C1279  1  0.351400  0.854300  0.157000  1.0  -0.3793
  C  C1280  1  0.249500  0.909100  0.173500  1.0  0.6916
  C  C1281  1  0.474700  0.664100  0.919940  1.0  -0.0263
  C  C1282  1  0.451400  0.641000  0.947070  1.0  0.1409
  C  C1283  1  0.396400  0.614200  0.942500  1.0  -0.3761
  C  C1284  1  0.491300  0.601000  0.961950  1.0  -0.3699
  C  C1285  1  0.500300  0.616500  0.900840  1.0  0.6483
  C  C1286  1  0.578600  0.851400  0.956990  1.0  0.0284
  C  C1287  1  0.525100  0.879900  0.968910  1.0  0.076
  C  C1288  1  0.493000  0.903600  0.944800  1.0  -0.3689
  C  C1289  1  0.538800  0.919300  0.992220  1.0  -0.3815
  C  C1290  1  0.610600  0.891300  0.936500  1.0  0.6796
  C  C1291  1  0.261700  0.816800  0.922110  1.0  0.0036
  C  C1292  1  0.318000  0.834200  0.933960  1.0  0.1138
  C  C1293  1  0.327800  0.896700  0.930700  1.0  -0.3558
  C  C1294  1  0.365000  0.802800  0.921860  1.0  -0.3591
  C  C1295  1  0.254700  0.829300  0.890700  1.0  0.6851
  C  C1296  1  0.138900  0.879700  0.013500  1.0  -0.0485
  C  C1297  1  0.156400  0.833500  0.033100  1.0  0.091
  C  C1298  1  0.126600  0.776700  0.026100  1.0  -0.3663
  C  C1299  1  0.073500  0.885900  0.014200  1.0  0.6113
  C  C1300  1  0.151500  0.845300  0.064100  1.0  -0.3769
  C  C1301  1  0.625500  0.700700  0.062930  1.0  -0.0326
  C  C1302  1  0.587100  0.692500  0.038850  1.0  0.0994
  C  C1303  1  0.583900  0.632200  0.031020  1.0  -0.3849
  C  C1304  1  0.601400  0.724600  0.013010  1.0  -0.377
  C  C1305  1  0.685700  0.680600  0.057050  1.0  0.6623
  C  C1306  1  0.487200  0.649500  0.150870  1.0  0.0029
  C  C1307  1  0.450300  0.699100  0.145980  1.0  0.1334
  C  C1308  1  0.475900  0.749400  0.157600  1.0  -0.3495
  C  C1309  1  0.392700  0.689500  0.157600  1.0  -0.3781
  C  C1310  1  0.504300  0.641800  0.181100  1.0  0.6681
  C  C1311  1  0.562300  0.865200  0.812700  1.0  0.4191
  C  C1312  1  0.528600  0.833800  0.786400  1.0  -0.3394
  S  S1313  1  0.076100  0.629130  0.463660  1.0  0.038
  S  S1314  1  0.124230  0.533400  0.425210  1.0  0.0329
  S  S1315  1  0.345490  0.716510  0.494710  1.0  0.0217
  S  S1316  1  0.395350  0.620830  0.456550  1.0  0.0257
  S  S1317  1  0.296240  0.732240  0.409440  1.0  0.0208
  S  S1318  1  0.175990  0.690660  0.394160  1.0  0.0308
  S  S1319  1  0.298660  0.557380  0.529400  1.0  0.0272
  S  S1320  1  0.177530  0.513340  0.515400  1.0  0.0306
  S  S1321  1  0.182710  0.688550  0.527770  1.0  0.0244
  S  S1322  1  0.175490  0.770810  0.475830  1.0  0.0435
  S  S1323  1  0.285650  0.480450  0.447560  1.0  0.0229
  S  S1324  1  0.294100  0.555950  0.392640  1.0  0.0298
  S  S1325  1  0.923900  0.370870  0.963660  1.0  0.0371
  S  S1326  1  0.875770  0.466600  0.925210  1.0  0.0287
  S  S1327  1  0.654510  0.283490  0.994710  1.0  0.0236
  S  S1328  1  0.604650  0.379170  0.956550  1.0  0.0249
  S  S1329  1  0.703760  0.267760  0.909440  1.0  0.022
  S  S1330  1  0.824010  0.309340  0.894160  1.0  0.0312
  S  S1331  1  0.701340  0.442620  0.029400  1.0  0.0267
  S  S1332  1  0.822470  0.486660  0.015400  1.0  0.0284
  S  S1333  1  0.817290  0.311450  0.027770  1.0  0.0246
  S  S1334  1  0.824510  0.229190  0.975830  1.0  0.046
  S  S1335  1  0.714350  0.519550  0.947560  1.0  0.0195
  S  S1336  1  0.705900  0.444050  0.892640  1.0  0.0311
  S  S1337  1  0.870870  0.576100  0.713660  1.0  0.038
  S  S1338  1  0.966600  0.624230  0.675210  1.0  0.0312
  S  S1339  1  0.783490  0.845490  0.744710  1.0  0.0207
  S  S1340  1  0.879170  0.895350  0.706550  1.0  0.0219
  S  S1341  1  0.767760  0.796240  0.659440  1.0  0.017
  S  S1342  1  0.809340  0.675990  0.644160  1.0  0.0304
  S  S1343  1  0.942620  0.798660  0.779400  1.0  0.0234
  S  S1344  1  0.986660  0.677530  0.765400  1.0  0.0314
  S  S1345  1  0.811450  0.682710  0.777770  1.0  0.0239
  S  S1346  1  0.729190  0.675490  0.725830  1.0  0.0428
  S  S1347  1  0.019550  0.785650  0.697560  1.0  0.0211
  S  S1348  1  0.944050  0.794100  0.642640  1.0  0.0303
  S  S1349  1  0.129130  0.423900  0.213660  1.0  0.0353
  S  S1350  1  0.033400  0.375770  0.175210  1.0  0.0317
  S  S1351  1  0.216510  0.154510  0.244710  1.0  0.024
  S  S1352  1  0.120830  0.104650  0.206550  1.0  0.0255
  S  S1353  1  0.232240  0.203760  0.159440  1.0  0.02
  S  S1354  1  0.190660  0.324010  0.144160  1.0  0.029
  S  S1355  1  0.057380  0.201340  0.279400  1.0  0.0266
  S  S1356  1  0.013340  0.322470  0.265400  1.0  0.0274
  S  S1357  1  0.188550  0.317290  0.277770  1.0  0.0238
  S  S1358  1  0.270810  0.324510  0.225830  1.0  0.0442
  S  S1359  1  0.980450  0.214350  0.197560  1.0  0.0217
  S  S1360  1  0.055950  0.205900  0.142640  1.0  0.0315
  S  S1361  1  0.423900  0.129130  0.786340  1.0  0.0385
  S  S1362  1  0.375770  0.033400  0.824790  1.0  0.0325
  S  S1363  1  0.154510  0.216510  0.755290  1.0  0.0214
  S  S1364  1  0.104650  0.120830  0.793450  1.0  0.0254
  S  S1365  1  0.203760  0.232240  0.840560  1.0  0.019
  S  S1366  1  0.324010  0.190660  0.855840  1.0  0.0345
  S  S1367  1  0.201340  0.057380  0.720600  1.0  0.0274
  S  S1368  1  0.322470  0.013340  0.734600  1.0  0.0308
  S  S1369  1  0.317290  0.188550  0.722230  1.0  0.0242
  S  S1370  1  0.324510  0.270810  0.774170  1.0  0.0437
  S  S1371  1  0.214350  0.980450  0.802440  1.0  0.0245
  S  S1372  1  0.205900  0.055950  0.857360  1.0  0.0336
  S  S1373  1  0.576100  0.870870  0.286340  1.0  0.0389
  S  S1374  1  0.624230  0.966600  0.324790  1.0  0.0292
  S  S1375  1  0.845490  0.783490  0.255290  1.0  0.0221
  S  S1376  1  0.895350  0.879170  0.293450  1.0  0.0252
  S  S1377  1  0.796240  0.767760  0.340560  1.0  0.0225
  S  S1378  1  0.675990  0.809340  0.355840  1.0  0.0328
  S  S1379  1  0.798660  0.942620  0.220600  1.0  0.0251
  S  S1380  1  0.677530  0.986660  0.234600  1.0  0.0271
  S  S1381  1  0.682710  0.811450  0.222230  1.0  0.025
  S  S1382  1  0.675490  0.729190  0.274170  1.0  0.0462
  S  S1383  1  0.785650  0.019550  0.302440  1.0  0.0202
  S  S1384  1  0.794100  0.944050  0.357360  1.0  0.0335
  S  S1385  1  0.629130  0.076100  0.536340  1.0  0.0396
  S  S1386  1  0.533400  0.124230  0.574790  1.0  0.032
  S  S1387  1  0.716510  0.345490  0.505290  1.0  0.0206
  S  S1388  1  0.620830  0.395350  0.543450  1.0  0.0227
  S  S1389  1  0.732240  0.296240  0.590560  1.0  0.0168
  S  S1390  1  0.690660  0.175990  0.605840  1.0  0.0329
  S  S1391  1  0.557380  0.298660  0.470600  1.0  0.024
  S  S1392  1  0.513340  0.177530  0.484600  1.0  0.0301
  S  S1393  1  0.688550  0.182710  0.472230  1.0  0.0241
  S  S1394  1  0.770810  0.175490  0.524170  1.0  0.0442
  S  S1395  1  0.480450  0.285650  0.552440  1.0  0.0224
  S  S1396  1  0.555950  0.294100  0.607360  1.0  0.0341
  S  S1397  1  0.370870  0.923900  0.036340  1.0  0.0367
  S  S1398  1  0.466600  0.875770  0.074790  1.0  0.0309
  S  S1399  1  0.283490  0.654510  0.005290  1.0  0.0218
  S  S1400  1  0.379170  0.604650  0.043450  1.0  0.0259
  S  S1401  1  0.267760  0.703760  0.090560  1.0  0.0185
  S  S1402  1  0.309340  0.824010  0.105840  1.0  0.0314
  S  S1403  1  0.442620  0.701340  0.970600  1.0  0.0256
  S  S1404  1  0.486660  0.822470  0.984600  1.0  0.0276
  S  S1405  1  0.311450  0.817290  0.972230  1.0  0.0244
  S  S1406  1  0.229190  0.824510  0.024170  1.0  0.0429
  S  S1407  1  0.519550  0.714350  0.052440  1.0  0.0219
  S  S1408  1  0.444050  0.705900  0.107360  1.0  0.0343
  N  N1409  1  0.971400  0.593400  0.444340  1.0  -0.3068
  N  N1410  1  0.012400  0.505500  0.415030  1.0  -0.3222
  N  N1411  1  0.456500  0.739000  0.509470  1.0  -0.3243
  N  N1412  1  0.499200  0.670700  0.468560  1.0  -0.2765
  N  N1413  1  0.287300  0.797200  0.359880  1.0  -0.3677
  N  N1414  1  0.183100  0.765700  0.348370  1.0  -0.3462
  N  N1415  1  0.295800  0.481200  0.574350  1.0  -0.3123
  N  N1416  1  0.199300  0.435900  0.559040  1.0  -0.3321
  N  N1417  1  0.157600  0.783300  0.561480  1.0  -0.3602
  N  N1418  1  0.132400  0.846200  0.516350  1.0  -0.2979
  N  N1419  1  0.327600  0.396600  0.411330  1.0  -0.4519
  N  N1420  1  0.346500  0.462900  0.367430  1.0  -0.3429
  N  N1421  1  0.028600  0.406600  0.944340  1.0  -0.3089
  N  N1422  1  0.987600  0.494500  0.915030  1.0  -0.3266
  N  N1423  1  0.543500  0.261000  0.009470  1.0  -0.3241
  N  N1424  1  0.500800  0.329300  0.968560  1.0  -0.2729
  N  N1425  1  0.712700  0.202800  0.859880  1.0  -0.3703
  N  N1426  1  0.816900  0.234300  0.848370  1.0  -0.3399
  N  N1427  1  0.704200  0.518800  0.074350  1.0  -0.3142
  N  N1428  1  0.800700  0.564100  0.059040  1.0  -0.3315
  N  N1429  1  0.842400  0.216700  0.061480  1.0  -0.3598
  N  N1430  1  0.867600  0.153800  0.016350  1.0  -0.3001
  N  N1431  1  0.672400  0.603400  0.911330  1.0  -0.4527
  N  N1432  1  0.653500  0.537100  0.867430  1.0  -0.3449
  N  N1433  1  0.906600  0.471400  0.694340  1.0  -0.308
  N  N1434  1  0.994500  0.512400  0.665030  1.0  -0.3264
  N  N1435  1  0.761000  0.956500  0.759470  1.0  -0.325
  N  N1436  1  0.829300  0.999200  0.718560  1.0  -0.2734
  N  N1437  1  0.702800  0.787300  0.609880  1.0  -0.3679
  N  N1438  1  0.734300  0.683100  0.598370  1.0  -0.3387
  N  N1439  1  0.018800  0.795800  0.824350  1.0  -0.3131
  N  N1440  1  0.064100  0.699300  0.809040  1.0  -0.3354
  N  N1441  1  0.716700  0.657600  0.811480  1.0  -0.354
  N  N1442  1  0.653800  0.632400  0.766350  1.0  -0.2976
  N  N1443  1  0.103400  0.827600  0.661330  1.0  -0.4534
  N  N1444  1  0.037100  0.846500  0.617430  1.0  -0.3439
  N  N1445  1  0.093400  0.528600  0.194340  1.0  -0.3056
  N  N1446  1  0.005500  0.487600  0.165030  1.0  -0.3281
  N  N1447  1  0.239000  0.043500  0.259470  1.0  -0.3302
  N  N1448  1  0.170700  0.000800  0.218560  1.0  -0.274
  N  N1449  1  0.297200  0.212700  0.109880  1.0  -0.3728
  N  N1450  1  0.265700  0.316900  0.098370  1.0  -0.3412
  N  N1451  1  0.981200  0.204200  0.324350  1.0  -0.3127
  N  N1452  1  0.935900  0.300700  0.309040  1.0  -0.3335
  N  N1453  1  0.283300  0.342400  0.311480  1.0  -0.3537
  N  N1454  1  0.346200  0.367600  0.266350  1.0  -0.2988
  N  N1455  1  0.896600  0.172400  0.161330  1.0  -0.4547
  N  N1456  1  0.962900  0.153500  0.117430  1.0  -0.3416
  N  N1457  1  0.528600  0.093400  0.805660  1.0  -0.3063
  N  N1458  1  0.487600  0.005500  0.834970  1.0  -0.3273
  N  N1459  1  0.043500  0.239000  0.740530  1.0  -0.3223
  N  N1460  1  0.000800  0.170700  0.781440  1.0  -0.2765
  N  N1461  1  0.212700  0.297200  0.890120  1.0  -0.3675
  N  N1462  1  0.316900  0.265700  0.901630  1.0  -0.3396
  N  N1463  1  0.204200  0.981200  0.675650  1.0  -0.3119
  N  N1464  1  0.300700  0.935900  0.690960  1.0  -0.3327
  N  N1465  1  0.342400  0.283300  0.688520  1.0  -0.3602
  N  N1466  1  0.367600  0.346200  0.733650  1.0  -0.3076
  N  N1467  1  0.172400  0.896600  0.838670  1.0  -0.4508
  N  N1468  1  0.153500  0.962900  0.882570  1.0  -0.3433
  N  N1469  1  0.471400  0.906600  0.305660  1.0  -0.307
  N  N1470  1  0.512400  0.994500  0.334970  1.0  -0.3222
  N  N1471  1  0.956500  0.761000  0.240530  1.0  -0.3225
  N  N1472  1  0.999200  0.829300  0.281440  1.0  -0.2768
  N  N1473  1  0.787300  0.702800  0.390120  1.0  -0.3671
  N  N1474  1  0.683100  0.734300  0.401630  1.0  -0.3459
  N  N1475  1  0.795800  0.018800  0.175650  1.0  -0.3082
  N  N1476  1  0.699300  0.064100  0.190960  1.0  -0.3312
  N  N1477  1  0.657600  0.716700  0.188520  1.0  -0.3588
  N  N1478  1  0.632400  0.653800  0.233650  1.0  -0.307
  N  N1479  1  0.827600  0.103400  0.338670  1.0  -0.4503
  N  N1480  1  0.846500  0.037100  0.382570  1.0  -0.347
  N  N1481  1  0.593400  0.971400  0.555660  1.0  -0.3038
  N  N1482  1  0.505500  0.012400  0.584970  1.0  -0.3273
  N  N1483  1  0.739000  0.456500  0.490530  1.0  -0.3231
  N  N1484  1  0.670700  0.499200  0.531440  1.0  -0.2772
  N  N1485  1  0.797200  0.287300  0.640120  1.0  -0.3671
  N  N1486  1  0.765700  0.183100  0.651630  1.0  -0.342
  N  N1487  1  0.481200  0.295800  0.425650  1.0  -0.3103
  N  N1488  1  0.435900  0.199300  0.440960  1.0  -0.3327
  N  N1489  1  0.783300  0.157600  0.438520  1.0  -0.354
  N  N1490  1  0.846200  0.132400  0.483650  1.0  -0.3067
  N  N1491  1  0.396600  0.327600  0.588670  1.0  -0.4539
  N  N1492  1  0.462900  0.346500  0.632570  1.0  -0.3434
  N  N1493  1  0.406600  0.028600  0.055660  1.0  -0.3077
  N  N1494  1  0.494500  0.987600  0.084970  1.0  -0.3283
  N  N1495  1  0.261000  0.543500  0.990530  1.0  -0.3283
  N  N1496  1  0.329300  0.500800  0.031440  1.0  -0.2761
  N  N1497  1  0.202800  0.712700  0.140120  1.0  -0.3706
  N  N1498  1  0.234300  0.816900  0.151630  1.0  -0.3384
  N  N1499  1  0.518800  0.704200  0.925650  1.0  -0.3092
  N  N1500  1  0.564100  0.800700  0.940960  1.0  -0.3338
  N  N1501  1  0.216700  0.842400  0.938520  1.0  -0.352
  N  N1502  1  0.153800  0.867600  0.983650  1.0  -0.3069
  N  N1503  1  0.603400  0.672400  0.088670  1.0  -0.454
  N  N1504  1  0.537100  0.653500  0.132570  1.0  -0.3431
  O  O1505  1  0.883100  0.614800  0.473000  1.0  -0.3675
  O  O1506  1  0.893000  0.699600  0.474800  1.0  -0.3676
  O  O1507  1  0.044200  0.368100  0.391610  1.0  -0.5533
  O  O1508  1  0.978600  0.427800  0.380420  1.0  -0.6796
  O  O1509  1  0.487000  0.824000  0.541940  1.0  -0.5384
  O  O1510  1  0.418800  0.812500  0.572700  1.0  -0.6895
  O  O1511  1  0.589100  0.609400  0.461500  1.0  -0.5324
  O  O1512  1  0.571400  0.600500  0.413000  1.0  -0.5136
  O  O1513  1  0.428900  0.841600  0.359700  1.0  -0.5505
  O  O1514  1  0.350600  0.886500  0.354410  1.0  -0.5076
  O  O1515  1  0.115400  0.755000  0.304200  1.0  -0.4262
  O  O1516  1  0.041100  0.750800  0.327700  1.0  -0.482
  O  O1517  1  0.388600  0.449800  0.599600  1.0  -0.5421
  O  O1518  1  0.410600  0.534900  0.612500  1.0  -0.5197
  O  O1519  1  0.118500  0.391500  0.588780  1.0  -0.7473
  O  O1520  1  0.069000  0.367500  0.552450  1.0  -0.4966
  O  O1521  1  0.203200  0.723300  0.626150  1.0  -0.5434
  O  O1522  1  0.125600  0.767000  0.614820  1.0  -0.5559
  O  O1523  1  0.129100  0.953900  0.506700  1.0  -0.4409
  O  O1524  1  0.089200  0.944400  0.463800  1.0  -0.5205
  O  O1525  1  0.362900  0.298600  0.434290  1.0  -0.5282
  O  O1526  1  0.284300  0.286600  0.456220  1.0  -0.5454
  O  O1527  1  0.340500  0.448500  0.310930  1.0  -0.5435
  O  O1528  1  0.378800  0.530800  0.302390  1.0  -0.502
  O  O1529  1  0.087100  0.433300  0.687060  1.0  -0.5756
  O  O1530  1  0.168400  0.413700  0.664500  1.0  -0.7772
  O  O1531  1  0.116900  0.385200  0.973000  1.0  -0.3691
  O  O1532  1  0.107000  0.300400  0.974800  1.0  -0.3692
  O  O1533  1  0.955800  0.631900  0.891610  1.0  -0.5509
  O  O1534  1  0.021400  0.572200  0.880420  1.0  -0.6808
  O  O1535  1  0.513000  0.176000  0.041940  1.0  -0.5362
  O  O1536  1  0.581200  0.187500  0.072700  1.0  -0.6895
  O  O1537  1  0.410900  0.390600  0.961500  1.0  -0.5269
  O  O1538  1  0.428600  0.399500  0.913000  1.0  -0.5133
  O  O1539  1  0.571100  0.158400  0.859700  1.0  -0.5519
  O  O1540  1  0.649400  0.113500  0.854410  1.0  -0.5062
  O  O1541  1  0.884600  0.245000  0.804200  1.0  -0.4289
  O  O1542  1  0.958900  0.249200  0.827700  1.0  -0.4848
  O  O1543  1  0.611400  0.550200  0.099600  1.0  -0.5429
  O  O1544  1  0.589400  0.465100  0.112500  1.0  -0.5179
  O  O1545  1  0.881500  0.608500  0.088780  1.0  -0.7449
  O  O1546  1  0.931000  0.632500  0.052450  1.0  -0.4946
  O  O1547  1  0.796800  0.276700  0.126150  1.0  -0.5403
  O  O1548  1  0.874400  0.233000  0.114820  1.0  -0.5548
  O  O1549  1  0.870900  0.046100  0.006700  1.0  -0.4428
  O  O1550  1  0.910800  0.055600  0.963800  1.0  -0.5179
  O  O1551  1  0.637100  0.701400  0.934290  1.0  -0.5274
  O  O1552  1  0.715700  0.713400  0.956220  1.0  -0.5453
  O  O1553  1  0.659500  0.551500  0.810930  1.0  -0.5455
  O  O1554  1  0.621200  0.469200  0.802390  1.0  -0.5064
  O  O1555  1  0.912900  0.566700  0.187060  1.0  -0.574
  O  O1556  1  0.831600  0.586300  0.164500  1.0  -0.7769
  O  O1557  1  0.885200  0.383100  0.723000  1.0  -0.3731
  O  O1558  1  0.800400  0.393000  0.724800  1.0  -0.3696
  O  O1559  1  0.131900  0.544200  0.641610  1.0  -0.5447
  O  O1560  1  0.072200  0.478600  0.630420  1.0  -0.6773
  O  O1561  1  0.676000  0.987000  0.791940  1.0  -0.5367
  O  O1562  1  0.687500  0.918800  0.822700  1.0  -0.6835
  O  O1563  1  0.890600  0.089100  0.711500  1.0  -0.5367
  O  O1564  1  0.899500  0.071400  0.663000  1.0  -0.5126
  O  O1565  1  0.658400  0.928900  0.609700  1.0  -0.5498
  O  O1566  1  0.613500  0.850600  0.604410  1.0  -0.5067
  O  O1567  1  0.745000  0.615400  0.554200  1.0  -0.4281
  O  O1568  1  0.749200  0.541100  0.577700  1.0  -0.4787
  O  O1569  1  0.050200  0.888600  0.849600  1.0  -0.5451
  O  O1570  1  0.965100  0.910600  0.862500  1.0  -0.5195
  O  O1571  1  0.108500  0.618500  0.838780  1.0  -0.7466
  O  O1572  1  0.132500  0.569000  0.802450  1.0  -0.4956
  O  O1573  1  0.776700  0.703200  0.876150  1.0  -0.5407
  O  O1574  1  0.733000  0.625600  0.864820  1.0  -0.5543
  O  O1575  1  0.546100  0.629100  0.756700  1.0  -0.4382
  O  O1576  1  0.555600  0.589200  0.713800  1.0  -0.5158
  O  O1577  1  0.201400  0.862900  0.684290  1.0  -0.5238
  O  O1578  1  0.213400  0.784300  0.706220  1.0  -0.5407
  O  O1579  1  0.051500  0.840500  0.560930  1.0  -0.5469
  O  O1580  1  0.969200  0.878800  0.552390  1.0  -0.5055
  O  O1581  1  0.066700  0.587100  0.937060  1.0  -0.5745
  O  O1582  1  0.086300  0.668400  0.914500  1.0  -0.779
  O  O1583  1  0.114800  0.616900  0.223000  1.0  -0.3743
  O  O1584  1  0.199600  0.607000  0.224800  1.0  -0.3709
  O  O1585  1  0.868100  0.455800  0.141610  1.0  -0.5439
  O  O1586  1  0.927800  0.521400  0.130420  1.0  -0.675
  O  O1587  1  0.324000  0.013000  0.291940  1.0  -0.5387
  O  O1588  1  0.312500  0.081200  0.322700  1.0  -0.6837
  O  O1589  1  0.109400  0.910900  0.211500  1.0  -0.5385
  O  O1590  1  0.100500  0.928600  0.163000  1.0  -0.5124
  O  O1591  1  0.341600  0.071100  0.109700  1.0  -0.5508
  O  O1592  1  0.386500  0.149400  0.104410  1.0  -0.5057
  O  O1593  1  0.255000  0.384600  0.054200  1.0  -0.4255
  O  O1594  1  0.250800  0.458900  0.077700  1.0  -0.4797
  O  O1595  1  0.949800  0.111400  0.349600  1.0  -0.5432
  O  O1596  1  0.034900  0.089400  0.362500  1.0  -0.5201
  O  O1597  1  0.891500  0.381500  0.338780  1.0  -0.745
  O  O1598  1  0.867500  0.431000  0.302450  1.0  -0.4918
  O  O1599  1  0.223300  0.296800  0.376150  1.0  -0.5392
  O  O1600  1  0.267000  0.374400  0.364820  1.0  -0.5574
  O  O1601  1  0.453900  0.370900  0.256700  1.0  -0.4413
  O  O1602  1  0.444400  0.410800  0.213800  1.0  -0.5153
  O  O1603  1  0.798600  0.137100  0.184290  1.0  -0.5254
  O  O1604  1  0.786600  0.215700  0.206220  1.0  -0.5394
  O  O1605  1  0.948500  0.159500  0.060930  1.0  -0.5454
  O  O1606  1  0.030800  0.121200  0.052390  1.0  -0.5014
  O  O1607  1  0.933300  0.412900  0.437060  1.0  -0.574
  O  O1608  1  0.913700  0.331600  0.414500  1.0  -0.7749
  O  O1609  1  0.616900  0.114800  0.777000  1.0  -0.3705
  O  O1610  1  0.607000  0.199600  0.775200  1.0  -0.3685
  O  O1611  1  0.455800  0.868100  0.858390  1.0  -0.5542
  O  O1612  1  0.521400  0.927800  0.869580  1.0  -0.6805
  O  O1613  1  0.013000  0.324000  0.708060  1.0  -0.5379
  O  O1614  1  0.081200  0.312500  0.677300  1.0  -0.6905
  O  O1615  1  0.910900  0.109400  0.788500  1.0  -0.5256
  O  O1616  1  0.928600  0.100500  0.837000  1.0  -0.5169
  O  O1617  1  0.071100  0.341600  0.890300  1.0  -0.5519
  O  O1618  1  0.149400  0.386500  0.895590  1.0  -0.5076
  O  O1619  1  0.384600  0.255000  0.945800  1.0  -0.4264
  O  O1620  1  0.458900  0.250800  0.922300  1.0  -0.4853
  O  O1621  1  0.111400  0.949800  0.650400  1.0  -0.5411
  O  O1622  1  0.089400  0.034900  0.637500  1.0  -0.5198
  O  O1623  1  0.381500  0.891500  0.661220  1.0  -0.743
  O  O1624  1  0.431000  0.867500  0.697550  1.0  -0.497
  O  O1625  1  0.296800  0.223300  0.623850  1.0  -0.5399
  O  O1626  1  0.374400  0.267000  0.635180  1.0  -0.5557
  O  O1627  1  0.370900  0.453900  0.743300  1.0  -0.4437
  O  O1628  1  0.410800  0.444400  0.786200  1.0  -0.5235
  O  O1629  1  0.137100  0.798600  0.815710  1.0  -0.5266
  O  O1630  1  0.215700  0.786600  0.793780  1.0  -0.5476
  O  O1631  1  0.159500  0.948500  0.939070  1.0  -0.5415
  O  O1632  1  0.121200  0.030800  0.947610  1.0  -0.505
  O  O1633  1  0.412900  0.933300  0.562940  1.0  -0.5737
  O  O1634  1  0.331600  0.913700  0.585500  1.0  -0.7779
  O  O1635  1  0.383100  0.885200  0.277000  1.0  -0.3689
  O  O1636  1  0.393000  0.800400  0.275200  1.0  -0.3667
  O  O1637  1  0.544200  0.131900  0.358390  1.0  -0.55
  O  O1638  1  0.478600  0.072200  0.369580  1.0  -0.6791
  O  O1639  1  0.987000  0.676000  0.208060  1.0  -0.5387
  O  O1640  1  0.918800  0.687500  0.177300  1.0  -0.6894
  O  O1641  1  0.089100  0.890600  0.288500  1.0  -0.5272
  O  O1642  1  0.071400  0.899500  0.337000  1.0  -0.5179
  O  O1643  1  0.928900  0.658400  0.390300  1.0  -0.5505
  O  O1644  1  0.850600  0.613500  0.395590  1.0  -0.5057
  O  O1645  1  0.615400  0.745000  0.445800  1.0  -0.427
  O  O1646  1  0.541100  0.749200  0.422300  1.0  -0.4829
  O  O1647  1  0.888600  0.050200  0.150400  1.0  -0.5423
  O  O1648  1  0.910600  0.965100  0.137500  1.0  -0.5166
  O  O1649  1  0.618500  0.108500  0.161220  1.0  -0.7457
  O  O1650  1  0.569000  0.132500  0.197550  1.0  -0.4939
  O  O1651  1  0.703200  0.776700  0.123850  1.0  -0.5385
  O  O1652  1  0.625600  0.733000  0.135180  1.0  -0.5557
  O  O1653  1  0.629100  0.546100  0.243300  1.0  -0.4441
  O  O1654  1  0.589200  0.555600  0.286200  1.0  -0.5196
  O  O1655  1  0.862900  0.201400  0.315710  1.0  -0.5274
  O  O1656  1  0.784300  0.213400  0.293780  1.0  -0.5448
  O  O1657  1  0.840500  0.051500  0.439070  1.0  -0.5441
  O  O1658  1  0.878800  0.969200  0.447610  1.0  -0.5077
  O  O1659  1  0.587100  0.066700  0.062940  1.0  -0.5756
  O  O1660  1  0.668400  0.086300  0.085500  1.0  -0.7807
  O  O1661  1  0.614800  0.883100  0.527000  1.0  -0.3744
  O  O1662  1  0.699600  0.893000  0.525200  1.0  -0.3697
  O  O1663  1  0.368100  0.044200  0.608390  1.0  -0.5425
  O  O1664  1  0.427800  0.978600  0.619580  1.0  -0.6759
  O  O1665  1  0.824000  0.487000  0.458060  1.0  -0.5378
  O  O1666  1  0.812500  0.418800  0.427300  1.0  -0.6858
  O  O1667  1  0.609400  0.589100  0.538500  1.0  -0.5317
  O  O1668  1  0.600500  0.571400  0.587000  1.0  -0.5171
  O  O1669  1  0.841600  0.428900  0.640300  1.0  -0.5497
  O  O1670  1  0.886500  0.350600  0.645590  1.0  -0.5062
  O  O1671  1  0.755000  0.115400  0.695800  1.0  -0.4253
  O  O1672  1  0.750800  0.041100  0.672300  1.0  -0.4792
  O  O1673  1  0.449800  0.388600  0.400400  1.0  -0.5425
  O  O1674  1  0.534900  0.410600  0.387500  1.0  -0.5161
  O  O1675  1  0.391500  0.118500  0.411220  1.0  -0.7433
  O  O1676  1  0.367500  0.069000  0.447550  1.0  -0.4934
  O  O1677  1  0.723300  0.203200  0.373850  1.0  -0.5368
  O  O1678  1  0.767000  0.125600  0.385180  1.0  -0.5555
  O  O1679  1  0.953900  0.129100  0.493300  1.0  -0.4399
  O  O1680  1  0.944400  0.089200  0.536200  1.0  -0.5156
  O  O1681  1  0.298600  0.362900  0.565710  1.0  -0.524
  O  O1682  1  0.286600  0.284300  0.543780  1.0  -0.5373
  O  O1683  1  0.448500  0.340500  0.689070  1.0  -0.5471
  O  O1684  1  0.530800  0.378800  0.697610  1.0  -0.5065
  O  O1685  1  0.433300  0.087100  0.312940  1.0  -0.574
  O  O1686  1  0.413700  0.168400  0.335500  1.0  -0.7775
  O  O1687  1  0.385200  0.116900  0.027000  1.0  -0.3731
  O  O1688  1  0.300400  0.107000  0.025200  1.0  -0.371
  O  O1689  1  0.631900  0.955800  0.108390  1.0  -0.5445
  O  O1690  1  0.572200  0.021400  0.119580  1.0  -0.6745
  O  O1691  1  0.176000  0.513000  0.958060  1.0  -0.5398
  O  O1692  1  0.187500  0.581200  0.927300  1.0  -0.6833
  O  O1693  1  0.390600  0.410900  0.038500  1.0  -0.5377
  O  O1694  1  0.399500  0.428600  0.087000  1.0  -0.5152
  O  O1695  1  0.158400  0.571100  0.140300  1.0  -0.5502
  O  O1696  1  0.113500  0.649400  0.145590  1.0  -0.5067
  O  O1697  1  0.245000  0.884600  0.195800  1.0  -0.4251
  O  O1698  1  0.249200  0.958900  0.172300  1.0  -0.48
  O  O1699  1  0.550200  0.611400  0.900400  1.0  -0.544
  O  O1700  1  0.465100  0.589400  0.887500  1.0  -0.5208
  O  O1701  1  0.608500  0.881500  0.911220  1.0  -0.7444
  O  O1702  1  0.632500  0.931000  0.947550  1.0  -0.4948
  O  O1703  1  0.276700  0.796800  0.873850  1.0  -0.5376
  O  O1704  1  0.233000  0.874400  0.885180  1.0  -0.5564
  O  O1705  1  0.046100  0.870900  0.993300  1.0  -0.4424
  O  O1706  1  0.055600  0.910800  0.036200  1.0  -0.5161
  O  O1707  1  0.701400  0.637100  0.065710  1.0  -0.5252
  O  O1708  1  0.713400  0.715700  0.043780  1.0  -0.5396
  O  O1709  1  0.551500  0.659500  0.189070  1.0  -0.547
  O  O1710  1  0.469200  0.621200  0.197610  1.0  -0.507
  O  O1711  1  0.566700  0.912900  0.812940  1.0  -0.5741
  O  O1712  1  0.586300  0.831600  0.835500  1.0  -0.7787
