# generated using pymatgen
data_Li2CoPH94C63N14Cl2O17
_symmetry_space_group_name_H-M   'P 1'
_cell_length_a   15.36000000
_cell_length_b   22.49300000
_cell_length_c   23.83000000
_cell_angle_alpha   90.00000000
_cell_angle_beta   90.00000000
_cell_angle_gamma   90.00000000
_symmetry_Int_Tables_number   1
_chemical_formula_structural   Li2CoPH94C63N14Cl2O17
_chemical_formula_sum   'Li8 Co4 P4 H376 C252 N56 Cl8 O68'
_cell_volume   8233.08579840
_cell_formula_units_Z   4
loop_
 _symmetry_equiv_pos_site_id
 _symmetry_equiv_pos_as_xyz
  1  'x, y, z'
loop_
 _atom_site_type_symbol
 _atom_site_label
 _atom_site_symmetry_multiplicity
 _atom_site_fract_x
 _atom_site_fract_y
 _atom_site_fract_z
 _atom_site_occupancy
 _atom_site_charge
  Li  Li1  1  0.766300  0.635300  0.571500  1.0  0.8822
  Li  Li2  1  0.196900  0.767800  0.762100  1.0  0.9013
  Li  Li3  1  0.733700  0.364700  0.071500  1.0  0.8835
  Li  Li4  1  0.303100  0.232200  0.262100  1.0  0.9017
  Li  Li5  1  0.233700  0.135300  0.928500  1.0  0.8834
  Li  Li6  1  0.803100  0.267800  0.737900  1.0  0.9018
  Li  Li7  1  0.266300  0.864700  0.428500  1.0  0.8828
  Li  Li8  1  0.696900  0.732200  0.237900  1.0  0.9006
  Co  Co9  1  0.706960  0.901190  0.781210  1.0  0.6083
  Co  Co10  1  0.793040  0.098810  0.281210  1.0  0.6059
  Co  Co11  1  0.293040  0.401190  0.718790  1.0  0.6052
  Co  Co12  1  0.206960  0.598810  0.218790  1.0  0.6068
  P  P13  1  0.402580  0.779580  0.474210  1.0  1.6046
  P  P14  1  0.097420  0.220420  0.974210  1.0  1.6051
  P  P15  1  0.597420  0.279580  0.025790  1.0  1.6055
  P  P16  1  0.902580  0.720420  0.525790  1.0  1.6051
  H  H17  1  0.009700  0.849100  0.748700  1.0  0.115
  H  H18  1  0.758500  0.105700  0.843000  1.0  0.0931
  H  H19  1  0.607000  0.065800  0.829500  1.0  0.1098
  H  H20  1  0.409300  0.904000  0.858100  1.0  0.0791
  H  H21  1  0.679600  0.730100  0.699400  1.0  0.1979
  H  H22  1  0.764200  0.769400  0.800000  1.0  0.1033
  H  H23  1  0.812500  0.842100  0.643700  1.0  0.1134
  H  H24  1  0.781500  0.774300  0.646900  1.0  0.1104
  H  H25  1  0.715700  0.826500  0.663600  1.0  0.0955
  H  H26  1  0.903100  0.705400  0.696500  1.0  0.1007
  H  H27  1  0.918500  0.756500  0.650800  1.0  0.1033
  H  H28  1  0.996400  0.736600  0.691200  1.0  0.12
  H  H29  1  0.886300  0.730400  0.798900  1.0  0.0835
  H  H30  1  0.908700  0.796200  0.819900  1.0  0.1119
  H  H31  1  0.085300  0.677000  0.815600  1.0  0.3186
  H  H32  1  0.988000  0.668400  0.825000  1.0  0.3181
  H  H33  1  0.923400  0.890800  0.648800  1.0  0.111
  H  H34  1  0.990000  0.836700  0.641800  1.0  0.0916
  H  H35  1  0.031300  0.953900  0.677100  1.0  0.0839
  H  H36  1  0.098600  0.900300  0.685700  1.0  0.096
  H  H37  1  0.127800  0.985000  0.553900  1.0  0.3276
  H  H38  1  0.103700  0.007100  0.612300  1.0  0.3134
  H  H39  1  0.014900  0.973100  0.835900  1.0  0.1059
  H  H40  1  0.039600  0.916700  0.798100  1.0  0.1156
  H  H41  1  0.035500  0.981600  0.770600  1.0  0.1159
  H  H42  1  0.956400  0.081300  0.781100  1.0  0.0994
  H  H43  1  0.933700  0.123400  0.833200  1.0  0.106
  H  H44  1  0.993500  0.065900  0.842200  1.0  0.1101
  H  H45  1  0.797700  0.014000  0.905300  1.0  0.112
  H  H46  1  0.848300  0.074700  0.916900  1.0  0.1258
  H  H47  1  0.957200  0.921900  0.949200  1.0  0.3435
  H  H48  1  0.872100  0.924700  0.916400  1.0  0.3163
  H  H49  1  0.820200  0.082200  0.730200  1.0  0.0911
  H  H50  1  0.821600  0.145400  0.760900  1.0  0.0861
  H  H51  1  0.661800  0.141400  0.758400  1.0  0.0846
  H  H52  1  0.672300  0.086900  0.715900  1.0  0.0913
  H  H53  1  0.656300  0.183800  0.609000  1.0  0.3391
  H  H54  1  0.620400  0.127300  0.635600  1.0  0.3355
  H  H55  1  0.534800  0.006500  0.932000  1.0  0.1136
  H  H56  1  0.447300  0.968200  0.936800  1.0  0.1231
  H  H57  1  0.537700  0.936100  0.922600  1.0  0.1222
  H  H58  1  0.429600  0.047300  0.804100  1.0  0.11
  H  H59  1  0.379000  0.037100  0.862100  1.0  0.1041
  H  H60  1  0.469400  0.072600  0.861400  1.0  0.1015
  H  H61  1  0.404000  0.970700  0.756500  1.0  0.1003
  H  H62  1  0.386700  0.900700  0.752300  1.0  0.0917
  H  H63  1  0.256100  0.965500  0.763300  1.0  0.1107
  H  H64  1  0.284500  0.971300  0.827800  1.0  0.0833
  H  H65  1  0.191800  0.844000  0.868100  1.0  0.3482
  H  H66  1  0.224200  0.905700  0.884500  1.0  0.3233
  H  H67  1  0.405300  0.790800  0.766400  1.0  0.1185
  H  H68  1  0.440800  0.758000  0.821400  1.0  0.1038
  H  H69  1  0.391300  0.820400  0.826800  1.0  0.0986
  H  H70  1  0.546800  0.714800  0.849900  1.0  0.0997
  H  H71  1  0.599300  0.658500  0.826700  1.0  0.1019
  H  H72  1  0.651000  0.714900  0.850400  1.0  0.1065
  H  H73  1  0.475400  0.697100  0.752600  1.0  0.0931
  H  H74  1  0.550200  0.659200  0.723000  1.0  0.0954
  H  H75  1  0.568300  0.738500  0.655200  1.0  0.0984
  H  H76  1  0.487500  0.772200  0.683300  1.0  0.0904
  H  H77  1  0.536600  0.685500  0.580200  1.0  0.217
  H  H78  1  0.785500  0.669100  0.772300  1.0  0.0906
  H  H79  1  0.693000  0.636800  0.767400  1.0  0.1004
  H  H80  1  0.836300  0.574100  0.666000  1.0  0.278
  H  H81  1  0.839600  0.582500  0.729400  1.0  0.3193
  H  H82  1  0.469700  0.617200  0.527400  1.0  0.0957
  H  H83  1  0.397900  0.610300  0.575400  1.0  0.0776
  H  H84  1  0.328900  0.699500  0.541100  1.0  0.0928
  H  H85  1  0.342600  0.607800  0.457300  1.0  0.1171
  H  H86  1  0.274400  0.606000  0.508000  1.0  0.1186
  H  H87  1  0.265800  0.655700  0.460300  1.0  0.1089
  H  H88  1  0.500700  0.970200  0.567200  1.0  0.0937
  H  H89  1  0.551500  0.887000  0.521300  1.0  0.1106
  H  H90  1  0.398300  0.882600  0.522000  1.0  0.0904
  H  H91  1  0.403200  0.840200  0.636600  1.0  0.0955
  H  H92  1  0.262700  0.845600  0.599100  1.0  0.0784
  H  H93  1  0.279400  0.912200  0.577900  1.0  0.0968
  H  H94  1  0.597400  0.814000  0.570800  1.0  0.3086
  H  H95  1  0.252900  0.877500  0.683000  1.0  0.2924
  H  H96  1  0.550400  0.895700  0.699900  1.0  0.1005
  H  H97  1  0.836400  0.982000  0.690300  1.0  0.1211
  H  H98  1  0.638600  0.015500  0.541100  1.0  0.117
  H  H99  1  0.943700  0.033900  0.583400  1.0  0.1113
  H  H100  1  0.902500  0.094800  0.605700  1.0  0.1117
  H  H101  1  0.937300  0.046300  0.649400  1.0  0.1181
  H  H102  1  0.737900  0.080100  0.496200  1.0  0.1295
  H  H103  1  0.812500  0.109800  0.533800  1.0  0.1267
  H  H104  1  0.833000  0.051100  0.498200  1.0  0.1272
  H  H105  1  0.187300  0.751500  0.650700  1.0  0.3745
  H  H106  1  0.274400  0.734500  0.673100  1.0  0.3548
  H  H107  1  0.674600  0.557600  0.534100  1.0  0.3763
  H  H108  1  0.637300  0.609500  0.503100  1.0  0.3679
  H  H109  1  0.817600  0.533500  0.561000  1.0  0.3785
  H  H110  1  0.905900  0.556400  0.575300  1.0  0.3766
  H  H111  1  0.490300  0.150900  0.248700  1.0  0.1141
  H  H112  1  0.741500  0.894300  0.343000  1.0  0.0933
  H  H113  1  0.893000  0.934200  0.329500  1.0  0.11
  H  H114  1  0.090700  0.096000  0.358100  1.0  0.079
  H  H115  1  0.820400  0.269900  0.199400  1.0  0.198
  H  H116  1  0.735800  0.230600  0.300000  1.0  0.1037
  H  H117  1  0.687500  0.157900  0.143700  1.0  0.1133
  H  H118  1  0.718500  0.225700  0.146900  1.0  0.1089
  H  H119  1  0.784300  0.173500  0.163600  1.0  0.0969
  H  H120  1  0.596900  0.294600  0.196500  1.0  0.0995
  H  H121  1  0.581500  0.243500  0.150800  1.0  0.1046
  H  H122  1  0.503600  0.263400  0.191200  1.0  0.119
  H  H123  1  0.613700  0.269600  0.298900  1.0  0.0809
  H  H124  1  0.591300  0.203800  0.319900  1.0  0.1147
  H  H125  1  0.414700  0.323000  0.315600  1.0  0.3171
  H  H126  1  0.512000  0.331600  0.325000  1.0  0.3172
  H  H127  1  0.576600  0.109200  0.148800  1.0  0.1094
  H  H128  1  0.510000  0.163300  0.141800  1.0  0.0917
  H  H129  1  0.468700  0.046100  0.177100  1.0  0.0837
  H  H130  1  0.401400  0.099700  0.185700  1.0  0.0952
  H  H131  1  0.372200  0.015000  0.053900  1.0  0.3279
  H  H132  1  0.396300  0.992900  0.112300  1.0  0.3127
  H  H133  1  0.485100  0.026900  0.335900  1.0  0.1052
  H  H134  1  0.460400  0.083300  0.298100  1.0  0.1156
  H  H135  1  0.464500  0.018400  0.270600  1.0  0.1153
  H  H136  1  0.543600  0.918700  0.281100  1.0  0.1011
  H  H137  1  0.566300  0.876600  0.333200  1.0  0.1063
  H  H138  1  0.506500  0.934100  0.342200  1.0  0.1104
  H  H139  1  0.702300  0.986000  0.405300  1.0  0.1113
  H  H140  1  0.651700  0.925300  0.416900  1.0  0.1271
  H  H141  1  0.542800  0.078100  0.449200  1.0  0.3439
  H  H142  1  0.627900  0.075300  0.416400  1.0  0.3149
  H  H143  1  0.679800  0.917800  0.230200  1.0  0.0914
  H  H144  1  0.678400  0.854600  0.260900  1.0  0.0861
  H  H145  1  0.838200  0.858600  0.258400  1.0  0.0848
  H  H146  1  0.827700  0.913100  0.215900  1.0  0.0905
  H  H147  1  0.843700  0.816200  0.109000  1.0  0.3405
  H  H148  1  0.879600  0.872700  0.135600  1.0  0.3336
  H  H149  1  0.965200  0.993500  0.432000  1.0  0.114
  H  H150  1  0.052700  0.031800  0.436800  1.0  0.1223
  H  H151  1  0.962300  0.063900  0.422600  1.0  0.1206
  H  H152  1  0.070400  0.952700  0.304100  1.0  0.1097
  H  H153  1  0.121000  0.962900  0.362100  1.0  0.1075
  H  H154  1  0.030600  0.927400  0.361400  1.0  0.1022
  H  H155  1  0.096000  0.029300  0.256500  1.0  0.1001
  H  H156  1  0.113300  0.099300  0.252300  1.0  0.0907
  H  H157  1  0.243900  0.034500  0.263300  1.0  0.1108
  H  H158  1  0.215500  0.028700  0.327800  1.0  0.0835
  H  H159  1  0.308200  0.156000  0.368100  1.0  0.3474
  H  H160  1  0.275800  0.094300  0.384500  1.0  0.3221
  H  H161  1  0.094700  0.209200  0.266400  1.0  0.1185
  H  H162  1  0.059200  0.242000  0.321400  1.0  0.1032
  H  H163  1  0.108700  0.179600  0.326800  1.0  0.0971
  H  H164  1  0.953200  0.285200  0.349900  1.0  0.0998
  H  H165  1  0.900700  0.341500  0.326700  1.0  0.1004
  H  H166  1  0.849000  0.285100  0.350400  1.0  0.1055
  H  H167  1  0.024600  0.302900  0.252600  1.0  0.093
  H  H168  1  0.949800  0.340800  0.223000  1.0  0.0963
  H  H169  1  0.931700  0.261500  0.155200  1.0  0.0994
  H  H170  1  0.012500  0.227800  0.183300  1.0  0.0897
  H  H171  1  0.963400  0.314500  0.080200  1.0  0.2194
  H  H172  1  0.714500  0.330900  0.272300  1.0  0.0888
  H  H173  1  0.807000  0.363200  0.267400  1.0  0.0993
  H  H174  1  0.663700  0.425900  0.166000  1.0  0.2777
  H  H175  1  0.660400  0.417500  0.229400  1.0  0.3182
  H  H176  1  0.030300  0.382800  0.027400  1.0  0.0961
  H  H177  1  0.102100  0.389700  0.075400  1.0  0.0769
  H  H178  1  0.171100  0.300500  0.041100  1.0  0.0926
  H  H179  1  0.157400  0.392200  0.957300  1.0  0.1177
  H  H180  1  0.225600  0.394000  0.008000  1.0  0.118
  H  H181  1  0.234200  0.344300  0.960300  1.0  0.1083
  H  H182  1  0.999300  0.029800  0.067200  1.0  0.0945
  H  H183  1  0.948500  0.113000  0.021300  1.0  0.1105
  H  H184  1  0.101700  0.117400  0.022000  1.0  0.0902
  H  H185  1  0.096800  0.159800  0.136600  1.0  0.0963
  H  H186  1  0.237300  0.154400  0.099100  1.0  0.0775
  H  H187  1  0.220600  0.087800  0.077900  1.0  0.0968
  H  H188  1  0.902600  0.186000  0.070800  1.0  0.3076
  H  H189  1  0.247100  0.122500  0.183000  1.0  0.2929
  H  H190  1  0.949600  0.104300  0.199900  1.0  0.1015
  H  H191  1  0.663600  0.018000  0.190300  1.0  0.1213
  H  H192  1  0.861400  0.984500  0.041100  1.0  0.1157
  H  H193  1  0.556300  0.966100  0.083400  1.0  0.1094
  H  H194  1  0.597500  0.905200  0.105700  1.0  0.1125
  H  H195  1  0.562700  0.953700  0.149400  1.0  0.1181
  H  H196  1  0.762100  0.919900  0.996200  1.0  0.1297
  H  H197  1  0.687500  0.890200  0.033800  1.0  0.1257
  H  H198  1  0.667000  0.948900  0.998200  1.0  0.1275
  H  H199  1  0.312700  0.248500  0.150700  1.0  0.3735
  H  H200  1  0.225600  0.265500  0.173100  1.0  0.3556
  H  H201  1  0.825400  0.442400  0.034100  1.0  0.3767
  H  H202  1  0.862700  0.390500  0.003100  1.0  0.3683
  H  H203  1  0.682400  0.466500  0.061000  1.0  0.3766
  H  H204  1  0.594100  0.443600  0.075300  1.0  0.3764
  H  H205  1  0.990300  0.349100  0.751300  1.0  0.1147
  H  H206  1  0.241500  0.605700  0.657000  1.0  0.0944
  H  H207  1  0.393000  0.565800  0.670500  1.0  0.1094
  H  H208  1  0.590700  0.404000  0.641900  1.0  0.0788
  H  H209  1  0.320400  0.230100  0.800600  1.0  0.1976
  H  H210  1  0.235800  0.269400  0.700000  1.0  0.1034
  H  H211  1  0.187500  0.342100  0.856300  1.0  0.1138
  H  H212  1  0.218500  0.274300  0.853100  1.0  0.1108
  H  H213  1  0.284300  0.326500  0.836400  1.0  0.0974
  H  H214  1  0.096900  0.205400  0.803500  1.0  0.1005
  H  H215  1  0.081500  0.256500  0.849200  1.0  0.1065
  H  H216  1  0.003600  0.236600  0.808800  1.0  0.1187
  H  H217  1  0.113700  0.230400  0.701100  1.0  0.0816
  H  H218  1  0.091300  0.296200  0.680100  1.0  0.1122
  H  H219  1  0.914700  0.177000  0.684400  1.0  0.3173
  H  H220  1  0.012000  0.168400  0.675000  1.0  0.318
  H  H221  1  0.076600  0.390800  0.851200  1.0  0.1107
  H  H222  1  0.010000  0.336700  0.858200  1.0  0.0918
  H  H223  1  0.968700  0.453900  0.822900  1.0  0.0829
  H  H224  1  0.901400  0.400300  0.814300  1.0  0.0956
  H  H225  1  0.872200  0.485000  0.946100  1.0  0.3272
  H  H226  1  0.896300  0.507100  0.887700  1.0  0.3126
  H  H227  1  0.985100  0.473100  0.664100  1.0  0.1058
  H  H228  1  0.960400  0.416700  0.701900  1.0  0.1141
  H  H229  1  0.964500  0.481600  0.729400  1.0  0.1153
  H  H230  1  0.043600  0.581300  0.718900  1.0  0.0993
  H  H231  1  0.066300  0.623400  0.666800  1.0  0.1058
  H  H232  1  0.006500  0.565900  0.657800  1.0  0.1106
  H  H233  1  0.202300  0.514000  0.594700  1.0  0.1114
  H  H234  1  0.151700  0.574700  0.583100  1.0  0.1267
  H  H235  1  0.042800  0.421900  0.550800  1.0  0.3444
  H  H236  1  0.127900  0.424700  0.583600  1.0  0.3142
  H  H237  1  0.179800  0.582200  0.769800  1.0  0.0908
  H  H238  1  0.178400  0.645400  0.739100  1.0  0.0867
  H  H239  1  0.338200  0.641400  0.741600  1.0  0.085
  H  H240  1  0.327700  0.586900  0.784100  1.0  0.0914
  H  H241  1  0.343700  0.683800  0.891000  1.0  0.3388
  H  H242  1  0.379600  0.627300  0.864400  1.0  0.3355
  H  H243  1  0.465200  0.506500  0.568000  1.0  0.1143
  H  H244  1  0.552700  0.468200  0.563200  1.0  0.1217
  H  H245  1  0.462300  0.436100  0.577400  1.0  0.1214
  H  H246  1  0.570400  0.547300  0.695900  1.0  0.1093
  H  H247  1  0.621000  0.537100  0.637900  1.0  0.1074
  H  H248  1  0.530600  0.572600  0.638600  1.0  0.101
  H  H249  1  0.596000  0.470700  0.743500  1.0  0.0994
  H  H250  1  0.613300  0.400700  0.747700  1.0  0.0914
  H  H251  1  0.743900  0.465500  0.736700  1.0  0.1089
  H  H252  1  0.715500  0.471300  0.672200  1.0  0.0837
  H  H253  1  0.808200  0.344000  0.631900  1.0  0.3484
  H  H254  1  0.775800  0.405700  0.615500  1.0  0.3233
  H  H255  1  0.594700  0.290800  0.733600  1.0  0.1182
  H  H256  1  0.559200  0.258000  0.678600  1.0  0.1025
  H  H257  1  0.608700  0.320400  0.673200  1.0  0.0972
  H  H258  1  0.453200  0.214800  0.650100  1.0  0.0984
  H  H259  1  0.400700  0.158500  0.673300  1.0  0.1016
  H  H260  1  0.349000  0.214900  0.649600  1.0  0.1058
  H  H261  1  0.524600  0.197100  0.747400  1.0  0.0906
  H  H262  1  0.449800  0.159200  0.777000  1.0  0.0948
  H  H263  1  0.431700  0.238500  0.844800  1.0  0.0983
  H  H264  1  0.512500  0.272200  0.816700  1.0  0.0905
  H  H265  1  0.463400  0.185500  0.919800  1.0  0.2182
  H  H266  1  0.214500  0.169100  0.727700  1.0  0.09
  H  H267  1  0.307000  0.136800  0.732600  1.0  0.1003
  H  H268  1  0.163700  0.074100  0.834000  1.0  0.2768
  H  H269  1  0.160400  0.082500  0.770600  1.0  0.3188
  H  H270  1  0.530300  0.117200  0.972600  1.0  0.0956
  H  H271  1  0.602100  0.110300  0.924600  1.0  0.0761
  H  H272  1  0.671100  0.199500  0.958900  1.0  0.0927
  H  H273  1  0.657400  0.107800  0.042700  1.0  0.1168
  H  H274  1  0.725600  0.106000  0.992000  1.0  0.1186
  H  H275  1  0.734200  0.155700  0.039700  1.0  0.108
  H  H276  1  0.499300  0.470200  0.932800  1.0  0.0934
  H  H277  1  0.448500  0.387000  0.978700  1.0  0.1106
  H  H278  1  0.601700  0.382600  0.978000  1.0  0.0895
  H  H279  1  0.596800  0.340200  0.863400  1.0  0.0965
  H  H280  1  0.737300  0.345600  0.900900  1.0  0.079
  H  H281  1  0.720600  0.412200  0.922100  1.0  0.0961
  H  H282  1  0.402600  0.314000  0.929200  1.0  0.3075
  H  H283  1  0.747100  0.377500  0.817000  1.0  0.2922
  H  H284  1  0.449600  0.395700  0.800100  1.0  0.1011
  H  H285  1  0.163600  0.482000  0.809700  1.0  0.1217
  H  H286  1  0.361400  0.515500  0.958900  1.0  0.1167
  H  H287  1  0.056300  0.533900  0.916600  1.0  0.1136
  H  H288  1  0.097500  0.594800  0.894300  1.0  0.1123
  H  H289  1  0.062700  0.546300  0.850600  1.0  0.1173
  H  H290  1  0.262100  0.580100  0.003800  1.0  0.1286
  H  H291  1  0.187500  0.609800  0.966200  1.0  0.1264
  H  H292  1  0.167000  0.551100  0.001800  1.0  0.1272
  H  H293  1  0.812700  0.251500  0.849300  1.0  0.3746
  H  H294  1  0.725600  0.234500  0.826900  1.0  0.3561
  H  H295  1  0.325400  0.057600  0.965900  1.0  0.3784
  H  H296  1  0.362700  0.109500  0.996900  1.0  0.3688
  H  H297  1  0.182400  0.033500  0.939000  1.0  0.3799
  H  H298  1  0.094100  0.056400  0.924700  1.0  0.375
  H  H299  1  0.509700  0.650900  0.251300  1.0  0.1154
  H  H300  1  0.258500  0.394300  0.157000  1.0  0.0941
  H  H301  1  0.107000  0.434200  0.170500  1.0  0.1097
  H  H302  1  0.909300  0.596000  0.141900  1.0  0.0801
  H  H303  1  0.179600  0.769900  0.300600  1.0  0.1976
  H  H304  1  0.264200  0.730600  0.200000  1.0  0.1049
  H  H305  1  0.312500  0.657900  0.356300  1.0  0.1145
  H  H306  1  0.281500  0.725700  0.353100  1.0  0.1092
  H  H307  1  0.215700  0.673500  0.336400  1.0  0.096
  H  H308  1  0.403100  0.794600  0.303500  1.0  0.1004
  H  H309  1  0.418500  0.743500  0.349200  1.0  0.1041
  H  H310  1  0.496400  0.763400  0.308800  1.0  0.1186
  H  H311  1  0.386300  0.769600  0.201100  1.0  0.0809
  H  H312  1  0.408700  0.703800  0.180100  1.0  0.1139
  H  H313  1  0.585300  0.823000  0.184400  1.0  0.3205
  H  H314  1  0.488000  0.831600  0.175000  1.0  0.3181
  H  H315  1  0.423400  0.609200  0.351200  1.0  0.1114
  H  H316  1  0.490000  0.663300  0.358200  1.0  0.0908
  H  H317  1  0.531300  0.546100  0.322900  1.0  0.0849
  H  H318  1  0.598600  0.599700  0.314300  1.0  0.0954
  H  H319  1  0.627800  0.515000  0.446100  1.0  0.3269
  H  H320  1  0.603700  0.492900  0.387700  1.0  0.3142
  H  H321  1  0.514900  0.526900  0.164100  1.0  0.1061
  H  H322  1  0.539600  0.583300  0.201900  1.0  0.1156
  H  H323  1  0.535500  0.518400  0.229400  1.0  0.1155
  H  H324  1  0.456400  0.418700  0.218900  1.0  0.0996
  H  H325  1  0.433700  0.376600  0.166800  1.0  0.1067
  H  H326  1  0.493500  0.434100  0.157800  1.0  0.1101
  H  H327  1  0.297700  0.486000  0.094700  1.0  0.1119
  H  H328  1  0.348300  0.425300  0.083100  1.0  0.1269
  H  H329  1  0.457200  0.578100  0.050800  1.0  0.3449
  H  H330  1  0.372100  0.575300  0.083600  1.0  0.3172
  H  H331  1  0.320200  0.417800  0.269800  1.0  0.0916
  H  H332  1  0.321600  0.354600  0.239100  1.0  0.0857
  H  H333  1  0.161800  0.358600  0.241600  1.0  0.0853
  H  H334  1  0.172300  0.413100  0.284100  1.0  0.0907
  H  H335  1  0.156300  0.316200  0.391000  1.0  0.341
  H  H336  1  0.120400  0.372700  0.364400  1.0  0.3356
  H  H337  1  0.034800  0.493500  0.068000  1.0  0.1133
  H  H338  1  0.947300  0.531800  0.063200  1.0  0.1222
  H  H339  1  0.037700  0.563900  0.077400  1.0  0.1214
  H  H340  1  0.929600  0.452700  0.195900  1.0  0.1098
  H  H341  1  0.879000  0.462900  0.137900  1.0  0.105
  H  H342  1  0.969400  0.427400  0.138600  1.0  0.1007
  H  H343  1  0.904000  0.529300  0.243500  1.0  0.1006
  H  H344  1  0.886700  0.599300  0.247700  1.0  0.091
  H  H345  1  0.756100  0.534500  0.236700  1.0  0.1095
  H  H346  1  0.784500  0.528700  0.172200  1.0  0.0831
  H  H347  1  0.691800  0.656000  0.131900  1.0  0.348
  H  H348  1  0.724200  0.594300  0.115500  1.0  0.3233
  H  H349  1  0.905300  0.709200  0.233600  1.0  0.1179
  H  H350  1  0.940800  0.742000  0.178600  1.0  0.104
  H  H351  1  0.891300  0.679600  0.173200  1.0  0.0983
  H  H352  1  0.046800  0.785200  0.150100  1.0  0.1005
  H  H353  1  0.099300  0.841500  0.173300  1.0  0.1009
  H  H354  1  0.151000  0.785100  0.149600  1.0  0.1065
  H  H355  1  0.975400  0.802900  0.247400  1.0  0.0924
  H  H356  1  0.050200  0.840800  0.277000  1.0  0.0944
  H  H357  1  0.068300  0.761500  0.344800  1.0  0.0981
  H  H358  1  0.987500  0.727800  0.316700  1.0  0.0912
  H  H359  1  0.036600  0.814500  0.419800  1.0  0.2184
  H  H360  1  0.285500  0.830900  0.227700  1.0  0.0899
  H  H361  1  0.193000  0.863200  0.232600  1.0  0.101
  H  H362  1  0.336300  0.925900  0.334000  1.0  0.2761
  H  H363  1  0.339600  0.917500  0.270600  1.0  0.3185
  H  H364  1  0.969700  0.882800  0.472600  1.0  0.095
  H  H365  1  0.897900  0.889700  0.424600  1.0  0.0779
  H  H366  1  0.828900  0.800500  0.458900  1.0  0.0927
  H  H367  1  0.842600  0.892200  0.542700  1.0  0.1167
  H  H368  1  0.774400  0.894000  0.492000  1.0  0.119
  H  H369  1  0.765800  0.844300  0.539700  1.0  0.1085
  H  H370  1  0.000700  0.529800  0.432800  1.0  0.0945
  H  H371  1  0.051500  0.613000  0.478700  1.0  0.1109
  H  H372  1  0.898300  0.617400  0.478000  1.0  0.0899
  H  H373  1  0.903200  0.659800  0.363400  1.0  0.0969
  H  H374  1  0.762700  0.654400  0.400900  1.0  0.0783
  H  H375  1  0.779400  0.587800  0.422100  1.0  0.0981
  H  H376  1  0.097400  0.686000  0.429200  1.0  0.3076
  H  H377  1  0.752900  0.622500  0.317000  1.0  0.2924
  H  H378  1  0.050400  0.604300  0.300100  1.0  0.1008
  H  H379  1  0.336400  0.518000  0.309700  1.0  0.1214
  H  H380  1  0.138600  0.484500  0.458900  1.0  0.1159
  H  H381  1  0.443700  0.466100  0.416600  1.0  0.1113
  H  H382  1  0.402500  0.405200  0.394300  1.0  0.1136
  H  H383  1  0.437300  0.453700  0.350600  1.0  0.1171
  H  H384  1  0.237900  0.419900  0.503800  1.0  0.129
  H  H385  1  0.312500  0.390200  0.466200  1.0  0.1255
  H  H386  1  0.333000  0.448900  0.501800  1.0  0.128
  H  H387  1  0.687300  0.748500  0.349300  1.0  0.3751
  H  H388  1  0.774400  0.765500  0.326900  1.0  0.3545
  H  H389  1  0.174600  0.942400  0.465900  1.0  0.3769
  H  H390  1  0.137300  0.890500  0.496900  1.0  0.3675
  H  H391  1  0.317600  0.966500  0.439000  1.0  0.3768
  H  H392  1  0.405900  0.943600  0.424700  1.0  0.3769
  C  C393  1  0.738800  0.876670  0.854070  1.0  0.1842
  C  C394  1  0.808400  0.810000  0.726200  1.0  0.1434
  C  C395  1  0.905500  0.789940  0.731620  1.0  0.0608
  C  C396  1  0.954600  0.850850  0.726390  1.0  -0.1542
  C  C397  1  0.890600  0.891250  0.755680  1.0  0.2255
  C  C398  1  0.914400  0.945930  0.785130  1.0  0.0752
  C  C399  1  0.851800  0.984770  0.802740  1.0  0.0823
  C  C400  1  0.863300  0.045250  0.833530  1.0  0.0549
  C  C401  1  0.778900  0.076890  0.813850  1.0  -0.0773
  C  C402  1  0.717200  0.024800  0.810130  1.0  0.2159
  C  C403  1  0.630800  0.027630  0.822180  1.0  -0.1227
  C  C404  1  0.574600  0.979510  0.824620  1.0  0.1846
  C  C405  1  0.485900  0.981460  0.853170  1.0  0.1297
  C  C406  1  0.442500  0.925220  0.828010  1.0  -0.1323
  C  C407  1  0.520200  0.888220  0.811200  1.0  0.1351
  C  C408  1  0.516800  0.829080  0.797740  1.0  0.0734
  C  C409  1  0.592000  0.797430  0.777970  1.0  0.1036
  C  C410  1  0.599800  0.729520  0.770630  1.0  0.0672
  C  C411  1  0.689700  0.724170  0.740510  1.0  -0.1106
  C  C412  1  0.738600  0.778990  0.762490  1.0  0.048
  C  C413  1  0.776600  0.813530  0.664390  1.0  -0.3489
  C  C414  1  0.933400  0.742830  0.688620  1.0  -0.3649
  C  C415  1  0.924200  0.765290  0.792040  1.0  -0.2693
  C  C416  1  0.017900  0.747180  0.801000  1.0  0.3457
  C  C417  1  0.975900  0.871920  0.665000  1.0  -0.2226
  C  C418  1  0.050300  0.914980  0.661970  1.0  -0.2746
  C  C419  1  0.083100  0.923440  0.601910  1.0  0.5897
  C  C420  1  0.009400  0.955130  0.798620  1.0  -0.3708
  C  C421  1  0.943900  0.082240  0.821450  1.0  -0.3812
  C  C422  1  0.853200  0.035230  0.898760  1.0  -0.3039
  C  C423  1  0.924700  0.001150  0.928110  1.0  0.5153
  C  C424  1  0.787500  0.108410  0.756020  1.0  -0.152
  C  C425  1  0.700100  0.123950  0.729340  1.0  -0.2648
  C  C426  1  0.706800  0.166520  0.681500  1.0  0.5431
  C  C427  1  0.503000  0.972190  0.917090  1.0  -0.3403
  C  C428  1  0.436500  0.039870  0.844400  1.0  -0.3729
  C  C429  1  0.383100  0.935520  0.777570  1.0  -0.1529
  C  C430  1  0.287300  0.945390  0.794310  1.0  -0.2606
  C  C431  1  0.243700  0.886740  0.806980  1.0  0.5815
  C  C432  1  0.431000  0.796720  0.803620  1.0  -0.3657
  C  C433  1  0.599200  0.701900  0.829770  1.0  -0.3464
  C  C434  1  0.530800  0.700170  0.731620  1.0  -0.1825
  C  C435  1  0.512700  0.732550  0.675490  1.0  -0.2636
  C  C436  1  0.450800  0.697580  0.639010  1.0  0.5697
  C  C437  1  0.733700  0.664160  0.748070  1.0  -0.2234
  C  C438  1  0.761600  0.636300  0.692490  1.0  0.5574
  C  C439  1  0.430200  0.639600  0.552430  1.0  -0.0241
  C  C440  1  0.365600  0.673510  0.516620  1.0  0.1443
  C  C441  1  0.306800  0.632000  0.482470  1.0  -0.3382
  C  C442  1  0.508400  0.935440  0.592840  1.0  -0.0341
  C  C443  1  0.522900  0.878800  0.558150  1.0  0.0944
  C  C444  1  0.428000  0.858550  0.551650  1.0  0.068
  C  C445  1  0.389000  0.872600  0.609340  1.0  0.1113
  C  C446  1  0.292900  0.883330  0.608030  1.0  0.0496
  C  C447  1  0.592900  0.919830  0.682030  1.0  0.1673
  C  C448  1  0.796300  0.989010  0.660720  1.0  -0.1406
  C  C449  1  0.820400  0.023870  0.614180  1.0  0.0103
  C  C450  1  0.761300  0.034040  0.569350  1.0  0.0115
  C  C451  1  0.678700  0.009450  0.570940  1.0  -0.1147
  C  C452  1  0.656500  0.975760  0.617540  1.0  0.0744
  C  C453  1  0.713900  0.965150  0.662750  1.0  0.0969
  C  C454  1  0.908600  0.052200  0.613000  1.0  -0.3795
  C  C455  1  0.788600  0.072100  0.520000  1.0  -0.3861
  C  C456  1  0.761200  0.123330  0.354070  1.0  0.1839
  C  C457  1  0.691600  0.190000  0.226200  1.0  0.1429
  C  C458  1  0.594500  0.210060  0.231620  1.0  0.0603
  C  C459  1  0.545400  0.149150  0.226390  1.0  -0.155
  C  C460  1  0.609400  0.108750  0.255680  1.0  0.2276
  C  C461  1  0.585600  0.054070  0.285130  1.0  0.0759
  C  C462  1  0.648200  0.015230  0.302740  1.0  0.0822
  C  C463  1  0.636700  0.954750  0.333530  1.0  0.0545
  C  C464  1  0.721100  0.923110  0.313850  1.0  -0.0765
  C  C465  1  0.782800  0.975200  0.310130  1.0  0.215
  C  C466  1  0.869200  0.972370  0.322180  1.0  -0.1224
  C  C467  1  0.925400  0.020490  0.324620  1.0  0.1846
  C  C468  1  0.014100  0.018540  0.353170  1.0  0.1292
  C  C469  1  0.057500  0.074780  0.328010  1.0  -0.1328
  C  C470  1  0.979800  0.111780  0.311200  1.0  0.1361
  C  C471  1  0.983200  0.170920  0.297740  1.0  0.0714
  C  C472  1  0.908000  0.202570  0.277970  1.0  0.1037
  C  C473  1  0.900200  0.270480  0.270630  1.0  0.0679
  C  C474  1  0.810300  0.275830  0.240510  1.0  -0.1102
  C  C475  1  0.761400  0.221010  0.262490  1.0  0.0477
  C  C476  1  0.723400  0.186470  0.164390  1.0  -0.3503
  C  C477  1  0.566600  0.257170  0.188620  1.0  -0.3635
  C  C478  1  0.575800  0.234710  0.292040  1.0  -0.2701
  C  C479  1  0.482100  0.252820  0.301000  1.0  0.3444
  C  C480  1  0.524100  0.128080  0.165000  1.0  -0.2228
  C  C481  1  0.449700  0.085020  0.161970  1.0  -0.2746
  C  C482  1  0.416900  0.076560  0.101910  1.0  0.5905
  C  C483  1  0.490600  0.044870  0.298620  1.0  -0.3696
  C  C484  1  0.556100  0.917760  0.321450  1.0  -0.3822
  C  C485  1  0.646800  0.964770  0.398760  1.0  -0.3028
  C  C486  1  0.575300  0.998850  0.428110  1.0  0.5124
  C  C487  1  0.712500  0.891590  0.256020  1.0  -0.1533
  C  C488  1  0.799900  0.876050  0.229340  1.0  -0.2636
  C  C489  1  0.793200  0.833480  0.181500  1.0  0.541
  C  C490  1  0.997000  0.027810  0.417090  1.0  -0.3409
  C  C491  1  0.063500  0.960130  0.344400  1.0  -0.3747
  C  C492  1  0.116900  0.064480  0.277570  1.0  -0.1516
  C  C493  1  0.212700  0.054610  0.294310  1.0  -0.2616
  C  C494  1  0.256300  0.113260  0.306980  1.0  0.5816
  C  C495  1  0.069000  0.203280  0.303620  1.0  -0.3665
  C  C496  1  0.900800  0.298100  0.329770  1.0  -0.3468
  C  C497  1  0.969200  0.299830  0.231620  1.0  -0.1822
  C  C498  1  0.987300  0.267450  0.175490  1.0  -0.265
  C  C499  1  0.049200  0.302420  0.139010  1.0  0.5708
  C  C500  1  0.766300  0.335840  0.248070  1.0  -0.2233
  C  C501  1  0.738400  0.363700  0.192490  1.0  0.5588
  C  C502  1  0.069800  0.360400  0.052430  1.0  -0.0217
  C  C503  1  0.134400  0.326490  0.016620  1.0  0.1443
  C  C504  1  0.193200  0.368000  0.982470  1.0  -0.3379
  C  C505  1  0.991600  0.064560  0.092840  1.0  -0.0343
  C  C506  1  0.977100  0.121200  0.058150  1.0  0.0941
  C  C507  1  0.072000  0.141450  0.051650  1.0  0.0675
  C  C508  1  0.111000  0.127400  0.109340  1.0  0.1114
  C  C509  1  0.207100  0.116670  0.108030  1.0  0.049
  C  C510  1  0.907100  0.080170  0.182030  1.0  0.1665
  C  C511  1  0.703700  0.010990  0.160720  1.0  -0.1426
  C  C512  1  0.679600  0.976130  0.114180  1.0  0.01
  C  C513  1  0.738700  0.965960  0.069350  1.0  0.0122
  C  C514  1  0.821300  0.990550  0.070940  1.0  -0.1177
  C  C515  1  0.843500  0.024240  0.117540  1.0  0.075
  C  C516  1  0.786100  0.034850  0.162750  1.0  0.0966
  C  C517  1  0.591400  0.947800  0.113000  1.0  -0.3791
  C  C518  1  0.711400  0.927900  0.020000  1.0  -0.3867
  C  C519  1  0.261200  0.376670  0.645930  1.0  0.187
  C  C520  1  0.191600  0.310000  0.773800  1.0  0.1427
  C  C521  1  0.094500  0.289940  0.768380  1.0  0.0594
  C  C522  1  0.045400  0.350850  0.773610  1.0  -0.1542
  C  C523  1  0.109400  0.391250  0.744320  1.0  0.2256
  C  C524  1  0.085600  0.445930  0.714870  1.0  0.0757
  C  C525  1  0.148200  0.484770  0.697260  1.0  0.0814
  C  C526  1  0.136700  0.545250  0.666470  1.0  0.0544
  C  C527  1  0.221100  0.576890  0.686150  1.0  -0.0757
  C  C528  1  0.282800  0.524800  0.689870  1.0  0.2159
  C  C529  1  0.369200  0.527630  0.677820  1.0  -0.1219
  C  C530  1  0.425400  0.479510  0.675380  1.0  0.1832
  C  C531  1  0.514100  0.481460  0.646830  1.0  0.1284
  C  C532  1  0.557500  0.425220  0.671990  1.0  -0.1339
  C  C533  1  0.479800  0.388220  0.688800  1.0  0.1353
  C  C534  1  0.483200  0.329080  0.702260  1.0  0.0713
  C  C535  1  0.408000  0.297430  0.722030  1.0  0.1033
  C  C536  1  0.400200  0.229520  0.729370  1.0  0.0652
  C  C537  1  0.310300  0.224170  0.759490  1.0  -0.1112
  C  C538  1  0.261400  0.278990  0.737510  1.0  0.0448
  C  C539  1  0.223400  0.313530  0.835610  1.0  -0.3513
  C  C540  1  0.066600  0.242830  0.811380  1.0  -0.3643
  C  C541  1  0.075800  0.265290  0.707960  1.0  -0.2734
  C  C542  1  0.982100  0.247180  0.699000  1.0  0.3429
  C  C543  1  0.024100  0.371920  0.835000  1.0  -0.2203
  C  C544  1  0.949700  0.414980  0.838030  1.0  -0.275
  C  C545  1  0.916900  0.423440  0.898090  1.0  0.5893
  C  C546  1  0.990600  0.455130  0.701380  1.0  -0.37
  C  C547  1  0.056100  0.582240  0.678550  1.0  -0.3817
  C  C548  1  0.146800  0.535230  0.601240  1.0  -0.3021
  C  C549  1  0.075300  0.501150  0.571890  1.0  0.5118
  C  C550  1  0.212500  0.608410  0.743980  1.0  -0.1539
  C  C551  1  0.299900  0.623950  0.770660  1.0  -0.2654
  C  C552  1  0.293200  0.666520  0.818500  1.0  0.5425
  C  C553  1  0.497000  0.472190  0.582910  1.0  -0.3392
  C  C554  1  0.563500  0.539870  0.655600  1.0  -0.3736
  C  C555  1  0.616900  0.435520  0.722430  1.0  -0.1538
  C  C556  1  0.712700  0.445390  0.705690  1.0  -0.2617
  C  C557  1  0.756300  0.386740  0.693020  1.0  0.5806
  C  C558  1  0.569000  0.296720  0.696380  1.0  -0.3672
  C  C559  1  0.400800  0.201900  0.670230  1.0  -0.3491
  C  C560  1  0.469200  0.200170  0.768380  1.0  -0.1832
  C  C561  1  0.487300  0.232550  0.824510  1.0  -0.2645
  C  C562  1  0.549200  0.197580  0.860990  1.0  0.5709
  C  C563  1  0.266300  0.164160  0.751930  1.0  -0.2243
  C  C564  1  0.238400  0.136300  0.807510  1.0  0.5587
  C  C565  1  0.569800  0.139600  0.947570  1.0  -0.0222
  C  C566  1  0.634400  0.173510  0.983380  1.0  0.1452
  C  C567  1  0.693200  0.132000  0.017530  1.0  -0.3391
  C  C568  1  0.491600  0.435440  0.907160  1.0  -0.0336
  C  C569  1  0.477100  0.378800  0.941850  1.0  0.0938
  C  C570  1  0.572000  0.358550  0.948350  1.0  0.0675
  C  C571  1  0.611000  0.372600  0.890660  1.0  0.1126
  C  C572  1  0.707100  0.383330  0.891970  1.0  0.0496
  C  C573  1  0.407100  0.419830  0.817970  1.0  0.1675
  C  C574  1  0.203700  0.489010  0.839280  1.0  -0.1427
  C  C575  1  0.179600  0.523870  0.885820  1.0  0.0104
  C  C576  1  0.238700  0.534040  0.930650  1.0  0.0114
  C  C577  1  0.321300  0.509450  0.929060  1.0  -0.117
  C  C578  1  0.343500  0.475760  0.882460  1.0  0.0748
  C  C579  1  0.286100  0.465150  0.837250  1.0  0.0974
  C  C580  1  0.091400  0.552200  0.887000  1.0  -0.3794
  C  C581  1  0.211400  0.572100  0.980000  1.0  -0.3853
  C  C582  1  0.238800  0.623330  0.145930  1.0  0.1907
  C  C583  1  0.308400  0.690000  0.273800  1.0  0.1429
  C  C584  1  0.405500  0.710060  0.268380  1.0  0.0591
  C  C585  1  0.454600  0.649150  0.273610  1.0  -0.1536
  C  C586  1  0.390600  0.608750  0.244320  1.0  0.2267
  C  C587  1  0.414400  0.554070  0.214870  1.0  0.0754
  C  C588  1  0.351800  0.515230  0.197260  1.0  0.0802
  C  C589  1  0.363300  0.454750  0.166470  1.0  0.053
  C  C590  1  0.278900  0.423110  0.186150  1.0  -0.0771
  C  C591  1  0.217200  0.475200  0.189870  1.0  0.2165
  C  C592  1  0.130800  0.472370  0.177820  1.0  -0.1223
  C  C593  1  0.074600  0.520490  0.175380  1.0  0.1839
  C  C594  1  0.985900  0.518540  0.146830  1.0  0.1286
  C  C595  1  0.942500  0.574780  0.171990  1.0  -0.1333
  C  C596  1  0.020200  0.611780  0.188800  1.0  0.1364
  C  C597  1  0.016800  0.670920  0.202260  1.0  0.0738
  C  C598  1  0.092000  0.702570  0.222030  1.0  0.1024
  C  C599  1  0.099800  0.770480  0.229370  1.0  0.0649
  C  C600  1  0.189700  0.775830  0.259490  1.0  -0.1115
  C  C601  1  0.238600  0.721010  0.237510  1.0  0.0448
  C  C602  1  0.276600  0.686470  0.335610  1.0  -0.351
  C  C603  1  0.433400  0.757170  0.311380  1.0  -0.3636
  C  C604  1  0.424200  0.734710  0.207960  1.0  -0.2715
  C  C605  1  0.517900  0.752820  0.199000  1.0  0.3422
  C  C606  1  0.475900  0.628080  0.335000  1.0  -0.2199
  C  C607  1  0.550300  0.585020  0.338030  1.0  -0.2758
  C  C608  1  0.583100  0.576560  0.398090  1.0  0.5904
  C  C609  1  0.509400  0.544870  0.201380  1.0  -0.3715
  C  C610  1  0.443900  0.417760  0.178550  1.0  -0.3828
  C  C611  1  0.353200  0.464770  0.101240  1.0  -0.3023
  C  C612  1  0.424700  0.498850  0.071890  1.0  0.5137
  C  C613  1  0.287500  0.391590  0.243980  1.0  -0.1521
  C  C614  1  0.200100  0.376050  0.270660  1.0  -0.2647
  C  C615  1  0.206800  0.333480  0.318500  1.0  0.5427
  C  C616  1  0.003000  0.527810  0.082910  1.0  -0.3391
  C  C617  1  0.936500  0.460130  0.155600  1.0  -0.3739
  C  C618  1  0.883100  0.564480  0.222430  1.0  -0.1546
  C  C619  1  0.787300  0.554610  0.205690  1.0  -0.261
  C  C620  1  0.743700  0.613260  0.193020  1.0  0.5802
  C  C621  1  0.931000  0.703280  0.196380  1.0  -0.3657
  C  C622  1  0.099200  0.798100  0.170230  1.0  -0.3475
  C  C623  1  0.030800  0.799830  0.268380  1.0  -0.1831
  C  C624  1  0.012700  0.767450  0.324510  1.0  -0.2639
  C  C625  1  0.950800  0.802420  0.360990  1.0  0.5702
  C  C626  1  0.233700  0.835840  0.251930  1.0  -0.2235
  C  C627  1  0.261600  0.863700  0.307510  1.0  0.5583
  C  C628  1  0.930200  0.860400  0.447570  1.0  -0.0202
  C  C629  1  0.865600  0.826490  0.483380  1.0  0.1435
  C  C630  1  0.806800  0.868000  0.517530  1.0  -0.3377
  C  C631  1  0.008400  0.564560  0.407160  1.0  -0.0335
  C  C632  1  0.022900  0.621200  0.441850  1.0  0.0952
  C  C633  1  0.928000  0.641450  0.448350  1.0  0.0673
  C  C634  1  0.889000  0.627400  0.390660  1.0  0.1121
  C  C635  1  0.792900  0.616670  0.391970  1.0  0.0496
  C  C636  1  0.092900  0.580170  0.317970  1.0  0.1665
  C  C637  1  0.296300  0.510990  0.339280  1.0  -0.142
  C  C638  1  0.320400  0.476130  0.385820  1.0  0.0108
  C  C639  1  0.261300  0.465960  0.430650  1.0  0.0108
  C  C640  1  0.178700  0.490550  0.429060  1.0  -0.1166
  C  C641  1  0.156500  0.524240  0.382460  1.0  0.0737
  C  C642  1  0.213900  0.534850  0.337250  1.0  0.0972
  C  C643  1  0.408600  0.447800  0.387000  1.0  -0.3794
  C  C644  1  0.288600  0.427900  0.480000  1.0  -0.3852
  N  N645  1  0.760500  0.861000  0.898340  1.0  -0.4779
  N  N646  1  0.811960  0.871060  0.752240  1.0  -0.3338
  N  N647  1  0.762400  0.975610  0.795890  1.0  -0.3237
  N  N648  1  0.593920  0.924910  0.807340  1.0  -0.3454
  N  N649  1  0.667520  0.822830  0.769990  1.0  -0.3083
  N  N650  1  0.032000  0.691300  0.815500  1.0  -0.617
  N  N651  1  0.107600  0.977980  0.587790  1.0  -0.5814
  N  N652  1  0.917200  0.942750  0.931640  1.0  -0.606
  N  N653  1  0.655300  0.158300  0.637000  1.0  -0.6094
  N  N654  1  0.216900  0.877810  0.858990  1.0  -0.6125
  N  N655  1  0.482900  0.676630  0.589820  1.0  -0.4439
  N  N656  1  0.818800  0.592830  0.696420  1.0  -0.6796
  N  N657  1  0.579600  0.946990  0.631580  1.0  -0.0324
  N  N658  1  0.670240  0.930200  0.703590  1.0  -0.3999
  N  N659  1  0.739500  0.139000  0.398340  1.0  -0.4798
  N  N660  1  0.688040  0.128940  0.252240  1.0  -0.3333
  N  N661  1  0.737600  0.024390  0.295890  1.0  -0.3232
  N  N662  1  0.906080  0.075090  0.307340  1.0  -0.3451
  N  N663  1  0.832480  0.177170  0.269990  1.0  -0.3065
  N  N664  1  0.468000  0.308700  0.315500  1.0  -0.62
  N  N665  1  0.392400  0.022020  0.087790  1.0  -0.5822
  N  N666  1  0.582800  0.057250  0.431640  1.0  -0.6106
  N  N667  1  0.844700  0.841700  0.137000  1.0  -0.6123
  N  N668  1  0.283100  0.122190  0.358990  1.0  -0.6126
  N  N669  1  0.017100  0.323370  0.089820  1.0  -0.4447
  N  N670  1  0.681200  0.407170  0.196420  1.0  -0.6795
  N  N671  1  0.920400  0.053010  0.131580  1.0  -0.0348
  N  N672  1  0.829760  0.069800  0.203590  1.0  -0.4007
  N  N673  1  0.239500  0.361000  0.601660  1.0  -0.4816
  N  N674  1  0.188040  0.371060  0.747760  1.0  -0.3338
  N  N675  1  0.237600  0.475610  0.704110  1.0  -0.3243
  N  N676  1  0.406080  0.424910  0.692660  1.0  -0.3459
  N  N677  1  0.332480  0.322830  0.730010  1.0  -0.3063
  N  N678  1  0.968000  0.191300  0.684500  1.0  -0.6252
  N  N679  1  0.892400  0.477980  0.912210  1.0  -0.5815
  N  N680  1  0.082800  0.442750  0.568360  1.0  -0.6094
  N  N681  1  0.344700  0.658300  0.863000  1.0  -0.6094
  N  N682  1  0.783100  0.377810  0.641010  1.0  -0.6123
  N  N683  1  0.517100  0.176630  0.910180  1.0  -0.4445
  N  N684  1  0.181200  0.092830  0.803580  1.0  -0.6792
  N  N685  1  0.420400  0.446990  0.868420  1.0  -0.0334
  N  N686  1  0.329760  0.430200  0.796410  1.0  -0.4
  N  N687  1  0.260500  0.639000  0.101660  1.0  -0.4831
  N  N688  1  0.311960  0.628940  0.247760  1.0  -0.3324
  N  N689  1  0.262400  0.524390  0.204110  1.0  -0.3225
  N  N690  1  0.093920  0.575090  0.192660  1.0  -0.3463
  N  N691  1  0.167520  0.677170  0.230010  1.0  -0.3086
  N  N692  1  0.532000  0.808700  0.184500  1.0  -0.6249
  N  N693  1  0.607600  0.522020  0.412210  1.0  -0.5807
  N  N694  1  0.417200  0.557250  0.068360  1.0  -0.612
  N  N695  1  0.155300  0.341700  0.363000  1.0  -0.6106
  N  N696  1  0.716900  0.622190  0.141010  1.0  -0.612
  N  N697  1  0.982900  0.823370  0.410180  1.0  -0.4442
  N  N698  1  0.318800  0.907170  0.303580  1.0  -0.6787
  N  N699  1  0.079600  0.553010  0.368420  1.0  -0.0353
  N  N700  1  0.170240  0.569800  0.296410  1.0  -0.4002
  Cl  Cl701  1  0.890880  0.584050  0.822710  1.0  -0.4217
  Cl  Cl702  1  0.273550  0.962240  0.969410  1.0  -0.4766
  Cl  Cl703  1  0.609120  0.415950  0.322710  1.0  -0.4226
  Cl  Cl704  1  0.226450  0.037760  0.469410  1.0  -0.472
  Cl  Cl705  1  0.109120  0.084050  0.677290  1.0  -0.4221
  Cl  Cl706  1  0.726450  0.462240  0.530590  1.0  -0.4726
  Cl  Cl707  1  0.390880  0.915950  0.177290  1.0  -0.4209
  Cl  Cl708  1  0.773550  0.537760  0.030590  1.0  -0.4739
  O  O709  1  0.079460  0.778170  0.787980  1.0  -0.5847
  O  O710  1  0.087630  0.880700  0.568250  1.0  -0.5839
  O  O711  1  0.987800  0.027800  0.949280  1.0  -0.6021
  O  O712  1  0.757100  0.210690  0.683960  1.0  -0.6292
  O  O713  1  0.235590  0.849460  0.768750  1.0  -0.5891
  O  O714  1  0.375740  0.686660  0.654520  1.0  -0.5609
  O  O715  1  0.730220  0.652650  0.647000  1.0  -0.581
  O  O716  1  0.420150  0.796930  0.539470  1.0  -0.4578
  O  O717  1  0.415150  0.710170  0.477570  1.0  -0.4059
  O  O718  1  0.310520  0.794470  0.460880  1.0  -0.7884
  O  O719  1  0.471390  0.804330  0.436940  1.0  -0.6994
  O  O720  1  0.431800  0.927400  0.625710  1.0  -0.3313
  O  O721  1  0.571230  0.838310  0.591690  1.0  -0.5522
  O  O722  1  0.260740  0.905880  0.660660  1.0  -0.5188
  O  O723  1  0.220600  0.748350  0.682630  1.0  -0.7591
  O  O724  1  0.669120  0.598010  0.533920  1.0  -0.7691
  O  O725  1  0.847700  0.564550  0.576280  1.0  -0.7084
  O  O726  1  0.420540  0.221830  0.287980  1.0  -0.5861
  O  O727  1  0.412370  0.119300  0.068250  1.0  -0.5829
  O  O728  1  0.512200  0.972200  0.449280  1.0  -0.6025
  O  O729  1  0.742900  0.789310  0.183960  1.0  -0.6304
  O  O730  1  0.264410  0.150540  0.268750  1.0  -0.5886
  O  O731  1  0.124260  0.313340  0.154520  1.0  -0.562
  O  O732  1  0.769780  0.347350  0.147000  1.0  -0.5805
  O  O733  1  0.079850  0.203070  0.039470  1.0  -0.457
  O  O734  1  0.084850  0.289830  0.977570  1.0  -0.4068
  O  O735  1  0.189480  0.205530  0.960880  1.0  -0.7903
  O  O736  1  0.028610  0.195670  0.936940  1.0  -0.6974
  O  O737  1  0.068200  0.072600  0.125710  1.0  -0.3306
  O  O738  1  0.928770  0.161690  0.091690  1.0  -0.5512
  O  O739  1  0.239260  0.094120  0.160660  1.0  -0.5199
  O  O740  1  0.279400  0.251650  0.182630  1.0  -0.7606
  O  O741  1  0.830880  0.401990  0.033920  1.0  -0.7679
  O  O742  1  0.652300  0.435450  0.076280  1.0  -0.7074
  O  O743  1  0.920540  0.278170  0.712020  1.0  -0.5837
  O  O744  1  0.912370  0.380700  0.931750  1.0  -0.5831
  O  O745  1  0.012200  0.527800  0.550720  1.0  -0.6032
  O  O746  1  0.242900  0.710690  0.816040  1.0  -0.6301
  O  O747  1  0.764410  0.349460  0.731250  1.0  -0.5897
  O  O748  1  0.624260  0.186660  0.845480  1.0  -0.5619
  O  O749  1  0.269780  0.152650  0.853000  1.0  -0.5813
  O  O750  1  0.579850  0.296930  0.960530  1.0  -0.4583
  O  O751  1  0.584850  0.210170  0.022430  1.0  -0.4073
  O  O752  1  0.689480  0.294470  0.039120  1.0  -0.7915
  O  O753  1  0.528610  0.304330  0.063060  1.0  -0.697
  O  O754  1  0.568200  0.427400  0.874290  1.0  -0.3324
  O  O755  1  0.428770  0.338310  0.908310  1.0  -0.5513
  O  O756  1  0.739260  0.405880  0.839340  1.0  -0.5178
  O  O757  1  0.779400  0.248350  0.817370  1.0  -0.7624
  O  O758  1  0.330880  0.098010  0.966080  1.0  -0.7671
  O  O759  1  0.152300  0.064550  0.923720  1.0  -0.7067
  O  O760  1  0.579460  0.721830  0.212020  1.0  -0.5824
  O  O761  1  0.587630  0.619300  0.431750  1.0  -0.5822
  O  O762  1  0.487800  0.472200  0.050720  1.0  -0.6026
  O  O763  1  0.257100  0.289310  0.316040  1.0  -0.6304
  O  O764  1  0.735590  0.650540  0.231250  1.0  -0.5893
  O  O765  1  0.875740  0.813340  0.345480  1.0  -0.5613
  O  O766  1  0.230220  0.847350  0.353000  1.0  -0.5809
  O  O767  1  0.920150  0.703070  0.460530  1.0  -0.4566
  O  O768  1  0.915150  0.789830  0.522430  1.0  -0.4069
  O  O769  1  0.810520  0.705530  0.539120  1.0  -0.7889
  O  O770  1  0.971390  0.695670  0.563060  1.0  -0.6987
  O  O771  1  0.931800  0.572600  0.374290  1.0  -0.3293
  O  O772  1  0.071230  0.661690  0.408310  1.0  -0.5511
  O  O773  1  0.760740  0.594120  0.339340  1.0  -0.5198
  O  O774  1  0.720600  0.751650  0.317370  1.0  -0.7612
  O  O775  1  0.169120  0.901990  0.466080  1.0  -0.7699
  O  O776  1  0.347700  0.935450  0.423720  1.0  -0.708
