# generated using pymatgen
data_KCoPH88C63N14ClO14
_symmetry_space_group_name_H-M   'P 1'
_cell_length_a   16.01500000
_cell_length_b   21.14600000
_cell_length_c   23.84300000
_cell_angle_alpha   90.00000000
_cell_angle_beta   90.00000000
_cell_angle_gamma   90.00000000
_symmetry_Int_Tables_number   1
_chemical_formula_structural   KCoPH88C63N14ClO14
_chemical_formula_sum   'K4 Co4 P4 H352 C252 N56 Cl4 O56'
_cell_volume   8074.50800917
_cell_formula_units_Z   4
loop_
 _symmetry_equiv_pos_site_id
 _symmetry_equiv_pos_as_xyz
  1  'x, y, z'
loop_
 _atom_site_type_symbol
 _atom_site_label
 _atom_site_symmetry_multiplicity
 _atom_site_fract_x
 _atom_site_fract_y
 _atom_site_fract_z
 _atom_site_occupancy
 _atom_site_charge
  K  K1  1  0.119010  0.094600  0.928370  1.0  0.9152
  K  K2  1  0.380990  0.905400  0.428370  1.0  0.9138
  K  K3  1  0.880990  0.594600  0.571630  1.0  0.914
  K  K4  1  0.619010  0.405400  0.071630  1.0  0.9145
  Co  Co5  1  0.733080  0.880200  0.785810  1.0  0.5561
  Co  Co6  1  0.766920  0.119800  0.285810  1.0  0.5528
  Co  Co7  1  0.266920  0.380200  0.714190  1.0  0.5498
  Co  Co8  1  0.233080  0.619800  0.214190  1.0  0.5523
  P  P9  1  0.497320  0.740220  0.457660  1.0  1.578
  P  P10  1  0.002680  0.259780  0.957660  1.0  1.5802
  P  P11  1  0.502680  0.240220  0.042340  1.0  1.5777
  P  P12  1  0.997320  0.759780  0.542340  1.0  1.5793
  H  H13  1  0.033300  0.855800  0.787500  1.0  0.1049
  H  H14  1  0.723700  0.102300  0.844800  1.0  0.0906
  H  H15  1  0.593400  0.039300  0.829500  1.0  0.1156
  H  H16  1  0.431700  0.847600  0.827800  1.0  0.0802
  H  H17  1  0.763400  0.699100  0.697400  1.0  0.1293
  H  H18  1  0.810700  0.746100  0.807600  1.0  0.0973
  H  H19  1  0.782200  0.809500  0.670600  1.0  0.1002
  H  H20  1  0.874600  0.836200  0.660700  1.0  0.143
  H  H21  1  0.857400  0.761600  0.658500  1.0  0.1032
  H  H22  1  0.968100  0.703700  0.706000  1.0  0.1039
  H  H23  1  0.001900  0.765700  0.675000  1.0  0.1078
  H  H24  1  0.055800  0.733800  0.723900  1.0  0.1104
  H  H25  1  0.938100  0.712500  0.813800  1.0  0.0843
  H  H26  1  0.927600  0.781200  0.841000  1.0  0.0871
  H  H27  1  0.108100  0.758900  0.904500  1.0  0.3361
  H  H28  1  0.014800  0.772000  0.910100  1.0  0.3389
  H  H29  1  0.990100  0.870400  0.672200  1.0  0.1058
  H  H30  1  0.012800  0.932200  0.707700  1.0  0.0836
  H  H31  1  0.125100  0.828300  0.688000  1.0  0.0783
  H  H32  1  0.148100  0.886700  0.728000  1.0  0.0829
  H  H33  1  0.166600  0.902100  0.565900  1.0  0.3477
  H  H34  1  0.129700  0.842800  0.592600  1.0  0.3141
  H  H35  1  0.999600  0.010400  0.849100  1.0  0.1428
  H  H36  1  0.033700  0.939500  0.844000  1.0  0.1217
  H  H37  1  0.037200  0.985700  0.790900  1.0  0.1085
  H  H38  1  0.928500  0.094200  0.790100  1.0  0.1004
  H  H39  1  0.882900  0.144400  0.829900  1.0  0.103
  H  H40  1  0.952000  0.097800  0.855200  1.0  0.1143
  H  H41  1  0.774300  0.019600  0.912400  1.0  0.1141
  H  H42  1  0.815000  0.087700  0.922000  1.0  0.1235
  H  H43  1  0.934100  0.936000  0.966800  1.0  0.3411
  H  H44  1  0.847600  0.933800  0.940200  1.0  0.3218
  H  H45  1  0.800200  0.082100  0.736100  1.0  0.0867
  H  H46  1  0.779900  0.149400  0.763700  1.0  0.0761
  H  H47  1  0.655600  0.062700  0.724600  1.0  0.117
  H  H48  1  0.634500  0.129000  0.753100  1.0  0.1322
  H  H49  1  0.735300  0.192500  0.622300  1.0  0.3456
  H  H50  1  0.779000  0.179400  0.677900  1.0  0.2336
  H  H51  1  0.436600  0.914100  0.912200  1.0  0.1184
  H  H52  1  0.529100  0.886100  0.906700  1.0  0.116
  H  H53  1  0.515600  0.959700  0.919200  1.0  0.1238
  H  H54  1  0.449800  0.012400  0.785900  1.0  0.1036
  H  H55  1  0.377000  0.981900  0.823200  1.0  0.102
  H  H56  1  0.444900  0.027300  0.851700  1.0  0.0957
  H  H57  1  0.441200  0.843100  0.723900  1.0  0.0931
  H  H58  1  0.463000  0.916700  0.725700  1.0  0.0869
  H  H59  1  0.319300  0.891500  0.703600  1.0  0.0834
  H  H60  1  0.332200  0.944300  0.750500  1.0  0.0845
  H  H61  1  0.242400  0.783500  0.791200  1.0  0.3086
  H  H62  1  0.302800  0.788200  0.742000  1.0  0.2826
  H  H63  1  0.442700  0.759600  0.800700  1.0  0.1043
  H  H64  1  0.474300  0.729500  0.742900  1.0  0.1189
  H  H65  1  0.503200  0.699400  0.801300  1.0  0.1095
  H  H66  1  0.615300  0.664400  0.838700  1.0  0.1074
  H  H67  1  0.671500  0.608100  0.814600  1.0  0.1157
  H  H68  1  0.714900  0.668400  0.842700  1.0  0.1041
  H  H69  1  0.641800  0.609500  0.713100  1.0  0.0927
  H  H70  1  0.561100  0.642900  0.738700  1.0  0.0922
  H  H71  1  0.648000  0.678100  0.638600  1.0  0.0988
  H  H72  1  0.589900  0.729200  0.669000  1.0  0.1086
  H  H73  1  0.583400  0.632500  0.568300  1.0  0.2337
  H  H74  1  0.803700  0.619000  0.793600  1.0  0.0915
  H  H75  1  0.878800  0.645700  0.756000  1.0  0.1004
  H  H76  1  0.795800  0.491100  0.715700  1.0  0.3113
  H  H77  1  0.805800  0.520000  0.773900  1.0  0.2523
  H  H78  1  0.420500  0.587900  0.578800  1.0  0.0883
  H  H79  1  0.483400  0.567100  0.530100  1.0  0.1021
  H  H80  1  0.400300  0.685900  0.534100  1.0  0.0813
  H  H81  1  0.368400  0.574600  0.467000  1.0  0.1127
  H  H82  1  0.302100  0.609600  0.506400  1.0  0.1101
  H  H83  1  0.332200  0.642300  0.449400  1.0  0.1239
  H  H84  1  0.566800  0.948300  0.559900  1.0  0.0915
  H  H85  1  0.641800  0.867600  0.520100  1.0  0.0791
  H  H86  1  0.500800  0.854000  0.501100  1.0  0.1091
  H  H87  1  0.473100  0.801500  0.611400  1.0  0.0909
  H  H88  1  0.345600  0.854900  0.609700  1.0  0.0912
  H  H89  1  0.352100  0.810600  0.555400  1.0  0.0914
  H  H90  1  0.673700  0.786800  0.570700  1.0  0.3226
  H  H91  1  0.314000  0.902600  0.528300  1.0  0.3159
  H  H92  1  0.603500  0.866600  0.692100  1.0  0.0975
  H  H93  1  0.868500  0.973900  0.705200  1.0  0.1123
  H  H94  1  0.695700  0.013200  0.548800  1.0  0.1208
  H  H95  1  0.970400  0.042000  0.673500  1.0  0.1318
  H  H96  1  0.978700  0.043400  0.606600  1.0  0.125
  H  H97  1  0.936000  0.101400  0.638900  1.0  0.1282
  H  H98  1  0.793400  0.080400  0.509200  1.0  0.1345
  H  H99  1  0.845000  0.121600  0.553600  1.0  0.1302
  H  H100  1  0.888300  0.062700  0.523200  1.0  0.12
  H  H101  1  0.466700  0.144200  0.287500  1.0  0.1062
  H  H102  1  0.776300  0.897700  0.344800  1.0  0.0913
  H  H103  1  0.906600  0.960700  0.329500  1.0  0.115
  H  H104  1  0.068300  0.152400  0.327800  1.0  0.08
  H  H105  1  0.736600  0.300900  0.197400  1.0  0.1293
  H  H106  1  0.689300  0.253900  0.307600  1.0  0.0973
  H  H107  1  0.717800  0.190500  0.170600  1.0  0.1003
  H  H108  1  0.625400  0.163800  0.160700  1.0  0.145
  H  H109  1  0.642600  0.238400  0.158500  1.0  0.104
  H  H110  1  0.531900  0.296300  0.206000  1.0  0.1037
  H  H111  1  0.498100  0.234300  0.175000  1.0  0.1083
  H  H112  1  0.444200  0.266200  0.223900  1.0  0.1061
  H  H113  1  0.561900  0.287500  0.313800  1.0  0.0805
  H  H114  1  0.572400  0.218800  0.341000  1.0  0.0866
  H  H115  1  0.391900  0.241100  0.404500  1.0  0.3349
  H  H116  1  0.485200  0.228000  0.410100  1.0  0.3379
  H  H117  1  0.509900  0.129600  0.172200  1.0  0.106
  H  H118  1  0.487200  0.067800  0.207700  1.0  0.0843
  H  H119  1  0.374900  0.171700  0.188000  1.0  0.0776
  H  H120  1  0.351900  0.113300  0.228000  1.0  0.0828
  H  H121  1  0.333400  0.097900  0.065900  1.0  0.3483
  H  H122  1  0.370300  0.157200  0.092600  1.0  0.3136
  H  H123  1  0.500400  0.989600  0.349100  1.0  0.1435
  H  H124  1  0.466300  0.060500  0.344000  1.0  0.1209
  H  H125  1  0.462800  0.014300  0.290900  1.0  0.1085
  H  H126  1  0.571500  0.905800  0.290100  1.0  0.0987
  H  H127  1  0.617100  0.855600  0.329900  1.0  0.1039
  H  H128  1  0.548000  0.902200  0.355200  1.0  0.1138
  H  H129  1  0.725700  0.980400  0.412400  1.0  0.1144
  H  H130  1  0.685000  0.912300  0.422000  1.0  0.1249
  H  H131  1  0.565900  0.064000  0.466800  1.0  0.3426
  H  H132  1  0.652400  0.066200  0.440200  1.0  0.3231
  H  H133  1  0.699800  0.917900  0.236100  1.0  0.0879
  H  H134  1  0.720100  0.850600  0.263700  1.0  0.0759
  H  H135  1  0.844400  0.937300  0.224600  1.0  0.117
  H  H136  1  0.865500  0.871000  0.253100  1.0  0.1325
  H  H137  1  0.764700  0.807500  0.122300  1.0  0.3448
  H  H138  1  0.721000  0.820600  0.177900  1.0  0.2334
  H  H139  1  0.063400  0.085900  0.412200  1.0  0.122
  H  H140  1  0.970900  0.113900  0.406700  1.0  0.1136
  H  H141  1  0.984400  0.040300  0.419200  1.0  0.1236
  H  H142  1  0.050200  0.987600  0.285900  1.0  0.1038
  H  H143  1  0.123000  0.018100  0.323200  1.0  0.1009
  H  H144  1  0.055100  0.972700  0.351700  1.0  0.0968
  H  H145  1  0.058800  0.156900  0.223900  1.0  0.0939
  H  H146  1  0.037000  0.083300  0.225700  1.0  0.0876
  H  H147  1  0.180700  0.108500  0.203600  1.0  0.0831
  H  H148  1  0.167800  0.055700  0.250500  1.0  0.0847
  H  H149  1  0.257600  0.216500  0.291200  1.0  0.3086
  H  H150  1  0.197200  0.211800  0.242000  1.0  0.2837
  H  H151  1  0.057300  0.240400  0.300700  1.0  0.1033
  H  H152  1  0.025700  0.270500  0.242900  1.0  0.1178
  H  H153  1  0.996800  0.300600  0.301300  1.0  0.1083
  H  H154  1  0.884700  0.335600  0.338700  1.0  0.1065
  H  H155  1  0.828500  0.391900  0.314600  1.0  0.1158
  H  H156  1  0.785100  0.331600  0.342700  1.0  0.1039
  H  H157  1  0.858200  0.390500  0.213100  1.0  0.0925
  H  H158  1  0.938900  0.357100  0.238700  1.0  0.0922
  H  H159  1  0.852000  0.321900  0.138600  1.0  0.098
  H  H160  1  0.910100  0.270800  0.169000  1.0  0.1085
  H  H161  1  0.916600  0.367500  0.068300  1.0  0.2361
  H  H162  1  0.696300  0.381000  0.293600  1.0  0.0893
  H  H163  1  0.621200  0.354300  0.256000  1.0  0.099
  H  H164  1  0.704200  0.508900  0.215700  1.0  0.3122
  H  H165  1  0.694200  0.480000  0.273900  1.0  0.2519
  H  H166  1  0.079500  0.412100  0.078800  1.0  0.0871
  H  H167  1  0.016600  0.432900  0.030100  1.0  0.104
  H  H168  1  0.099700  0.314100  0.034100  1.0  0.0817
  H  H169  1  0.131600  0.425400  0.967000  1.0  0.112
  H  H170  1  0.197900  0.390400  0.006400  1.0  0.111
  H  H171  1  0.167800  0.357700  0.949400  1.0  0.1231
  H  H172  1  0.933200  0.051700  0.059900  1.0  0.0916
  H  H173  1  0.858200  0.132400  0.020100  1.0  0.0793
  H  H174  1  0.999200  0.146000  0.001100  1.0  0.1091
  H  H175  1  0.026900  0.198500  0.111400  1.0  0.0898
  H  H176  1  0.154400  0.145100  0.109700  1.0  0.0917
  H  H177  1  0.147900  0.189400  0.055400  1.0  0.0908
  H  H178  1  0.826300  0.213200  0.070700  1.0  0.3224
  H  H179  1  0.186000  0.097400  0.028300  1.0  0.3151
  H  H180  1  0.896500  0.133400  0.192100  1.0  0.0965
  H  H181  1  0.631500  0.026100  0.205200  1.0  0.1129
  H  H182  1  0.804300  0.986800  0.048800  1.0  0.1199
  H  H183  1  0.529600  0.958000  0.173500  1.0  0.1327
  H  H184  1  0.521300  0.956600  0.106600  1.0  0.1229
  H  H185  1  0.564000  0.898600  0.138900  1.0  0.127
  H  H186  1  0.706600  0.919600  0.009200  1.0  0.1358
  H  H187  1  0.655000  0.878400  0.053600  1.0  0.1287
  H  H188  1  0.611700  0.937300  0.023200  1.0  0.1184
  H  H189  1  0.966700  0.355800  0.712500  1.0  0.1062
  H  H190  1  0.276300  0.602300  0.655200  1.0  0.0915
  H  H191  1  0.406600  0.539300  0.670500  1.0  0.1152
  H  H192  1  0.568300  0.347600  0.672200  1.0  0.0795
  H  H193  1  0.236600  0.199100  0.802600  1.0  0.1288
  H  H194  1  0.189300  0.246100  0.692400  1.0  0.0981
  H  H195  1  0.217800  0.309500  0.829400  1.0  0.1003
  H  H196  1  0.125400  0.336200  0.839300  1.0  0.1449
  H  H197  1  0.142600  0.261600  0.841500  1.0  0.1041
  H  H198  1  0.031900  0.203700  0.794000  1.0  0.1046
  H  H199  1  0.998100  0.265700  0.825000  1.0  0.1082
  H  H200  1  0.944200  0.233800  0.776100  1.0  0.1066
  H  H201  1  0.061900  0.212500  0.686200  1.0  0.0833
  H  H202  1  0.072400  0.281200  0.659000  1.0  0.085
  H  H203  1  0.891900  0.258900  0.595500  1.0  0.336
  H  H204  1  0.985200  0.272000  0.589900  1.0  0.3383
  H  H205  1  0.009900  0.370400  0.827800  1.0  0.1041
  H  H206  1  0.987200  0.432200  0.792300  1.0  0.084
  H  H207  1  0.874900  0.328300  0.812000  1.0  0.0775
  H  H208  1  0.851900  0.386700  0.772000  1.0  0.0814
  H  H209  1  0.833400  0.402100  0.934100  1.0  0.3486
  H  H210  1  0.870300  0.342800  0.907400  1.0  0.3138
  H  H211  1  0.000400  0.510400  0.650900  1.0  0.1437
  H  H212  1  0.966300  0.439500  0.656000  1.0  0.121
  H  H213  1  0.962800  0.485700  0.709100  1.0  0.1079
  H  H214  1  0.071500  0.594200  0.709900  1.0  0.0994
  H  H215  1  0.117100  0.644400  0.670100  1.0  0.1034
  H  H216  1  0.048000  0.597800  0.644800  1.0  0.1139
  H  H217  1  0.225700  0.519600  0.587600  1.0  0.114
  H  H218  1  0.185000  0.587700  0.578000  1.0  0.1243
  H  H219  1  0.065900  0.436000  0.533200  1.0  0.3422
  H  H220  1  0.152400  0.433800  0.559800  1.0  0.3223
  H  H221  1  0.199800  0.582100  0.763900  1.0  0.0884
  H  H222  1  0.220100  0.649400  0.736300  1.0  0.0754
  H  H223  1  0.344400  0.562700  0.775400  1.0  0.1172
  H  H224  1  0.365500  0.629000  0.746900  1.0  0.1326
  H  H225  1  0.264700  0.692500  0.877700  1.0  0.3445
  H  H226  1  0.221000  0.679400  0.822100  1.0  0.2335
  H  H227  1  0.563400  0.414100  0.587800  1.0  0.1236
  H  H228  1  0.470900  0.386100  0.593300  1.0  0.1143
  H  H229  1  0.484400  0.459700  0.580800  1.0  0.1224
  H  H230  1  0.550200  0.512400  0.714100  1.0  0.1035
  H  H231  1  0.623000  0.481900  0.676800  1.0  0.1017
  H  H232  1  0.555100  0.527300  0.648300  1.0  0.0967
  H  H233  1  0.558800  0.343100  0.776100  1.0  0.0943
  H  H234  1  0.537000  0.416700  0.774300  1.0  0.0865
  H  H235  1  0.680700  0.391500  0.796400  1.0  0.082
  H  H236  1  0.667800  0.444300  0.749500  1.0  0.085
  H  H237  1  0.757600  0.283500  0.708800  1.0  0.3098
  H  H238  1  0.697200  0.288200  0.758000  1.0  0.2818
  H  H239  1  0.557300  0.259600  0.699300  1.0  0.1037
  H  H240  1  0.525700  0.229500  0.757100  1.0  0.1173
  H  H241  1  0.496800  0.199400  0.698700  1.0  0.1083
  H  H242  1  0.384700  0.164400  0.661300  1.0  0.1069
  H  H243  1  0.328500  0.108100  0.685400  1.0  0.1153
  H  H244  1  0.285100  0.168400  0.657300  1.0  0.1042
  H  H245  1  0.358200  0.109500  0.786900  1.0  0.0929
  H  H246  1  0.438900  0.142900  0.761300  1.0  0.091
  H  H247  1  0.352000  0.178100  0.861400  1.0  0.0985
  H  H248  1  0.410100  0.229200  0.831000  1.0  0.1072
  H  H249  1  0.416600  0.132500  0.931700  1.0  0.2365
  H  H250  1  0.196300  0.119000  0.706400  1.0  0.0907
  H  H251  1  0.121200  0.145700  0.744000  1.0  0.0971
  H  H252  1  0.204200  0.991100  0.784300  1.0  0.3121
  H  H253  1  0.194200  0.020000  0.726100  1.0  0.2513
  H  H254  1  0.579500  0.087900  0.921200  1.0  0.0875
  H  H255  1  0.516600  0.067100  0.969900  1.0  0.1017
  H  H256  1  0.599700  0.185900  0.965900  1.0  0.0817
  H  H257  1  0.631600  0.074600  0.033000  1.0  0.1119
  H  H258  1  0.697900  0.109600  0.993600  1.0  0.1112
  H  H259  1  0.667800  0.142300  0.050600  1.0  0.1231
  H  H260  1  0.433200  0.448300  0.940100  1.0  0.0923
  H  H261  1  0.358200  0.367600  0.979900  1.0  0.0779
  H  H262  1  0.499200  0.354000  0.998900  1.0  0.1078
  H  H263  1  0.526900  0.301500  0.888600  1.0  0.0911
  H  H264  1  0.654400  0.354900  0.890300  1.0  0.0926
  H  H265  1  0.647900  0.310600  0.944600  1.0  0.092
  H  H266  1  0.326300  0.286800  0.929300  1.0  0.3218
  H  H267  1  0.686000  0.402600  0.971700  1.0  0.3155
  H  H268  1  0.396500  0.366600  0.807900  1.0  0.097
  H  H269  1  0.131500  0.473900  0.794800  1.0  0.1135
  H  H270  1  0.304300  0.513200  0.951200  1.0  0.1211
  H  H271  1  0.029600  0.542000  0.826500  1.0  0.1328
  H  H272  1  0.021300  0.543400  0.893400  1.0  0.1242
  H  H273  1  0.064000  0.601400  0.861100  1.0  0.1282
  H  H274  1  0.206600  0.580400  0.990800  1.0  0.1358
  H  H275  1  0.155000  0.621600  0.946400  1.0  0.1296
  H  H276  1  0.111700  0.562700  0.976800  1.0  0.1179
  H  H277  1  0.533300  0.644200  0.212500  1.0  0.1049
  H  H278  1  0.223700  0.397700  0.155200  1.0  0.0911
  H  H279  1  0.093400  0.460700  0.170500  1.0  0.1148
  H  H280  1  0.931700  0.652400  0.172200  1.0  0.0788
  H  H281  1  0.263400  0.800900  0.302600  1.0  0.1285
  H  H282  1  0.310700  0.753900  0.192400  1.0  0.0987
  H  H283  1  0.282200  0.690500  0.329400  1.0  0.1006
  H  H284  1  0.374600  0.663800  0.339300  1.0  0.145
  H  H285  1  0.357400  0.738400  0.341500  1.0  0.1028
  H  H286  1  0.468100  0.796300  0.294000  1.0  0.1028
  H  H287  1  0.501900  0.734300  0.325000  1.0  0.1075
  H  H288  1  0.555800  0.766200  0.276100  1.0  0.1103
  H  H289  1  0.438100  0.787500  0.186200  1.0  0.0834
  H  H290  1  0.427600  0.718800  0.159000  1.0  0.0865
  H  H291  1  0.608100  0.741100  0.095500  1.0  0.3373
  H  H292  1  0.514800  0.728000  0.089900  1.0  0.3373
  H  H293  1  0.490100  0.629600  0.327800  1.0  0.1042
  H  H294  1  0.512800  0.567800  0.292300  1.0  0.0852
  H  H295  1  0.625100  0.671700  0.312000  1.0  0.0767
  H  H296  1  0.648100  0.613300  0.272000  1.0  0.0823
  H  H297  1  0.666667  0.597900  0.434100  1.0  0.3466
  H  H298  1  0.629700  0.657200  0.407400  1.0  0.3131
  H  H299  1  0.499600  0.489600  0.150900  1.0  0.1434
  H  H300  1  0.533700  0.560500  0.156000  1.0  0.1214
  H  H301  1  0.537200  0.514300  0.209100  1.0  0.1086
  H  H302  1  0.428500  0.405800  0.209900  1.0  0.0995
  H  H303  1  0.382900  0.355600  0.170100  1.0  0.104
  H  H304  1  0.452000  0.402200  0.144800  1.0  0.1144
  H  H305  1  0.274300  0.480400  0.087600  1.0  0.1143
  H  H306  1  0.315000  0.412300  0.078000  1.0  0.1251
  H  H307  1  0.434100  0.564000  0.033200  1.0  0.3395
  H  H308  1  0.347600  0.566200  0.059800  1.0  0.323
  H  H309  1  0.300200  0.417900  0.263900  1.0  0.0871
  H  H310  1  0.279900  0.350600  0.236300  1.0  0.0755
  H  H311  1  0.155600  0.437300  0.275400  1.0  0.1181
  H  H312  1  0.134500  0.371000  0.246900  1.0  0.1327
  H  H313  1  0.235300  0.307500  0.377700  1.0  0.3455
  H  H314  1  0.279000  0.320600  0.322100  1.0  0.2338
  H  H315  1  0.936600  0.585900  0.087800  1.0  0.1165
  H  H316  1  0.029100  0.613900  0.093300  1.0  0.114
  H  H317  1  0.015600  0.540300  0.080800  1.0  0.122
  H  H318  1  0.949800  0.487600  0.214100  1.0  0.104
  H  H319  1  0.877000  0.518100  0.176800  1.0  0.0993
  H  H320  1  0.944900  0.472700  0.148300  1.0  0.0961
  H  H321  1  0.941200  0.656900  0.276100  1.0  0.0929
  H  H322  1  0.963000  0.583300  0.274300  1.0  0.0886
  H  H323  1  0.819300  0.608500  0.296400  1.0  0.0817
  H  H324  1  0.832200  0.555700  0.249500  1.0  0.0831
  H  H325  1  0.742400  0.716500  0.208800  1.0  0.3095
  H  H326  1  0.802800  0.711800  0.258000  1.0  0.282
  H  H327  1  0.942700  0.740400  0.199300  1.0  0.1044
  H  H328  1  0.974300  0.770500  0.257100  1.0  0.118
  H  H329  1  0.003200  0.800600  0.198700  1.0  0.1091
  H  H330  1  0.115300  0.835600  0.161300  1.0  0.1072
  H  H331  1  0.171500  0.891900  0.185400  1.0  0.1163
  H  H332  1  0.214900  0.831600  0.157300  1.0  0.1037
  H  H333  1  0.141800  0.890500  0.286900  1.0  0.0925
  H  H334  1  0.061100  0.857100  0.261300  1.0  0.093
  H  H335  1  0.148000  0.821900  0.361400  1.0  0.0986
  H  H336  1  0.089900  0.770800  0.331000  1.0  0.1091
  H  H337  1  0.083400  0.867500  0.431700  1.0  0.2339
  H  H338  1  0.303700  0.881000  0.206400  1.0  0.0925
  H  H339  1  0.378800  0.854300  0.244000  1.0  0.1001
  H  H340  1  0.295800  0.008900  0.284300  1.0  0.3096
  H  H341  1  0.305800  0.980000  0.226100  1.0  0.2514
  H  H342  1  0.920500  0.912100  0.421200  1.0  0.0882
  H  H343  1  0.983400  0.932900  0.469900  1.0  0.0996
  H  H344  1  0.900300  0.814100  0.465900  1.0  0.0821
  H  H345  1  0.868400  0.925400  0.533000  1.0  0.1123
  H  H346  1  0.802100  0.890400  0.493600  1.0  0.1103
  H  H347  1  0.832200  0.857700  0.550600  1.0  0.1229
  H  H348  1  0.066800  0.551700  0.440100  1.0  0.092
  H  H349  1  0.141800  0.632400  0.479900  1.0  0.0779
  H  H350  1  0.000800  0.646000  0.498900  1.0  0.1075
  H  H351  1  0.973100  0.698500  0.388600  1.0  0.0904
  H  H352  1  0.845600  0.645100  0.390300  1.0  0.0918
  H  H353  1  0.852100  0.689400  0.444600  1.0  0.0912
  H  H354  1  0.173700  0.713200  0.429300  1.0  0.3211
  H  H355  1  0.814000  0.597400  0.471700  1.0  0.3167
  H  H356  1  0.103500  0.633400  0.307900  1.0  0.0969
  H  H357  1  0.368500  0.526100  0.294800  1.0  0.1134
  H  H358  1  0.195700  0.486800  0.451200  1.0  0.1199
  H  H359  1  0.470400  0.458000  0.326500  1.0  0.133
  H  H360  1  0.478700  0.456600  0.393400  1.0  0.1238
  H  H361  1  0.436000  0.398600  0.361100  1.0  0.1293
  H  H362  1  0.293400  0.419600  0.490800  1.0  0.136
  H  H363  1  0.345000  0.378400  0.446400  1.0  0.1288
  H  H364  1  0.388300  0.437300  0.476800  1.0  0.1195
  C  C365  1  0.750500  0.859300  0.861000  1.0  0.2069
  C  C366  1  0.859300  0.796800  0.740900  1.0  0.1575
  C  C367  1  0.954000  0.785300  0.754800  1.0  0.0551
  C  C368  1  0.988900  0.854200  0.758000  1.0  -0.1249
  C  C369  1  0.913000  0.890100  0.779200  1.0  0.2207
  C  C370  1  0.915900  0.950800  0.805900  1.0  0.0273
  C  C371  1  0.848000  0.986400  0.815900  1.0  0.0802
  C  C372  1  0.837900  0.052500  0.841200  1.0  0.0683
  C  C373  1  0.753200  0.074100  0.817600  1.0  -0.1333
  C  C374  1  0.709400  0.010400  0.812900  1.0  0.2491
  C  C375  1  0.624900  0.002500  0.820800  1.0  -0.1163
  C  C376  1  0.581600  0.946600  0.817300  1.0  0.1884
  C  C377  1  0.492400  0.936600  0.835200  1.0  0.1618
  C  C378  1  0.468800  0.874600  0.804000  1.0  -0.1357
  C  C379  1  0.555500  0.843800  0.797100  1.0  0.1302
  C  C380  1  0.565600  0.782700  0.782600  1.0  0.085
  C  C381  1  0.649500  0.756900  0.770700  1.0  0.0156
  C  C382  1  0.670800  0.687200  0.761700  1.0  0.0584
  C  C383  1  0.763700  0.693400  0.739000  1.0  -0.1055
  C  C384  1  0.792800  0.756100  0.768400  1.0  0.0548
  C  C385  1  0.841700  0.801500  0.676700  1.0  -0.3521
  C  C386  1  0.999100  0.743300  0.710900  1.0  -0.3669
  C  C387  1  0.961700  0.755800  0.814700  1.0  -0.2512
  C  C388  1  0.048900  0.752400  0.836600  1.0  0.4117
  C  C389  1  0.022200  0.886100  0.704800  1.0  -0.1592
  C  C390  1  0.115800  0.874000  0.694400  1.0  -0.2547
  C  C391  1  0.145400  0.910800  0.644700  1.0  0.5626
  C  C392  1  0.004900  0.973700  0.824200  1.0  -0.3628
  C  C393  1  0.906600  0.101800  0.827900  1.0  -0.3464
  C  C394  1  0.825200  0.045200  0.905900  1.0  -0.2694
  C  C395  1  0.897800  0.014500  0.938200  1.0  0.616
  C  C396  1  0.759200  0.105600  0.759200  1.0  -0.129
  C  C397  1  0.675100  0.106900  0.728700  1.0  -0.3006
  C  C398  1  0.672900  0.138100  0.671000  1.0  0.5934
  C  C399  1  0.493500  0.922900  0.899200  1.0  -0.3476
  C  C400  1  0.435800  0.995000  0.822900  1.0  -0.3623
  C  C401  1  0.431800  0.882700  0.745100  1.0  -0.1746
  C  C402  1  0.338600  0.898600  0.742500  1.0  -0.1776
  C  C403  1  0.284300  0.864900  0.779000  1.0  0.5886
  C  C404  1  0.489600  0.738800  0.781800  1.0  -0.362
  C  C405  1  0.667800  0.654000  0.819800  1.0  -0.3354
  C  C406  1  0.615500  0.651000  0.720400  1.0  -0.1937
  C  C407  1  0.598500  0.683400  0.663000  1.0  -0.2356
  C  C408  1  0.523700  0.656400  0.634400  1.0  0.576
  C  C409  1  0.819100  0.633700  0.755500  1.0  -0.2435
  C  C410  1  0.805700  0.581900  0.714600  1.0  0.5735
  C  C411  1  0.462600  0.603800  0.551800  1.0  -0.0139
  C  C412  1  0.421700  0.648400  0.513000  1.0  0.1267
  C  C413  1  0.349500  0.615700  0.481000  1.0  -0.3354
  C  C414  1  0.576000  0.911600  0.585700  1.0  -0.0233
  C  C415  1  0.605600  0.855100  0.552400  1.0  0.1088
  C  C416  1  0.522700  0.828700  0.533400  1.0  0.0855
  C  C417  1  0.466300  0.838200  0.585400  1.0  0.1213
  C  C418  1  0.375700  0.848500  0.573900  1.0  0.0587
  C  C419  1  0.643000  0.896800  0.679300  1.0  0.1724
  C  C420  1  0.833200  0.982400  0.674100  1.0  -0.148
  C  C421  1  0.859200  0.023400  0.633300  1.0  0.0442
  C  C422  1  0.806800  0.036200  0.585300  1.0  0.0422
  C  C423  1  0.730400  0.006000  0.580500  1.0  -0.1303
  C  C424  1  0.705200  0.964600  0.623200  1.0  0.0845
  C  C425  1  0.754800  0.952500  0.670500  1.0  0.0915
  C  C426  1  0.943500  0.055400  0.638600  1.0  -0.3836
  C  C427  1  0.835900  0.079000  0.538800  1.0  -0.4073
  C  C428  1  0.749500  0.140700  0.361000  1.0  0.2068
  C  C429  1  0.640700  0.203200  0.240900  1.0  0.1565
  C  C430  1  0.546000  0.214700  0.254800  1.0  0.0549
  C  C431  1  0.511100  0.145800  0.258000  1.0  -0.1259
  C  C432  1  0.587000  0.109900  0.279200  1.0  0.2214
  C  C433  1  0.584100  0.049200  0.305900  1.0  0.027
  C  C434  1  0.652000  0.013600  0.315900  1.0  0.081
  C  C435  1  0.662100  0.947500  0.341200  1.0  0.0679
  C  C436  1  0.746800  0.925900  0.317600  1.0  -0.1335
  C  C437  1  0.790600  0.989600  0.312900  1.0  0.2481
  C  C438  1  0.875100  0.997500  0.320800  1.0  -0.1156
  C  C439  1  0.918400  0.053400  0.317300  1.0  0.189
  C  C440  1  0.007600  0.063400  0.335200  1.0  0.1615
  C  C441  1  0.031200  0.125400  0.304000  1.0  -0.1351
  C  C442  1  0.944500  0.156200  0.297100  1.0  0.1307
  C  C443  1  0.934400  0.217300  0.282600  1.0  0.0831
  C  C444  1  0.850500  0.243100  0.270700  1.0  0.0163
  C  C445  1  0.829200  0.312800  0.261700  1.0  0.0585
  C  C446  1  0.736300  0.306600  0.239000  1.0  -0.1053
  C  C447  1  0.707200  0.243900  0.268400  1.0  0.0538
  C  C448  1  0.658300  0.198500  0.176700  1.0  -0.3529
  C  C449  1  0.500900  0.256700  0.210900  1.0  -0.3646
  C  C450  1  0.538300  0.244200  0.314700  1.0  -0.2532
  C  C451  1  0.451100  0.247600  0.336600  1.0  0.4046
  C  C452  1  0.477800  0.113900  0.204800  1.0  -0.1597
  C  C453  1  0.384200  0.126000  0.194400  1.0  -0.2529
  C  C454  1  0.354600  0.089200  0.144700  1.0  0.5632
  C  C455  1  0.495100  0.026300  0.324200  1.0  -0.3633
  C  C456  1  0.593400  0.898200  0.327900  1.0  -0.3461
  C  C457  1  0.674800  0.954800  0.405900  1.0  -0.2673
  C  C458  1  0.602200  0.985500  0.438200  1.0  0.6143
  C  C459  1  0.740800  0.894400  0.259200  1.0  -0.1297
  C  C460  1  0.824900  0.893100  0.228700  1.0  -0.3011
  C  C461  1  0.827100  0.861900  0.171000  1.0  0.5953
  C  C462  1  0.006500  0.077100  0.399200  1.0  -0.3478
  C  C463  1  0.064200  0.005000  0.322900  1.0  -0.3645
  C  C464  1  0.068200  0.117300  0.245100  1.0  -0.1749
  C  C465  1  0.161400  0.101400  0.242500  1.0  -0.1773
  C  C466  1  0.215700  0.135100  0.279000  1.0  0.5888
  C  C467  1  0.010400  0.261200  0.281800  1.0  -0.3626
  C  C468  1  0.832200  0.346000  0.319800  1.0  -0.3348
  C  C469  1  0.884500  0.349000  0.220400  1.0  -0.1945
  C  C470  1  0.901500  0.316600  0.163000  1.0  -0.2347
  C  C471  1  0.976300  0.343600  0.134400  1.0  0.5773
  C  C472  1  0.680900  0.366300  0.255500  1.0  -0.2421
  C  C473  1  0.694300  0.418100  0.214600  1.0  0.5741
  C  C474  1  0.037400  0.396200  0.051800  1.0  -0.0134
  C  C475  1  0.078300  0.351600  0.013000  1.0  0.1277
  C  C476  1  0.150500  0.384300  0.981000  1.0  -0.3352
  C  C477  1  0.924000  0.088400  0.085700  1.0  -0.0222
  C  C478  1  0.894400  0.144900  0.052400  1.0  0.1085
  C  C479  1  0.977300  0.171300  0.033400  1.0  0.0872
  C  C480  1  0.033700  0.161800  0.085400  1.0  0.1231
  C  C481  1  0.124300  0.151500  0.073900  1.0  0.0602
  C  C482  1  0.857000  0.103200  0.179300  1.0  0.1703
  C  C483  1  0.666800  0.017600  0.174100  1.0  -0.1491
  C  C484  1  0.640800  0.976600  0.133300  1.0  0.0426
  C  C485  1  0.693200  0.963800  0.085300  1.0  0.0415
  C  C486  1  0.769600  0.994000  0.080500  1.0  -0.1329
  C  C487  1  0.794800  0.035400  0.123200  1.0  0.0848
  C  C488  1  0.745200  0.047500  0.170500  1.0  0.0923
  C  C489  1  0.556500  0.944600  0.138600  1.0  -0.3838
  C  C490  1  0.664100  0.921000  0.038800  1.0  -0.4064
  C  C491  1  0.249500  0.359300  0.639000  1.0  0.2091
  C  C492  1  0.140700  0.296800  0.759100  1.0  0.1578
  C  C493  1  0.046000  0.285300  0.745200  1.0  0.053
  C  C494  1  0.011100  0.354200  0.742000  1.0  -0.1262
  C  C495  1  0.087000  0.390100  0.720800  1.0  0.2216
  C  C496  1  0.084100  0.450800  0.694100  1.0  0.028
  C  C497  1  0.152000  0.486400  0.684100  1.0  0.08
  C  C498  1  0.162100  0.552500  0.658800  1.0  0.0671
  C  C499  1  0.246800  0.574100  0.682400  1.0  -0.1336
  C  C500  1  0.290600  0.510400  0.687100  1.0  0.2487
  C  C501  1  0.375100  0.502500  0.679200  1.0  -0.1162
  C  C502  1  0.418400  0.446600  0.682700  1.0  0.1879
  C  C503  1  0.507600  0.436600  0.664800  1.0  0.1611
  C  C504  1  0.531200  0.374600  0.696000  1.0  -0.1353
  C  C505  1  0.444500  0.343800  0.702900  1.0  0.1323
  C  C506  1  0.434400  0.282700  0.717400  1.0  0.0828
  C  C507  1  0.350500  0.256900  0.729300  1.0  0.0162
  C  C508  1  0.329200  0.187200  0.738300  1.0  0.0585
  C  C509  1  0.236300  0.193400  0.761000  1.0  -0.106
  C  C510  1  0.207200  0.256100  0.731600  1.0  0.0551
  C  C511  1  0.158300  0.301500  0.823300  1.0  -0.3535
  C  C512  1  0.000900  0.243300  0.789100  1.0  -0.3649
  C  C513  1  0.038300  0.255800  0.685300  1.0  -0.253
  C  C514  1  0.951100  0.252400  0.663400  1.0  0.4033
  C  C515  1  0.977800  0.386100  0.795200  1.0  -0.1597
  C  C516  1  0.884200  0.374000  0.805600  1.0  -0.2529
  C  C517  1  0.854600  0.410800  0.855300  1.0  0.5672
  C  C518  1  0.995100  0.473700  0.675800  1.0  -0.3631
  C  C519  1  0.093400  0.601800  0.672100  1.0  -0.3466
  C  C520  1  0.174800  0.545200  0.594100  1.0  -0.2676
  C  C521  1  0.102200  0.514500  0.561800  1.0  0.6125
  C  C522  1  0.240800  0.605600  0.740800  1.0  -0.1297
  C  C523  1  0.324900  0.606900  0.771300  1.0  -0.3002
  C  C524  1  0.327100  0.638100  0.829000  1.0  0.597
  C  C525  1  0.506500  0.422900  0.600800  1.0  -0.3493
  C  C526  1  0.564200  0.495000  0.677100  1.0  -0.3646
  C  C527  1  0.568200  0.382700  0.754900  1.0  -0.1771
  C  C528  1  0.661400  0.398600  0.757500  1.0  -0.1775
  C  C529  1  0.715700  0.364900  0.721000  1.0  0.591
  C  C530  1  0.510400  0.238800  0.718200  1.0  -0.3629
  C  C531  1  0.332200  0.154000  0.680200  1.0  -0.3382
  C  C532  1  0.384500  0.151000  0.779600  1.0  -0.1941
  C  C533  1  0.401500  0.183400  0.837000  1.0  -0.2341
  C  C534  1  0.476300  0.156400  0.865600  1.0  0.5777
  C  C535  1  0.180900  0.133700  0.744500  1.0  -0.2428
  C  C536  1  0.194300  0.081900  0.785400  1.0  0.5742
  C  C537  1  0.537400  0.103800  0.948200  1.0  -0.013
  C  C538  1  0.578300  0.148400  0.987000  1.0  0.1268
  C  C539  1  0.650500  0.115700  0.019000  1.0  -0.3353
  C  C540  1  0.424000  0.411600  0.914300  1.0  -0.0224
  C  C541  1  0.394400  0.355100  0.947600  1.0  0.1078
  C  C542  1  0.477300  0.328700  0.966600  1.0  0.0855
  C  C543  1  0.533700  0.338200  0.914600  1.0  0.1241
  C  C544  1  0.624300  0.348500  0.926100  1.0  0.0606
  C  C545  1  0.357000  0.396800  0.820700  1.0  0.1709
  C  C546  1  0.166800  0.482400  0.825900  1.0  -0.1486
  C  C547  1  0.140800  0.523400  0.866700  1.0  0.0422
  C  C548  1  0.193200  0.536200  0.914700  1.0  0.0431
  C  C549  1  0.269600  0.506000  0.919500  1.0  -0.1313
  C  C550  1  0.294800  0.464600  0.876800  1.0  0.086
  C  C551  1  0.245200  0.452500  0.829500  1.0  0.0953
  C  C552  1  0.056500  0.555400  0.861400  1.0  -0.3845
  C  C553  1  0.164100  0.579000  0.961200  1.0  -0.4062
  C  C554  1  0.250500  0.640700  0.139000  1.0  0.2118
  C  C555  1  0.359300  0.703200  0.259100  1.0  0.1572
  C  C556  1  0.454000  0.714700  0.245200  1.0  0.0525
  C  C557  1  0.488900  0.645800  0.242000  1.0  -0.1248
  C  C558  1  0.413000  0.609900  0.220800  1.0  0.2209
  C  C559  1  0.415900  0.549200  0.194100  1.0  0.0283
  C  C560  1  0.348000  0.513600  0.184100  1.0  0.0799
  C  C561  1  0.337900  0.447500  0.158800  1.0  0.0663
  C  C562  1  0.253200  0.425900  0.182400  1.0  -0.1339
  C  C563  1  0.209400  0.489600  0.187100  1.0  0.2498
  C  C564  1  0.124900  0.497500  0.179200  1.0  -0.1156
  C  C565  1  0.081600  0.553400  0.182700  1.0  0.1873
  C  C566  1  0.992400  0.563400  0.164800  1.0  0.1612
  C  C567  1  0.968800  0.625400  0.196000  1.0  -0.1351
  C  C568  1  0.055500  0.656200  0.202900  1.0  0.131
  C  C569  1  0.065600  0.717300  0.217400  1.0  0.0828
  C  C570  1  0.149500  0.743100  0.229300  1.0  0.0164
  C  C571  1  0.170800  0.812800  0.238300  1.0  0.0575
  C  C572  1  0.263700  0.806600  0.261000  1.0  -0.1056
  C  C573  1  0.292800  0.743900  0.231600  1.0  0.0548
  C  C574  1  0.341700  0.698500  0.323300  1.0  -0.3542
  C  C575  1  0.499100  0.756700  0.289100  1.0  -0.3638
  C  C576  1  0.461700  0.744200  0.185300  1.0  -0.2515
  C  C577  1  0.548900  0.747600  0.163400  1.0  0.4075
  C  C578  1  0.522200  0.613900  0.295200  1.0  -0.1583
  C  C579  1  0.615800  0.626000  0.305600  1.0  -0.2542
  C  C580  1  0.645400  0.589200  0.355300  1.0  0.5626
  C  C581  1  0.504900  0.526300  0.175800  1.0  -0.3632
  C  C582  1  0.406600  0.398200  0.172100  1.0  -0.3482
  C  C583  1  0.325200  0.454800  0.094100  1.0  -0.268
  C  C584  1  0.397800  0.485500  0.061800  1.0  0.6157
  C  C585  1  0.259200  0.394400  0.240800  1.0  -0.1282
  C  C586  1  0.175100  0.393100  0.271300  1.0  -0.3
  C  C587  1  0.172900  0.361900  0.329000  1.0  0.5952
  C  C588  1  0.993500  0.577100  0.100800  1.0  -0.3479
  C  C589  1  0.935800  0.505000  0.177100  1.0  -0.3624
  C  C590  1  0.931800  0.617300  0.254900  1.0  -0.1761
  C  C591  1  0.838600  0.601400  0.257500  1.0  -0.1776
  C  C592  1  0.784300  0.635100  0.221000  1.0  0.5916
  C  C593  1  0.989600  0.761200  0.218200  1.0  -0.3616
  C  C594  1  0.167800  0.846000  0.180200  1.0  -0.3358
  C  C595  1  0.115500  0.849000  0.279600  1.0  -0.1942
  C  C596  1  0.098500  0.816600  0.337000  1.0  -0.235
  C  C597  1  0.023700  0.843600  0.365600  1.0  0.5773
  C  C598  1  0.319100  0.866300  0.244500  1.0  -0.2431
  C  C599  1  0.305700  0.918100  0.285400  1.0  0.5754
  C  C600  1  0.962600  0.896200  0.448200  1.0  -0.0133
  C  C601  1  0.921700  0.851600  0.487000  1.0  0.1269
  C  C602  1  0.849500  0.884300  0.519000  1.0  -0.3343
  C  C603  1  0.076000  0.588400  0.414300  1.0  -0.0236
  C  C604  1  0.105600  0.644900  0.447600  1.0  0.1091
  C  C605  1  0.022700  0.671300  0.466600  1.0  0.084
  C  C606  1  0.966300  0.661800  0.414600  1.0  0.1237
  C  C607  1  0.875700  0.651500  0.426100  1.0  0.0608
  C  C608  1  0.143000  0.603200  0.320700  1.0  0.1719
  C  C609  1  0.333200  0.517600  0.325900  1.0  -0.1473
  C  C610  1  0.359200  0.476600  0.366700  1.0  0.0435
  C  C611  1  0.306800  0.463800  0.414700  1.0  0.0424
  C  C612  1  0.230400  0.494000  0.419500  1.0  -0.1303
  C  C613  1  0.205200  0.535400  0.376800  1.0  0.0843
  C  C614  1  0.254800  0.547500  0.329500  1.0  0.0941
  C  C615  1  0.443500  0.444600  0.361400  1.0  -0.3844
  C  C616  1  0.335900  0.421000  0.461200  1.0  -0.4065
  N  N617  1  0.764300  0.849900  0.907000  1.0  -0.4975
  N  N618  1  0.843300  0.860200  0.768000  1.0  -0.3231
  N  N619  1  0.764800  0.964400  0.804300  1.0  -0.3702
  N  N620  1  0.616900  0.890700  0.800700  1.0  -0.3242
  N  N621  1  0.714900  0.793300  0.770400  1.0  -0.317
  N  N622  1  0.058200  0.762100  0.889200  1.0  -0.5866
  N  N623  1  0.147500  0.882000  0.595600  1.0  -0.6349
  N  N624  1  0.892600  0.955200  0.949600  1.0  -0.6037
  N  N625  1  0.736100  0.174000  0.655300  1.0  -0.6084
  N  N626  1  0.275600  0.806200  0.769800  1.0  -0.6078
  N  N627  1  0.533500  0.632000  0.583700  1.0  -0.3936
  N  N628  1  0.802000  0.524500  0.737300  1.0  -0.5852
  N  N629  1  0.634100  0.929600  0.630200  1.0  -0.0297
  N  N630  1  0.710700  0.910900  0.706600  1.0  -0.3777
  N  N631  1  0.735700  0.150100  0.407000  1.0  -0.4963
  N  N632  1  0.656700  0.139800  0.268000  1.0  -0.3235
  N  N633  1  0.735200  0.035600  0.304300  1.0  -0.3684
  N  N634  1  0.883100  0.109300  0.300700  1.0  -0.3256
  N  N635  1  0.785100  0.206700  0.270400  1.0  -0.3166
  N  N636  1  0.441800  0.237900  0.389200  1.0  -0.5895
  N  N637  1  0.352500  0.118000  0.095600  1.0  -0.6344
  N  N638  1  0.607400  0.044800  0.449600  1.0  -0.6034
  N  N639  1  0.763900  0.826000  0.155300  1.0  -0.6087
  N  N640  1  0.224400  0.193800  0.269800  1.0  -0.6074
  N  N641  1  0.966500  0.368000  0.083700  1.0  -0.3948
  N  N642  1  0.698000  0.475500  0.237300  1.0  -0.5854
  N  N643  1  0.865900  0.070400  0.130200  1.0  -0.0316
  N  N644  1  0.789300  0.089100  0.206600  1.0  -0.3771
  N  N645  1  0.235700  0.349900  0.593000  1.0  -0.4991
  N  N646  1  0.156700  0.360200  0.732000  1.0  -0.3236
  N  N647  1  0.235200  0.464400  0.695700  1.0  -0.3697
  N  N648  1  0.383100  0.390700  0.699300  1.0  -0.3259
  N  N649  1  0.285100  0.293300  0.729600  1.0  -0.3156
  N  N650  1  0.941800  0.262100  0.610800  1.0  -0.5901
  N  N651  1  0.852500  0.382000  0.904400  1.0  -0.6321
  N  N652  1  0.107400  0.455200  0.550400  1.0  -0.6064
  N  N653  1  0.263900  0.674000  0.844700  1.0  -0.6094
  N  N654  1  0.724400  0.306200  0.730200  1.0  -0.6085
  N  N655  1  0.466500  0.132000  0.916300  1.0  -0.3939
  N  N656  1  0.198000  0.024500  0.762700  1.0  -0.5854
  N  N657  1  0.365900  0.429600  0.869800  1.0  -0.0298
  N  N658  1  0.289300  0.410900  0.793400  1.0  -0.378
  N  N659  1  0.264300  0.650100  0.093000  1.0  -0.4977
  N  N660  1  0.343300  0.639800  0.232000  1.0  -0.3246
  N  N661  1  0.264800  0.535600  0.195700  1.0  -0.3706
  N  N662  1  0.116900  0.609300  0.199300  1.0  -0.3243
  N  N663  1  0.214900  0.706700  0.229600  1.0  -0.3171
  N  N664  1  0.558200  0.737900  0.110800  1.0  -0.5898
  N  N665  1  0.647500  0.618000  0.404400  1.0  -0.6294
  N  N666  1  0.392600  0.544800  0.050400  1.0  -0.6085
  N  N667  1  0.236100  0.326000  0.344700  1.0  -0.6102
  N  N668  1  0.775600  0.693800  0.230200  1.0  -0.608
  N  N669  1  0.033500  0.868000  0.416300  1.0  -0.3936
  N  N670  1  0.302000  0.975500  0.262700  1.0  -0.5863
  N  N671  1  0.134100  0.570400  0.369800  1.0  -0.0323
  N  N672  1  0.210700  0.589100  0.293400  1.0  -0.3782
  Cl  Cl673  1  0.302000  0.082600  0.967500  1.0  -0.5391
  Cl  Cl674  1  0.198000  0.917400  0.467500  1.0  -0.5383
  Cl  Cl675  1  0.698000  0.582600  0.532500  1.0  -0.5366
  Cl  Cl676  1  0.802000  0.417400  0.032500  1.0  -0.5383
  O  O677  1  0.112500  0.739000  0.810900  1.0  -0.5537
  O  O678  1  0.169700  0.967400  0.653100  1.0  -0.5985
  O  O679  1  0.960500  0.047200  0.950700  1.0  -0.6132
  O  O680  1  0.610800  0.129100  0.640300  1.0  -0.5901
  O  O681  1  0.248100  0.898800  0.818900  1.0  -0.5697
  O  O682  1  0.453500  0.657300  0.657800  1.0  -0.5559
  O  O683  1  0.800900  0.592700  0.663600  1.0  -0.6474
  O  O684  1  0.526600  0.763800  0.518600  1.0  -0.3885
  O  O685  1  0.482300  0.668200  0.471100  1.0  -0.4036
  O  O686  1  0.418200  0.773200  0.442300  1.0  -0.8012
  O  O687  1  0.568600  0.741400  0.417100  1.0  -0.6749
  O  O688  1  0.499700  0.894900  0.611900  1.0  -0.3798
  O  O689  1  0.646600  0.813600  0.589300  1.0  -0.5121
  O  O690  1  0.363900  0.901500  0.539300  1.0  -0.5596
  O  O691  1  0.387500  0.261000  0.310900  1.0  -0.5527
  O  O692  1  0.330300  0.032600  0.153100  1.0  -0.5954
  O  O693  1  0.539500  0.952800  0.450700  1.0  -0.6133
  O  O694  1  0.889200  0.870900  0.140300  1.0  -0.5867
  O  O695  1  0.251900  0.101200  0.318900  1.0  -0.5692
  O  O696  1  0.046500  0.342700  0.157800  1.0  -0.5582
  O  O697  1  0.699100  0.407300  0.163600  1.0  -0.648
  O  O698  1  0.973400  0.236200  0.018600  1.0  -0.3876
  O  O699  1  0.017700  0.331800  0.971100  1.0  -0.4051
  O  O700  1  0.081800  0.226800  0.942300  1.0  -0.8042
  O  O701  1  0.931400  0.258600  0.917100  1.0  -0.6755
  O  O702  1  0.000300  0.105100  0.111900  1.0  -0.3774
  O  O703  1  0.853400  0.186400  0.089300  1.0  -0.5117
  O  O704  1  0.136100  0.098500  0.039300  1.0  -0.5584
  O  O705  1  0.887500  0.239000  0.689100  1.0  -0.5529
  O  O706  1  0.830300  0.467400  0.846900  1.0  -0.5947
  O  O707  1  0.039500  0.547200  0.549300  1.0  -0.6131
  O  O708  1  0.389200  0.629100  0.859700  1.0  -0.5889
  O  O709  1  0.751900  0.398800  0.681100  1.0  -0.5657
  O  O710  1  0.546500  0.157300  0.842200  1.0  -0.5585
  O  O711  1  0.199100  0.092700  0.836400  1.0  -0.6529
  O  O712  1  0.473400  0.263800  0.981400  1.0  -0.3875
  O  O713  1  0.517700  0.168200  0.028900  1.0  -0.4057
  O  O714  1  0.581800  0.273200  0.057700  1.0  -0.8034
  O  O715  1  0.431400  0.241400  0.082900  1.0  -0.6755
  O  O716  1  0.500300  0.394900  0.888100  1.0  -0.3789
  O  O717  1  0.353400  0.313600  0.910700  1.0  -0.5124
  O  O718  1  0.636100  0.401500  0.960700  1.0  -0.5583
  O  O719  1  0.612500  0.761000  0.189100  1.0  -0.5534
  O  O720  1  0.669700  0.532600  0.346900  1.0  -0.5955
  O  O721  1  0.460500  0.452800  0.049300  1.0  -0.6127
  O  O722  1  0.110800  0.370900  0.359700  1.0  -0.59
  O  O723  1  0.748100  0.601200  0.181100  1.0  -0.5658
  O  O724  1  0.953500  0.842700  0.342200  1.0  -0.5562
  O  O725  1  0.300900  0.907300  0.336400  1.0  -0.6537
  O  O726  1  0.026600  0.736200  0.481400  1.0  -0.3866
  O  O727  1  0.982300  0.831800  0.528900  1.0  -0.4033
  O  O728  1  0.918200  0.726800  0.557700  1.0  -0.8008
  O  O729  1  0.068600  0.758600  0.582900  1.0  -0.675
  O  O730  1  0.999700  0.605100  0.388100  1.0  -0.3783
  O  O731  1  0.146600  0.686400  0.410700  1.0  -0.5117
  O  O732  1  0.863900  0.598500  0.460700  1.0  -0.5598
