# generated using pymatgen
data_Cd3H24(C3O)16
_symmetry_space_group_name_H-M   'P 1'
_cell_length_a   32.68000000
_cell_length_b   34.95000000
_cell_length_c   25.12000000
_cell_angle_alpha   90.00000000
_cell_angle_beta   90.00000000
_cell_angle_gamma   90.00000000
_symmetry_Int_Tables_number   1
_chemical_formula_structural   Cd3H24(C3O)16
_chemical_formula_sum   'Cd48 H384 C768 O256'
_cell_volume   28691.20992000
_cell_formula_units_Z   16
loop_
 _symmetry_equiv_pos_site_id
 _symmetry_equiv_pos_as_xyz
  1  'x, y, z'
loop_
 _atom_site_type_symbol
 _atom_site_label
 _atom_site_symmetry_multiplicity
 _atom_site_fract_x
 _atom_site_fract_y
 _atom_site_fract_z
 _atom_site_occupancy
 _atom_site_charge
  Cd  Cd1  1  0.497860  0.146560  0.884960  1.0  1.0753
  Cd  Cd2  1  0.569810  0.249390  0.664630  1.0  1.0736
  Cd  Cd3  1  0.531990  0.196100  0.771170  1.0  1.093
  Cd  Cd4  1  0.497860  0.646560  0.384960  1.0  1.0753
  Cd  Cd5  1  0.569810  0.749390  0.164630  1.0  1.0736
  Cd  Cd6  1  0.531990  0.696100  0.271170  1.0  1.093
  Cd  Cd7  1  0.997860  0.146560  0.384960  1.0  1.0753
  Cd  Cd8  1  0.069810  0.249390  0.164630  1.0  1.0736
  Cd  Cd9  1  0.031990  0.196100  0.271170  1.0  1.093
  Cd  Cd10  1  0.997860  0.646560  0.884960  1.0  1.0753
  Cd  Cd11  1  0.069810  0.749390  0.664630  1.0  1.0736
  Cd  Cd12  1  0.031990  0.696100  0.771170  1.0  1.093
  Cd  Cd13  1  0.502140  0.853440  0.884960  1.0  1.0757
  Cd  Cd14  1  0.430190  0.750610  0.664630  1.0  1.0726
  Cd  Cd15  1  0.468010  0.803900  0.771170  1.0  1.0926
  Cd  Cd16  1  0.502140  0.353440  0.384960  1.0  1.0757
  Cd  Cd17  1  0.430190  0.250610  0.164630  1.0  1.0726
  Cd  Cd18  1  0.468010  0.303900  0.271170  1.0  1.0926
  Cd  Cd19  1  0.002140  0.853440  0.384960  1.0  1.0757
  Cd  Cd20  1  0.930190  0.750610  0.164630  1.0  1.0726
  Cd  Cd21  1  0.968010  0.803900  0.271170  1.0  1.0926
  Cd  Cd22  1  0.002140  0.353440  0.884960  1.0  1.0757
  Cd  Cd23  1  0.930190  0.250610  0.664630  1.0  1.0726
  Cd  Cd24  1  0.968010  0.303900  0.771170  1.0  1.0926
  Cd  Cd25  1  0.747860  0.103440  0.134960  1.0  1.0746
  Cd  Cd26  1  0.819810  0.000610  0.914630  1.0  1.073
  Cd  Cd27  1  0.781990  0.053900  0.021170  1.0  1.093
  Cd  Cd28  1  0.747860  0.603440  0.634960  1.0  1.0746
  Cd  Cd29  1  0.819810  0.500610  0.414630  1.0  1.073
  Cd  Cd30  1  0.781990  0.553900  0.521170  1.0  1.093
  Cd  Cd31  1  0.247860  0.103440  0.634960  1.0  1.0746
  Cd  Cd32  1  0.319810  0.000610  0.414630  1.0  1.073
  Cd  Cd33  1  0.281990  0.053900  0.521170  1.0  1.093
  Cd  Cd34  1  0.247860  0.603440  0.134960  1.0  1.0746
  Cd  Cd35  1  0.319810  0.500610  0.914630  1.0  1.073
  Cd  Cd36  1  0.281990  0.553900  0.021170  1.0  1.093
  Cd  Cd37  1  0.752140  0.396560  0.134960  1.0  1.0763
  Cd  Cd38  1  0.680190  0.499390  0.914630  1.0  1.0734
  Cd  Cd39  1  0.718010  0.446100  0.021170  1.0  1.0927
  Cd  Cd40  1  0.752140  0.896560  0.634960  1.0  1.0763
  Cd  Cd41  1  0.680190  0.999390  0.414630  1.0  1.0734
  Cd  Cd42  1  0.718010  0.946100  0.521170  1.0  1.0927
  Cd  Cd43  1  0.252140  0.396560  0.634960  1.0  1.0763
  Cd  Cd44  1  0.180190  0.499390  0.414630  1.0  1.0734
  Cd  Cd45  1  0.218010  0.446100  0.521170  1.0  1.0927
  Cd  Cd46  1  0.252140  0.896560  0.134960  1.0  1.0763
  Cd  Cd47  1  0.180190  0.999390  0.914630  1.0  1.0734
  Cd  Cd48  1  0.218010  0.946100  0.021170  1.0  1.0927
  H  H49  1  0.626900  0.177200  0.804600  1.0  0.0931
  H  H50  1  0.677400  0.146900  0.661300  1.0  0.2086
  H  H51  1  0.714000  0.096400  0.712100  1.0  0.091
  H  H52  1  0.649900  0.140700  0.889600  1.0  0.138
  H  H53  1  0.697200  0.101500  0.928600  1.0  0.1182
  H  H54  1  0.745400  0.071600  0.788700  1.0  0.1261
  H  H55  1  0.670200  0.341500  0.959900  1.0  0.1316
  H  H56  1  0.658000  0.302200  0.109500  1.0  0.1401
  H  H57  1  0.615300  0.254600  0.075800  1.0  0.1012
  H  H58  1  0.637500  0.311500  0.886400  1.0  0.1809
  H  H59  1  0.588700  0.263600  0.851100  1.0  0.1411
  H  H60  1  0.581700  0.220200  0.002100  1.0  0.1234
  H  H61  1  0.390800  0.040000  0.909800  1.0  0.1704
  H  H62  1  0.437800  0.094100  0.039600  1.0  0.1177
  H  H63  1  0.401500  0.058700  0.098900  1.0  0.1462
  H  H64  1  0.347400  0.997200  0.932000  1.0  0.1348
  H  H65  1  0.313700  0.962000  0.994500  1.0  0.1067
  H  H66  1  0.361800  0.008700  0.124900  1.0  0.1401
  H  H67  1  0.741500  0.443700  0.596100  1.0  0.134
  H  H68  1  0.715600  0.418500  0.442900  1.0  0.127
  H  H69  1  0.682400  0.361400  0.470200  1.0  0.1408
  H  H70  1  0.706100  0.404500  0.667600  1.0  0.1273
  H  H71  1  0.657700  0.354300  0.688400  1.0  0.1185
  H  H72  1  0.641400  0.330300  0.536100  1.0  0.1323
  H  H73  1  0.626900  0.677200  0.304600  1.0  0.0931
  H  H74  1  0.677400  0.646900  0.161300  1.0  0.2086
  H  H75  1  0.714000  0.596400  0.212100  1.0  0.091
  H  H76  1  0.649900  0.640700  0.389600  1.0  0.138
  H  H77  1  0.697200  0.601500  0.428600  1.0  0.1182
  H  H78  1  0.745400  0.571600  0.288700  1.0  0.1261
  H  H79  1  0.670200  0.841500  0.459900  1.0  0.1316
  H  H80  1  0.658000  0.802200  0.609500  1.0  0.1401
  H  H81  1  0.615300  0.754600  0.575800  1.0  0.1012
  H  H82  1  0.637500  0.811500  0.386400  1.0  0.1809
  H  H83  1  0.588700  0.763600  0.351100  1.0  0.1411
  H  H84  1  0.581700  0.720200  0.502100  1.0  0.1234
  H  H85  1  0.390800  0.540000  0.409800  1.0  0.1704
  H  H86  1  0.437800  0.594100  0.539600  1.0  0.1177
  H  H87  1  0.401500  0.558700  0.598900  1.0  0.1462
  H  H88  1  0.347400  0.497200  0.432000  1.0  0.1348
  H  H89  1  0.313700  0.462000  0.494500  1.0  0.1067
  H  H90  1  0.361800  0.508700  0.624900  1.0  0.1401
  H  H91  1  0.741500  0.943700  0.096100  1.0  0.134
  H  H92  1  0.715600  0.918500  0.942900  1.0  0.127
  H  H93  1  0.682400  0.861400  0.970200  1.0  0.1408
  H  H94  1  0.706100  0.904500  0.167600  1.0  0.1273
  H  H95  1  0.657700  0.854300  0.188400  1.0  0.1185
  H  H96  1  0.641400  0.830300  0.036100  1.0  0.1323
  H  H97  1  0.126900  0.177200  0.304600  1.0  0.0931
  H  H98  1  0.177400  0.146900  0.161300  1.0  0.2086
  H  H99  1  0.214000  0.096400  0.212100  1.0  0.091
  H  H100  1  0.149900  0.140700  0.389600  1.0  0.138
  H  H101  1  0.197200  0.101500  0.428600  1.0  0.1182
  H  H102  1  0.245400  0.071600  0.288700  1.0  0.1261
  H  H103  1  0.170200  0.341500  0.459900  1.0  0.1316
  H  H104  1  0.158000  0.302200  0.609500  1.0  0.1401
  H  H105  1  0.115300  0.254600  0.575800  1.0  0.1012
  H  H106  1  0.137500  0.311500  0.386400  1.0  0.1809
  H  H107  1  0.088700  0.263600  0.351100  1.0  0.1411
  H  H108  1  0.081700  0.220200  0.502100  1.0  0.1234
  H  H109  1  0.890800  0.040000  0.409800  1.0  0.1704
  H  H110  1  0.937800  0.094100  0.539600  1.0  0.1177
  H  H111  1  0.901500  0.058700  0.598900  1.0  0.1462
  H  H112  1  0.847400  0.997200  0.432000  1.0  0.1348
  H  H113  1  0.813700  0.962000  0.494500  1.0  0.1067
  H  H114  1  0.861800  0.008700  0.624900  1.0  0.1401
  H  H115  1  0.241500  0.443700  0.096100  1.0  0.134
  H  H116  1  0.215600  0.418500  0.942900  1.0  0.127
  H  H117  1  0.182400  0.361400  0.970200  1.0  0.1408
  H  H118  1  0.206100  0.404500  0.167600  1.0  0.1273
  H  H119  1  0.157700  0.354300  0.188400  1.0  0.1185
  H  H120  1  0.141400  0.330300  0.036100  1.0  0.1323
  H  H121  1  0.126900  0.677200  0.804600  1.0  0.0931
  H  H122  1  0.177400  0.646900  0.661300  1.0  0.2086
  H  H123  1  0.214000  0.596400  0.712100  1.0  0.091
  H  H124  1  0.149900  0.640700  0.889600  1.0  0.138
  H  H125  1  0.197200  0.601500  0.928600  1.0  0.1182
  H  H126  1  0.245400  0.571600  0.788700  1.0  0.1261
  H  H127  1  0.170200  0.841500  0.959900  1.0  0.1316
  H  H128  1  0.158000  0.802200  0.109500  1.0  0.1401
  H  H129  1  0.115300  0.754600  0.075800  1.0  0.1012
  H  H130  1  0.137500  0.811500  0.886400  1.0  0.1809
  H  H131  1  0.088700  0.763600  0.851100  1.0  0.1411
  H  H132  1  0.081700  0.720200  0.002100  1.0  0.1234
  H  H133  1  0.890800  0.540000  0.909800  1.0  0.1704
  H  H134  1  0.937800  0.594100  0.039600  1.0  0.1177
  H  H135  1  0.901500  0.558700  0.098900  1.0  0.1462
  H  H136  1  0.847400  0.497200  0.932000  1.0  0.1348
  H  H137  1  0.813700  0.462000  0.994500  1.0  0.1067
  H  H138  1  0.861800  0.508700  0.124900  1.0  0.1401
  H  H139  1  0.241500  0.943700  0.596100  1.0  0.134
  H  H140  1  0.215600  0.918500  0.442900  1.0  0.127
  H  H141  1  0.182400  0.861400  0.470200  1.0  0.1408
  H  H142  1  0.206100  0.904500  0.667600  1.0  0.1273
  H  H143  1  0.157700  0.854300  0.688400  1.0  0.1185
  H  H144  1  0.141400  0.830300  0.536100  1.0  0.1323
  H  H145  1  0.373100  0.822800  0.804600  1.0  0.0942
  H  H146  1  0.322600  0.853100  0.661300  1.0  0.2089
  H  H147  1  0.286000  0.903600  0.712100  1.0  0.0903
  H  H148  1  0.350100  0.859300  0.889600  1.0  0.1385
  H  H149  1  0.302800  0.898500  0.928600  1.0  0.118
  H  H150  1  0.254600  0.928400  0.788700  1.0  0.126
  H  H151  1  0.329800  0.658500  0.959900  1.0  0.1311
  H  H152  1  0.342000  0.697800  0.109500  1.0  0.1406
  H  H153  1  0.384700  0.745400  0.075800  1.0  0.1008
  H  H154  1  0.362500  0.688500  0.886400  1.0  0.1812
  H  H155  1  0.411300  0.736400  0.851100  1.0  0.1412
  H  H156  1  0.418300  0.779800  0.002100  1.0  0.1231
  H  H157  1  0.609200  0.960000  0.909800  1.0  0.1706
  H  H158  1  0.562200  0.905900  0.039600  1.0  0.117
  H  H159  1  0.598500  0.941300  0.098900  1.0  0.1473
  H  H160  1  0.652600  0.002800  0.932000  1.0  0.1348
  H  H161  1  0.686300  0.038000  0.994500  1.0  0.1049
  H  H162  1  0.638200  0.991300  0.124900  1.0  0.141
  H  H163  1  0.258500  0.556300  0.596100  1.0  0.1339
  H  H164  1  0.284400  0.581500  0.442900  1.0  0.1268
  H  H165  1  0.317600  0.638600  0.470200  1.0  0.1408
  H  H166  1  0.293900  0.595500  0.667600  1.0  0.1276
  H  H167  1  0.342300  0.645700  0.688400  1.0  0.1192
  H  H168  1  0.358600  0.669700  0.536100  1.0  0.1315
  H  H169  1  0.373100  0.322800  0.304600  1.0  0.0942
  H  H170  1  0.322600  0.353100  0.161300  1.0  0.2089
  H  H171  1  0.286000  0.403600  0.212100  1.0  0.0903
  H  H172  1  0.350100  0.359300  0.389600  1.0  0.1385
  H  H173  1  0.302800  0.398500  0.428600  1.0  0.118
  H  H174  1  0.254600  0.428400  0.288700  1.0  0.126
  H  H175  1  0.329800  0.158500  0.459900  1.0  0.1311
  H  H176  1  0.342000  0.197800  0.609500  1.0  0.1406
  H  H177  1  0.384700  0.245400  0.575800  1.0  0.1008
  H  H178  1  0.362500  0.188500  0.386400  1.0  0.1812
  H  H179  1  0.411300  0.236400  0.351100  1.0  0.1412
  H  H180  1  0.418300  0.279800  0.502100  1.0  0.1231
  H  H181  1  0.609200  0.460000  0.409800  1.0  0.1706
  H  H182  1  0.562200  0.405900  0.539600  1.0  0.117
  H  H183  1  0.598500  0.441300  0.598900  1.0  0.1473
  H  H184  1  0.652600  0.502800  0.432000  1.0  0.1348
  H  H185  1  0.686300  0.538000  0.494500  1.0  0.1049
  H  H186  1  0.638200  0.491300  0.624900  1.0  0.141
  H  H187  1  0.258500  0.056300  0.096100  1.0  0.1339
  H  H188  1  0.284400  0.081500  0.942900  1.0  0.1268
  H  H189  1  0.317600  0.138600  0.970200  1.0  0.1408
  H  H190  1  0.293900  0.095500  0.167600  1.0  0.1276
  H  H191  1  0.342300  0.145700  0.188400  1.0  0.1192
  H  H192  1  0.358600  0.169700  0.036100  1.0  0.1315
  H  H193  1  0.873100  0.822800  0.304600  1.0  0.0942
  H  H194  1  0.822600  0.853100  0.161300  1.0  0.2089
  H  H195  1  0.786000  0.903600  0.212100  1.0  0.0903
  H  H196  1  0.850100  0.859300  0.389600  1.0  0.1385
  H  H197  1  0.802800  0.898500  0.428600  1.0  0.118
  H  H198  1  0.754600  0.928400  0.288700  1.0  0.126
  H  H199  1  0.829800  0.658500  0.459900  1.0  0.1311
  H  H200  1  0.842000  0.697800  0.609500  1.0  0.1406
  H  H201  1  0.884700  0.745400  0.575800  1.0  0.1008
  H  H202  1  0.862500  0.688500  0.386400  1.0  0.1812
  H  H203  1  0.911300  0.736400  0.351100  1.0  0.1412
  H  H204  1  0.918300  0.779800  0.502100  1.0  0.1231
  H  H205  1  0.109200  0.960000  0.409800  1.0  0.1706
  H  H206  1  0.062200  0.905900  0.539600  1.0  0.117
  H  H207  1  0.098500  0.941300  0.598900  1.0  0.1473
  H  H208  1  0.152600  0.002800  0.432000  1.0  0.1348
  H  H209  1  0.186300  0.038000  0.494500  1.0  0.1049
  H  H210  1  0.138200  0.991300  0.624900  1.0  0.141
  H  H211  1  0.758500  0.556300  0.096100  1.0  0.1339
  H  H212  1  0.784400  0.581500  0.942900  1.0  0.1268
  H  H213  1  0.817600  0.638600  0.970200  1.0  0.1408
  H  H214  1  0.793900  0.595500  0.167600  1.0  0.1276
  H  H215  1  0.842300  0.645700  0.188400  1.0  0.1192
  H  H216  1  0.858600  0.669700  0.036100  1.0  0.1315
  H  H217  1  0.873100  0.322800  0.804600  1.0  0.0942
  H  H218  1  0.822600  0.353100  0.661300  1.0  0.2089
  H  H219  1  0.786000  0.403600  0.712100  1.0  0.0903
  H  H220  1  0.850100  0.359300  0.889600  1.0  0.1385
  H  H221  1  0.802800  0.398500  0.928600  1.0  0.118
  H  H222  1  0.754600  0.428400  0.788700  1.0  0.126
  H  H223  1  0.829800  0.158500  0.959900  1.0  0.1311
  H  H224  1  0.842000  0.197800  0.109500  1.0  0.1406
  H  H225  1  0.884700  0.245400  0.075800  1.0  0.1008
  H  H226  1  0.862500  0.188500  0.886400  1.0  0.1812
  H  H227  1  0.911300  0.236400  0.851100  1.0  0.1412
  H  H228  1  0.918300  0.279800  0.002100  1.0  0.1231
  H  H229  1  0.109200  0.460000  0.909800  1.0  0.1706
  H  H230  1  0.062200  0.405900  0.039600  1.0  0.117
  H  H231  1  0.098500  0.441300  0.098900  1.0  0.1473
  H  H232  1  0.152600  0.502800  0.932000  1.0  0.1348
  H  H233  1  0.186300  0.538000  0.994500  1.0  0.1049
  H  H234  1  0.138200  0.491300  0.124900  1.0  0.141
  H  H235  1  0.758500  0.056300  0.596100  1.0  0.1339
  H  H236  1  0.784400  0.081500  0.442900  1.0  0.1268
  H  H237  1  0.817600  0.138600  0.470200  1.0  0.1408
  H  H238  1  0.793900  0.095500  0.667600  1.0  0.1276
  H  H239  1  0.842300  0.145700  0.688400  1.0  0.1192
  H  H240  1  0.858600  0.169700  0.536100  1.0  0.1315
  H  H241  1  0.876900  0.072800  0.054600  1.0  0.093
  H  H242  1  0.927400  0.103100  0.911300  1.0  0.2091
  H  H243  1  0.964000  0.153600  0.962100  1.0  0.0907
  H  H244  1  0.899900  0.109300  0.139600  1.0  0.1381
  H  H245  1  0.947200  0.148500  0.178600  1.0  0.118
  H  H246  1  0.995400  0.178400  0.038700  1.0  0.1264
  H  H247  1  0.920200  0.908500  0.209900  1.0  0.1311
  H  H248  1  0.908000  0.947800  0.359500  1.0  0.14
  H  H249  1  0.865300  0.995400  0.325800  1.0  0.1008
  H  H250  1  0.887500  0.938500  0.136400  1.0  0.1813
  H  H251  1  0.838700  0.986400  0.101100  1.0  0.1413
  H  H252  1  0.831700  0.029800  0.252100  1.0  0.1234
  H  H253  1  0.640800  0.210000  0.159800  1.0  0.1708
  H  H254  1  0.687800  0.155900  0.289600  1.0  0.1175
  H  H255  1  0.651500  0.191300  0.348900  1.0  0.1463
  H  H256  1  0.597400  0.252800  0.182000  1.0  0.1346
  H  H257  1  0.563700  0.288000  0.244500  1.0  0.1057
  H  H258  1  0.611800  0.241300  0.374900  1.0  0.1404
  H  H259  1  0.991500  0.806300  0.846100  1.0  0.1337
  H  H260  1  0.965600  0.831500  0.692900  1.0  0.1264
  H  H261  1  0.932400  0.888600  0.720200  1.0  0.1408
  H  H262  1  0.956100  0.845500  0.917600  1.0  0.1279
  H  H263  1  0.907700  0.895700  0.938400  1.0  0.1184
  H  H264  1  0.891400  0.919700  0.786100  1.0  0.1318
  H  H265  1  0.876900  0.572800  0.554600  1.0  0.093
  H  H266  1  0.927400  0.603100  0.411300  1.0  0.2091
  H  H267  1  0.964000  0.653600  0.462100  1.0  0.0907
  H  H268  1  0.899900  0.609300  0.639600  1.0  0.1381
  H  H269  1  0.947200  0.648500  0.678600  1.0  0.118
  H  H270  1  0.995400  0.678400  0.538700  1.0  0.1264
  H  H271  1  0.920200  0.408500  0.709900  1.0  0.1311
  H  H272  1  0.908000  0.447800  0.859500  1.0  0.14
  H  H273  1  0.865300  0.495400  0.825800  1.0  0.1008
  H  H274  1  0.887500  0.438500  0.636400  1.0  0.1813
  H  H275  1  0.838700  0.486400  0.601100  1.0  0.1413
  H  H276  1  0.831700  0.529800  0.752100  1.0  0.1234
  H  H277  1  0.640800  0.710000  0.659800  1.0  0.1708
  H  H278  1  0.687800  0.655900  0.789600  1.0  0.1175
  H  H279  1  0.651500  0.691300  0.848900  1.0  0.1463
  H  H280  1  0.597400  0.752800  0.682000  1.0  0.1346
  H  H281  1  0.563700  0.788000  0.744500  1.0  0.1057
  H  H282  1  0.611800  0.741300  0.874900  1.0  0.1404
  H  H283  1  0.991500  0.306300  0.346100  1.0  0.1337
  H  H284  1  0.965600  0.331500  0.192900  1.0  0.1264
  H  H285  1  0.932400  0.388600  0.220200  1.0  0.1408
  H  H286  1  0.956100  0.345500  0.417600  1.0  0.1279
  H  H287  1  0.907700  0.395700  0.438400  1.0  0.1184
  H  H288  1  0.891400  0.419700  0.286100  1.0  0.1318
  H  H289  1  0.376900  0.072800  0.554600  1.0  0.093
  H  H290  1  0.427400  0.103100  0.411300  1.0  0.2091
  H  H291  1  0.464000  0.153600  0.462100  1.0  0.0907
  H  H292  1  0.399900  0.109300  0.639600  1.0  0.1381
  H  H293  1  0.447200  0.148500  0.678600  1.0  0.118
  H  H294  1  0.495400  0.178400  0.538700  1.0  0.1264
  H  H295  1  0.420200  0.908500  0.709900  1.0  0.1311
  H  H296  1  0.408000  0.947800  0.859500  1.0  0.14
  H  H297  1  0.365300  0.995400  0.825800  1.0  0.1008
  H  H298  1  0.387500  0.938500  0.636400  1.0  0.1813
  H  H299  1  0.338700  0.986400  0.601100  1.0  0.1413
  H  H300  1  0.331700  0.029800  0.752100  1.0  0.1234
  H  H301  1  0.140800  0.210000  0.659800  1.0  0.1708
  H  H302  1  0.187800  0.155900  0.789600  1.0  0.1175
  H  H303  1  0.151500  0.191300  0.848900  1.0  0.1463
  H  H304  1  0.097400  0.252800  0.682000  1.0  0.1346
  H  H305  1  0.063700  0.288000  0.744500  1.0  0.1057
  H  H306  1  0.111800  0.241300  0.874900  1.0  0.1404
  H  H307  1  0.491500  0.806300  0.346100  1.0  0.1337
  H  H308  1  0.465600  0.831500  0.192900  1.0  0.1264
  H  H309  1  0.432400  0.888600  0.220200  1.0  0.1408
  H  H310  1  0.456100  0.845500  0.417600  1.0  0.1279
  H  H311  1  0.407700  0.895700  0.438400  1.0  0.1184
  H  H312  1  0.391400  0.919700  0.286100  1.0  0.1318
  H  H313  1  0.376900  0.572800  0.054600  1.0  0.093
  H  H314  1  0.427400  0.603100  0.911300  1.0  0.2091
  H  H315  1  0.464000  0.653600  0.962100  1.0  0.0907
  H  H316  1  0.399900  0.609300  0.139600  1.0  0.1381
  H  H317  1  0.447200  0.648500  0.178600  1.0  0.118
  H  H318  1  0.495400  0.678400  0.038700  1.0  0.1264
  H  H319  1  0.420200  0.408500  0.209900  1.0  0.1311
  H  H320  1  0.408000  0.447800  0.359500  1.0  0.14
  H  H321  1  0.365300  0.495400  0.325800  1.0  0.1008
  H  H322  1  0.387500  0.438500  0.136400  1.0  0.1813
  H  H323  1  0.338700  0.486400  0.101100  1.0  0.1413
  H  H324  1  0.331700  0.529800  0.252100  1.0  0.1234
  H  H325  1  0.140800  0.710000  0.159800  1.0  0.1708
  H  H326  1  0.187800  0.655900  0.289600  1.0  0.1175
  H  H327  1  0.151500  0.691300  0.348900  1.0  0.1463
  H  H328  1  0.097400  0.752800  0.182000  1.0  0.1346
  H  H329  1  0.063700  0.788000  0.244500  1.0  0.1057
  H  H330  1  0.111800  0.741300  0.374900  1.0  0.1404
  H  H331  1  0.491500  0.306300  0.846100  1.0  0.1337
  H  H332  1  0.465600  0.331500  0.692900  1.0  0.1264
  H  H333  1  0.432400  0.388600  0.720200  1.0  0.1408
  H  H334  1  0.456100  0.345500  0.917600  1.0  0.1279
  H  H335  1  0.407700  0.395700  0.938400  1.0  0.1184
  H  H336  1  0.391400  0.419700  0.786100  1.0  0.1318
  H  H337  1  0.623100  0.427200  0.054600  1.0  0.094
  H  H338  1  0.572600  0.396900  0.911300  1.0  0.2087
  H  H339  1  0.536000  0.346400  0.962100  1.0  0.0899
  H  H340  1  0.600100  0.390700  0.139600  1.0  0.1382
  H  H341  1  0.552800  0.351500  0.178600  1.0  0.1181
  H  H342  1  0.504600  0.321600  0.038700  1.0  0.1257
  H  H343  1  0.579800  0.591500  0.209900  1.0  0.1316
  H  H344  1  0.592000  0.552200  0.359500  1.0  0.1409
  H  H345  1  0.634700  0.504600  0.325800  1.0  0.1013
  H  H346  1  0.612500  0.561500  0.136400  1.0  0.1814
  H  H347  1  0.661300  0.513600  0.101100  1.0  0.141
  H  H348  1  0.668300  0.470200  0.252100  1.0  0.1231
  H  H349  1  0.859200  0.290000  0.159800  1.0  0.1703
  H  H350  1  0.812200  0.344100  0.289600  1.0  0.1172
  H  H351  1  0.848500  0.308700  0.348900  1.0  0.1473
  H  H352  1  0.902600  0.247200  0.182000  1.0  0.1347
  H  H353  1  0.936300  0.212000  0.244500  1.0  0.1063
  H  H354  1  0.888200  0.258700  0.374900  1.0  0.141
  H  H355  1  0.508500  0.693700  0.846100  1.0  0.1341
  H  H356  1  0.534400  0.668500  0.692900  1.0  0.1275
  H  H357  1  0.567600  0.611400  0.720200  1.0  0.1404
  H  H358  1  0.543900  0.654500  0.917600  1.0  0.1271
  H  H359  1  0.592300  0.604300  0.938400  1.0  0.1192
  H  H360  1  0.608600  0.580300  0.786100  1.0  0.1324
  H  H361  1  0.623100  0.927200  0.554600  1.0  0.094
  H  H362  1  0.572600  0.896900  0.411300  1.0  0.2087
  H  H363  1  0.536000  0.846400  0.462100  1.0  0.0899
  H  H364  1  0.600100  0.890700  0.639600  1.0  0.1382
  H  H365  1  0.552800  0.851500  0.678600  1.0  0.1181
  H  H366  1  0.504600  0.821600  0.538700  1.0  0.1257
  H  H367  1  0.579800  0.091500  0.709900  1.0  0.1316
  H  H368  1  0.592000  0.052200  0.859500  1.0  0.1409
  H  H369  1  0.634700  0.004600  0.825800  1.0  0.1013
  H  H370  1  0.612500  0.061500  0.636400  1.0  0.1814
  H  H371  1  0.661300  0.013600  0.601100  1.0  0.141
  H  H372  1  0.668300  0.970200  0.752100  1.0  0.1231
  H  H373  1  0.859200  0.790000  0.659800  1.0  0.1703
  H  H374  1  0.812200  0.844100  0.789600  1.0  0.1172
  H  H375  1  0.848500  0.808700  0.848900  1.0  0.1473
  H  H376  1  0.902600  0.747200  0.682000  1.0  0.1347
  H  H377  1  0.936300  0.712000  0.744500  1.0  0.1063
  H  H378  1  0.888200  0.758700  0.874900  1.0  0.141
  H  H379  1  0.508500  0.193700  0.346100  1.0  0.1341
  H  H380  1  0.534400  0.168500  0.192900  1.0  0.1275
  H  H381  1  0.567600  0.111400  0.220200  1.0  0.1404
  H  H382  1  0.543900  0.154500  0.417600  1.0  0.1271
  H  H383  1  0.592300  0.104300  0.438400  1.0  0.1192
  H  H384  1  0.608600  0.080300  0.286100  1.0  0.1324
  H  H385  1  0.123100  0.427200  0.554600  1.0  0.094
  H  H386  1  0.072600  0.396900  0.411300  1.0  0.2087
  H  H387  1  0.036000  0.346400  0.462100  1.0  0.0899
  H  H388  1  0.100100  0.390700  0.639600  1.0  0.1382
  H  H389  1  0.052800  0.351500  0.678600  1.0  0.1181
  H  H390  1  0.004600  0.321600  0.538700  1.0  0.1257
  H  H391  1  0.079800  0.591500  0.709900  1.0  0.1316
  H  H392  1  0.092000  0.552200  0.859500  1.0  0.1409
  H  H393  1  0.134700  0.504600  0.825800  1.0  0.1013
  H  H394  1  0.112500  0.561500  0.636400  1.0  0.1814
  H  H395  1  0.161300  0.513600  0.601100  1.0  0.141
  H  H396  1  0.168300  0.470200  0.752100  1.0  0.1231
  H  H397  1  0.359200  0.290000  0.659800  1.0  0.1703
  H  H398  1  0.312200  0.344100  0.789600  1.0  0.1172
  H  H399  1  0.348500  0.308700  0.848900  1.0  0.1473
  H  H400  1  0.402600  0.247200  0.682000  1.0  0.1347
  H  H401  1  0.436300  0.212000  0.744500  1.0  0.1063
  H  H402  1  0.388200  0.258700  0.874900  1.0  0.141
  H  H403  1  0.008500  0.693700  0.346100  1.0  0.1341
  H  H404  1  0.034400  0.668500  0.192900  1.0  0.1275
  H  H405  1  0.067600  0.611400  0.220200  1.0  0.1404
  H  H406  1  0.043900  0.654500  0.417600  1.0  0.1271
  H  H407  1  0.092300  0.604300  0.438400  1.0  0.1192
  H  H408  1  0.108600  0.580300  0.286100  1.0  0.1324
  H  H409  1  0.123100  0.927200  0.054600  1.0  0.094
  H  H410  1  0.072600  0.896900  0.911300  1.0  0.2087
  H  H411  1  0.036000  0.846400  0.962100  1.0  0.0899
  H  H412  1  0.100100  0.890700  0.139600  1.0  0.1382
  H  H413  1  0.052800  0.851500  0.178600  1.0  0.1181
  H  H414  1  0.004600  0.821600  0.038700  1.0  0.1257
  H  H415  1  0.079800  0.091500  0.209900  1.0  0.1316
  H  H416  1  0.092000  0.052200  0.359500  1.0  0.1409
  H  H417  1  0.134700  0.004600  0.325800  1.0  0.1013
  H  H418  1  0.112500  0.061500  0.136400  1.0  0.1814
  H  H419  1  0.161300  0.013600  0.101100  1.0  0.141
  H  H420  1  0.168300  0.970200  0.252100  1.0  0.1231
  H  H421  1  0.359200  0.790000  0.159800  1.0  0.1703
  H  H422  1  0.312200  0.844100  0.289600  1.0  0.1172
  H  H423  1  0.348500  0.808700  0.348900  1.0  0.1473
  H  H424  1  0.402600  0.747200  0.182000  1.0  0.1347
  H  H425  1  0.436300  0.712000  0.244500  1.0  0.1063
  H  H426  1  0.388200  0.758700  0.374900  1.0  0.141
  H  H427  1  0.008500  0.193700  0.846100  1.0  0.1341
  H  H428  1  0.034400  0.168500  0.692900  1.0  0.1275
  H  H429  1  0.067600  0.111400  0.720200  1.0  0.1404
  H  H430  1  0.043900  0.154500  0.917600  1.0  0.1271
  H  H431  1  0.092300  0.104300  0.938400  1.0  0.1192
  H  H432  1  0.108600  0.080300  0.786100  1.0  0.1324
  C  C433  1  0.645400  0.162800  0.784900  1.0  0.0059
  C  C434  1  0.646800  0.168100  0.735500  1.0  -0.0555
  C  C435  1  0.675300  0.143100  0.699100  1.0  -0.0666
  C  C436  1  0.698300  0.114100  0.730800  1.0  -0.0324
  C  C437  1  0.698300  0.111800  0.779300  1.0  0.2151
  C  C438  1  0.671700  0.134700  0.813800  1.0  -0.023
  C  C439  1  0.671200  0.128900  0.869000  1.0  -0.0507
  C  C440  1  0.697500  0.104500  0.891800  1.0  -0.0422
  C  C441  1  0.725300  0.083500  0.861800  1.0  -0.1296
  C  C442  1  0.726600  0.086100  0.807800  1.0  -0.0758
  C  C443  1  0.619100  0.193600  0.699900  1.0  0.6395
  C  C444  1  0.758900  0.056200  0.885000  1.0  0.6603
  C  C445  1  0.658200  0.325100  0.984500  1.0  -0.0762
  C  C446  1  0.665300  0.329200  0.034400  1.0  -0.068
  C  C447  1  0.651500  0.300000  0.072400  1.0  -0.0903
  C  C448  1  0.626800  0.272100  0.052200  1.0  -0.0236
  C  C449  1  0.618000  0.268200  0.999700  1.0  0.0212
  C  C450  1  0.631500  0.294900  0.966900  1.0  0.0032
  C  C451  1  0.624900  0.293900  0.908800  1.0  -0.0698
  C  C452  1  0.597600  0.264000  0.887500  1.0  -0.0597
  C  C453  1  0.583800  0.235300  0.926700  1.0  -0.11
  C  C454  1  0.592500  0.238200  0.978800  1.0  -0.0817
  C  C455  1  0.694100  0.360900  0.053700  1.0  0.7463
  C  C456  1  0.557800  0.202900  0.904000  1.0  0.7083
  C  C457  1  0.393600  0.045500  0.945800  1.0  -0.0556
  C  C458  1  0.418600  0.071800  0.971500  1.0  -0.0654
  C  C459  1  0.420600  0.075300  0.026100  1.0  -0.037
  C  C460  1  0.399400  0.053700  0.062600  1.0  -0.2391
  C  C461  1  0.375500  0.025100  0.044700  1.0  0.125
  C  C462  1  0.373500  0.029600  0.990400  1.0  0.0852
  C  C463  1  0.350200  0.001700  0.968300  1.0  -0.1281
  C  C464  1  0.331000  0.980500  0.008700  1.0  -0.0801
  C  C465  1  0.330600  0.979700  0.064600  1.0  -0.1278
  C  C466  1  0.357500  0.005700  0.087300  1.0  -0.1152
  C  C467  1  0.450600  0.098500  0.939300  1.0  0.6884
  C  C468  1  0.303200  0.949200  0.090300  1.0  0.7114
  C  C469  1  0.728100  0.427700  0.570200  1.0  -0.0886
  C  C470  1  0.735600  0.433500  0.516400  1.0  -0.0997
  C  C471  1  0.714000  0.412100  0.478800  1.0  -0.0499
  C  C472  1  0.690000  0.381200  0.494900  1.0  -0.1287
  C  C473  1  0.681400  0.376700  0.547000  1.0  0.0387
  C  C474  1  0.700600  0.399300  0.586600  1.0  0.0623
  C  C475  1  0.693100  0.390600  0.639300  1.0  -0.1144
  C  C476  1  0.667500  0.360600  0.653500  1.0  -0.0299
  C  C477  1  0.648600  0.338900  0.613900  1.0  -0.1075
  C  C478  1  0.655800  0.346300  0.561000  1.0  -0.0972
  C  C479  1  0.762700  0.465000  0.496500  1.0  0.745
  C  C480  1  0.618100  0.305500  0.623400  1.0  0.5452
  C  C481  1  0.645400  0.662800  0.284900  1.0  0.0059
  C  C482  1  0.646800  0.668100  0.235500  1.0  -0.0555
  C  C483  1  0.675300  0.643100  0.199100  1.0  -0.0666
  C  C484  1  0.698300  0.614100  0.230800  1.0  -0.0324
  C  C485  1  0.698300  0.611800  0.279300  1.0  0.2151
  C  C486  1  0.671700  0.634700  0.313800  1.0  -0.023
  C  C487  1  0.671200  0.628900  0.369000  1.0  -0.0507
  C  C488  1  0.697500  0.604500  0.391800  1.0  -0.0422
  C  C489  1  0.725300  0.583500  0.361800  1.0  -0.1296
  C  C490  1  0.726600  0.586100  0.307800  1.0  -0.0758
  C  C491  1  0.619100  0.693600  0.199900  1.0  0.6395
  C  C492  1  0.758900  0.556200  0.385000  1.0  0.6603
  C  C493  1  0.658200  0.825100  0.484500  1.0  -0.0762
  C  C494  1  0.665300  0.829200  0.534400  1.0  -0.068
  C  C495  1  0.651500  0.800000  0.572400  1.0  -0.0903
  C  C496  1  0.626800  0.772100  0.552200  1.0  -0.0236
  C  C497  1  0.618000  0.768200  0.499700  1.0  0.0212
  C  C498  1  0.631500  0.794900  0.466900  1.0  0.0032
  C  C499  1  0.624900  0.793900  0.408800  1.0  -0.0698
  C  C500  1  0.597600  0.764000  0.387500  1.0  -0.0597
  C  C501  1  0.583800  0.735300  0.426700  1.0  -0.11
  C  C502  1  0.592500  0.738200  0.478800  1.0  -0.0817
  C  C503  1  0.694100  0.860900  0.553700  1.0  0.7463
  C  C504  1  0.557800  0.702900  0.404000  1.0  0.7083
  C  C505  1  0.393600  0.545500  0.445800  1.0  -0.0556
  C  C506  1  0.418600  0.571800  0.471500  1.0  -0.0654
  C  C507  1  0.420600  0.575300  0.526100  1.0  -0.037
  C  C508  1  0.399400  0.553700  0.562600  1.0  -0.2391
  C  C509  1  0.375500  0.525100  0.544700  1.0  0.125
  C  C510  1  0.373500  0.529600  0.490400  1.0  0.0852
  C  C511  1  0.350200  0.501700  0.468300  1.0  -0.1281
  C  C512  1  0.331000  0.480500  0.508700  1.0  -0.0801
  C  C513  1  0.330600  0.479700  0.564600  1.0  -0.1278
  C  C514  1  0.357500  0.505700  0.587300  1.0  -0.1152
  C  C515  1  0.450600  0.598500  0.439300  1.0  0.6884
  C  C516  1  0.303200  0.449200  0.590300  1.0  0.7114
  C  C517  1  0.728100  0.927700  0.070200  1.0  -0.0886
  C  C518  1  0.735600  0.933500  0.016400  1.0  -0.0997
  C  C519  1  0.714000  0.912100  0.978800  1.0  -0.0499
  C  C520  1  0.690000  0.881200  0.994900  1.0  -0.1287
  C  C521  1  0.681400  0.876700  0.047000  1.0  0.0387
  C  C522  1  0.700600  0.899300  0.086600  1.0  0.0623
  C  C523  1  0.693100  0.890600  0.139300  1.0  -0.1144
  C  C524  1  0.667500  0.860600  0.153500  1.0  -0.0299
  C  C525  1  0.648600  0.838900  0.113900  1.0  -0.1075
  C  C526  1  0.655800  0.846300  0.061000  1.0  -0.0972
  C  C527  1  0.762700  0.965000  0.996500  1.0  0.745
  C  C528  1  0.618100  0.805500  0.123400  1.0  0.5452
  C  C529  1  0.145400  0.162800  0.284900  1.0  0.0059
  C  C530  1  0.146800  0.168100  0.235500  1.0  -0.0555
  C  C531  1  0.175300  0.143100  0.199100  1.0  -0.0666
  C  C532  1  0.198300  0.114100  0.230800  1.0  -0.0324
  C  C533  1  0.198300  0.111800  0.279300  1.0  0.2151
  C  C534  1  0.171700  0.134700  0.313800  1.0  -0.023
  C  C535  1  0.171200  0.128900  0.369000  1.0  -0.0507
  C  C536  1  0.197500  0.104500  0.391800  1.0  -0.0422
  C  C537  1  0.225300  0.083500  0.361800  1.0  -0.1296
  C  C538  1  0.226600  0.086100  0.307800  1.0  -0.0758
  C  C539  1  0.119100  0.193600  0.199900  1.0  0.6395
  C  C540  1  0.258900  0.056200  0.385000  1.0  0.6603
  C  C541  1  0.158200  0.325100  0.484500  1.0  -0.0762
  C  C542  1  0.165300  0.329200  0.534400  1.0  -0.068
  C  C543  1  0.151500  0.300000  0.572400  1.0  -0.0903
  C  C544  1  0.126800  0.272100  0.552200  1.0  -0.0236
  C  C545  1  0.118000  0.268200  0.499700  1.0  0.0212
  C  C546  1  0.131500  0.294900  0.466900  1.0  0.0032
  C  C547  1  0.124900  0.293900  0.408800  1.0  -0.0698
  C  C548  1  0.097600  0.264000  0.387500  1.0  -0.0597
  C  C549  1  0.083800  0.235300  0.426700  1.0  -0.11
  C  C550  1  0.092500  0.238200  0.478800  1.0  -0.0817
  C  C551  1  0.194100  0.360900  0.553700  1.0  0.7463
  C  C552  1  0.057800  0.202900  0.404000  1.0  0.7083
  C  C553  1  0.893600  0.045500  0.445800  1.0  -0.0556
  C  C554  1  0.918600  0.071800  0.471500  1.0  -0.0654
  C  C555  1  0.920600  0.075300  0.526100  1.0  -0.037
  C  C556  1  0.899400  0.053700  0.562600  1.0  -0.2391
  C  C557  1  0.875500  0.025100  0.544700  1.0  0.125
  C  C558  1  0.873500  0.029600  0.490400  1.0  0.0852
  C  C559  1  0.850200  0.001700  0.468300  1.0  -0.1281
  C  C560  1  0.831000  0.980500  0.508700  1.0  -0.0801
  C  C561  1  0.830600  0.979700  0.564600  1.0  -0.1278
  C  C562  1  0.857500  0.005700  0.587300  1.0  -0.1152
  C  C563  1  0.950600  0.098500  0.439300  1.0  0.6884
  C  C564  1  0.803200  0.949200  0.590300  1.0  0.7114
  C  C565  1  0.228100  0.427700  0.070200  1.0  -0.0886
  C  C566  1  0.235600  0.433500  0.016400  1.0  -0.0997
  C  C567  1  0.214000  0.412100  0.978800  1.0  -0.0499
  C  C568  1  0.190000  0.381200  0.994900  1.0  -0.1287
  C  C569  1  0.181400  0.376700  0.047000  1.0  0.0387
  C  C570  1  0.200600  0.399300  0.086600  1.0  0.0623
  C  C571  1  0.193100  0.390600  0.139300  1.0  -0.1144
  C  C572  1  0.167500  0.360600  0.153500  1.0  -0.0299
  C  C573  1  0.148600  0.338900  0.113900  1.0  -0.1075
  C  C574  1  0.155800  0.346300  0.061000  1.0  -0.0972
  C  C575  1  0.262700  0.465000  0.996500  1.0  0.745
  C  C576  1  0.118100  0.305500  0.123400  1.0  0.5452
  C  C577  1  0.145400  0.662800  0.784900  1.0  0.0059
  C  C578  1  0.146800  0.668100  0.735500  1.0  -0.0555
  C  C579  1  0.175300  0.643100  0.699100  1.0  -0.0666
  C  C580  1  0.198300  0.614100  0.730800  1.0  -0.0324
  C  C581  1  0.198300  0.611800  0.779300  1.0  0.2151
  C  C582  1  0.171700  0.634700  0.813800  1.0  -0.023
  C  C583  1  0.171200  0.628900  0.869000  1.0  -0.0507
  C  C584  1  0.197500  0.604500  0.891800  1.0  -0.0422
  C  C585  1  0.225300  0.583500  0.861800  1.0  -0.1296
  C  C586  1  0.226600  0.586100  0.807800  1.0  -0.0758
  C  C587  1  0.119100  0.693600  0.699900  1.0  0.6395
  C  C588  1  0.258900  0.556200  0.885000  1.0  0.6603
  C  C589  1  0.158200  0.825100  0.984500  1.0  -0.0762
  C  C590  1  0.165300  0.829200  0.034400  1.0  -0.068
  C  C591  1  0.151500  0.800000  0.072400  1.0  -0.0903
  C  C592  1  0.126800  0.772100  0.052200  1.0  -0.0236
  C  C593  1  0.118000  0.768200  0.999700  1.0  0.0212
  C  C594  1  0.131500  0.794900  0.966900  1.0  0.0032
  C  C595  1  0.124900  0.793900  0.908800  1.0  -0.0698
  C  C596  1  0.097600  0.764000  0.887500  1.0  -0.0597
  C  C597  1  0.083800  0.735300  0.926700  1.0  -0.11
  C  C598  1  0.092500  0.738200  0.978800  1.0  -0.0817
  C  C599  1  0.194100  0.860900  0.053700  1.0  0.7463
  C  C600  1  0.057800  0.702900  0.904000  1.0  0.7083
  C  C601  1  0.893600  0.545500  0.945800  1.0  -0.0556
  C  C602  1  0.918600  0.571800  0.971500  1.0  -0.0654
  C  C603  1  0.920600  0.575300  0.026100  1.0  -0.037
  C  C604  1  0.899400  0.553700  0.062600  1.0  -0.2391
  C  C605  1  0.875500  0.525100  0.044700  1.0  0.125
  C  C606  1  0.873500  0.529600  0.990400  1.0  0.0852
  C  C607  1  0.850200  0.501700  0.968300  1.0  -0.1281
  C  C608  1  0.831000  0.480500  0.008700  1.0  -0.0801
  C  C609  1  0.830600  0.479700  0.064600  1.0  -0.1278
  C  C610  1  0.857500  0.505700  0.087300  1.0  -0.1152
  C  C611  1  0.950600  0.598500  0.939300  1.0  0.6884
  C  C612  1  0.803200  0.449200  0.090300  1.0  0.7114
  C  C613  1  0.228100  0.927700  0.570200  1.0  -0.0886
  C  C614  1  0.235600  0.933500  0.516400  1.0  -0.0997
  C  C615  1  0.214000  0.912100  0.478800  1.0  -0.0499
  C  C616  1  0.190000  0.881200  0.494900  1.0  -0.1287
  C  C617  1  0.181400  0.876700  0.547000  1.0  0.0387
  C  C618  1  0.200600  0.899300  0.586600  1.0  0.0623
  C  C619  1  0.193100  0.890600  0.639300  1.0  -0.1144
  C  C620  1  0.167500  0.860600  0.653500  1.0  -0.0299
  C  C621  1  0.148600  0.838900  0.613900  1.0  -0.1075
  C  C622  1  0.155800  0.846300  0.561000  1.0  -0.0972
  C  C623  1  0.262700  0.965000  0.496500  1.0  0.745
  C  C624  1  0.118100  0.805500  0.623400  1.0  0.5452
  C  C625  1  0.354600  0.837200  0.784900  1.0  0.0038
  C  C626  1  0.353200  0.831900  0.735500  1.0  -0.0552
  C  C627  1  0.324700  0.856900  0.699100  1.0  -0.0655
  C  C628  1  0.301700  0.885900  0.730800  1.0  -0.0362
  C  C629  1  0.301700  0.888200  0.779300  1.0  0.2147
  C  C630  1  0.328300  0.865300  0.813800  1.0  -0.0251
  C  C631  1  0.328800  0.871100  0.869000  1.0  -0.0517
  C  C632  1  0.302500  0.895500  0.891800  1.0  -0.0423
  C  C633  1  0.274700  0.916500  0.861800  1.0  -0.1284
  C  C634  1  0.273400  0.913900  0.807800  1.0  -0.076
  C  C635  1  0.380900  0.806400  0.699900  1.0  0.6395
  C  C636  1  0.241100  0.943800  0.885000  1.0  0.6617
  C  C637  1  0.341800  0.674900  0.984500  1.0  -0.0753
  C  C638  1  0.334700  0.670800  0.034400  1.0  -0.0667
  C  C639  1  0.348500  0.700000  0.072400  1.0  -0.0923
  C  C640  1  0.373200  0.727900  0.052200  1.0  -0.0273
  C  C641  1  0.382000  0.731800  0.999700  1.0  0.0228
  C  C642  1  0.368500  0.705100  0.966900  1.0  0.0028
  C  C643  1  0.375100  0.706100  0.908800  1.0  -0.0709
  C  C644  1  0.402400  0.736000  0.887500  1.0  -0.0596
  C  C645  1  0.416200  0.764700  0.926700  1.0  -0.1099
  C  C646  1  0.407500  0.761800  0.978800  1.0  -0.0814
  C  C647  1  0.305900  0.639100  0.053700  1.0  0.743
  C  C648  1  0.442200  0.797100  0.904000  1.0  0.7089
  C  C649  1  0.606400  0.954500  0.945800  1.0  -0.0562
  C  C650  1  0.581400  0.928200  0.971500  1.0  -0.0655
  C  C651  1  0.579400  0.924700  0.026100  1.0  -0.0397
  C  C652  1  0.600600  0.946300  0.062600  1.0  -0.2393
  C  C653  1  0.624500  0.974900  0.044700  1.0  0.1262
  C  C654  1  0.626500  0.970400  0.990400  1.0  0.0864
  C  C655  1  0.649800  0.998300  0.968300  1.0  -0.128
  C  C656  1  0.669000  0.019500  0.008700  1.0  -0.0815
  C  C657  1  0.669400  0.020300  0.064600  1.0  -0.1255
  C  C658  1  0.642500  0.994300  0.087300  1.0  -0.1171
  C  C659  1  0.549400  0.901500  0.939300  1.0  0.6888
  C  C660  1  0.696800  0.050800  0.090300  1.0  0.7093
  C  C661  1  0.271900  0.572300  0.570200  1.0  -0.0895
  C  C662  1  0.264400  0.566500  0.516400  1.0  -0.0993
  C  C663  1  0.286000  0.587900  0.478800  1.0  -0.0501
  C  C664  1  0.310000  0.618800  0.494900  1.0  -0.1289
  C  C665  1  0.318600  0.623300  0.547000  1.0  0.0388
  C  C666  1  0.299400  0.600700  0.586600  1.0  0.0622
  C  C667  1  0.306900  0.609400  0.639300  1.0  -0.1156
  C  C668  1  0.332500  0.639400  0.653500  1.0  -0.029
  C  C669  1  0.351400  0.661100  0.613900  1.0  -0.1066
  C  C670  1  0.344200  0.653700  0.561000  1.0  -0.0978
  C  C671  1  0.237300  0.535000  0.496500  1.0  0.7458
  C  C672  1  0.381900  0.694500  0.623400  1.0  0.5444
  C  C673  1  0.354600  0.337200  0.284900  1.0  0.0038
  C  C674  1  0.353200  0.331900  0.235500  1.0  -0.0552
  C  C675  1  0.324700  0.356900  0.199100  1.0  -0.0655
  C  C676  1  0.301700  0.385900  0.230800  1.0  -0.0362
  C  C677  1  0.301700  0.388200  0.279300  1.0  0.2147
  C  C678  1  0.328300  0.365300  0.313800  1.0  -0.0251
  C  C679  1  0.328800  0.371100  0.369000  1.0  -0.0517
  C  C680  1  0.302500  0.395500  0.391800  1.0  -0.0423
  C  C681  1  0.274700  0.416500  0.361800  1.0  -0.1284
  C  C682  1  0.273400  0.413900  0.307800  1.0  -0.076
  C  C683  1  0.380900  0.306400  0.199900  1.0  0.6395
  C  C684  1  0.241100  0.443800  0.385000  1.0  0.6617
  C  C685  1  0.341800  0.174900  0.484500  1.0  -0.0753
  C  C686  1  0.334700  0.170800  0.534400  1.0  -0.0667
  C  C687  1  0.348500  0.200000  0.572400  1.0  -0.0923
  C  C688  1  0.373200  0.227900  0.552200  1.0  -0.0273
  C  C689  1  0.382000  0.231800  0.499700  1.0  0.0228
  C  C690  1  0.368500  0.205100  0.466900  1.0  0.0028
  C  C691  1  0.375100  0.206100  0.408800  1.0  -0.0709
  C  C692  1  0.402400  0.236000  0.387500  1.0  -0.0596
  C  C693  1  0.416200  0.264700  0.426700  1.0  -0.1099
  C  C694  1  0.407500  0.261800  0.478800  1.0  -0.0814
  C  C695  1  0.305900  0.139100  0.553700  1.0  0.743
  C  C696  1  0.442200  0.297100  0.404000  1.0  0.7089
  C  C697  1  0.606400  0.454500  0.445800  1.0  -0.0562
  C  C698  1  0.581400  0.428200  0.471500  1.0  -0.0655
  C  C699  1  0.579400  0.424700  0.526100  1.0  -0.0397
  C  C700  1  0.600600  0.446300  0.562600  1.0  -0.2393
  C  C701  1  0.624500  0.474900  0.544700  1.0  0.1262
  C  C702  1  0.626500  0.470400  0.490400  1.0  0.0864
  C  C703  1  0.649800  0.498300  0.468300  1.0  -0.128
  C  C704  1  0.669000  0.519500  0.508700  1.0  -0.0815
  C  C705  1  0.669400  0.520300  0.564600  1.0  -0.1255
  C  C706  1  0.642500  0.494300  0.587300  1.0  -0.1171
  C  C707  1  0.549400  0.401500  0.439300  1.0  0.6888
  C  C708  1  0.696800  0.550800  0.590300  1.0  0.7093
  C  C709  1  0.271900  0.072300  0.070200  1.0  -0.0895
  C  C710  1  0.264400  0.066500  0.016400  1.0  -0.0993
  C  C711  1  0.286000  0.087900  0.978800  1.0  -0.0501
  C  C712  1  0.310000  0.118800  0.994900  1.0  -0.1289
  C  C713  1  0.318600  0.123300  0.047000  1.0  0.0388
  C  C714  1  0.299400  0.100700  0.086600  1.0  0.0622
  C  C715  1  0.306900  0.109400  0.139300  1.0  -0.1156
  C  C716  1  0.332500  0.139400  0.153500  1.0  -0.029
  C  C717  1  0.351400  0.161100  0.113900  1.0  -0.1066
  C  C718  1  0.344200  0.153700  0.061000  1.0  -0.0978
  C  C719  1  0.237300  0.035000  0.996500  1.0  0.7458
  C  C720  1  0.381900  0.194500  0.123400  1.0  0.5444
  C  C721  1  0.854600  0.837200  0.284900  1.0  0.0038
  C  C722  1  0.853200  0.831900  0.235500  1.0  -0.0552
  C  C723  1  0.824700  0.856900  0.199100  1.0  -0.0655
  C  C724  1  0.801700  0.885900  0.230800  1.0  -0.0362
  C  C725  1  0.801700  0.888200  0.279300  1.0  0.2147
  C  C726  1  0.828300  0.865300  0.313800  1.0  -0.0251
  C  C727  1  0.828800  0.871100  0.369000  1.0  -0.0517
  C  C728  1  0.802500  0.895500  0.391800  1.0  -0.0423
  C  C729  1  0.774700  0.916500  0.361800  1.0  -0.1284
  C  C730  1  0.773400  0.913900  0.307800  1.0  -0.076
  C  C731  1  0.880900  0.806400  0.199900  1.0  0.6395
  C  C732  1  0.741100  0.943800  0.385000  1.0  0.6617
  C  C733  1  0.841800  0.674900  0.484500  1.0  -0.0753
  C  C734  1  0.834700  0.670800  0.534400  1.0  -0.0667
  C  C735  1  0.848500  0.700000  0.572400  1.0  -0.0923
  C  C736  1  0.873200  0.727900  0.552200  1.0  -0.0273
  C  C737  1  0.882000  0.731800  0.499700  1.0  0.0228
  C  C738  1  0.868500  0.705100  0.466900  1.0  0.0028
  C  C739  1  0.875100  0.706100  0.408800  1.0  -0.0709
  C  C740  1  0.902400  0.736000  0.387500  1.0  -0.0596
  C  C741  1  0.916200  0.764700  0.426700  1.0  -0.1099
  C  C742  1  0.907500  0.761800  0.478800  1.0  -0.0814
  C  C743  1  0.805900  0.639100  0.553700  1.0  0.743
  C  C744  1  0.942200  0.797100  0.404000  1.0  0.7089
  C  C745  1  0.106400  0.954500  0.445800  1.0  -0.0562
  C  C746  1  0.081400  0.928200  0.471500  1.0  -0.0655
  C  C747  1  0.079400  0.924700  0.526100  1.0  -0.0397
  C  C748  1  0.100600  0.946300  0.562600  1.0  -0.2393
  C  C749  1  0.124500  0.974900  0.544700  1.0  0.1262
  C  C750  1  0.126500  0.970400  0.490400  1.0  0.0864
  C  C751  1  0.149800  0.998300  0.468300  1.0  -0.128
  C  C752  1  0.169000  0.019500  0.508700  1.0  -0.0815
  C  C753  1  0.169400  0.020300  0.564600  1.0  -0.1255
  C  C754  1  0.142500  0.994300  0.587300  1.0  -0.1171
  C  C755  1  0.049400  0.901500  0.439300  1.0  0.6888
  C  C756  1  0.196800  0.050800  0.590300  1.0  0.7093
  C  C757  1  0.771900  0.572300  0.070200  1.0  -0.0895
  C  C758  1  0.764400  0.566500  0.016400  1.0  -0.0993
  C  C759  1  0.786000  0.587900  0.978800  1.0  -0.0501
  C  C760  1  0.810000  0.618800  0.994900  1.0  -0.1289
  C  C761  1  0.818600  0.623300  0.047000  1.0  0.0388
  C  C762  1  0.799400  0.600700  0.086600  1.0  0.0622
  C  C763  1  0.806900  0.609400  0.139300  1.0  -0.1156
  C  C764  1  0.832500  0.639400  0.153500  1.0  -0.029
  C  C765  1  0.851400  0.661100  0.113900  1.0  -0.1066
  C  C766  1  0.844200  0.653700  0.061000  1.0  -0.0978
  C  C767  1  0.737300  0.535000  0.996500  1.0  0.7458
  C  C768  1  0.881900  0.694500  0.123400  1.0  0.5444
  C  C769  1  0.854600  0.337200  0.784900  1.0  0.0038
  C  C770  1  0.853200  0.331900  0.735500  1.0  -0.0552
  C  C771  1  0.824700  0.356900  0.699100  1.0  -0.0655
  C  C772  1  0.801700  0.385900  0.730800  1.0  -0.0362
  C  C773  1  0.801700  0.388200  0.779300  1.0  0.2147
  C  C774  1  0.828300  0.365300  0.813800  1.0  -0.0251
  C  C775  1  0.828800  0.371100  0.869000  1.0  -0.0517
  C  C776  1  0.802500  0.395500  0.891800  1.0  -0.0423
  C  C777  1  0.774700  0.416500  0.861800  1.0  -0.1284
  C  C778  1  0.773400  0.413900  0.807800  1.0  -0.076
  C  C779  1  0.880900  0.306400  0.699900  1.0  0.6395
  C  C780  1  0.741100  0.443800  0.885000  1.0  0.6617
  C  C781  1  0.841800  0.174900  0.984500  1.0  -0.0753
  C  C782  1  0.834700  0.170800  0.034400  1.0  -0.0667
  C  C783  1  0.848500  0.200000  0.072400  1.0  -0.0923
  C  C784  1  0.873200  0.227900  0.052200  1.0  -0.0273
  C  C785  1  0.882000  0.231800  0.999700  1.0  0.0228
  C  C786  1  0.868500  0.205100  0.966900  1.0  0.0028
  C  C787  1  0.875100  0.206100  0.908800  1.0  -0.0709
  C  C788  1  0.902400  0.236000  0.887500  1.0  -0.0596
  C  C789  1  0.916200  0.264700  0.926700  1.0  -0.1099
  C  C790  1  0.907500  0.261800  0.978800  1.0  -0.0814
  C  C791  1  0.805900  0.139100  0.053700  1.0  0.743
  C  C792  1  0.942200  0.297100  0.904000  1.0  0.7089
  C  C793  1  0.106400  0.454500  0.945800  1.0  -0.0562
  C  C794  1  0.081400  0.428200  0.971500  1.0  -0.0655
  C  C795  1  0.079400  0.424700  0.026100  1.0  -0.0397
  C  C796  1  0.100600  0.446300  0.062600  1.0  -0.2393
  C  C797  1  0.124500  0.474900  0.044700  1.0  0.1262
  C  C798  1  0.126500  0.470400  0.990400  1.0  0.0864
  C  C799  1  0.149800  0.498300  0.968300  1.0  -0.128
  C  C800  1  0.169000  0.519500  0.008700  1.0  -0.0815
  C  C801  1  0.169400  0.520300  0.064600  1.0  -0.1255
  C  C802  1  0.142500  0.494300  0.087300  1.0  -0.1171
  C  C803  1  0.049400  0.401500  0.939300  1.0  0.6888
  C  C804  1  0.196800  0.550800  0.090300  1.0  0.7093
  C  C805  1  0.771900  0.072300  0.570200  1.0  -0.0895
  C  C806  1  0.764400  0.066500  0.516400  1.0  -0.0993
  C  C807  1  0.786000  0.087900  0.478800  1.0  -0.0501
  C  C808  1  0.810000  0.118800  0.494900  1.0  -0.1289
  C  C809  1  0.818600  0.123300  0.547000  1.0  0.0388
  C  C810  1  0.799400  0.100700  0.586600  1.0  0.0622
  C  C811  1  0.806900  0.109400  0.639300  1.0  -0.1156
  C  C812  1  0.832500  0.139400  0.653500  1.0  -0.029
  C  C813  1  0.851400  0.161100  0.613900  1.0  -0.1066
  C  C814  1  0.844200  0.153700  0.561000  1.0  -0.0978
  C  C815  1  0.737300  0.035000  0.496500  1.0  0.7458
  C  C816  1  0.881900  0.194500  0.623400  1.0  0.5444
  C  C817  1  0.895400  0.087200  0.034900  1.0  0.0047
  C  C818  1  0.896800  0.081900  0.985500  1.0  -0.0554
  C  C819  1  0.925300  0.106900  0.949100  1.0  -0.0661
  C  C820  1  0.948300  0.135900  0.980800  1.0  -0.034
  C  C821  1  0.948300  0.138200  0.029300  1.0  0.2161
  C  C822  1  0.921700  0.115300  0.063800  1.0  -0.0232
  C  C823  1  0.921200  0.121100  0.119000  1.0  -0.0508
  C  C824  1  0.947500  0.145500  0.141800  1.0  -0.0431
  C  C825  1  0.975300  0.166500  0.111800  1.0  -0.1299
  C  C826  1  0.976600  0.163900  0.057800  1.0  -0.0755
  C  C827  1  0.869100  0.056400  0.949900  1.0  0.6387
  C  C828  1  0.008900  0.193800  0.135000  1.0  0.6621
  C  C829  1  0.908200  0.924900  0.234500  1.0  -0.0764
  C  C830  1  0.915300  0.920800  0.284400  1.0  -0.0677
  C  C831  1  0.901500  0.950000  0.322400  1.0  -0.0902
  C  C832  1  0.876800  0.977900  0.302200  1.0  -0.0264
  C  C833  1  0.868000  0.981800  0.249700  1.0  0.0225
  C  C834  1  0.881500  0.955100  0.216900  1.0  0.0035
  C  C835  1  0.874900  0.956100  0.158800  1.0  -0.0707
  C  C836  1  0.847600  0.986000  0.137500  1.0  -0.06
  C  C837  1  0.833800  0.014700  0.176700  1.0  -0.1098
  C  C838  1  0.842500  0.011800  0.228800  1.0  -0.0818
  C  C839  1  0.944100  0.889100  0.303700  1.0  0.7462
  C  C840  1  0.807800  0.047100  0.154000  1.0  0.7077
  C  C841  1  0.643600  0.204500  0.195800  1.0  -0.0561
  C  C842  1  0.668600  0.178200  0.221500  1.0  -0.0654
  C  C843  1  0.670600  0.174700  0.276100  1.0  -0.0387
  C  C844  1  0.649400  0.196300  0.312600  1.0  -0.2399
  C  C845  1  0.625500  0.224900  0.294700  1.0  0.1259
  C  C846  1  0.623500  0.220400  0.240400  1.0  0.0863
  C  C847  1  0.600200  0.248300  0.218300  1.0  -0.1267
  C  C848  1  0.581000  0.269500  0.258700  1.0  -0.081
  C  C849  1  0.580600  0.270300  0.314600  1.0  -0.1269
  C  C850  1  0.607500  0.244300  0.337300  1.0  -0.1147
  C  C851  1  0.700600  0.151500  0.189300  1.0  0.6883
  C  C852  1  0.553200  0.300800  0.340300  1.0  0.7095
  C  C853  1  0.978100  0.822300  0.820200  1.0  -0.0898
  C  C854  1  0.985600  0.816500  0.766400  1.0  -0.0991
  C  C855  1  0.964000  0.837900  0.728800  1.0  -0.0508
  C  C856  1  0.940000  0.868800  0.744900  1.0  -0.1306
  C  C857  1  0.931400  0.873300  0.797000  1.0  0.0387
  C  C858  1  0.950600  0.850700  0.836600  1.0  0.062
  C  C859  1  0.943100  0.859400  0.889300  1.0  -0.1141
  C  C860  1  0.917500  0.889400  0.903500  1.0  -0.0293
  C  C861  1  0.898600  0.911100  0.863900  1.0  -0.1065
  C  C862  1  0.905800  0.903700  0.811000  1.0  -0.0984
  C  C863  1  0.012700  0.785000  0.746500  1.0  0.745
  C  C864  1  0.868100  0.944500  0.873400  1.0  0.5438
  C  C865  1  0.895400  0.587200  0.534900  1.0  0.0047
  C  C866  1  0.896800  0.581900  0.485500  1.0  -0.0554
  C  C867  1  0.925300  0.606900  0.449100  1.0  -0.0661
  C  C868  1  0.948300  0.635900  0.480800  1.0  -0.034
  C  C869  1  0.948300  0.638200  0.529300  1.0  0.2161
  C  C870  1  0.921700  0.615300  0.563800  1.0  -0.0232
  C  C871  1  0.921200  0.621100  0.619000  1.0  -0.0508
  C  C872  1  0.947500  0.645500  0.641800  1.0  -0.0431
  C  C873  1  0.975300  0.666500  0.611800  1.0  -0.1299
  C  C874  1  0.976600  0.663900  0.557800  1.0  -0.0755
  C  C875  1  0.869100  0.556400  0.449900  1.0  0.6387
  C  C876  1  0.008900  0.693800  0.635000  1.0  0.6621
  C  C877  1  0.908200  0.424900  0.734500  1.0  -0.0764
  C  C878  1  0.915300  0.420800  0.784400  1.0  -0.0677
  C  C879  1  0.901500  0.450000  0.822400  1.0  -0.0902
  C  C880  1  0.876800  0.477900  0.802200  1.0  -0.0264
  C  C881  1  0.868000  0.481800  0.749700  1.0  0.0225
  C  C882  1  0.881500  0.455100  0.716900  1.0  0.0035
  C  C883  1  0.874900  0.456100  0.658800  1.0  -0.0707
  C  C884  1  0.847600  0.486000  0.637500  1.0  -0.06
  C  C885  1  0.833800  0.514700  0.676700  1.0  -0.1098
  C  C886  1  0.842500  0.511800  0.728800  1.0  -0.0818
  C  C887  1  0.944100  0.389100  0.803700  1.0  0.7462
  C  C888  1  0.807800  0.547100  0.654000  1.0  0.7077
  C  C889  1  0.643600  0.704500  0.695800  1.0  -0.0561
  C  C890  1  0.668600  0.678200  0.721500  1.0  -0.0654
  C  C891  1  0.670600  0.674700  0.776100  1.0  -0.0387
  C  C892  1  0.649400  0.696300  0.812600  1.0  -0.2399
  C  C893  1  0.625500  0.724900  0.794700  1.0  0.1259
  C  C894  1  0.623500  0.720400  0.740400  1.0  0.0863
  C  C895  1  0.600200  0.748300  0.718300  1.0  -0.1267
  C  C896  1  0.581000  0.769500  0.758700  1.0  -0.081
  C  C897  1  0.580600  0.770300  0.814600  1.0  -0.1269
  C  C898  1  0.607500  0.744300  0.837300  1.0  -0.1147
  C  C899  1  0.700600  0.651500  0.689300  1.0  0.6883
  C  C900  1  0.553200  0.800800  0.840300  1.0  0.7095
  C  C901  1  0.978100  0.322300  0.320200  1.0  -0.0898
  C  C902  1  0.985600  0.316500  0.266400  1.0  -0.0991
  C  C903  1  0.964000  0.337900  0.228800  1.0  -0.0508
  C  C904  1  0.940000  0.368800  0.244900  1.0  -0.1306
  C  C905  1  0.931400  0.373300  0.297000  1.0  0.0387
  C  C906  1  0.950600  0.350700  0.336600  1.0  0.062
  C  C907  1  0.943100  0.359400  0.389300  1.0  -0.1141
  C  C908  1  0.917500  0.389400  0.403500  1.0  -0.0293
  C  C909  1  0.898600  0.411100  0.363900  1.0  -0.1065
  C  C910  1  0.905800  0.403700  0.311000  1.0  -0.0984
  C  C911  1  0.012700  0.285000  0.246500  1.0  0.745
  C  C912  1  0.868100  0.444500  0.373400  1.0  0.5438
  C  C913  1  0.395400  0.087200  0.534900  1.0  0.0047
  C  C914  1  0.396800  0.081900  0.485500  1.0  -0.0554
  C  C915  1  0.425300  0.106900  0.449100  1.0  -0.0661
  C  C916  1  0.448300  0.135900  0.480800  1.0  -0.034
  C  C917  1  0.448300  0.138200  0.529300  1.0  0.2161
  C  C918  1  0.421700  0.115300  0.563800  1.0  -0.0232
  C  C919  1  0.421200  0.121100  0.619000  1.0  -0.0508
  C  C920  1  0.447500  0.145500  0.641800  1.0  -0.0431
  C  C921  1  0.475300  0.166500  0.611800  1.0  -0.1299
  C  C922  1  0.476600  0.163900  0.557800  1.0  -0.0755
  C  C923  1  0.369100  0.056400  0.449900  1.0  0.6387
  C  C924  1  0.508900  0.193800  0.635000  1.0  0.6621
  C  C925  1  0.408200  0.924900  0.734500  1.0  -0.0764
  C  C926  1  0.415300  0.920800  0.784400  1.0  -0.0677
  C  C927  1  0.401500  0.950000  0.822400  1.0  -0.0902
  C  C928  1  0.376800  0.977900  0.802200  1.0  -0.0264
  C  C929  1  0.368000  0.981800  0.749700  1.0  0.0225
  C  C930  1  0.381500  0.955100  0.716900  1.0  0.0035
  C  C931  1  0.374900  0.956100  0.658800  1.0  -0.0707
  C  C932  1  0.347600  0.986000  0.637500  1.0  -0.06
  C  C933  1  0.333800  0.014700  0.676700  1.0  -0.1098
  C  C934  1  0.342500  0.011800  0.728800  1.0  -0.0818
  C  C935  1  0.444100  0.889100  0.803700  1.0  0.7462
  C  C936  1  0.307800  0.047100  0.654000  1.0  0.7077
  C  C937  1  0.143600  0.204500  0.695800  1.0  -0.0561
  C  C938  1  0.168600  0.178200  0.721500  1.0  -0.0654
  C  C939  1  0.170600  0.174700  0.776100  1.0  -0.0387
  C  C940  1  0.149400  0.196300  0.812600  1.0  -0.2399
  C  C941  1  0.125500  0.224900  0.794700  1.0  0.1259
  C  C942  1  0.123500  0.220400  0.740400  1.0  0.0863
  C  C943  1  0.100200  0.248300  0.718300  1.0  -0.1267
  C  C944  1  0.081000  0.269500  0.758700  1.0  -0.081
  C  C945  1  0.080600  0.270300  0.814600  1.0  -0.1269
  C  C946  1  0.107500  0.244300  0.837300  1.0  -0.1147
  C  C947  1  0.200600  0.151500  0.689300  1.0  0.6883
  C  C948  1  0.053200  0.300800  0.840300  1.0  0.7095
  C  C949  1  0.478100  0.822300  0.320200  1.0  -0.0898
  C  C950  1  0.485600  0.816500  0.266400  1.0  -0.0991
  C  C951  1  0.464000  0.837900  0.228800  1.0  -0.0508
  C  C952  1  0.440000  0.868800  0.244900  1.0  -0.1306
  C  C953  1  0.431400  0.873300  0.297000  1.0  0.0387
  C  C954  1  0.450600  0.850700  0.336600  1.0  0.062
  C  C955  1  0.443100  0.859400  0.389300  1.0  -0.1141
  C  C956  1  0.417500  0.889400  0.403500  1.0  -0.0293
  C  C957  1  0.398600  0.911100  0.363900  1.0  -0.1065
  C  C958  1  0.405800  0.903700  0.311000  1.0  -0.0984
  C  C959  1  0.512700  0.785000  0.246500  1.0  0.745
  C  C960  1  0.368100  0.944500  0.373400  1.0  0.5438
  C  C961  1  0.395400  0.587200  0.034900  1.0  0.0047
  C  C962  1  0.396800  0.581900  0.985500  1.0  -0.0554
  C  C963  1  0.425300  0.606900  0.949100  1.0  -0.0661
  C  C964  1  0.448300  0.635900  0.980800  1.0  -0.034
  C  C965  1  0.448300  0.638200  0.029300  1.0  0.2161
  C  C966  1  0.421700  0.615300  0.063800  1.0  -0.0232
  C  C967  1  0.421200  0.621100  0.119000  1.0  -0.0508
  C  C968  1  0.447500  0.645500  0.141800  1.0  -0.0431
  C  C969  1  0.475300  0.666500  0.111800  1.0  -0.1299
  C  C970  1  0.476600  0.663900  0.057800  1.0  -0.0755
  C  C971  1  0.369100  0.556400  0.949900  1.0  0.6387
  C  C972  1  0.508900  0.693800  0.135000  1.0  0.6621
  C  C973  1  0.408200  0.424900  0.234500  1.0  -0.0764
  C  C974  1  0.415300  0.420800  0.284400  1.0  -0.0677
  C  C975  1  0.401500  0.450000  0.322400  1.0  -0.0902
  C  C976  1  0.376800  0.477900  0.302200  1.0  -0.0264
  C  C977  1  0.368000  0.481800  0.249700  1.0  0.0225
  C  C978  1  0.381500  0.455100  0.216900  1.0  0.0035
  C  C979  1  0.374900  0.456100  0.158800  1.0  -0.0707
  C  C980  1  0.347600  0.486000  0.137500  1.0  -0.06
  C  C981  1  0.333800  0.514700  0.176700  1.0  -0.1098
  C  C982  1  0.342500  0.511800  0.228800  1.0  -0.0818
  C  C983  1  0.444100  0.389100  0.303700  1.0  0.7462
  C  C984  1  0.307800  0.547100  0.154000  1.0  0.7077
  C  C985  1  0.143600  0.704500  0.195800  1.0  -0.0561
  C  C986  1  0.168600  0.678200  0.221500  1.0  -0.0654
  C  C987  1  0.170600  0.674700  0.276100  1.0  -0.0387
  C  C988  1  0.149400  0.696300  0.312600  1.0  -0.2399
  C  C989  1  0.125500  0.724900  0.294700  1.0  0.1259
  C  C990  1  0.123500  0.720400  0.240400  1.0  0.0863
  C  C991  1  0.100200  0.748300  0.218300  1.0  -0.1267
  C  C992  1  0.081000  0.769500  0.258700  1.0  -0.081
  C  C993  1  0.080600  0.770300  0.314600  1.0  -0.1269
  C  C994  1  0.107500  0.744300  0.337300  1.0  -0.1147
  C  C995  1  0.200600  0.651500  0.189300  1.0  0.6883
  C  C996  1  0.053200  0.800800  0.340300  1.0  0.7095
  C  C997  1  0.478100  0.322300  0.820200  1.0  -0.0898
  C  C998  1  0.485600  0.316500  0.766400  1.0  -0.0991
  C  C999  1  0.464000  0.337900  0.728800  1.0  -0.0508
  C  C1000  1  0.440000  0.368800  0.744900  1.0  -0.1306
  C  C1001  1  0.431400  0.373300  0.797000  1.0  0.0387
  C  C1002  1  0.450600  0.350700  0.836600  1.0  0.062
  C  C1003  1  0.443100  0.359400  0.889300  1.0  -0.1141
  C  C1004  1  0.417500  0.389400  0.903500  1.0  -0.0293
  C  C1005  1  0.398600  0.411100  0.863900  1.0  -0.1065
  C  C1006  1  0.405800  0.403700  0.811000  1.0  -0.0984
  C  C1007  1  0.512700  0.285000  0.746500  1.0  0.745
  C  C1008  1  0.368100  0.444500  0.873400  1.0  0.5438
  C  C1009  1  0.604600  0.412800  0.034900  1.0  0.0056
  C  C1010  1  0.603200  0.418100  0.985500  1.0  -0.0546
  C  C1011  1  0.574700  0.393100  0.949100  1.0  -0.0667
  C  C1012  1  0.551700  0.364100  0.980800  1.0  -0.0342
  C  C1013  1  0.551700  0.361800  0.029300  1.0  0.2136
  C  C1014  1  0.578300  0.384700  0.063800  1.0  -0.0245
  C  C1015  1  0.578800  0.378900  0.119000  1.0  -0.0506
  C  C1016  1  0.552500  0.354500  0.141800  1.0  -0.0419
  C  C1017  1  0.524700  0.333500  0.111800  1.0  -0.1286
  C  C1018  1  0.523400  0.336100  0.057800  1.0  -0.0759
  C  C1019  1  0.630900  0.443600  0.949900  1.0  0.64
  C  C1020  1  0.491100  0.306200  0.135000  1.0  0.6599
  C  C1021  1  0.591800  0.575100  0.234500  1.0  -0.0753
  C  C1022  1  0.584700  0.579200  0.284400  1.0  -0.066
  C  C1023  1  0.598500  0.550000  0.322400  1.0  -0.0917
  C  C1024  1  0.623200  0.522100  0.302200  1.0  -0.0243
  C  C1025  1  0.632000  0.518200  0.249700  1.0  0.0216
  C  C1026  1  0.618500  0.544900  0.216900  1.0  0.0028
  C  C1027  1  0.625100  0.543900  0.158800  1.0  -0.0711
  C  C1028  1  0.652400  0.514000  0.137500  1.0  -0.0593
  C  C1029  1  0.666200  0.485300  0.176700  1.0  -0.1101
  C  C1030  1  0.657500  0.488200  0.228800  1.0  -0.0816
  C  C1031  1  0.555900  0.610900  0.303700  1.0  0.7429
  C  C1032  1  0.692200  0.452900  0.154000  1.0  0.7091
  C  C1033  1  0.856400  0.295500  0.195800  1.0  -0.0559
  C  C1034  1  0.831400  0.321800  0.221500  1.0  -0.0648
  C  C1035  1  0.829400  0.325300  0.276100  1.0  -0.0399
  C  C1036  1  0.850600  0.303700  0.312600  1.0  -0.2397
  C  C1037  1  0.874500  0.275100  0.294700  1.0  0.1255
  C  C1038  1  0.876500  0.279600  0.240400  1.0  0.0858
  C  C1039  1  0.899800  0.251700  0.218300  1.0  -0.1292
  C  C1040  1  0.919000  0.230500  0.258700  1.0  -0.081
  C  C1041  1  0.919400  0.229700  0.314600  1.0  -0.1266
  C  C1042  1  0.892500  0.255700  0.337300  1.0  -0.1173
  C  C1043  1  0.799400  0.348500  0.189300  1.0  0.6888
  C  C1044  1  0.946800  0.199200  0.340300  1.0  0.7106
  C  C1045  1  0.521900  0.677700  0.820200  1.0  -0.0881
  C  C1046  1  0.514400  0.683500  0.766400  1.0  -0.0995
  C  C1047  1  0.536000  0.662100  0.728800  1.0  -0.0494
  C  C1048  1  0.560000  0.631200  0.744900  1.0  -0.1278
  C  C1049  1  0.568600  0.626700  0.797000  1.0  0.0385
  C  C1050  1  0.549400  0.649300  0.836600  1.0  0.0626
  C  C1051  1  0.556900  0.640600  0.889300  1.0  -0.116
  C  C1052  1  0.582500  0.610600  0.903500  1.0  -0.0297
  C  C1053  1  0.601400  0.588900  0.863900  1.0  -0.107
  C  C1054  1  0.594200  0.596300  0.811000  1.0  -0.0969
  C  C1055  1  0.487300  0.715000  0.746500  1.0  0.7453
  C  C1056  1  0.631900  0.555500  0.873400  1.0  0.5457
  C  C1057  1  0.604600  0.912800  0.534900  1.0  0.0056
  C  C1058  1  0.603200  0.918100  0.485500  1.0  -0.0546
  C  C1059  1  0.574700  0.893100  0.449100  1.0  -0.0667
  C  C1060  1  0.551700  0.864100  0.480800  1.0  -0.0342
  C  C1061  1  0.551700  0.861800  0.529300  1.0  0.2136
  C  C1062  1  0.578300  0.884700  0.563800  1.0  -0.0245
  C  C1063  1  0.578800  0.878900  0.619000  1.0  -0.0506
  C  C1064  1  0.552500  0.854500  0.641800  1.0  -0.0419
  C  C1065  1  0.524700  0.833500  0.611800  1.0  -0.1286
  C  C1066  1  0.523400  0.836100  0.557800  1.0  -0.0759
  C  C1067  1  0.630900  0.943600  0.449900  1.0  0.64
  C  C1068  1  0.491100  0.806200  0.635000  1.0  0.6599
  C  C1069  1  0.591800  0.075100  0.734500  1.0  -0.0753
  C  C1070  1  0.584700  0.079200  0.784400  1.0  -0.066
  C  C1071  1  0.598500  0.050000  0.822400  1.0  -0.0917
  C  C1072  1  0.623200  0.022100  0.802200  1.0  -0.0243
  C  C1073  1  0.632000  0.018200  0.749700  1.0  0.0216
  C  C1074  1  0.618500  0.044900  0.716900  1.0  0.0028
  C  C1075  1  0.625100  0.043900  0.658800  1.0  -0.0711
  C  C1076  1  0.652400  0.014000  0.637500  1.0  -0.0593
  C  C1077  1  0.666200  0.985300  0.676700  1.0  -0.1101
  C  C1078  1  0.657500  0.988200  0.728800  1.0  -0.0816
  C  C1079  1  0.555900  0.110900  0.803700  1.0  0.7429
  C  C1080  1  0.692200  0.952900  0.654000  1.0  0.7091
  C  C1081  1  0.856400  0.795500  0.695800  1.0  -0.0559
  C  C1082  1  0.831400  0.821800  0.721500  1.0  -0.0648
  C  C1083  1  0.829400  0.825300  0.776100  1.0  -0.0399
  C  C1084  1  0.850600  0.803700  0.812600  1.0  -0.2397
  C  C1085  1  0.874500  0.775100  0.794700  1.0  0.1255
  C  C1086  1  0.876500  0.779600  0.740400  1.0  0.0858
  C  C1087  1  0.899800  0.751700  0.718300  1.0  -0.1292
  C  C1088  1  0.919000  0.730500  0.758700  1.0  -0.081
  C  C1089  1  0.919400  0.729700  0.814600  1.0  -0.1266
  C  C1090  1  0.892500  0.755700  0.837300  1.0  -0.1173
  C  C1091  1  0.799400  0.848500  0.689300  1.0  0.6888
  C  C1092  1  0.946800  0.699200  0.840300  1.0  0.7106
  C  C1093  1  0.521900  0.177700  0.320200  1.0  -0.0881
  C  C1094  1  0.514400  0.183500  0.266400  1.0  -0.0995
  C  C1095  1  0.536000  0.162100  0.228800  1.0  -0.0494
  C  C1096  1  0.560000  0.131200  0.244900  1.0  -0.1278
  C  C1097  1  0.568600  0.126700  0.297000  1.0  0.0385
  C  C1098  1  0.549400  0.149300  0.336600  1.0  0.0626
  C  C1099  1  0.556900  0.140600  0.389300  1.0  -0.116
  C  C1100  1  0.582500  0.110600  0.403500  1.0  -0.0297
  C  C1101  1  0.601400  0.088900  0.363900  1.0  -0.107
  C  C1102  1  0.594200  0.096300  0.311000  1.0  -0.0969
  C  C1103  1  0.487300  0.215000  0.246500  1.0  0.7453
  C  C1104  1  0.631900  0.055500  0.373400  1.0  0.5457
  C  C1105  1  0.104600  0.412800  0.534900  1.0  0.0056
  C  C1106  1  0.103200  0.418100  0.485500  1.0  -0.0546
  C  C1107  1  0.074700  0.393100  0.449100  1.0  -0.0667
  C  C1108  1  0.051700  0.364100  0.480800  1.0  -0.0342
  C  C1109  1  0.051700  0.361800  0.529300  1.0  0.2136
  C  C1110  1  0.078300  0.384700  0.563800  1.0  -0.0245
  C  C1111  1  0.078800  0.378900  0.619000  1.0  -0.0506
  C  C1112  1  0.052500  0.354500  0.641800  1.0  -0.0419
  C  C1113  1  0.024700  0.333500  0.611800  1.0  -0.1286
  C  C1114  1  0.023400  0.336100  0.557800  1.0  -0.0759
  C  C1115  1  0.130900  0.443600  0.449900  1.0  0.64
  C  C1116  1  0.991100  0.306200  0.635000  1.0  0.6599
  C  C1117  1  0.091800  0.575100  0.734500  1.0  -0.0753
  C  C1118  1  0.084700  0.579200  0.784400  1.0  -0.066
  C  C1119  1  0.098500  0.550000  0.822400  1.0  -0.0917
  C  C1120  1  0.123200  0.522100  0.802200  1.0  -0.0243
  C  C1121  1  0.132000  0.518200  0.749700  1.0  0.0216
  C  C1122  1  0.118500  0.544900  0.716900  1.0  0.0028
  C  C1123  1  0.125100  0.543900  0.658800  1.0  -0.0711
  C  C1124  1  0.152400  0.514000  0.637500  1.0  -0.0593
  C  C1125  1  0.166200  0.485300  0.676700  1.0  -0.1101
  C  C1126  1  0.157500  0.488200  0.728800  1.0  -0.0816
  C  C1127  1  0.055900  0.610900  0.803700  1.0  0.7429
  C  C1128  1  0.192200  0.452900  0.654000  1.0  0.7091
  C  C1129  1  0.356400  0.295500  0.695800  1.0  -0.0559
  C  C1130  1  0.331400  0.321800  0.721500  1.0  -0.0648
  C  C1131  1  0.329400  0.325300  0.776100  1.0  -0.0399
  C  C1132  1  0.350600  0.303700  0.812600  1.0  -0.2397
  C  C1133  1  0.374500  0.275100  0.794700  1.0  0.1255
  C  C1134  1  0.376500  0.279600  0.740400  1.0  0.0858
  C  C1135  1  0.399800  0.251700  0.718300  1.0  -0.1292
  C  C1136  1  0.419000  0.230500  0.758700  1.0  -0.081
  C  C1137  1  0.419400  0.229700  0.814600  1.0  -0.1266
  C  C1138  1  0.392500  0.255700  0.837300  1.0  -0.1173
  C  C1139  1  0.299400  0.348500  0.689300  1.0  0.6888
  C  C1140  1  0.446800  0.199200  0.840300  1.0  0.7106
  C  C1141  1  0.021900  0.677700  0.320200  1.0  -0.0881
  C  C1142  1  0.014400  0.683500  0.266400  1.0  -0.0995
  C  C1143  1  0.036000  0.662100  0.228800  1.0  -0.0494
  C  C1144  1  0.060000  0.631200  0.244900  1.0  -0.1278
  C  C1145  1  0.068600  0.626700  0.297000  1.0  0.0385
  C  C1146  1  0.049400  0.649300  0.336600  1.0  0.0626
  C  C1147  1  0.056900  0.640600  0.389300  1.0  -0.116
  C  C1148  1  0.082500  0.610600  0.403500  1.0  -0.0297
  C  C1149  1  0.101400  0.588900  0.363900  1.0  -0.107
  C  C1150  1  0.094200  0.596300  0.311000  1.0  -0.0969
  C  C1151  1  0.987300  0.715000  0.246500  1.0  0.7453
  C  C1152  1  0.131900  0.555500  0.373400  1.0  0.5457
  C  C1153  1  0.104600  0.912800  0.034900  1.0  0.0056
  C  C1154  1  0.103200  0.918100  0.985500  1.0  -0.0546
  C  C1155  1  0.074700  0.893100  0.949100  1.0  -0.0667
  C  C1156  1  0.051700  0.864100  0.980800  1.0  -0.0342
  C  C1157  1  0.051700  0.861800  0.029300  1.0  0.2136
  C  C1158  1  0.078300  0.884700  0.063800  1.0  -0.0245
  C  C1159  1  0.078800  0.878900  0.119000  1.0  -0.0506
  C  C1160  1  0.052500  0.854500  0.141800  1.0  -0.0419
  C  C1161  1  0.024700  0.833500  0.111800  1.0  -0.1286
  C  C1162  1  0.023400  0.836100  0.057800  1.0  -0.0759
  C  C1163  1  0.130900  0.943600  0.949900  1.0  0.64
  C  C1164  1  0.991100  0.806200  0.135000  1.0  0.6599
  C  C1165  1  0.091800  0.075100  0.234500  1.0  -0.0753
  C  C1166  1  0.084700  0.079200  0.284400  1.0  -0.066
  C  C1167  1  0.098500  0.050000  0.322400  1.0  -0.0917
  C  C1168  1  0.123200  0.022100  0.302200  1.0  -0.0243
  C  C1169  1  0.132000  0.018200  0.249700  1.0  0.0216
  C  C1170  1  0.118500  0.044900  0.216900  1.0  0.0028
  C  C1171  1  0.125100  0.043900  0.158800  1.0  -0.0711
  C  C1172  1  0.152400  0.014000  0.137500  1.0  -0.0593
  C  C1173  1  0.166200  0.985300  0.176700  1.0  -0.1101
  C  C1174  1  0.157500  0.988200  0.228800  1.0  -0.0816
  C  C1175  1  0.055900  0.110900  0.303700  1.0  0.7429
  C  C1176  1  0.192200  0.952900  0.154000  1.0  0.7091
  C  C1177  1  0.356400  0.795500  0.195800  1.0  -0.0559
  C  C1178  1  0.331400  0.821800  0.221500  1.0  -0.0648
  C  C1179  1  0.329400  0.825300  0.276100  1.0  -0.0399
  C  C1180  1  0.350600  0.803700  0.312600  1.0  -0.2397
  C  C1181  1  0.374500  0.775100  0.294700  1.0  0.1255
  C  C1182  1  0.376500  0.779600  0.240400  1.0  0.0858
  C  C1183  1  0.399800  0.751700  0.218300  1.0  -0.1292
  C  C1184  1  0.419000  0.730500  0.258700  1.0  -0.081
  C  C1185  1  0.419400  0.729700  0.314600  1.0  -0.1266
  C  C1186  1  0.392500  0.755700  0.337300  1.0  -0.1173
  C  C1187  1  0.299400  0.848500  0.189300  1.0  0.6888
  C  C1188  1  0.446800  0.699200  0.340300  1.0  0.7106
  C  C1189  1  0.021900  0.177700  0.820200  1.0  -0.0881
  C  C1190  1  0.014400  0.183500  0.766400  1.0  -0.0995
  C  C1191  1  0.036000  0.162100  0.728800  1.0  -0.0494
  C  C1192  1  0.060000  0.131200  0.744900  1.0  -0.1278
  C  C1193  1  0.068600  0.126700  0.797000  1.0  0.0385
  C  C1194  1  0.049400  0.149300  0.836600  1.0  0.0626
  C  C1195  1  0.056900  0.140600  0.889300  1.0  -0.116
  C  C1196  1  0.082500  0.110600  0.903500  1.0  -0.0297
  C  C1197  1  0.101400  0.088900  0.863900  1.0  -0.107
  C  C1198  1  0.094200  0.096300  0.811000  1.0  -0.0969
  C  C1199  1  0.987300  0.215000  0.746500  1.0  0.7453
  C  C1200  1  0.131900  0.055500  0.873400  1.0  0.5457
  O  O1201  1  0.626300  0.198700  0.654800  1.0  -0.5333
  O  O1202  1  0.594000  0.211500  0.732900  1.0  -0.7218
  O  O1203  1  0.754100  0.056700  0.937600  1.0  -0.7157
  O  O1204  1  0.777800  0.033900  0.861000  1.0  -0.5853
  O  O1205  1  0.703800  0.356200  0.100000  1.0  -0.6208
  O  O1206  1  0.704700  0.384000  0.021400  1.0  -0.6113
  O  O1207  1  0.557300  0.201200  0.854200  1.0  -0.6568
  O  O1208  1  0.538200  0.184600  0.935700  1.0  -0.586
  O  O1209  1  0.447600  0.098800  0.891100  1.0  -0.5142
  O  O1210  1  0.469700  0.120800  0.966600  1.0  -0.5694
  O  O1211  1  0.306800  0.947000  0.140800  1.0  -0.6139
  O  O1212  1  0.279800  0.931000  0.061900  1.0  -0.6291
  O  O1213  1  0.770400  0.493100  0.523900  1.0  -0.6029
  O  O1214  1  0.772500  0.461900  0.448900  1.0  -0.6222
  O  O1215  1  0.596900  0.285900  0.595100  1.0  -0.5881
  O  O1216  1  0.620100  0.297600  0.673700  1.0  -0.6332
  O  O1217  1  0.626300  0.698700  0.154800  1.0  -0.5333
  O  O1218  1  0.594000  0.711500  0.232900  1.0  -0.7218
  O  O1219  1  0.754100  0.556700  0.437600  1.0  -0.7157
  O  O1220  1  0.777800  0.533900  0.361000  1.0  -0.5851
  O  O1221  1  0.703800  0.856200  0.600000  1.0  -0.6208
  O  O1222  1  0.704700  0.884000  0.521400  1.0  -0.6113
  O  O1223  1  0.557300  0.701200  0.354200  1.0  -0.6568
  O  O1224  1  0.538200  0.684600  0.435700  1.0  -0.586
  O  O1225  1  0.447600  0.598800  0.391100  1.0  -0.5142
  O  O1226  1  0.469700  0.620800  0.466600  1.0  -0.5694
  O  O1227  1  0.306800  0.447000  0.640800  1.0  -0.6139
  O  O1228  1  0.279800  0.431000  0.561900  1.0  -0.6291
  O  O1229  1  0.770400  0.993100  0.023900  1.0  -0.6029
  O  O1230  1  0.772500  0.961900  0.948900  1.0  -0.6222
  O  O1231  1  0.596900  0.785900  0.095100  1.0  -0.5881
  O  O1232  1  0.620100  0.797600  0.173700  1.0  -0.6332
  O  O1233  1  0.126300  0.198700  0.154800  1.0  -0.5333
  O  O1234  1  0.094000  0.211500  0.232900  1.0  -0.7218
  O  O1235  1  0.254100  0.056700  0.437600  1.0  -0.7157
  O  O1236  1  0.277800  0.033900  0.361000  1.0  -0.5853
  O  O1237  1  0.203800  0.356200  0.600000  1.0  -0.6208
  O  O1238  1  0.204700  0.384000  0.521400  1.0  -0.6113
  O  O1239  1  0.057300  0.201200  0.354200  1.0  -0.6568
  O  O1240  1  0.038200  0.184600  0.435700  1.0  -0.586
  O  O1241  1  0.947600  0.098800  0.391100  1.0  -0.5142
  O  O1242  1  0.969700  0.120800  0.466600  1.0  -0.5694
  O  O1243  1  0.806800  0.947000  0.640800  1.0  -0.6139
  O  O1244  1  0.779800  0.931000  0.561900  1.0  -0.6291
  O  O1245  1  0.270400  0.493100  0.023900  1.0  -0.6029
  O  O1246  1  0.272500  0.461900  0.948900  1.0  -0.6222
  O  O1247  1  0.096900  0.285900  0.095100  1.0  -0.5881
  O  O1248  1  0.120100  0.297600  0.173700  1.0  -0.6332
  O  O1249  1  0.126300  0.698700  0.654800  1.0  -0.5333
  O  O1250  1  0.094000  0.711500  0.732900  1.0  -0.7218
  O  O1251  1  0.254100  0.556700  0.937600  1.0  -0.7157
  O  O1252  1  0.277800  0.533900  0.861000  1.0  -0.5851
  O  O1253  1  0.203800  0.856200  0.100000  1.0  -0.6208
  O  O1254  1  0.204700  0.884000  0.021400  1.0  -0.6113
  O  O1255  1  0.057300  0.701200  0.854200  1.0  -0.6568
  O  O1256  1  0.038200  0.684600  0.935700  1.0  -0.586
  O  O1257  1  0.947600  0.598800  0.891100  1.0  -0.5142
  O  O1258  1  0.969700  0.620800  0.966600  1.0  -0.5694
  O  O1259  1  0.806800  0.447000  0.140800  1.0  -0.6139
  O  O1260  1  0.779800  0.431000  0.061900  1.0  -0.6291
  O  O1261  1  0.270400  0.993100  0.523900  1.0  -0.6029
  O  O1262  1  0.272500  0.961900  0.448900  1.0  -0.6222
  O  O1263  1  0.096900  0.785900  0.595100  1.0  -0.5881
  O  O1264  1  0.120100  0.797600  0.673700  1.0  -0.6332
  O  O1265  1  0.373700  0.801300  0.654800  1.0  -0.5339
  O  O1266  1  0.406000  0.788500  0.732900  1.0  -0.7196
  O  O1267  1  0.245900  0.943300  0.937600  1.0  -0.7161
  O  O1268  1  0.222200  0.966100  0.861000  1.0  -0.5856
  O  O1269  1  0.296200  0.643800  0.100000  1.0  -0.622
  O  O1270  1  0.295300  0.616000  0.021400  1.0  -0.611
  O  O1271  1  0.442700  0.798800  0.854200  1.0  -0.6567
  O  O1272  1  0.461800  0.815400  0.935700  1.0  -0.5841
  O  O1273  1  0.552400  0.901200  0.891100  1.0  -0.5151
  O  O1274  1  0.530300  0.879200  0.966600  1.0  -0.5687
  O  O1275  1  0.693200  0.053000  0.140800  1.0  -0.6145
  O  O1276  1  0.720200  0.069000  0.061900  1.0  -0.6282
  O  O1277  1  0.229600  0.506900  0.523900  1.0  -0.6029
  O  O1278  1  0.227500  0.538100  0.448900  1.0  -0.6223
  O  O1279  1  0.403100  0.714100  0.595100  1.0  -0.5896
  O  O1280  1  0.379900  0.702400  0.673700  1.0  -0.6342
  O  O1281  1  0.373700  0.301300  0.154800  1.0  -0.5339
  O  O1282  1  0.406000  0.288500  0.232900  1.0  -0.7196
  O  O1283  1  0.245900  0.443300  0.437600  1.0  -0.7161
  O  O1284  1  0.222200  0.466100  0.361000  1.0  -0.5856
  O  O1285  1  0.296200  0.143800  0.600000  1.0  -0.622
  O  O1286  1  0.295300  0.116000  0.521400  1.0  -0.611
  O  O1287  1  0.442700  0.298800  0.354200  1.0  -0.6567
  O  O1288  1  0.461800  0.315400  0.435700  1.0  -0.5841
  O  O1289  1  0.552400  0.401200  0.391100  1.0  -0.5151
  O  O1290  1  0.530300  0.379200  0.466600  1.0  -0.5687
  O  O1291  1  0.693200  0.553000  0.640800  1.0  -0.6145
  O  O1292  1  0.720200  0.569000  0.561900  1.0  -0.6282
  O  O1293  1  0.229600  0.006900  0.023900  1.0  -0.6029
  O  O1294  1  0.227500  0.038100  0.948900  1.0  -0.6223
  O  O1295  1  0.403100  0.214100  0.095100  1.0  -0.5896
  O  O1296  1  0.379900  0.202400  0.173700  1.0  -0.6342
  O  O1297  1  0.873700  0.801300  0.154800  1.0  -0.5339
  O  O1298  1  0.906000  0.788500  0.232900  1.0  -0.7196
  O  O1299  1  0.745900  0.943300  0.437600  1.0  -0.7161
  O  O1300  1  0.722200  0.966100  0.361000  1.0  -0.5856
  O  O1301  1  0.796200  0.643800  0.600000  1.0  -0.622
  O  O1302  1  0.795300  0.616000  0.521400  1.0  -0.611
  O  O1303  1  0.942700  0.798800  0.354200  1.0  -0.6567
  O  O1304  1  0.961800  0.815400  0.435700  1.0  -0.5841
  O  O1305  1  0.052400  0.901200  0.391100  1.0  -0.5151
  O  O1306  1  0.030300  0.879200  0.466600  1.0  -0.5687
  O  O1307  1  0.193200  0.053000  0.640800  1.0  -0.6145
  O  O1308  1  0.220200  0.069000  0.561900  1.0  -0.6282
  O  O1309  1  0.729600  0.506900  0.023900  1.0  -0.6029
  O  O1310  1  0.727500  0.538100  0.948900  1.0  -0.6223
  O  O1311  1  0.903100  0.714100  0.095100  1.0  -0.5896
  O  O1312  1  0.879900  0.702400  0.173700  1.0  -0.6342
  O  O1313  1  0.873700  0.301300  0.654800  1.0  -0.5339
  O  O1314  1  0.906000  0.288500  0.732900  1.0  -0.7196
  O  O1315  1  0.745900  0.443300  0.937600  1.0  -0.7161
  O  O1316  1  0.722200  0.466100  0.861000  1.0  -0.5856
  O  O1317  1  0.796200  0.143800  0.100000  1.0  -0.622
  O  O1318  1  0.795300  0.116000  0.021400  1.0  -0.611
  O  O1319  1  0.942700  0.298800  0.854200  1.0  -0.6567
  O  O1320  1  0.961800  0.315400  0.935700  1.0  -0.5841
  O  O1321  1  0.052400  0.401200  0.891100  1.0  -0.5151
  O  O1322  1  0.030300  0.379200  0.966600  1.0  -0.5687
  O  O1323  1  0.193200  0.553000  0.140800  1.0  -0.6145
  O  O1324  1  0.220200  0.569000  0.061900  1.0  -0.6282
  O  O1325  1  0.729600  0.006900  0.523900  1.0  -0.6029
  O  O1326  1  0.727500  0.038100  0.448900  1.0  -0.6223
  O  O1327  1  0.903100  0.214100  0.595100  1.0  -0.5896
  O  O1328  1  0.879900  0.202400  0.673700  1.0  -0.6342
  O  O1329  1  0.876300  0.051300  0.904800  1.0  -0.5332
  O  O1330  1  0.844000  0.038500  0.982900  1.0  -0.7221
  O  O1331  1  0.004100  0.193300  0.187600  1.0  -0.715
  O  O1332  1  0.027800  0.216100  0.111000  1.0  -0.5841
  O  O1333  1  0.953800  0.893800  0.350000  1.0  -0.6207
  O  O1334  1  0.954700  0.866000  0.271400  1.0  -0.6107
  O  O1335  1  0.807300  0.048800  0.104200  1.0  -0.6568
  O  O1336  1  0.788200  0.065400  0.185700  1.0  -0.5849
  O  O1337  1  0.697600  0.151200  0.141100  1.0  -0.5148
  O  O1338  1  0.719700  0.129200  0.216600  1.0  -0.5696
  O  O1339  1  0.556800  0.303000  0.390800  1.0  -0.6138
  O  O1340  1  0.529800  0.319000  0.311900  1.0  -0.6277
  O  O1341  1  0.020400  0.756900  0.773900  1.0  -0.6029
  O  O1342  1  0.022500  0.788100  0.698900  1.0  -0.6228
  O  O1343  1  0.846900  0.964100  0.845100  1.0  -0.5884
  O  O1344  1  0.870100  0.952400  0.923700  1.0  -0.6334
  O  O1345  1  0.876300  0.551300  0.404800  1.0  -0.5332
  O  O1346  1  0.844000  0.538500  0.482900  1.0  -0.7221
  O  O1347  1  0.004100  0.693300  0.687600  1.0  -0.715
  O  O1348  1  0.027800  0.716100  0.611000  1.0  -0.5841
  O  O1349  1  0.953800  0.393800  0.850000  1.0  -0.6207
  O  O1350  1  0.954700  0.366000  0.771400  1.0  -0.6107
  O  O1351  1  0.807300  0.548800  0.604200  1.0  -0.6568
  O  O1352  1  0.788200  0.565400  0.685700  1.0  -0.5849
  O  O1353  1  0.697600  0.651200  0.641100  1.0  -0.5148
  O  O1354  1  0.719700  0.629200  0.716600  1.0  -0.5696
  O  O1355  1  0.556800  0.803000  0.890800  1.0  -0.6138
  O  O1356  1  0.529800  0.819000  0.811900  1.0  -0.6277
  O  O1357  1  0.020400  0.256900  0.273900  1.0  -0.6029
  O  O1358  1  0.022500  0.288100  0.198900  1.0  -0.6228
  O  O1359  1  0.846900  0.464100  0.345100  1.0  -0.5884
  O  O1360  1  0.870100  0.452400  0.423700  1.0  -0.6334
  O  O1361  1  0.376300  0.051300  0.404800  1.0  -0.5332
  O  O1362  1  0.344000  0.038500  0.482900  1.0  -0.7221
  O  O1363  1  0.504100  0.193300  0.687600  1.0  -0.715
  O  O1364  1  0.527800  0.216100  0.611000  1.0  -0.5841
  O  O1365  1  0.453800  0.893800  0.850000  1.0  -0.6207
  O  O1366  1  0.454700  0.866000  0.771400  1.0  -0.6104
  O  O1367  1  0.307300  0.048800  0.604200  1.0  -0.6568
  O  O1368  1  0.288200  0.065400  0.685700  1.0  -0.5849
  O  O1369  1  0.197600  0.151200  0.641100  1.0  -0.5148
  O  O1370  1  0.219700  0.129200  0.716600  1.0  -0.5696
  O  O1371  1  0.056800  0.303000  0.890800  1.0  -0.6138
  O  O1372  1  0.029800  0.319000  0.811900  1.0  -0.6277
  O  O1373  1  0.520400  0.756900  0.273900  1.0  -0.6029
  O  O1374  1  0.522500  0.788100  0.198900  1.0  -0.6228
  O  O1375  1  0.346900  0.964100  0.345100  1.0  -0.5884
  O  O1376  1  0.370100  0.952400  0.423700  1.0  -0.6334
  O  O1377  1  0.376300  0.551300  0.904800  1.0  -0.5332
  O  O1378  1  0.344000  0.538500  0.982900  1.0  -0.7221
  O  O1379  1  0.504100  0.693300  0.187600  1.0  -0.715
  O  O1380  1  0.527800  0.716100  0.111000  1.0  -0.5841
  O  O1381  1  0.453800  0.393800  0.350000  1.0  -0.6207
  O  O1382  1  0.454700  0.366000  0.271400  1.0  -0.6104
  O  O1383  1  0.307300  0.548800  0.104200  1.0  -0.6568
  O  O1384  1  0.288200  0.565400  0.185700  1.0  -0.5849
  O  O1385  1  0.197600  0.651200  0.141100  1.0  -0.5148
  O  O1386  1  0.219700  0.629200  0.216600  1.0  -0.5696
  O  O1387  1  0.056800  0.803000  0.390800  1.0  -0.6138
  O  O1388  1  0.029800  0.819000  0.311900  1.0  -0.6277
  O  O1389  1  0.520400  0.256900  0.773900  1.0  -0.6029
  O  O1390  1  0.522500  0.288100  0.698900  1.0  -0.6228
  O  O1391  1  0.346900  0.464100  0.845100  1.0  -0.5884
  O  O1392  1  0.370100  0.452400  0.923700  1.0  -0.6334
  O  O1393  1  0.623700  0.448700  0.904800  1.0  -0.5341
  O  O1394  1  0.656000  0.461500  0.982900  1.0  -0.7197
  O  O1395  1  0.495900  0.306700  0.187600  1.0  -0.7168
  O  O1396  1  0.472200  0.283900  0.111000  1.0  -0.586
  O  O1397  1  0.546200  0.606200  0.350000  1.0  -0.6218
  O  O1398  1  0.545300  0.634000  0.271400  1.0  -0.6114
  O  O1399  1  0.692700  0.451200  0.104200  1.0  -0.6567
  O  O1400  1  0.711800  0.434600  0.185700  1.0  -0.5843
  O  O1401  1  0.802400  0.348800  0.141100  1.0  -0.5149
  O  O1402  1  0.780300  0.370800  0.216600  1.0  -0.5674
  O  O1403  1  0.943200  0.197000  0.390800  1.0  -0.6146
  O  O1404  1  0.970200  0.181000  0.311900  1.0  -0.6293
  O  O1405  1  0.479600  0.743100  0.773900  1.0  -0.6035
  O  O1406  1  0.477500  0.711900  0.698900  1.0  -0.6217
  O  O1407  1  0.653100  0.535900  0.845100  1.0  -0.5891
  O  O1408  1  0.629900  0.547600  0.923700  1.0  -0.6338
  O  O1409  1  0.623700  0.948700  0.404800  1.0  -0.5341
  O  O1410  1  0.656000  0.961500  0.482900  1.0  -0.7197
  O  O1411  1  0.495900  0.806700  0.687600  1.0  -0.7168
  O  O1412  1  0.472200  0.783900  0.611000  1.0  -0.586
  O  O1413  1  0.546200  0.106200  0.850000  1.0  -0.6218
  O  O1414  1  0.545300  0.134000  0.771400  1.0  -0.6114
  O  O1415  1  0.692700  0.951200  0.604200  1.0  -0.6567
  O  O1416  1  0.711800  0.934600  0.685700  1.0  -0.5843
  O  O1417  1  0.802400  0.848800  0.641100  1.0  -0.5149
  O  O1418  1  0.780300  0.870800  0.716600  1.0  -0.5674
  O  O1419  1  0.943200  0.697000  0.890800  1.0  -0.6146
  O  O1420  1  0.970200  0.681000  0.811900  1.0  -0.6293
  O  O1421  1  0.479600  0.243100  0.273900  1.0  -0.6035
  O  O1422  1  0.477500  0.211900  0.198900  1.0  -0.6217
  O  O1423  1  0.653100  0.035900  0.345100  1.0  -0.5891
  O  O1424  1  0.629900  0.047600  0.423700  1.0  -0.6338
  O  O1425  1  0.123700  0.448700  0.404800  1.0  -0.5341
  O  O1426  1  0.156000  0.461500  0.482900  1.0  -0.7197
  O  O1427  1  0.995900  0.306700  0.687600  1.0  -0.7168
  O  O1428  1  0.972200  0.283900  0.611000  1.0  -0.586
  O  O1429  1  0.046200  0.606200  0.850000  1.0  -0.6218
  O  O1430  1  0.045300  0.634000  0.771400  1.0  -0.6112
  O  O1431  1  0.192700  0.451200  0.604200  1.0  -0.6567
  O  O1432  1  0.211800  0.434600  0.685700  1.0  -0.5843
  O  O1433  1  0.302400  0.348800  0.641100  1.0  -0.5149
  O  O1434  1  0.280300  0.370800  0.716600  1.0  -0.5674
  O  O1435  1  0.443200  0.197000  0.890800  1.0  -0.6146
  O  O1436  1  0.470200  0.181000  0.811900  1.0  -0.6293
  O  O1437  1  0.979600  0.743100  0.273900  1.0  -0.6035
  O  O1438  1  0.977500  0.711900  0.198900  1.0  -0.6217
  O  O1439  1  0.153100  0.535900  0.345100  1.0  -0.5891
  O  O1440  1  0.129900  0.547600  0.423700  1.0  -0.6338
  O  O1441  1  0.123700  0.948700  0.904800  1.0  -0.5341
  O  O1442  1  0.156000  0.961500  0.982900  1.0  -0.7197
  O  O1443  1  0.995900  0.806700  0.187600  1.0  -0.7168
  O  O1444  1  0.972200  0.783900  0.111000  1.0  -0.586
  O  O1445  1  0.046200  0.106200  0.350000  1.0  -0.6218
  O  O1446  1  0.045300  0.134000  0.271400  1.0  -0.6112
  O  O1447  1  0.192700  0.951200  0.104200  1.0  -0.6567
  O  O1448  1  0.211800  0.934600  0.185700  1.0  -0.5843
  O  O1449  1  0.302400  0.848800  0.141100  1.0  -0.5149
  O  O1450  1  0.280300  0.870800  0.216600  1.0  -0.5674
  O  O1451  1  0.443200  0.697000  0.390800  1.0  -0.6146
  O  O1452  1  0.470200  0.681000  0.311900  1.0  -0.6293
  O  O1453  1  0.979600  0.243100  0.773900  1.0  -0.6035
  O  O1454  1  0.977500  0.211900  0.698900  1.0  -0.6217
  O  O1455  1  0.153100  0.035900  0.845100  1.0  -0.5891
  O  O1456  1  0.129900  0.047600  0.923700  1.0  -0.6338
