# generated using pymatgen
data_Zn7H144(C72O13)3
_symmetry_space_group_name_H-M   'P 1'
_cell_length_a   33.48000000
_cell_length_b   33.48000000
_cell_length_c   105.59000000
_cell_angle_alpha   90.00000000
_cell_angle_beta   90.00000000
_cell_angle_gamma   120.00000000
_symmetry_Int_Tables_number   1
_chemical_formula_structural   Zn7H144(C72O13)3
_chemical_formula_sum   'Zn84 H1728 C2592 O468'
_cell_volume   102500.10734569
_cell_formula_units_Z   12
loop_
 _symmetry_equiv_pos_site_id
 _symmetry_equiv_pos_as_xyz
  1  'x, y, z'
loop_
 _atom_site_type_symbol
 _atom_site_label
 _atom_site_symmetry_multiplicity
 _atom_site_fract_x
 _atom_site_fract_y
 _atom_site_fract_z
 _atom_site_occupancy
 _atom_site_charge
  Zn  Zn1  1  0.778980  0.401210  0.039620  1.0  1.0319
  Zn  Zn2  1  0.739100  0.441700  0.023400  1.0  1.0743
  Zn  Zn3  1  0.445650  0.734540  0.372950  1.0  1.032
  Zn  Zn4  1  0.405770  0.775030  0.356730  1.0  1.0734
  Zn  Zn5  1  0.112310  0.067880  0.706290  1.0  1.032
  Zn  Zn6  1  0.072430  0.108370  0.690070  1.0  1.074
  Zn  Zn7  1  0.598790  0.377770  0.039620  1.0  1.0323
  Zn  Zn8  1  0.558300  0.297400  0.023400  1.0  1.0744
  Zn  Zn9  1  0.265460  0.711100  0.372950  1.0  1.0323
  Zn  Zn10  1  0.224970  0.630730  0.356730  1.0  1.0734
  Zn  Zn11  1  0.932120  0.044440  0.706290  1.0  1.0323
  Zn  Zn12  1  0.891630  0.964070  0.690070  1.0  1.0742
  Zn  Zn13  1  0.622230  0.221020  0.039620  1.0  1.0303
  Zn  Zn14  1  0.702600  0.260900  0.023400  1.0  1.0742
  Zn  Zn15  1  0.288900  0.554350  0.372950  1.0  1.0303
  Zn  Zn16  1  0.369270  0.594230  0.356730  1.0  1.0732
  Zn  Zn17  1  0.955560  0.887690  0.706290  1.0  1.0303
  Zn  Zn18  1  0.035930  0.927570  0.690070  1.0  1.0739
  Zn  Zn19  1  0.598790  0.221020  0.539620  1.0  1.0309
  Zn  Zn20  1  0.558300  0.260900  0.523400  1.0  1.0756
  Zn  Zn21  1  0.265460  0.554350  0.872950  1.0  1.0309
  Zn  Zn22  1  0.224970  0.594230  0.856730  1.0  1.0747
  Zn  Zn23  1  0.932120  0.887690  0.206290  1.0  1.0309
  Zn  Zn24  1  0.891630  0.927570  0.190070  1.0  1.0753
  Zn  Zn25  1  0.622230  0.401210  0.539620  1.0  1.0307
  Zn  Zn26  1  0.702600  0.441700  0.523400  1.0  1.0742
  Zn  Zn27  1  0.288900  0.734540  0.872950  1.0  1.0307
  Zn  Zn28  1  0.369270  0.775030  0.856730  1.0  1.0732
  Zn  Zn29  1  0.955560  0.067880  0.206290  1.0  1.0307
  Zn  Zn30  1  0.035930  0.108370  0.190070  1.0  1.074
  Zn  Zn31  1  0.778980  0.377770  0.539620  1.0  1.0328
  Zn  Zn32  1  0.739100  0.297400  0.523400  1.0  1.0729
  Zn  Zn33  1  0.445650  0.711100  0.872950  1.0  1.0328
  Zn  Zn34  1  0.405770  0.630730  0.856730  1.0  1.072
  Zn  Zn35  1  0.112310  0.044440  0.206290  1.0  1.0327
  Zn  Zn36  1  0.072430  0.964070  0.190070  1.0  1.0727
  Zn  Zn37  1  0.666667  0.333333  0.042190  1.0  1.0515
  Zn  Zn38  1  0.333333  0.666667  0.375520  1.0  1.052
  Zn  Zn39  1  0.000000  0.000000  0.708860  1.0  1.0515
  Zn  Zn40  1  0.666667  0.333333  0.542190  1.0  1.0515
  Zn  Zn41  1  0.333333  0.666667  0.875520  1.0  1.052
  Zn  Zn42  1  0.000000  0.000000  0.208860  1.0  1.0515
  Zn  Zn43  1  0.401210  0.778980  0.460380  1.0  1.0307
  Zn  Zn44  1  0.441700  0.739100  0.476600  1.0  1.0748
  Zn  Zn45  1  0.067880  0.112310  0.793710  1.0  1.0307
  Zn  Zn46  1  0.108370  0.072430  0.809930  1.0  1.0746
  Zn  Zn47  1  0.734540  0.445650  0.127050  1.0  1.0307
  Zn  Zn48  1  0.775030  0.405770  0.143270  1.0  1.074
  Zn  Zn49  1  0.377770  0.598790  0.460380  1.0  1.0319
  Zn  Zn50  1  0.297400  0.558300  0.476600  1.0  1.0758
  Zn  Zn51  1  0.044440  0.932120  0.793710  1.0  1.032
  Zn  Zn52  1  0.964070  0.891630  0.809930  1.0  1.0756
  Zn  Zn53  1  0.711100  0.265460  0.127050  1.0  1.032
  Zn  Zn54  1  0.630730  0.224970  0.143270  1.0  1.0747
  Zn  Zn55  1  0.221020  0.622230  0.460380  1.0  1.0328
  Zn  Zn56  1  0.260900  0.702600  0.476600  1.0  1.0755
  Zn  Zn57  1  0.887690  0.955560  0.793710  1.0  1.0328
  Zn  Zn58  1  0.927570  0.035930  0.809930  1.0  1.0752
  Zn  Zn59  1  0.554350  0.288900  0.127050  1.0  1.0328
  Zn  Zn60  1  0.594230  0.369270  0.143270  1.0  1.0744
  Zn  Zn61  1  0.221020  0.598790  0.960380  1.0  1.0307
  Zn  Zn62  1  0.260900  0.558300  0.976600  1.0  1.0755
  Zn  Zn63  1  0.887690  0.932120  0.293710  1.0  1.0307
  Zn  Zn64  1  0.927570  0.891630  0.309930  1.0  1.0752
  Zn  Zn65  1  0.554350  0.265460  0.627050  1.0  1.0307
  Zn  Zn66  1  0.594230  0.224970  0.643270  1.0  1.0745
  Zn  Zn67  1  0.401210  0.622230  0.960380  1.0  1.033
  Zn  Zn68  1  0.441700  0.702600  0.976600  1.0  1.0741
  Zn  Zn69  1  0.067880  0.955560  0.293710  1.0  1.033
  Zn  Zn70  1  0.108370  0.035930  0.309930  1.0  1.0739
  Zn  Zn71  1  0.734540  0.288900  0.627050  1.0  1.033
  Zn  Zn72  1  0.775030  0.369270  0.643270  1.0  1.0731
  Zn  Zn73  1  0.377770  0.778980  0.960380  1.0  1.0312
  Zn  Zn74  1  0.297400  0.739100  0.976600  1.0  1.0768
  Zn  Zn75  1  0.044440  0.112310  0.293710  1.0  1.0312
  Zn  Zn76  1  0.964070  0.072430  0.309930  1.0  1.0765
  Zn  Zn77  1  0.711100  0.445650  0.627050  1.0  1.0312
  Zn  Zn78  1  0.630730  0.405770  0.643270  1.0  1.0758
  Zn  Zn79  1  0.333333  0.666667  0.457810  1.0  1.0525
  Zn  Zn80  1  0.000000  0.000000  0.791140  1.0  1.0525
  Zn  Zn81  1  0.666667  0.333333  0.124480  1.0  1.0522
  Zn  Zn82  1  0.333333  0.666667  0.957810  1.0  1.0525
  Zn  Zn83  1  0.000000  0.000000  0.291140  1.0  1.0525
  Zn  Zn84  1  0.666667  0.333333  0.624480  1.0  1.0522
  H  H85  1  0.840000  0.484500  0.994000  1.0  0.1077
  H  H86  1  0.890800  0.421900  0.015700  1.0  0.0855
  H  H87  1  0.838800  0.509400  0.067900  1.0  0.0872
  H  H88  1  0.787200  0.566000  0.043500  1.0  0.1079
  H  H89  1  0.895700  0.501100  0.979900  1.0  0.0914
  H  H90  1  0.947900  0.438000  0.001000  1.0  0.1246
  H  H91  1  0.870300  0.575800  0.080300  1.0  0.0971
  H  H92  1  0.813100  0.629400  0.057700  1.0  0.1053
  H  H93  1  0.992100  0.494100  0.981400  1.0  0.0658
  H  H94  1  0.955900  0.444600  0.975700  1.0  0.0811
  H  H95  1  0.875700  0.678100  0.073200  1.0  0.0699
  H  H96  1  0.831700  0.649600  0.082200  1.0  0.0652
  H  H97  1  0.023500  0.482900  0.964600  1.0  0.1011
  H  H98  1  0.875700  0.719800  0.089600  1.0  0.1053
  H  H99  1  0.087900  0.525900  0.951100  1.0  0.1105
  H  H100  1  0.918200  0.531300  0.952100  1.0  0.0914
  H  H101  1  0.915400  0.782100  0.104600  1.0  0.1032
  H  H102  1  0.928700  0.618400  0.101700  1.0  0.0899
  H  H103  1  0.033800  0.603500  0.923800  1.0  0.0979
  H  H104  1  0.998800  0.738800  0.130000  1.0  0.0983
  H  H105  1  0.859300  0.490600  0.935100  1.0  0.1212
  H  H106  1  0.929500  0.608500  0.960400  1.0  0.1177
  H  H107  1  0.005500  0.626500  0.095800  1.0  0.0736
  H  H108  1  0.881200  0.557900  0.119700  1.0  0.1023
  H  H109  1  0.106900  0.530900  0.928900  1.0  0.0853
  H  H110  1  0.136800  0.572900  0.938200  1.0  0.0933
  H  H111  1  0.972500  0.555000  0.904200  1.0  0.0898
  H  H112  1  0.047800  0.675000  0.929700  1.0  0.0981
  H  H113  1  0.848300  0.468500  0.911100  1.0  0.101
  H  H114  1  0.973300  0.686500  0.959700  1.0  0.0903
  H  H115  1  0.910400  0.797400  0.126000  1.0  0.0882
  H  H116  1  0.953200  0.837000  0.118300  1.0  0.0765
  H  H117  1  0.073400  0.746500  0.124400  1.0  0.1064
  H  H118  1  0.951800  0.679000  0.150000  1.0  0.1023
  H  H119  1  0.085400  0.669400  0.096300  1.0  0.0942
  H  H120  1  0.867300  0.543900  0.141700  1.0  0.087
  H  H121  1  0.899200  0.502900  0.898300  1.0  0.1053
  H  H122  1  0.028000  0.725900  0.941400  1.0  0.1094
  H  H123  1  0.116600  0.722600  0.112800  1.0  0.0921
  H  H124  1  0.896000  0.608100  0.156100  1.0  0.0777
  H  H125  1  0.114000  0.609200  0.911000  1.0  0.0836
  H  H126  1  0.208300  0.579000  0.924800  1.0  0.1134
  H  H127  1  0.935800  0.886500  0.136000  1.0  0.1265
  H  H128  1  0.987400  0.804500  0.144400  1.0  0.0791
  H  H129  1  0.161800  0.646700  0.893700  1.0  0.1323
  H  H130  1  0.252900  0.614300  0.907500  1.0  0.0792
  H  H131  1  0.959800  0.917200  0.156000  1.0  0.0803
  H  H132  1  0.028700  0.854000  0.162600  1.0  0.1124
  H  H133  1  0.506670  0.817830  0.327330  1.0  0.1077
  H  H134  1  0.557470  0.755230  0.349030  1.0  0.0855
  H  H135  1  0.505470  0.842730  0.401230  1.0  0.0872
  H  H136  1  0.453870  0.899330  0.376830  1.0  0.1079
  H  H137  1  0.562370  0.834430  0.313230  1.0  0.0914
  H  H138  1  0.614570  0.771330  0.334330  1.0  0.1246
  H  H139  1  0.536970  0.909130  0.413630  1.0  0.0971
  H  H140  1  0.479770  0.962730  0.391030  1.0  0.1053
  H  H141  1  0.658770  0.827430  0.314730  1.0  0.0659
  H  H142  1  0.622570  0.777930  0.309030  1.0  0.081
  H  H143  1  0.542370  0.011430  0.406530  1.0  0.0699
  H  H144  1  0.498370  0.982930  0.415530  1.0  0.0652
  H  H145  1  0.690170  0.816230  0.297930  1.0  0.101
  H  H146  1  0.542370  0.053130  0.422930  1.0  0.1053
  H  H147  1  0.754570  0.859230  0.284430  1.0  0.1105
  H  H148  1  0.584870  0.864630  0.285430  1.0  0.0914
  H  H149  1  0.582070  0.115430  0.437930  1.0  0.1032
  H  H150  1  0.595370  0.951730  0.435030  1.0  0.0899
  H  H151  1  0.700470  0.936830  0.257130  1.0  0.0978
  H  H152  1  0.665470  0.072130  0.463330  1.0  0.0983
  H  H153  1  0.525970  0.823930  0.268430  1.0  0.1214
  H  H154  1  0.596170  0.941830  0.293730  1.0  0.1177
  H  H155  1  0.672170  0.959830  0.429130  1.0  0.0736
  H  H156  1  0.547870  0.891230  0.453030  1.0  0.1023
  H  H157  1  0.773570  0.864230  0.262230  1.0  0.0853
  H  H158  1  0.803470  0.906230  0.271530  1.0  0.093
  H  H159  1  0.639170  0.888330  0.237530  1.0  0.0896
  H  H160  1  0.714470  0.008330  0.263030  1.0  0.0981
  H  H161  1  0.514970  0.801830  0.244430  1.0  0.1029
  H  H162  1  0.639970  0.019830  0.293030  1.0  0.0898
  H  H163  1  0.577070  0.130730  0.459330  1.0  0.0882
  H  H164  1  0.619870  0.170330  0.451630  1.0  0.0765
  H  H165  1  0.740070  0.079830  0.457730  1.0  0.1064
  H  H166  1  0.618470  0.012330  0.483330  1.0  0.1023
  H  H167  1  0.752070  0.002730  0.429630  1.0  0.0942
  H  H168  1  0.533970  0.877230  0.475030  1.0  0.087
  H  H169  1  0.565870  0.836230  0.231630  1.0  0.1053
  H  H170  1  0.694670  0.059230  0.274730  1.0  0.1098
  H  H171  1  0.783270  0.055930  0.446130  1.0  0.0921
  H  H172  1  0.562670  0.941430  0.489430  1.0  0.0777
  H  H173  1  0.780670  0.942530  0.244330  1.0  0.0838
  H  H174  1  0.874970  0.912330  0.258130  1.0  0.1145
  H  H175  1  0.602470  0.219830  0.469330  1.0  0.1265
  H  H176  1  0.654070  0.137830  0.477730  1.0  0.0791
  H  H177  1  0.828470  0.980030  0.227030  1.0  0.1324
  H  H178  1  0.919570  0.947630  0.240830  1.0  0.0819
  H  H179  1  0.626470  0.250530  0.489330  1.0  0.0803
  H  H180  1  0.695370  0.187330  0.495930  1.0  0.1126
  H  H181  1  0.173330  0.151170  0.660670  1.0  0.1078
  H  H182  1  0.224130  0.088570  0.682370  1.0  0.0855
  H  H183  1  0.172130  0.176070  0.734570  1.0  0.0872
  H  H184  1  0.120530  0.232670  0.710170  1.0  0.108
  H  H185  1  0.229030  0.167770  0.646570  1.0  0.0914
  H  H186  1  0.281230  0.104670  0.667670  1.0  0.1246
  H  H187  1  0.203630  0.242470  0.746970  1.0  0.0971
  H  H188  1  0.146430  0.296070  0.724370  1.0  0.1059
  H  H189  1  0.325430  0.160770  0.648070  1.0  0.0659
  H  H190  1  0.289230  0.111270  0.642370  1.0  0.0811
  H  H191  1  0.209030  0.344770  0.739870  1.0  0.0698
  H  H192  1  0.165030  0.316270  0.748870  1.0  0.0649
  H  H193  1  0.356830  0.149570  0.631270  1.0  0.1011
  H  H194  1  0.209030  0.386470  0.756270  1.0  0.1056
  H  H195  1  0.421230  0.192570  0.617770  1.0  0.1105
  H  H196  1  0.251530  0.197970  0.618770  1.0  0.0914
  H  H197  1  0.248730  0.448770  0.771270  1.0  0.1032
  H  H198  1  0.262030  0.285070  0.768370  1.0  0.0898
  H  H199  1  0.367130  0.270170  0.590470  1.0  0.0979
  H  H200  1  0.332130  0.405470  0.796670  1.0  0.0983
  H  H201  1  0.192630  0.157270  0.601770  1.0  0.1212
  H  H202  1  0.262830  0.275170  0.627070  1.0  0.1178
  H  H203  1  0.338830  0.293170  0.762470  1.0  0.0736
  H  H204  1  0.214530  0.224570  0.786370  1.0  0.1026
  H  H205  1  0.440230  0.197570  0.595570  1.0  0.0853
  H  H206  1  0.470130  0.239570  0.604870  1.0  0.0933
  H  H207  1  0.305830  0.221670  0.570870  1.0  0.0898
  H  H208  1  0.381130  0.341670  0.596370  1.0  0.0981
  H  H209  1  0.181630  0.135170  0.577770  1.0  0.101
  H  H210  1  0.306630  0.353170  0.626370  1.0  0.0898
  H  H211  1  0.243730  0.464070  0.792670  1.0  0.0881
  H  H212  1  0.286530  0.503670  0.784970  1.0  0.0735
  H  H213  1  0.406730  0.413170  0.791070  1.0  0.1064
  H  H214  1  0.285130  0.345670  0.816670  1.0  0.1022
  H  H215  1  0.418730  0.336070  0.762970  1.0  0.0941
  H  H216  1  0.200630  0.210570  0.808370  1.0  0.0869
  H  H217  1  0.232530  0.169570  0.564970  1.0  0.1056
  H  H218  1  0.361330  0.392570  0.608070  1.0  0.1094
  H  H219  1  0.449930  0.389270  0.779470  1.0  0.0921
  H  H220  1  0.229330  0.274770  0.822770  1.0  0.0773
  H  H221  1  0.447330  0.275870  0.577670  1.0  0.0836
  H  H222  1  0.541630  0.245670  0.591470  1.0  0.1134
  H  H223  1  0.269130  0.553170  0.802670  1.0  0.1265
  H  H224  1  0.320730  0.471170  0.811070  1.0  0.0792
  H  H225  1  0.495130  0.313370  0.560370  1.0  0.1323
  H  H226  1  0.586230  0.280970  0.574170  1.0  0.0792
  H  H227  1  0.293130  0.583870  0.822670  1.0  0.0803
  H  H228  1  0.362030  0.520670  0.829270  1.0  0.1125
  H  H229  1  0.515500  0.355500  0.994000  1.0  0.1067
  H  H230  1  0.578100  0.468900  0.015700  1.0  0.0859
  H  H231  1  0.490600  0.329400  0.067900  1.0  0.0873
  H  H232  1  0.434000  0.221200  0.043500  1.0  0.1078
  H  H233  1  0.498900  0.394600  0.979900  1.0  0.0913
  H  H234  1  0.562000  0.509900  0.001000  1.0  0.1236
  H  H235  1  0.424200  0.294500  0.080300  1.0  0.0971
  H  H236  1  0.370600  0.183700  0.057700  1.0  0.1052
  H  H237  1  0.505900  0.498000  0.981400  1.0  0.0641
  H  H238  1  0.555400  0.511300  0.975700  1.0  0.0821
  H  H239  1  0.321900  0.197600  0.073200  1.0  0.069
  H  H240  1  0.350400  0.182100  0.082200  1.0  0.0647
  H  H241  1  0.517100  0.540600  0.964600  1.0  0.1003
  H  H242  1  0.280200  0.155900  0.089600  1.0  0.1066
  H  H243  1  0.474100  0.562000  0.951100  1.0  0.1108
  H  H244  1  0.468700  0.386900  0.952100  1.0  0.0905
  H  H245  1  0.217900  0.133300  0.104600  1.0  0.1027
  H  H246  1  0.381600  0.310300  0.101700  1.0  0.0893
  H  H247  1  0.396500  0.430300  0.923800  1.0  0.0996
  H  H248  1  0.261200  0.260000  0.130000  1.0  0.0972
  H  H249  1  0.509400  0.368700  0.935100  1.0  0.1237
  H  H250  1  0.391500  0.321000  0.960400  1.0  0.1171
  H  H251  1  0.373500  0.379000  0.095800  1.0  0.0719
  H  H252  1  0.442100  0.323300  0.119700  1.0  0.1028
  H  H253  1  0.469100  0.576000  0.928900  1.0  0.0861
  H  H254  1  0.427100  0.563900  0.938200  1.0  0.094
  H  H255  1  0.445000  0.417500  0.904200  1.0  0.0896
  H  H256  1  0.325000  0.372800  0.929700  1.0  0.0973
  H  H257  1  0.531500  0.379800  0.911100  1.0  0.1017
  H  H258  1  0.313500  0.286800  0.959700  1.0  0.0901
  H  H259  1  0.202600  0.113000  0.126000  1.0  0.0918
  H  H260  1  0.163000  0.116200  0.118300  1.0  0.0758
  H  H261  1  0.253500  0.326900  0.124400  1.0  0.1071
  H  H262  1  0.321000  0.272800  0.150000  1.0  0.1037
  H  H263  1  0.330600  0.416000  0.096300  1.0  0.0958
  H  H264  1  0.456100  0.323400  0.141700  1.0  0.0881
  H  H265  1  0.497100  0.396300  0.898300  1.0  0.1082
  H  H266  1  0.274100  0.302100  0.941400  1.0  0.1115
  H  H267  1  0.277400  0.394000  0.112800  1.0  0.091
  H  H268  1  0.391900  0.287900  0.156100  1.0  0.08
  H  H269  1  0.390800  0.504800  0.911000  1.0  0.0836
  H  H270  1  0.421000  0.629300  0.924800  1.0  0.1145
  H  H271  1  0.113500  0.049300  0.136000  1.0  0.1258
  H  H272  1  0.195500  0.182900  0.144400  1.0  0.0797
  H  H273  1  0.353300  0.515100  0.893700  1.0  0.1314
  H  H274  1  0.385700  0.638600  0.907500  1.0  0.0814
  H  H275  1  0.082800  0.042600  0.156000  1.0  0.0781
  H  H276  1  0.146000  0.174700  0.162600  1.0  0.1141
  H  H277  1  0.182170  0.688830  0.327330  1.0  0.1067
  H  H278  1  0.244770  0.802230  0.349030  1.0  0.0859
  H  H279  1  0.157270  0.662730  0.401230  1.0  0.0873
  H  H280  1  0.100670  0.554530  0.376830  1.0  0.1078
  H  H281  1  0.165570  0.727930  0.313230  1.0  0.0913
  H  H282  1  0.228670  0.843230  0.334330  1.0  0.1236
  H  H283  1  0.090870  0.627830  0.413630  1.0  0.0971
  H  H284  1  0.037270  0.517030  0.391030  1.0  0.1052
  H  H285  1  0.172570  0.831330  0.314730  1.0  0.0641
  H  H286  1  0.222070  0.844630  0.309030  1.0  0.0818
  H  H287  1  0.988570  0.530930  0.406530  1.0  0.069
  H  H288  1  0.017070  0.515430  0.415530  1.0  0.0647
  H  H289  1  0.183770  0.873930  0.297930  1.0  0.1003
  H  H290  1  0.946870  0.489230  0.422930  1.0  0.1066
  H  H291  1  0.140770  0.895330  0.284430  1.0  0.1108
  H  H292  1  0.135370  0.720230  0.285430  1.0  0.0905
  H  H293  1  0.884570  0.466630  0.437930  1.0  0.1027
  H  H294  1  0.048270  0.643630  0.435030  1.0  0.0893
  H  H295  1  0.063170  0.763630  0.257130  1.0  0.0995
  H  H296  1  0.927870  0.593330  0.463330  1.0  0.0972
  H  H297  1  0.176070  0.702030  0.268430  1.0  0.1238
  H  H298  1  0.058170  0.654330  0.293730  1.0  0.1171
  H  H299  1  0.040170  0.712330  0.429130  1.0  0.0719
  H  H300  1  0.108770  0.656630  0.453030  1.0  0.1028
  H  H301  1  0.135770  0.909330  0.262230  1.0  0.0861
  H  H302  1  0.093770  0.897230  0.271530  1.0  0.0937
  H  H303  1  0.111670  0.750830  0.237530  1.0  0.0896
  H  H304  1  0.991670  0.706130  0.263030  1.0  0.0973
  H  H305  1  0.198170  0.713130  0.244430  1.0  0.1019
  H  H306  1  0.980170  0.620130  0.293030  1.0  0.0901
  H  H307  1  0.869270  0.446330  0.459330  1.0  0.0918
  H  H308  1  0.829670  0.449530  0.451630  1.0  0.0758
  H  H309  1  0.920170  0.660230  0.457730  1.0  0.1071
  H  H310  1  0.987670  0.606130  0.483330  1.0  0.1037
  H  H311  1  0.997270  0.749330  0.429630  1.0  0.0958
  H  H312  1  0.122770  0.656730  0.475030  1.0  0.0881
  H  H313  1  0.163770  0.729630  0.231630  1.0  0.1083
  H  H314  1  0.940770  0.635430  0.274730  1.0  0.1117
  H  H315  1  0.944070  0.727330  0.446130  1.0  0.091
  H  H316  1  0.058570  0.621230  0.489430  1.0  0.0803
  H  H317  1  0.057470  0.838130  0.244330  1.0  0.0836
  H  H318  1  0.087670  0.962630  0.258130  1.0  0.113
  H  H319  1  0.780170  0.382630  0.469330  1.0  0.1258
  H  H320  1  0.862170  0.516230  0.477730  1.0  0.0797
  H  H321  1  0.019970  0.848430  0.227030  1.0  0.1319
  H  H322  1  0.052370  0.971930  0.240830  1.0  0.077
  H  H323  1  0.749470  0.375930  0.489330  1.0  0.0781
  H  H324  1  0.812670  0.508030  0.495930  1.0  0.1141
  H  H325  1  0.848830  0.022170  0.660670  1.0  0.1067
  H  H326  1  0.911430  0.135570  0.682370  1.0  0.0859
  H  H327  1  0.823930  0.996070  0.734570  1.0  0.0875
  H  H328  1  0.767330  0.887870  0.710170  1.0  0.108
  H  H329  1  0.832230  0.061270  0.646570  1.0  0.0913
  H  H330  1  0.895330  0.176570  0.667670  1.0  0.1236
  H  H331  1  0.757530  0.961170  0.746970  1.0  0.0971
  H  H332  1  0.703930  0.850370  0.724370  1.0  0.1056
  H  H333  1  0.839230  0.164670  0.648070  1.0  0.0641
  H  H334  1  0.888730  0.177970  0.642370  1.0  0.0821
  H  H335  1  0.655230  0.864270  0.739870  1.0  0.069
  H  H336  1  0.683730  0.848770  0.748870  1.0  0.0648
  H  H337  1  0.850430  0.207270  0.631270  1.0  0.1003
  H  H338  1  0.613530  0.822570  0.756270  1.0  0.1063
  H  H339  1  0.807430  0.228670  0.617770  1.0  0.1108
  H  H340  1  0.802030  0.053570  0.618770  1.0  0.0905
  H  H341  1  0.551230  0.799970  0.771270  1.0  0.1028
  H  H342  1  0.714930  0.976970  0.768370  1.0  0.0893
  H  H343  1  0.729830  0.096970  0.590470  1.0  0.0996
  H  H344  1  0.594530  0.926670  0.796670  1.0  0.0972
  H  H345  1  0.842730  0.035370  0.601770  1.0  0.1237
  H  H346  1  0.724830  0.987670  0.627070  1.0  0.1171
  H  H347  1  0.706830  0.045670  0.762470  1.0  0.0719
  H  H348  1  0.775430  0.989970  0.786370  1.0  0.1028
  H  H349  1  0.802430  0.242670  0.595570  1.0  0.0861
  H  H350  1  0.760430  0.230570  0.604870  1.0  0.094
  H  H351  1  0.778330  0.084170  0.570870  1.0  0.0896
  H  H352  1  0.658330  0.039470  0.596370  1.0  0.0973
  H  H353  1  0.864830  0.046470  0.577770  1.0  0.1017
  H  H354  1  0.646830  0.953470  0.626370  1.0  0.0902
  H  H355  1  0.535930  0.779670  0.792670  1.0  0.0917
  H  H356  1  0.496330  0.782870  0.784970  1.0  0.0765
  H  H357  1  0.586830  0.993570  0.791070  1.0  0.1071
  H  H358  1  0.654330  0.939470  0.816670  1.0  0.1037
  H  H359  1  0.663930  0.082670  0.762970  1.0  0.0958
  H  H360  1  0.789430  0.990070  0.808370  1.0  0.0883
  H  H361  1  0.830430  0.062970  0.564970  1.0  0.106
  H  H362  1  0.607430  0.968770  0.608070  1.0  0.1115
  H  H363  1  0.610730  0.060670  0.779470  1.0  0.091
  H  H364  1  0.725230  0.954570  0.822770  1.0  0.0799
  H  H365  1  0.724130  0.171470  0.577670  1.0  0.0836
  H  H366  1  0.754330  0.295970  0.591470  1.0  0.1145
  H  H367  1  0.446830  0.715970  0.802670  1.0  0.1257
  H  H368  1  0.528830  0.849570  0.811070  1.0  0.0797
  H  H369  1  0.686630  0.181770  0.560370  1.0  0.1314
  H  H370  1  0.719030  0.305270  0.574170  1.0  0.0814
  H  H371  1  0.416130  0.709270  0.822670  1.0  0.0781
  H  H372  1  0.479330  0.841370  0.829270  1.0  0.1141
  H  H373  1  0.644500  0.160000  0.994000  1.0  0.1072
  H  H374  1  0.531100  0.109200  0.015700  1.0  0.086
  H  H375  1  0.670600  0.161200  0.067900  1.0  0.0873
  H  H376  1  0.778800  0.212800  0.043500  1.0  0.1084
  H  H377  1  0.605400  0.104300  0.979900  1.0  0.0906
  H  H378  1  0.490100  0.052100  0.001000  1.0  0.1242
  H  H379  1  0.705500  0.129700  0.080300  1.0  0.0964
  H  H380  1  0.816300  0.186900  0.057700  1.0  0.1058
  H  H381  1  0.502000  0.007900  0.981400  1.0  0.0672
  H  H382  1  0.488700  0.044100  0.975700  1.0  0.0799
  H  H383  1  0.802400  0.124300  0.073200  1.0  0.069
  H  H384  1  0.817900  0.168300  0.082200  1.0  0.0635
  H  H385  1  0.459400  0.976500  0.964600  1.0  0.101
  H  H386  1  0.844100  0.124300  0.089600  1.0  0.1045
  H  H387  1  0.438000  0.912100  0.951100  1.0  0.1111
  H  H388  1  0.613100  0.081800  0.952100  1.0  0.0897
  H  H389  1  0.866700  0.084600  0.104600  1.0  0.1025
  H  H390  1  0.689700  0.071300  0.101700  1.0  0.0889
  H  H391  1  0.569700  0.966200  0.923800  1.0  0.1
  H  H392  1  0.740000  0.001200  0.130000  1.0  0.0981
  H  H393  1  0.631300  0.140700  0.935100  1.0  0.1222
  H  H394  1  0.679000  0.070500  0.960400  1.0  0.1156
  H  H395  1  0.621000  0.994500  0.095800  1.0  0.073
  H  H396  1  0.676700  0.118800  0.119700  1.0  0.1025
  H  H397  1  0.424000  0.893100  0.928900  1.0  0.0849
  H  H398  1  0.436100  0.863200  0.938200  1.0  0.095
  H  H399  1  0.582500  0.027500  0.904200  1.0  0.09
  H  H400  1  0.627200  0.952200  0.929700  1.0  0.0998
  H  H401  1  0.620200  0.151700  0.911100  1.0  0.105
  H  H402  1  0.713200  0.026700  0.959700  1.0  0.0891
  H  H403  1  0.887000  0.089600  0.126000  1.0  0.0886
  H  H404  1  0.883800  0.046800  0.118300  1.0  0.0747
  H  H405  1  0.673100  0.926600  0.124400  1.0  0.1082
  H  H406  1  0.727200  0.048200  0.150000  1.0  0.1032
  H  H407  1  0.584000  0.914600  0.096300  1.0  0.0972
  H  H408  1  0.676600  0.132700  0.141700  1.0  0.088
  H  H409  1  0.603700  0.100800  0.898300  1.0  0.1051
  H  H410  1  0.697900  0.972000  0.941400  1.0  0.1108
  H  H411  1  0.606000  0.883400  0.112800  1.0  0.0946
  H  H412  1  0.712100  0.104000  0.156100  1.0  0.0801
  H  H413  1  0.495200  0.886000  0.911000  1.0  0.0828
  H  H414  1  0.370700  0.791700  0.924800  1.0  0.1138
  H  H415  1  0.950700  0.064200  0.136000  1.0  0.1254
  H  H416  1  0.817100  0.012600  0.144400  1.0  0.0819
  H  H417  1  0.484900  0.838200  0.893700  1.0  0.1311
  H  H418  1  0.361400  0.747100  0.907500  1.0  0.0775
  H  H419  1  0.957400  0.040200  0.156000  1.0  0.0793
  H  H420  1  0.825300  0.971300  0.162600  1.0  0.1136
  H  H421  1  0.311170  0.493330  0.327330  1.0  0.1072
  H  H422  1  0.197770  0.442530  0.349030  1.0  0.086
  H  H423  1  0.337270  0.494530  0.401230  1.0  0.0873
  H  H424  1  0.445470  0.546130  0.376830  1.0  0.1084
  H  H425  1  0.272070  0.437630  0.313230  1.0  0.0906
  H  H426  1  0.156770  0.385430  0.334330  1.0  0.1242
  H  H427  1  0.372170  0.463030  0.413630  1.0  0.0964
  H  H428  1  0.482970  0.520230  0.391030  1.0  0.1058
  H  H429  1  0.168670  0.341230  0.314730  1.0  0.0672
  H  H430  1  0.155370  0.377430  0.309030  1.0  0.08
  H  H431  1  0.469070  0.457630  0.406530  1.0  0.069
  H  H432  1  0.484570  0.501630  0.415530  1.0  0.0635
  H  H433  1  0.126070  0.309830  0.297930  1.0  0.1013
  H  H434  1  0.510770  0.457630  0.422930  1.0  0.1045
  H  H435  1  0.104670  0.245430  0.284430  1.0  0.1111
  H  H436  1  0.279770  0.415130  0.285430  1.0  0.0897
  H  H437  1  0.533370  0.417930  0.437930  1.0  0.1025
  H  H438  1  0.356370  0.404630  0.435030  1.0  0.0889
  H  H439  1  0.236370  0.299530  0.257130  1.0  0.1
  H  H440  1  0.406670  0.334530  0.463330  1.0  0.0981
  H  H441  1  0.297970  0.474030  0.268430  1.0  0.1222
  H  H442  1  0.345670  0.403830  0.293730  1.0  0.1155
  H  H443  1  0.287670  0.327830  0.429130  1.0  0.073
  H  H444  1  0.343370  0.452130  0.453030  1.0  0.1025
  H  H445  1  0.090670  0.226430  0.262230  1.0  0.0849
  H  H446  1  0.102770  0.196530  0.271530  1.0  0.0948
  H  H447  1  0.249170  0.360830  0.237530  1.0  0.09
  H  H448  1  0.293870  0.285530  0.263030  1.0  0.0984
  H  H449  1  0.286870  0.485030  0.244430  1.0  0.1014
  H  H450  1  0.379870  0.360030  0.293030  1.0  0.0892
  H  H451  1  0.553670  0.422930  0.459330  1.0  0.0886
  H  H452  1  0.550470  0.380130  0.451630  1.0  0.0747
  H  H453  1  0.339770  0.259930  0.457730  1.0  0.1082
  H  H454  1  0.393870  0.381530  0.483330  1.0  0.1032
  H  H455  1  0.250670  0.247930  0.429630  1.0  0.0972
  H  H456  1  0.343270  0.466030  0.475030  1.0  0.0879
  H  H457  1  0.270370  0.434130  0.231630  1.0  0.1051
  H  H458  1  0.364570  0.305330  0.274730  1.0  0.1112
  H  H459  1  0.272670  0.216730  0.446130  1.0  0.0946
  H  H460  1  0.378770  0.437330  0.489430  1.0  0.0799
  H  H461  1  0.161870  0.219330  0.244330  1.0  0.0827
  H  H462  1  0.037370  0.125030  0.258130  1.0  0.1126
  H  H463  1  0.617370  0.397530  0.469330  1.0  0.1254
  H  H464  1  0.483770  0.345930  0.477730  1.0  0.0819
  H  H465  1  0.151570  0.171530  0.227030  1.0  0.1316
  H  H466  1  0.028070  0.080430  0.240830  1.0  0.0815
  H  H467  1  0.624070  0.373530  0.489330  1.0  0.0793
  H  H468  1  0.491970  0.304630  0.495930  1.0  0.1137
  H  H469  1  0.977830  0.826670  0.660670  1.0  0.1072
  H  H470  1  0.864430  0.775870  0.682370  1.0  0.086
  H  H471  1  0.003930  0.827870  0.734570  1.0  0.0873
  H  H472  1  0.112130  0.879470  0.710170  1.0  0.1086
  H  H473  1  0.938730  0.770970  0.646570  1.0  0.0906
  H  H474  1  0.823430  0.718770  0.667670  1.0  0.1242
  H  H475  1  0.038830  0.796370  0.746970  1.0  0.0965
  H  H476  1  0.149630  0.853570  0.724370  1.0  0.1066
  H  H477  1  0.835330  0.674570  0.648070  1.0  0.0673
  H  H478  1  0.822030  0.710770  0.642370  1.0  0.0799
  H  H479  1  0.135730  0.790970  0.739870  1.0  0.069
  H  H480  1  0.151230  0.834970  0.748870  1.0  0.0632
  H  H481  1  0.792730  0.643170  0.631270  1.0  0.101
  H  H482  1  0.177430  0.790970  0.756270  1.0  0.1045
  H  H483  1  0.771330  0.578770  0.617770  1.0  0.1111
  H  H484  1  0.946430  0.748470  0.618770  1.0  0.0897
  H  H485  1  0.200030  0.751270  0.771270  1.0  0.1025
  H  H486  1  0.023030  0.737970  0.768370  1.0  0.0889
  H  H487  1  0.903030  0.632870  0.590470  1.0  0.1
  H  H488  1  0.073330  0.667870  0.796670  1.0  0.0981
  H  H489  1  0.964630  0.807370  0.601770  1.0  0.1222
  H  H490  1  0.012330  0.737170  0.627070  1.0  0.1157
  H  H491  1  0.954330  0.661170  0.762470  1.0  0.073
  H  H492  1  0.010030  0.785470  0.786370  1.0  0.1025
  H  H493  1  0.757330  0.559770  0.595570  1.0  0.0849
  H  H494  1  0.769430  0.529870  0.604870  1.0  0.095
  H  H495  1  0.915830  0.694170  0.570870  1.0  0.09
  H  H496  1  0.960530  0.618870  0.596370  1.0  0.0998
  H  H497  1  0.953530  0.818370  0.577770  1.0  0.1047
  H  H498  1  0.046530  0.693370  0.626370  1.0  0.0892
  H  H499  1  0.220330  0.756270  0.792670  1.0  0.0885
  H  H500  1  0.217130  0.713470  0.784970  1.0  0.0761
  H  H501  1  0.006430  0.593270  0.791070  1.0  0.1082
  H  H502  1  0.060530  0.714870  0.816670  1.0  0.1031
  H  H503  1  0.917330  0.581270  0.762970  1.0  0.0972
  H  H504  1  0.009930  0.799370  0.808370  1.0  0.0879
  H  H505  1  0.937030  0.767470  0.564970  1.0  0.1051
  H  H506  1  0.031230  0.638670  0.608070  1.0  0.1108
  H  H507  1  0.939330  0.550070  0.779470  1.0  0.0945
  H  H508  1  0.045430  0.770670  0.822770  1.0  0.0799
  H  H509  1  0.828530  0.552670  0.577670  1.0  0.0828
  H  H510  1  0.704030  0.458370  0.591470  1.0  0.1138
  H  H511  1  0.284030  0.730870  0.802670  1.0  0.1253
  H  H512  1  0.150430  0.679270  0.811070  1.0  0.082
  H  H513  1  0.818230  0.504870  0.560370  1.0  0.1311
  H  H514  1  0.694730  0.413770  0.574170  1.0  0.0775
  H  H515  1  0.290730  0.706870  0.822670  1.0  0.0793
  H  H516  1  0.158630  0.637970  0.829270  1.0  0.1137
  H  H517  1  0.515500  0.160000  0.494000  1.0  0.1072
  H  H518  1  0.578100  0.109200  0.515700  1.0  0.085
  H  H519  1  0.490600  0.161200  0.567900  1.0  0.0875
  H  H520  1  0.434000  0.212800  0.543500  1.0  0.1082
  H  H521  1  0.498900  0.104300  0.479900  1.0  0.0909
  H  H522  1  0.562000  0.052100  0.501000  1.0  0.1243
  H  H523  1  0.424200  0.129700  0.580300  1.0  0.096
  H  H524  1  0.370600  0.186900  0.557700  1.0  0.1058
  H  H525  1  0.505900  0.007900  0.481400  1.0  0.0667
  H  H526  1  0.555400  0.044100  0.475700  1.0  0.0807
  H  H527  1  0.321900  0.124300  0.573200  1.0  0.0691
  H  H528  1  0.350400  0.168300  0.582200  1.0  0.0641
  H  H529  1  0.517100  0.976500  0.464600  1.0  0.1012
  H  H530  1  0.280200  0.124300  0.589600  1.0  0.1047
  H  H531  1  0.474100  0.912100  0.451100  1.0  0.1109
  H  H532  1  0.468700  0.081800  0.452100  1.0  0.0906
  H  H533  1  0.217900  0.084600  0.604600  1.0  0.1026
  H  H534  1  0.381600  0.071300  0.601700  1.0  0.0888
  H  H535  1  0.396500  0.966200  0.423800  1.0  0.0997
  H  H536  1  0.261200  0.001200  0.630000  1.0  0.0979
  H  H537  1  0.509400  0.140700  0.435100  1.0  0.1225
  H  H538  1  0.391500  0.070500  0.460400  1.0  0.1163
  H  H539  1  0.373500  0.994500  0.595800  1.0  0.0728
  H  H540  1  0.442100  0.118800  0.619700  1.0  0.1026
  H  H541  1  0.469100  0.893100  0.428900  1.0  0.0871
  H  H542  1  0.427100  0.863200  0.438200  1.0  0.0946
  H  H543  1  0.445000  0.027500  0.404200  1.0  0.0899
  H  H544  1  0.325000  0.952200  0.429700  1.0  0.0983
  H  H545  1  0.531500  0.151700  0.411100  1.0  0.1015
  H  H546  1  0.313500  0.026700  0.459700  1.0  0.0897
  H  H547  1  0.202600  0.089600  0.626000  1.0  0.0893
  H  H548  1  0.163000  0.046800  0.618300  1.0  0.077
  H  H549  1  0.253500  0.926600  0.624400  1.0  0.1081
  H  H550  1  0.321000  0.048200  0.650000  1.0  0.1031
  H  H551  1  0.330600  0.914600  0.596300  1.0  0.0971
  H  H552  1  0.456100  0.132700  0.641700  1.0  0.0879
  H  H553  1  0.497100  0.100800  0.398300  1.0  0.1045
  H  H554  1  0.274100  0.972000  0.441400  1.0  0.1097
  H  H555  1  0.277400  0.883400  0.612800  1.0  0.0945
  H  H556  1  0.391900  0.104000  0.656100  1.0  0.0801
  H  H557  1  0.390800  0.886000  0.411000  1.0  0.0833
  H  H558  1  0.421000  0.791700  0.424800  1.0  0.1134
  H  H559  1  0.113500  0.064200  0.636000  1.0  0.1257
  H  H560  1  0.195500  0.012600  0.644400  1.0  0.0817
  H  H561  1  0.353300  0.838200  0.393700  1.0  0.1317
  H  H562  1  0.385700  0.747100  0.407500  1.0  0.0787
  H  H563  1  0.082800  0.040200  0.656000  1.0  0.0786
  H  H564  1  0.146000  0.971300  0.662600  1.0  0.1138
  H  H565  1  0.182170  0.493330  0.827330  1.0  0.1072
  H  H566  1  0.244770  0.442530  0.849030  1.0  0.085
  H  H567  1  0.157270  0.494530  0.901230  1.0  0.0875
  H  H568  1  0.100670  0.546130  0.876830  1.0  0.1082
  H  H569  1  0.165570  0.437630  0.813230  1.0  0.0909
  H  H570  1  0.228670  0.385430  0.834330  1.0  0.1243
  H  H571  1  0.090870  0.463030  0.913630  1.0  0.096
  H  H572  1  0.037270  0.520230  0.891030  1.0  0.1058
  H  H573  1  0.172570  0.341230  0.814730  1.0  0.0668
  H  H574  1  0.222070  0.377430  0.809030  1.0  0.0806
  H  H575  1  0.988570  0.457630  0.906530  1.0  0.0691
  H  H576  1  0.017070  0.501630  0.915530  1.0  0.0641
  H  H577  1  0.183770  0.309830  0.797930  1.0  0.101
  H  H578  1  0.946870  0.457630  0.922930  1.0  0.1047
  H  H579  1  0.140770  0.245430  0.784430  1.0  0.1109
  H  H580  1  0.135370  0.415130  0.785430  1.0  0.0906
  H  H581  1  0.884570  0.417930  0.937930  1.0  0.1026
  H  H582  1  0.048270  0.404630  0.935030  1.0  0.0888
  H  H583  1  0.063170  0.299530  0.757130  1.0  0.0996
  H  H584  1  0.927870  0.334530  0.963330  1.0  0.0979
  H  H585  1  0.176070  0.474030  0.768430  1.0  0.1226
  H  H586  1  0.058170  0.403830  0.793730  1.0  0.1163
  H  H587  1  0.040170  0.327830  0.929130  1.0  0.0728
  H  H588  1  0.108770  0.452130  0.953030  1.0  0.1026
  H  H589  1  0.135770  0.226430  0.762230  1.0  0.0871
  H  H590  1  0.093770  0.196530  0.771530  1.0  0.0942
  H  H591  1  0.111670  0.360830  0.737530  1.0  0.0899
  H  H592  1  0.991670  0.285530  0.763030  1.0  0.0983
  H  H593  1  0.198170  0.485030  0.744430  1.0  0.1029
  H  H594  1  0.980170  0.360030  0.793030  1.0  0.0897
  H  H595  1  0.869270  0.422930  0.959330  1.0  0.0893
  H  H596  1  0.829670  0.380130  0.951630  1.0  0.077
  H  H597  1  0.920170  0.259930  0.957730  1.0  0.1084
  H  H598  1  0.987670  0.381530  0.983330  1.0  0.1031
  H  H599  1  0.997270  0.247930  0.929630  1.0  0.0971
  H  H600  1  0.122770  0.466030  0.975030  1.0  0.0879
  H  H601  1  0.163770  0.434130  0.731630  1.0  0.1045
  H  H602  1  0.940770  0.305330  0.774730  1.0  0.11
  H  H603  1  0.944070  0.216730  0.946130  1.0  0.0951
  H  H604  1  0.058570  0.437330  0.989430  1.0  0.0801
  H  H605  1  0.057470  0.219330  0.744330  1.0  0.0836
  H  H606  1  0.087670  0.125030  0.758130  1.0  0.1146
  H  H607  1  0.780170  0.397530  0.969330  1.0  0.1257
  H  H608  1  0.862170  0.345930  0.977730  1.0  0.0817
  H  H609  1  0.019970  0.171530  0.727030  1.0  0.1317
  H  H610  1  0.052370  0.080430  0.740830  1.0  0.0797
  H  H611  1  0.749470  0.373530  0.989330  1.0  0.0786
  H  H612  1  0.812670  0.304630  0.995930  1.0  0.1139
  H  H613  1  0.848830  0.826670  0.160670  1.0  0.1072
  H  H614  1  0.911430  0.775870  0.182370  1.0  0.085
  H  H615  1  0.823930  0.827870  0.234570  1.0  0.0875
  H  H616  1  0.767330  0.879470  0.210170  1.0  0.1083
  H  H617  1  0.832230  0.770970  0.146570  1.0  0.0909
  H  H618  1  0.895330  0.718770  0.167670  1.0  0.1243
  H  H619  1  0.757530  0.796370  0.246970  1.0  0.096
  H  H620  1  0.703930  0.853570  0.224370  1.0  0.1064
  H  H621  1  0.839230  0.674570  0.148070  1.0  0.0668
  H  H622  1  0.888730  0.710770  0.142370  1.0  0.0807
  H  H623  1  0.655230  0.790970  0.239870  1.0  0.0691
  H  H624  1  0.683730  0.834970  0.248870  1.0  0.0638
  H  H625  1  0.850430  0.643170  0.131270  1.0  0.1012
  H  H626  1  0.613530  0.790970  0.256270  1.0  0.105
  H  H627  1  0.807430  0.578770  0.117770  1.0  0.1109
  H  H628  1  0.802030  0.748470  0.118770  1.0  0.0906
  H  H629  1  0.551230  0.751270  0.271270  1.0  0.1026
  H  H630  1  0.714930  0.737970  0.268370  1.0  0.0887
  H  H631  1  0.729830  0.632870  0.090470  1.0  0.0997
  H  H632  1  0.594530  0.667870  0.296670  1.0  0.0979
  H  H633  1  0.842730  0.807370  0.101770  1.0  0.1225
  H  H634  1  0.724830  0.737170  0.127070  1.0  0.1164
  H  H635  1  0.706830  0.661170  0.262470  1.0  0.0727
  H  H636  1  0.775430  0.785470  0.286370  1.0  0.1028
  H  H637  1  0.802430  0.559770  0.095570  1.0  0.0871
  H  H638  1  0.760430  0.529870  0.104870  1.0  0.0946
  H  H639  1  0.778330  0.694170  0.070870  1.0  0.0899
  H  H640  1  0.658330  0.618870  0.096370  1.0  0.0983
  H  H641  1  0.864830  0.818370  0.077770  1.0  0.1015
  H  H642  1  0.646830  0.693370  0.126370  1.0  0.0897
  H  H643  1  0.535930  0.756270  0.292670  1.0  0.0891
  H  H644  1  0.496330  0.713470  0.284970  1.0  0.0749
  H  H645  1  0.586830  0.593270  0.291070  1.0  0.1081
  H  H646  1  0.654330  0.714870  0.316670  1.0  0.1031
  H  H647  1  0.663930  0.581270  0.262970  1.0  0.0971
  H  H648  1  0.789430  0.799370  0.308370  1.0  0.0878
  H  H649  1  0.830430  0.767470  0.064970  1.0  0.1051
  H  H650  1  0.607430  0.638670  0.108070  1.0  0.1097
  H  H651  1  0.610730  0.550070  0.279470  1.0  0.0945
  H  H652  1  0.725230  0.770670  0.322770  1.0  0.0798
  H  H653  1  0.724130  0.552670  0.077670  1.0  0.0833
  H  H654  1  0.754330  0.458370  0.091470  1.0  0.1134
  H  H655  1  0.446830  0.730870  0.302670  1.0  0.1257
  H  H656  1  0.528830  0.679270  0.311070  1.0  0.0817
  H  H657  1  0.686630  0.504870  0.060370  1.0  0.1317
  H  H658  1  0.719030  0.413770  0.074170  1.0  0.0787
  H  H659  1  0.416130  0.706870  0.322670  1.0  0.0786
  H  H660  1  0.479330  0.637970  0.329270  1.0  0.1139
  H  H661  1  0.644500  0.484500  0.494000  1.0  0.1075
  H  H662  1  0.531100  0.421900  0.515700  1.0  0.0858
  H  H663  1  0.670600  0.509400  0.567900  1.0  0.0882
  H  H664  1  0.778800  0.566000  0.543500  1.0  0.1084
  H  H665  1  0.605400  0.501100  0.479900  1.0  0.0916
  H  H666  1  0.490100  0.438000  0.501000  1.0  0.1256
  H  H667  1  0.705500  0.575800  0.580300  1.0  0.0971
  H  H668  1  0.816300  0.629400  0.557700  1.0  0.105
  H  H669  1  0.502000  0.494100  0.481400  1.0  0.0659
  H  H670  1  0.488700  0.444600  0.475700  1.0  0.0815
  H  H671  1  0.802400  0.678100  0.573200  1.0  0.0699
  H  H672  1  0.817900  0.649600  0.582200  1.0  0.0673
  H  H673  1  0.459400  0.482900  0.464600  1.0  0.1008
  H  H674  1  0.844100  0.719800  0.589600  1.0  0.1058
  H  H675  1  0.438000  0.525900  0.451100  1.0  0.1105
  H  H676  1  0.613100  0.531300  0.452100  1.0  0.0896
  H  H677  1  0.866700  0.782100  0.604600  1.0  0.103
  H  H678  1  0.689700  0.618400  0.601700  1.0  0.0889
  H  H679  1  0.569700  0.603500  0.423800  1.0  0.0991
  H  H680  1  0.740000  0.738800  0.630000  1.0  0.0987
  H  H681  1  0.631300  0.490600  0.435100  1.0  0.1209
  H  H682  1  0.679000  0.608500  0.460400  1.0  0.117
  H  H683  1  0.621000  0.626500  0.595800  1.0  0.0743
  H  H684  1  0.676700  0.557900  0.619700  1.0  0.1021
  H  H685  1  0.424000  0.530900  0.428900  1.0  0.085
  H  H686  1  0.436100  0.572900  0.438200  1.0  0.0936
  H  H687  1  0.582500  0.555000  0.404200  1.0  0.0904
  H  H688  1  0.627200  0.675000  0.429700  1.0  0.0984
  H  H689  1  0.620200  0.468500  0.411100  1.0  0.103
  H  H690  1  0.713200  0.686500  0.459700  1.0  0.0893
  H  H691  1  0.887000  0.797400  0.626000  1.0  0.0883
  H  H692  1  0.883800  0.837000  0.618300  1.0  0.0759
  H  H693  1  0.673100  0.746500  0.624400  1.0  0.1074
  H  H694  1  0.727200  0.679000  0.650000  1.0  0.1041
  H  H695  1  0.584000  0.669400  0.596300  1.0  0.094
  H  H696  1  0.676600  0.543900  0.641700  1.0  0.0877
  H  H697  1  0.603700  0.502900  0.398300  1.0  0.1076
  H  H698  1  0.697900  0.725900  0.441400  1.0  0.109
  H  H699  1  0.606000  0.722600  0.612800  1.0  0.0903
  H  H700  1  0.712100  0.608100  0.656100  1.0  0.0781
  H  H701  1  0.495200  0.609200  0.411000  1.0  0.0841
  H  H702  1  0.370700  0.579000  0.424800  1.0  0.1147
  H  H703  1  0.950700  0.886500  0.636000  1.0  0.126
  H  H704  1  0.817100  0.804500  0.644400  1.0  0.0792
  H  H705  1  0.484900  0.646700  0.393700  1.0  0.1327
  H  H706  1  0.361400  0.614300  0.407500  1.0  0.0824
  H  H707  1  0.957400  0.917200  0.656000  1.0  0.0795
  H  H708  1  0.825300  0.854000  0.662600  1.0  0.1125
  H  H709  1  0.311170  0.817830  0.827330  1.0  0.1075
  H  H710  1  0.197770  0.755230  0.849030  1.0  0.0858
  H  H711  1  0.337270  0.842730  0.901230  1.0  0.0882
  H  H712  1  0.445470  0.899330  0.876830  1.0  0.1084
  H  H713  1  0.272070  0.834430  0.813230  1.0  0.0916
  H  H714  1  0.156770  0.771330  0.834330  1.0  0.1257
  H  H715  1  0.372170  0.909130  0.913630  1.0  0.0971
  H  H716  1  0.482970  0.962730  0.891030  1.0  0.105
  H  H717  1  0.168670  0.827430  0.814730  1.0  0.0659
  H  H718  1  0.155370  0.777930  0.809030  1.0  0.0813
  H  H719  1  0.469070  0.011430  0.906530  1.0  0.0699
  H  H720  1  0.484570  0.982930  0.915530  1.0  0.0673
  H  H721  1  0.126070  0.816230  0.797930  1.0  0.1008
  H  H722  1  0.510770  0.053130  0.922930  1.0  0.1058
  H  H723  1  0.104670  0.859230  0.784430  1.0  0.1105
  H  H724  1  0.279770  0.864630  0.785430  1.0  0.0896
  H  H725  1  0.533370  0.115430  0.937930  1.0  0.103
  H  H726  1  0.356370  0.951730  0.935030  1.0  0.0889
  H  H727  1  0.236370  0.936830  0.757130  1.0  0.0991
  H  H728  1  0.406670  0.072130  0.963330  1.0  0.0987
  H  H729  1  0.297970  0.823930  0.768430  1.0  0.121
  H  H730  1  0.345670  0.941830  0.793730  1.0  0.117
  H  H731  1  0.287670  0.959830  0.929130  1.0  0.0743
  H  H732  1  0.343370  0.891230  0.953030  1.0  0.1021
  H  H733  1  0.090670  0.864230  0.762230  1.0  0.0849
  H  H734  1  0.102770  0.906230  0.771530  1.0  0.0933
  H  H735  1  0.249170  0.888330  0.737530  1.0  0.0904
  H  H736  1  0.293870  0.008330  0.763030  1.0  0.0984
  H  H737  1  0.286870  0.801830  0.744430  1.0  0.1028
  H  H738  1  0.379870  0.019830  0.793030  1.0  0.0893
  H  H739  1  0.553670  0.130730  0.959330  1.0  0.0883
  H  H740  1  0.550470  0.170330  0.951630  1.0  0.0759
  H  H741  1  0.339770  0.079830  0.957730  1.0  0.1076
  H  H742  1  0.393870  0.012330  0.983330  1.0  0.1041
  H  H743  1  0.250670  0.002730  0.929630  1.0  0.094
  H  H744  1  0.343270  0.877230  0.975030  1.0  0.0877
  H  H745  1  0.270370  0.836230  0.731630  1.0  0.1076
  H  H746  1  0.364570  0.059230  0.774730  1.0  0.1093
  H  H747  1  0.272670  0.055930  0.946130  1.0  0.0915
  H  H748  1  0.378770  0.941430  0.989430  1.0  0.0784
  H  H749  1  0.161870  0.942530  0.744330  1.0  0.0841
  H  H750  1  0.037370  0.912330  0.758130  1.0  0.1132
  H  H751  1  0.617370  0.219830  0.969330  1.0  0.126
  H  H752  1  0.483770  0.137830  0.977730  1.0  0.0792
  H  H753  1  0.151570  0.980030  0.727030  1.0  0.1332
  H  H754  1  0.028070  0.947630  0.740830  1.0  0.0782
  H  H755  1  0.624070  0.250530  0.989330  1.0  0.0795
  H  H756  1  0.491970  0.187330  0.995930  1.0  0.1125
  H  H757  1  0.977830  0.151170  0.160670  1.0  0.1075
  H  H758  1  0.864430  0.088570  0.182370  1.0  0.0858
  H  H759  1  0.003930  0.176070  0.234570  1.0  0.0883
  H  H760  1  0.112130  0.232670  0.210170  1.0  0.1086
  H  H761  1  0.938730  0.167770  0.146570  1.0  0.0916
  H  H762  1  0.823430  0.104670  0.167670  1.0  0.1256
  H  H763  1  0.038830  0.242470  0.246970  1.0  0.0971
  H  H764  1  0.149630  0.296070  0.224370  1.0  0.1059
  H  H765  1  0.835330  0.160770  0.148070  1.0  0.0659
  H  H766  1  0.822030  0.111270  0.142370  1.0  0.0815
  H  H767  1  0.135730  0.344770  0.239870  1.0  0.0699
  H  H768  1  0.151230  0.316270  0.248870  1.0  0.0673
  H  H769  1  0.792730  0.149570  0.131270  1.0  0.1008
  H  H770  1  0.177430  0.386470  0.256270  1.0  0.1056
  H  H771  1  0.771330  0.192570  0.117770  1.0  0.1105
  H  H772  1  0.946430  0.197970  0.118770  1.0  0.0896
  H  H773  1  0.200030  0.448770  0.271270  1.0  0.103
  H  H774  1  0.023030  0.285070  0.268370  1.0  0.0889
  H  H775  1  0.903030  0.270170  0.090470  1.0  0.0991
  H  H776  1  0.073330  0.405470  0.296670  1.0  0.0987
  H  H777  1  0.964630  0.157270  0.101770  1.0  0.1209
  H  H778  1  0.012330  0.275170  0.127070  1.0  0.117
  H  H779  1  0.954330  0.293170  0.262470  1.0  0.0742
  H  H780  1  0.010030  0.224570  0.286370  1.0  0.102
  H  H781  1  0.757330  0.197570  0.095570  1.0  0.085
  H  H782  1  0.769430  0.239570  0.104870  1.0  0.0936
  H  H783  1  0.915830  0.221670  0.070870  1.0  0.0904
  H  H784  1  0.960530  0.341670  0.096370  1.0  0.0984
  H  H785  1  0.953530  0.135170  0.077770  1.0  0.1028
  H  H786  1  0.046530  0.353170  0.126370  1.0  0.0893
  H  H787  1  0.220330  0.464070  0.292670  1.0  0.0882
  H  H788  1  0.217130  0.503670  0.284970  1.0  0.0766
  H  H789  1  0.006430  0.413170  0.291070  1.0  0.1074
  H  H790  1  0.060530  0.345670  0.316670  1.0  0.104
  H  H791  1  0.917330  0.336070  0.262970  1.0  0.0939
  H  H792  1  0.009930  0.210570  0.308370  1.0  0.0878
  H  H793  1  0.937030  0.169570  0.064970  1.0  0.106
  H  H794  1  0.031230  0.392570  0.108070  1.0  0.109
  H  H795  1  0.939330  0.389270  0.279470  1.0  0.0903
  H  H796  1  0.045430  0.274770  0.322770  1.0  0.0781
  H  H797  1  0.828530  0.275870  0.077670  1.0  0.0841
  H  H798  1  0.704030  0.245670  0.091470  1.0  0.1147
  H  H799  1  0.284030  0.553170  0.302670  1.0  0.1259
  H  H800  1  0.150430  0.471170  0.311070  1.0  0.0792
  H  H801  1  0.818230  0.313370  0.060370  1.0  0.1327
  H  H802  1  0.694730  0.280970  0.074170  1.0  0.0824
  H  H803  1  0.290730  0.583870  0.322670  1.0  0.0795
  H  H804  1  0.158630  0.520670  0.329270  1.0  0.1125
  H  H805  1  0.840000  0.355500  0.494000  1.0  0.1062
  H  H806  1  0.890800  0.468900  0.515700  1.0  0.086
  H  H807  1  0.838800  0.329400  0.567900  1.0  0.0883
  H  H808  1  0.787200  0.221200  0.543500  1.0  0.1077
  H  H809  1  0.895700  0.394600  0.479900  1.0  0.0909
  H  H810  1  0.947900  0.509900  0.501000  1.0  0.1235
  H  H811  1  0.870300  0.294500  0.580300  1.0  0.0967
  H  H812  1  0.813100  0.183700  0.557700  1.0  0.1057
  H  H813  1  0.992100  0.498000  0.481400  1.0  0.0656
  H  H814  1  0.955900  0.511300  0.475700  1.0  0.0821
  H  H815  1  0.875700  0.197600  0.573200  1.0  0.069
  H  H816  1  0.831700  0.182100  0.582200  1.0  0.0649
  H  H817  1  0.023500  0.540600  0.464600  1.0  0.1005
  H  H818  1  0.875700  0.155900  0.589600  1.0  0.1065
  H  H819  1  0.087900  0.562000  0.451100  1.0  0.11
  H  H820  1  0.918200  0.386900  0.452100  1.0  0.0912
  H  H821  1  0.915400  0.133300  0.604600  1.0  0.1025
  H  H822  1  0.928700  0.310300  0.601700  1.0  0.0899
  H  H823  1  0.033800  0.430300  0.423800  1.0  0.0987
  H  H824  1  0.998800  0.260000  0.630000  1.0  0.0961
  H  H825  1  0.859300  0.368700  0.435100  1.0  0.1231
  H  H826  1  0.929500  0.321000  0.460400  1.0  0.1167
  H  H827  1  0.005500  0.379000  0.595800  1.0  0.0724
  H  H828  1  0.881200  0.323300  0.619700  1.0  0.1025
  H  H829  1  0.106900  0.576000  0.428900  1.0  0.0855
  H  H830  1  0.136800  0.563900  0.438200  1.0  0.094
  H  H831  1  0.972500  0.417500  0.404200  1.0  0.0898
  H  H832  1  0.047800  0.372800  0.429700  1.0  0.0992
  H  H833  1  0.848300  0.379800  0.411100  1.0  0.1039
  H  H834  1  0.973300  0.286800  0.459700  1.0  0.0899
  H  H835  1  0.910400  0.113000  0.626000  1.0  0.0921
  H  H836  1  0.953200  0.116200  0.618300  1.0  0.0742
  H  H837  1  0.073400  0.326900  0.624400  1.0  0.1066
  H  H838  1  0.951800  0.272800  0.650000  1.0  0.103
  H  H839  1  0.085400  0.416000  0.596300  1.0  0.0958
  H  H840  1  0.867300  0.323400  0.641700  1.0  0.0887
  H  H841  1  0.899200  0.396300  0.398300  1.0  0.1053
  H  H842  1  0.028000  0.302100  0.441400  1.0  0.1115
  H  H843  1  0.116600  0.394000  0.612800  1.0  0.0914
  H  H844  1  0.896000  0.287900  0.656100  1.0  0.08
  H  H845  1  0.114000  0.504800  0.411000  1.0  0.0837
  H  H846  1  0.208300  0.629300  0.424800  1.0  0.1146
  H  H847  1  0.935800  0.049300  0.636000  1.0  0.1263
  H  H848  1  0.987400  0.182900  0.644400  1.0  0.0794
  H  H849  1  0.161800  0.515100  0.393700  1.0  0.1316
  H  H850  1  0.252900  0.638600  0.407500  1.0  0.0769
  H  H851  1  0.959800  0.042600  0.656000  1.0  0.0792
  H  H852  1  0.028700  0.174700  0.662600  1.0  0.1141
  H  H853  1  0.506670  0.688830  0.827330  1.0  0.1062
  H  H854  1  0.557470  0.802230  0.849030  1.0  0.086
  H  H855  1  0.505470  0.662730  0.901230  1.0  0.0883
  H  H856  1  0.453870  0.554530  0.876830  1.0  0.1077
  H  H857  1  0.562370  0.727930  0.813230  1.0  0.0909
  H  H858  1  0.614570  0.843230  0.834330  1.0  0.1235
  H  H859  1  0.536970  0.627830  0.913630  1.0  0.0967
  H  H860  1  0.479770  0.517030  0.891030  1.0  0.1057
  H  H861  1  0.658770  0.831330  0.814730  1.0  0.0655
  H  H862  1  0.622570  0.844630  0.809030  1.0  0.0823
  H  H863  1  0.542370  0.530930  0.906530  1.0  0.069
  H  H864  1  0.498370  0.515430  0.915530  1.0  0.0649
  H  H865  1  0.690170  0.873930  0.797930  1.0  0.1008
  H  H866  1  0.542370  0.489230  0.922930  1.0  0.1065
  H  H867  1  0.754570  0.895330  0.784430  1.0  0.11
  H  H868  1  0.584870  0.720230  0.785430  1.0  0.0912
  H  H869  1  0.582070  0.466630  0.937930  1.0  0.1025
  H  H870  1  0.595370  0.643630  0.935030  1.0  0.0899
  H  H871  1  0.700470  0.763630  0.757130  1.0  0.0986
  H  H872  1  0.665470  0.593330  0.963330  1.0  0.0961
  H  H873  1  0.525970  0.702030  0.768430  1.0  0.1231
  H  H874  1  0.596170  0.654330  0.793730  1.0  0.1166
  H  H875  1  0.672170  0.712330  0.929130  1.0  0.0724
  H  H876  1  0.547870  0.656630  0.953030  1.0  0.1025
  H  H877  1  0.773570  0.909330  0.762230  1.0  0.0855
  H  H878  1  0.803470  0.897230  0.771530  1.0  0.0938
  H  H879  1  0.639170  0.750830  0.737530  1.0  0.0895
  H  H880  1  0.714470  0.706130  0.763030  1.0  0.0978
  H  H881  1  0.514970  0.713130  0.744430  1.0  0.1007
  H  H882  1  0.639970  0.620130  0.793030  1.0  0.0899
  H  H883  1  0.577070  0.446330  0.959330  1.0  0.0921
  H  H884  1  0.619870  0.449530  0.951630  1.0  0.0742
  H  H885  1  0.740070  0.660230  0.957730  1.0  0.1066
  H  H886  1  0.618470  0.606130  0.983330  1.0  0.103
  H  H887  1  0.752070  0.749330  0.929630  1.0  0.0958
  H  H888  1  0.533970  0.656730  0.975030  1.0  0.0887
  H  H889  1  0.565870  0.729630  0.731630  1.0  0.1053
  H  H890  1  0.694670  0.635430  0.774730  1.0  0.1119
  H  H891  1  0.783270  0.727330  0.946130  1.0  0.0918
  H  H892  1  0.562670  0.621230  0.989430  1.0  0.0798
  H  H893  1  0.780670  0.838130  0.744330  1.0  0.0836
  H  H894  1  0.874970  0.962630  0.758130  1.0  0.1134
  H  H895  1  0.602470  0.382630  0.969330  1.0  0.1263
  H  H896  1  0.654070  0.516230  0.977730  1.0  0.0794
  H  H897  1  0.828470  0.848430  0.727030  1.0  0.1321
  H  H898  1  0.919570  0.971930  0.740830  1.0  0.0808
  H  H899  1  0.626470  0.375930  0.989330  1.0  0.0792
  H  H900  1  0.695370  0.508030  0.995930  1.0  0.1142
  H  H901  1  0.173330  0.022170  0.160670  1.0  0.1062
  H  H902  1  0.224130  0.135570  0.182370  1.0  0.086
  H  H903  1  0.172130  0.996070  0.234570  1.0  0.0883
  H  H904  1  0.120530  0.887870  0.210170  1.0  0.1079
  H  H905  1  0.229030  0.061270  0.146570  1.0  0.0909
  H  H906  1  0.281230  0.176570  0.167670  1.0  0.1235
  H  H907  1  0.203630  0.961170  0.246970  1.0  0.0968
  H  H908  1  0.146430  0.850370  0.224370  1.0  0.1061
  H  H909  1  0.325430  0.164670  0.148070  1.0  0.0656
  H  H910  1  0.289230  0.177970  0.142370  1.0  0.0821
  H  H911  1  0.209030  0.864270  0.239870  1.0  0.069
  H  H912  1  0.165030  0.848770  0.248870  1.0  0.0646
  H  H913  1  0.356830  0.207270  0.131270  1.0  0.1005
  H  H914  1  0.209030  0.822570  0.256270  1.0  0.1065
  H  H915  1  0.421230  0.228670  0.117770  1.0  0.11
  H  H916  1  0.251530  0.053570  0.118770  1.0  0.0912
  H  H917  1  0.248730  0.799970  0.271270  1.0  0.1026
  H  H918  1  0.262030  0.976970  0.268370  1.0  0.0899
  H  H919  1  0.367130  0.096970  0.090470  1.0  0.0987
  H  H920  1  0.332130  0.926670  0.296670  1.0  0.0961
  H  H921  1  0.192630  0.035370  0.101770  1.0  0.1231
  H  H922  1  0.262830  0.987670  0.127070  1.0  0.1168
  H  H923  1  0.338830  0.045670  0.262470  1.0  0.0724
  H  H924  1  0.214530  0.989970  0.286370  1.0  0.1025
  H  H925  1  0.440230  0.242670  0.095570  1.0  0.0855
  H  H926  1  0.470130  0.230570  0.104870  1.0  0.094
  H  H927  1  0.305830  0.084170  0.070870  1.0  0.0898
  H  H928  1  0.381130  0.039470  0.096370  1.0  0.0992
  H  H929  1  0.181630  0.046470  0.077770  1.0  0.1038
  H  H930  1  0.306630  0.953470  0.126370  1.0  0.0899
  H  H931  1  0.243730  0.779670  0.292670  1.0  0.092
  H  H932  1  0.286530  0.782870  0.284970  1.0  0.0758
  H  H933  1  0.406730  0.993570  0.291070  1.0  0.1066
  H  H934  1  0.285130  0.939470  0.316670  1.0  0.1029
  H  H935  1  0.418730  0.082670  0.262970  1.0  0.0959
  H  H936  1  0.200630  0.990070  0.308370  1.0  0.0886
  H  H937  1  0.232530  0.062970  0.064970  1.0  0.1044
  H  H938  1  0.361330  0.968770  0.108070  1.0  0.1115
  H  H939  1  0.449930  0.060670  0.279470  1.0  0.0914
  H  H940  1  0.229330  0.954570  0.322770  1.0  0.0798
  H  H941  1  0.447330  0.171470  0.077670  1.0  0.0837
  H  H942  1  0.541630  0.295970  0.091470  1.0  0.1146
  H  H943  1  0.269130  0.715970  0.302670  1.0  0.1263
  H  H944  1  0.320730  0.849570  0.311070  1.0  0.0795
  H  H945  1  0.495130  0.181770  0.060370  1.0  0.1316
  H  H946  1  0.586230  0.305270  0.074170  1.0  0.0769
  H  H947  1  0.293130  0.709270  0.322670  1.0  0.0791
  H  H948  1  0.362030  0.841370  0.329270  1.0  0.1142
  H  H949  1  0.484500  0.840000  0.506000  1.0  0.1069
  H  H950  1  0.421900  0.890800  0.484300  1.0  0.0861
  H  H951  1  0.509400  0.838800  0.432100  1.0  0.0888
  H  H952  1  0.566000  0.787200  0.456500  1.0  0.1072
  H  H953  1  0.501100  0.895700  0.520100  1.0  0.09
  H  H954  1  0.438000  0.947900  0.499000  1.0  0.1241
  H  H955  1  0.575800  0.870300  0.419700  1.0  0.0964
  H  H956  1  0.629400  0.813100  0.442300  1.0  0.1045
  H  H957  1  0.494100  0.992100  0.518600  1.0  0.067
  H  H958  1  0.444600  0.955900  0.524300  1.0  0.08
  H  H959  1  0.678100  0.875700  0.426800  1.0  0.0684
  H  H960  1  0.649600  0.831700  0.417800  1.0  0.0645
  H  H961  1  0.482900  0.023500  0.535400  1.0  0.1009
  H  H962  1  0.719800  0.875700  0.410400  1.0  0.1045
  H  H963  1  0.525900  0.087900  0.548900  1.0  0.1107
  H  H964  1  0.531300  0.918200  0.547900  1.0  0.0904
  H  H965  1  0.782100  0.915400  0.395400  1.0  0.103
  H  H966  1  0.618400  0.928700  0.398300  1.0  0.0896
  H  H967  1  0.603500  0.033800  0.576200  1.0  0.0995
  H  H968  1  0.738800  0.998800  0.370000  1.0  0.098
  H  H969  1  0.490600  0.859300  0.564900  1.0  0.1213
  H  H970  1  0.608500  0.929500  0.539600  1.0  0.1147
  H  H971  1  0.626500  0.005500  0.404200  1.0  0.0728
  H  H972  1  0.557900  0.881200  0.380300  1.0  0.1028
  H  H973  1  0.530900  0.106900  0.571100  1.0  0.0846
  H  H974  1  0.572900  0.136800  0.561800  1.0  0.097
  H  H975  1  0.555000  0.972500  0.595800  1.0  0.0881
  H  H976  1  0.675000  0.047800  0.570300  1.0  0.0981
  H  H977  1  0.468500  0.848300  0.588900  1.0  0.1019
  H  H978  1  0.686500  0.973300  0.540300  1.0  0.0894
  H  H979  1  0.797400  0.910400  0.374000  1.0  0.0901
  H  H980  1  0.837000  0.953200  0.381700  1.0  0.0764
  H  H981  1  0.746500  0.073400  0.375600  1.0  0.1095
  H  H982  1  0.679000  0.951800  0.350000  1.0  0.1028
  H  H983  1  0.669400  0.085400  0.403700  1.0  0.0991
  H  H984  1  0.543900  0.867300  0.358300  1.0  0.0884
  H  H985  1  0.502900  0.899200  0.601700  1.0  0.1045
  H  H986  1  0.725900  0.028000  0.558600  1.0  0.1103
  H  H987  1  0.722600  0.116600  0.387200  1.0  0.0923
  H  H988  1  0.608100  0.896000  0.343900  1.0  0.0805
  H  H989  1  0.609200  0.114000  0.589000  1.0  0.0831
  H  H990  1  0.579000  0.208300  0.575200  1.0  0.1132
  H  H991  1  0.886500  0.935800  0.364000  1.0  0.1256
  H  H992  1  0.804500  0.987400  0.355600  1.0  0.0824
  H  H993  1  0.646700  0.161800  0.606300  1.0  0.1318
  H  H994  1  0.614300  0.252900  0.592500  1.0  0.0792
  H  H995  1  0.917200  0.959800  0.344000  1.0  0.0794
  H  H996  1  0.854000  0.028700  0.337400  1.0  0.1145
  H  H997  1  0.151170  0.173330  0.839330  1.0  0.107
  H  H998  1  0.088570  0.224130  0.817630  1.0  0.0861
  H  H999  1  0.176070  0.172130  0.765430  1.0  0.0887
  H  H1000  1  0.232670  0.120530  0.789830  1.0  0.1073
  H  H1001  1  0.167770  0.229030  0.853430  1.0  0.09
  H  H1002  1  0.104670  0.281230  0.832330  1.0  0.1241
  H  H1003  1  0.242470  0.203630  0.753030  1.0  0.0964
  H  H1004  1  0.296070  0.146430  0.775630  1.0  0.1052
  H  H1005  1  0.160770  0.325430  0.851930  1.0  0.0671
  H  H1006  1  0.111270  0.289230  0.857630  1.0  0.08
  H  H1007  1  0.344770  0.209030  0.760130  1.0  0.0684
  H  H1008  1  0.316270  0.165030  0.751130  1.0  0.0642
  H  H1009  1  0.149570  0.356830  0.868730  1.0  0.1009
  H  H1010  1  0.386470  0.209030  0.743730  1.0  0.1049
  H  H1011  1  0.192570  0.421230  0.882230  1.0  0.1107
  H  H1012  1  0.197970  0.251530  0.881230  1.0  0.0904
  H  H1013  1  0.448770  0.248730  0.728730  1.0  0.103
  H  H1014  1  0.285070  0.262030  0.731630  1.0  0.0896
  H  H1015  1  0.270170  0.367130  0.909530  1.0  0.0995
  H  H1016  1  0.405470  0.332130  0.703330  1.0  0.098
  H  H1017  1  0.157270  0.192630  0.898230  1.0  0.1213
  H  H1018  1  0.275170  0.262830  0.872930  1.0  0.1148
  H  H1019  1  0.293170  0.338830  0.737530  1.0  0.0728
  H  H1020  1  0.224570  0.214530  0.713630  1.0  0.1031
  H  H1021  1  0.197570  0.440230  0.904430  1.0  0.0846
  H  H1022  1  0.239570  0.470130  0.895130  1.0  0.0969
  H  H1023  1  0.221670  0.305830  0.929130  1.0  0.0881
  H  H1024  1  0.341670  0.381130  0.903630  1.0  0.0981
  H  H1025  1  0.135170  0.181630  0.922230  1.0  0.1019
  H  H1026  1  0.353170  0.306630  0.873630  1.0  0.0894
  H  H1027  1  0.464070  0.243730  0.707330  1.0  0.09
  H  H1028  1  0.503670  0.286530  0.715030  1.0  0.075
  H  H1029  1  0.413170  0.406730  0.708930  1.0  0.1095
  H  H1030  1  0.345670  0.285130  0.683330  1.0  0.1028
  H  H1031  1  0.336070  0.418730  0.737030  1.0  0.0991
  H  H1032  1  0.210570  0.200630  0.691630  1.0  0.0884
  H  H1033  1  0.169570  0.232530  0.935030  1.0  0.1047
  H  H1034  1  0.392570  0.361330  0.891930  1.0  0.1103
  H  H1035  1  0.389270  0.449930  0.720530  1.0  0.0923
  H  H1036  1  0.274770  0.229330  0.677230  1.0  0.0801
  H  H1037  1  0.275870  0.447330  0.922330  1.0  0.0831
  H  H1038  1  0.245670  0.541630  0.908530  1.0  0.1132
  H  H1039  1  0.553170  0.269130  0.697330  1.0  0.1256
  H  H1040  1  0.471170  0.320730  0.688930  1.0  0.0824
  H  H1041  1  0.313370  0.495130  0.939630  1.0  0.1318
  H  H1042  1  0.280970  0.586230  0.925830  1.0  0.0792
  H  H1043  1  0.583870  0.293130  0.677330  1.0  0.0793
  H  H1044  1  0.520670  0.362030  0.670730  1.0  0.1146
  H  H1045  1  0.817830  0.506670  0.172670  1.0  0.1069
  H  H1046  1  0.755230  0.557470  0.150970  1.0  0.0861
  H  H1047  1  0.842730  0.505470  0.098770  1.0  0.0888
  H  H1048  1  0.899330  0.453870  0.123170  1.0  0.1072
  H  H1049  1  0.834430  0.562370  0.186770  1.0  0.09
  H  H1050  1  0.771330  0.614570  0.165670  1.0  0.1241
  H  H1051  1  0.909130  0.536970  0.086370  1.0  0.0964
  H  H1052  1  0.962730  0.479770  0.108970  1.0  0.1045
  H  H1053  1  0.827430  0.658770  0.185270  1.0  0.0671
  H  H1054  1  0.777930  0.622570  0.190970  1.0  0.0801
  H  H1055  1  0.011430  0.542370  0.093470  1.0  0.0684
  H  H1056  1  0.982930  0.498370  0.084470  1.0  0.0645
  H  H1057  1  0.816230  0.690170  0.202070  1.0  0.1008
  H  H1058  1  0.053130  0.542370  0.077070  1.0  0.1045
  H  H1059  1  0.859230  0.754570  0.215570  1.0  0.1107
  H  H1060  1  0.864630  0.584870  0.214570  1.0  0.0904
  H  H1061  1  0.115430  0.582070  0.062070  1.0  0.103
  H  H1062  1  0.951730  0.595370  0.064970  1.0  0.0896
  H  H1063  1  0.936830  0.700470  0.242870  1.0  0.0995
  H  H1064  1  0.072130  0.665470  0.036670  1.0  0.098
  H  H1065  1  0.823930  0.525970  0.231570  1.0  0.1213
  H  H1066  1  0.941830  0.596170  0.206270  1.0  0.1147
  H  H1067  1  0.959830  0.672170  0.070870  1.0  0.0728
  H  H1068  1  0.891230  0.547870  0.046970  1.0  0.1028
  H  H1069  1  0.864230  0.773570  0.237770  1.0  0.0846
  H  H1070  1  0.906230  0.803470  0.228470  1.0  0.0966
  H  H1071  1  0.888330  0.639170  0.262470  1.0  0.0881
  H  H1072  1  0.008330  0.714470  0.236970  1.0  0.0981
  H  H1073  1  0.801830  0.514970  0.255570  1.0  0.1037
  H  H1074  1  0.019830  0.639970  0.206970  1.0  0.0894
  H  H1075  1  0.130730  0.577070  0.040670  1.0  0.0901
  H  H1076  1  0.170330  0.619870  0.048370  1.0  0.0764
  H  H1077  1  0.079830  0.740070  0.042270  1.0  0.1103
  H  H1078  1  0.012330  0.618470  0.016670  1.0  0.1028
  H  H1079  1  0.002730  0.752070  0.070370  1.0  0.0991
  H  H1080  1  0.877230  0.533970  0.024970  1.0  0.0884
  H  H1081  1  0.836230  0.565870  0.268370  1.0  0.1045
  H  H1082  1  0.059230  0.694670  0.225270  1.0  0.1108
  H  H1083  1  0.055930  0.783270  0.053870  1.0  0.093
  H  H1084  1  0.941430  0.562670  0.010570  1.0  0.0805
  H  H1085  1  0.942530  0.780670  0.255670  1.0  0.0832
  H  H1086  1  0.912330  0.874970  0.241870  1.0  0.1139
  H  H1087  1  0.219830  0.602470  0.030670  1.0  0.1256
  H  H1088  1  0.137830  0.654070  0.022270  1.0  0.0824
  H  H1089  1  0.980030  0.828470  0.272970  1.0  0.1318
  H  H1090  1  0.947630  0.919570  0.259170  1.0  0.0807
  H  H1091  1  0.250530  0.626470  0.010670  1.0  0.0794
  H  H1092  1  0.187330  0.695370  0.004070  1.0  0.1146
  H  H1093  1  0.355500  0.515500  0.506000  1.0  0.1079
  H  H1094  1  0.468900  0.578100  0.484300  1.0  0.0862
  H  H1095  1  0.329400  0.490600  0.432100  1.0  0.0885
  H  H1096  1  0.221200  0.434000  0.456500  1.0  0.1081
  H  H1097  1  0.394600  0.498900  0.520100  1.0  0.0908
  H  H1098  1  0.509900  0.562000  0.499000  1.0  0.1251
  H  H1099  1  0.294500  0.424200  0.419700  1.0  0.0968
  H  H1100  1  0.183700  0.370600  0.442300  1.0  0.1051
  H  H1101  1  0.498000  0.505900  0.518600  1.0  0.0656
  H  H1102  1  0.511300  0.555400  0.524300  1.0  0.081
  H  H1103  1  0.197600  0.321900  0.426800  1.0  0.0707
  H  H1104  1  0.182100  0.350400  0.417800  1.0  0.0653
  H  H1105  1  0.540600  0.517100  0.535400  1.0  0.1011
  H  H1106  1  0.155900  0.280200  0.410400  1.0  0.1055
  H  H1107  1  0.562000  0.474100  0.548900  1.0  0.1102
  H  H1108  1  0.386900  0.468700  0.547900  1.0  0.0912
  H  H1109  1  0.133300  0.217900  0.395400  1.0  0.1024
  H  H1110  1  0.310300  0.381600  0.398300  1.0  0.0896
  H  H1111  1  0.430300  0.396500  0.576200  1.0  0.099
  H  H1112  1  0.260000  0.261200  0.370000  1.0  0.0981
  H  H1113  1  0.368700  0.509400  0.564900  1.0  0.1217
  H  H1114  1  0.321000  0.391500  0.539600  1.0  0.117
  H  H1115  1  0.379000  0.373500  0.404200  1.0  0.0732
  H  H1116  1  0.323300  0.442100  0.380300  1.0  0.1019
  H  H1117  1  0.576000  0.469100  0.571100  1.0  0.0857
  H  H1118  1  0.563900  0.427100  0.561800  1.0  0.0947
  H  H1119  1  0.417500  0.445000  0.595800  1.0  0.0886
  H  H1120  1  0.372800  0.325000  0.570300  1.0  0.0977
  H  H1121  1  0.379800  0.531500  0.588900  1.0  0.1036
  H  H1122  1  0.286800  0.313500  0.540300  1.0  0.0883
  H  H1123  1  0.113000  0.202600  0.374000  1.0  0.0871
  H  H1124  1  0.116200  0.163000  0.381700  1.0  0.0761
  H  H1125  1  0.326900  0.253500  0.375600  1.0  0.1059
  H  H1126  1  0.272800  0.321000  0.350000  1.0  0.1035
  H  H1127  1  0.416000  0.330600  0.403700  1.0  0.0941
  H  H1128  1  0.323400  0.456100  0.358300  1.0  0.088
  H  H1129  1  0.396300  0.497100  0.601700  1.0  0.1085
  H  H1130  1  0.302100  0.274100  0.558600  1.0  0.1114
  H  H1131  1  0.394000  0.277400  0.387200  1.0  0.0924
  H  H1132  1  0.287900  0.391900  0.343900  1.0  0.0799
  H  H1133  1  0.504800  0.390800  0.589000  1.0  0.0833
  H  H1134  1  0.629300  0.421000  0.575200  1.0  0.1146
  H  H1135  1  0.049300  0.113500  0.364000  1.0  0.1274
  H  H1136  1  0.182900  0.195500  0.355600  1.0  0.0797
  H  H1137  1  0.515100  0.353300  0.606300  1.0  0.1332
  H  H1138  1  0.638600  0.385700  0.592500  1.0  0.0833
  H  H1139  1  0.042600  0.082800  0.344000  1.0  0.0795
  H  H1140  1  0.174700  0.146000  0.337400  1.0  0.1124
  H  H1141  1  0.022170  0.848830  0.839330  1.0  0.1079
  H  H1142  1  0.135570  0.911430  0.817630  1.0  0.0862
  H  H1143  1  0.996070  0.823930  0.765430  1.0  0.0885
  H  H1144  1  0.887870  0.767330  0.789830  1.0  0.1083
  H  H1145  1  0.061270  0.832230  0.853430  1.0  0.0908
  H  H1146  1  0.176570  0.895330  0.832330  1.0  0.1251
  H  H1147  1  0.961170  0.757530  0.753030  1.0  0.0968
  H  H1148  1  0.850370  0.703930  0.775630  1.0  0.1055
  H  H1149  1  0.164670  0.839230  0.851930  1.0  0.0656
  H  H1150  1  0.177970  0.888730  0.857630  1.0  0.081
  H  H1151  1  0.864270  0.655230  0.760130  1.0  0.0706
  H  H1152  1  0.848770  0.683730  0.751130  1.0  0.0653
  H  H1153  1  0.207270  0.850430  0.868730  1.0  0.1011
  H  H1154  1  0.822570  0.613530  0.743730  1.0  0.1052
  H  H1155  1  0.228670  0.807430  0.882230  1.0  0.1102
  H  H1156  1  0.053570  0.802030  0.881230  1.0  0.0912
  H  H1157  1  0.799970  0.551230  0.728730  1.0  0.1024
  H  H1158  1  0.976970  0.714930  0.731630  1.0  0.0896
  H  H1159  1  0.096970  0.729830  0.909530  1.0  0.099
  H  H1160  1  0.926670  0.594530  0.703330  1.0  0.0981
  H  H1161  1  0.035370  0.842730  0.898230  1.0  0.1217
  H  H1162  1  0.987670  0.724830  0.872930  1.0  0.117
  H  H1163  1  0.045670  0.706830  0.737530  1.0  0.0732
  H  H1164  1  0.989970  0.775430  0.713630  1.0  0.1018
  H  H1165  1  0.242670  0.802430  0.904430  1.0  0.0857
  H  H1166  1  0.230570  0.760430  0.895130  1.0  0.0947
  H  H1167  1  0.084170  0.778330  0.929130  1.0  0.0886
  H  H1168  1  0.039470  0.658330  0.903630  1.0  0.0977
  H  H1169  1  0.046470  0.864830  0.922230  1.0  0.1038
  H  H1170  1  0.953470  0.646830  0.873630  1.0  0.0883
  H  H1171  1  0.779670  0.535930  0.707330  1.0  0.087
  H  H1172  1  0.782870  0.496330  0.715030  1.0  0.0769
  H  H1173  1  0.993570  0.586830  0.708930  1.0  0.1059
  H  H1174  1  0.939470  0.654330  0.683330  1.0  0.1035
  H  H1175  1  0.082670  0.663930  0.737030  1.0  0.0941
  H  H1176  1  0.990070  0.789430  0.691630  1.0  0.088
  H  H1177  1  0.062970  0.830430  0.935030  1.0  0.1052
  H  H1178  1  0.968770  0.607430  0.891930  1.0  0.1114
  H  H1179  1  0.060670  0.610730  0.720530  1.0  0.0924
  H  H1180  1  0.954570  0.725230  0.677230  1.0  0.08
  H  H1181  1  0.171470  0.724130  0.922330  1.0  0.0833
  H  H1182  1  0.295970  0.754330  0.908530  1.0  0.1146
  H  H1183  1  0.715970  0.446830  0.697330  1.0  0.1273
  H  H1184  1  0.849570  0.528830  0.688930  1.0  0.0797
  H  H1185  1  0.181770  0.686630  0.939630  1.0  0.1332
  H  H1186  1  0.305270  0.719030  0.925830  1.0  0.0833
  H  H1187  1  0.709270  0.416130  0.677330  1.0  0.0795
  H  H1188  1  0.841370  0.479330  0.670730  1.0  0.1124
  H  H1189  1  0.688830  0.182170  0.172670  1.0  0.1079
  H  H1190  1  0.802230  0.244770  0.150970  1.0  0.0862
  H  H1191  1  0.662730  0.157270  0.098770  1.0  0.0885
  H  H1192  1  0.554530  0.100670  0.123170  1.0  0.1081
  H  H1193  1  0.727930  0.165570  0.186770  1.0  0.0908
  H  H1194  1  0.843230  0.228670  0.165670  1.0  0.1251
  H  H1195  1  0.627830  0.090870  0.086370  1.0  0.0968
  H  H1196  1  0.517030  0.037270  0.108970  1.0  0.1051
  H  H1197  1  0.831330  0.172570  0.185270  1.0  0.0656
  H  H1198  1  0.844630  0.222070  0.190970  1.0  0.0809
  H  H1199  1  0.530930  0.988570  0.093470  1.0  0.0707
  H  H1200  1  0.515430  0.017070  0.084470  1.0  0.0653
  H  H1201  1  0.873930  0.183770  0.202070  1.0  0.1011
  H  H1202  1  0.489230  0.946870  0.077070  1.0  0.1055
  H  H1203  1  0.895330  0.140770  0.215570  1.0  0.1102
  H  H1204  1  0.720230  0.135370  0.214570  1.0  0.0912
  H  H1205  1  0.466630  0.884570  0.062070  1.0  0.1024
  H  H1206  1  0.643630  0.048270  0.064970  1.0  0.0896
  H  H1207  1  0.763630  0.063170  0.242870  1.0  0.099
  H  H1208  1  0.593330  0.927870  0.036670  1.0  0.0981
  H  H1209  1  0.702030  0.176070  0.231570  1.0  0.1217
  H  H1210  1  0.654330  0.058170  0.206270  1.0  0.117
  H  H1211  1  0.712330  0.040170  0.070870  1.0  0.0732
  H  H1212  1  0.656630  0.108770  0.046970  1.0  0.1019
  H  H1213  1  0.909330  0.135770  0.237770  1.0  0.0856
  H  H1214  1  0.897230  0.093770  0.228470  1.0  0.0943
  H  H1215  1  0.750830  0.111670  0.262470  1.0  0.0884
  H  H1216  1  0.706130  0.991670  0.236970  1.0  0.0977
  H  H1217  1  0.713130  0.198170  0.255570  1.0  0.1036
  H  H1218  1  0.620130  0.980170  0.206970  1.0  0.0883
  H  H1219  1  0.446330  0.869270  0.040670  1.0  0.0871
  H  H1220  1  0.449530  0.829670  0.048370  1.0  0.0761
  H  H1221  1  0.660230  0.920170  0.042270  1.0  0.1064
  H  H1222  1  0.606130  0.987670  0.016670  1.0  0.1035
  H  H1223  1  0.749330  0.997270  0.070370  1.0  0.0941
  H  H1224  1  0.656730  0.122770  0.024970  1.0  0.088
  H  H1225  1  0.729630  0.163770  0.268370  1.0  0.1086
  H  H1226  1  0.635430  0.940770  0.225270  1.0  0.1117
  H  H1227  1  0.727330  0.944070  0.053870  1.0  0.0937
  H  H1228  1  0.621230  0.058570  0.010570  1.0  0.0803
  H  H1229  1  0.838130  0.057470  0.255670  1.0  0.0833
  H  H1230  1  0.962630  0.087670  0.241870  1.0  0.1136
  H  H1231  1  0.382630  0.780170  0.030670  1.0  0.1274
  H  H1232  1  0.516230  0.862170  0.022270  1.0  0.0797
  H  H1233  1  0.848430  0.019970  0.272970  1.0  0.1337
  H  H1234  1  0.971930  0.052370  0.259170  1.0  0.0782
  H  H1235  1  0.375930  0.749470  0.010670  1.0  0.0795
  H  H1236  1  0.508030  0.812670  0.004070  1.0  0.1124
  H  H1237  1  0.160000  0.644500  0.506000  1.0  0.1057
  H  H1238  1  0.109200  0.531100  0.484300  1.0  0.0858
  H  H1239  1  0.161200  0.670600  0.432100  1.0  0.0886
  H  H1240  1  0.212800  0.778800  0.456500  1.0  0.1079
  H  H1241  1  0.104300  0.605400  0.520100  1.0  0.0915
  H  H1242  1  0.052100  0.490100  0.499000  1.0  0.1244
  H  H1243  1  0.129700  0.705500  0.419700  1.0  0.0967
  H  H1244  1  0.186900  0.816300  0.442300  1.0  0.1056
  H  H1245  1  0.007900  0.502000  0.518600  1.0  0.0647
  H  H1246  1  0.044100  0.488700  0.524300  1.0  0.082
  H  H1247  1  0.124300  0.802400  0.426800  1.0  0.0691
  H  H1248  1  0.168300  0.817900  0.417800  1.0  0.0638
  H  H1249  1  0.976500  0.459400  0.535400  1.0  0.1008
  H  H1250  1  0.124300  0.844100  0.410400  1.0  0.1059
  H  H1251  1  0.912100  0.438000  0.548900  1.0  0.1109
  H  H1252  1  0.081800  0.613100  0.547900  1.0  0.0911
  H  H1253  1  0.084600  0.866700  0.395400  1.0  0.1036
  H  H1254  1  0.071300  0.689700  0.398300  1.0  0.0898
  H  H1255  1  0.966200  0.569700  0.576200  1.0  0.0998
  H  H1256  1  0.001200  0.740000  0.370000  1.0  0.0966
  H  H1257  1  0.140700  0.631300  0.564900  1.0  0.1252
  H  H1258  1  0.070500  0.679000  0.539600  1.0  0.1169
  H  H1259  1  0.994500  0.621000  0.404200  1.0  0.0713
  H  H1260  1  0.118800  0.676700  0.380300  1.0  0.1032
  H  H1261  1  0.893100  0.424000  0.571100  1.0  0.0857
  H  H1262  1  0.863200  0.436100  0.561800  1.0  0.0954
  H  H1263  1  0.027500  0.582500  0.595800  1.0  0.0877
  H  H1264  1  0.952200  0.627200  0.570300  1.0  0.0984
  H  H1265  1  0.151700  0.620200  0.588900  1.0  0.1026
  H  H1266  1  0.026700  0.713200  0.540300  1.0  0.0903
  H  H1267  1  0.089600  0.887000  0.374000  1.0  0.092
  H  H1268  1  0.046800  0.883800  0.381700  1.0  0.0753
  H  H1269  1  0.926600  0.673100  0.375600  1.0  0.1071
  H  H1270  1  0.048200  0.727200  0.350000  1.0  0.1038
  H  H1271  1  0.914600  0.584000  0.403700  1.0  0.0955
  H  H1272  1  0.132700  0.676600  0.358300  1.0  0.0881
  H  H1273  1  0.100800  0.603700  0.601700  1.0  0.1044
  H  H1274  1  0.972000  0.697900  0.558600  1.0  0.1101
  H  H1275  1  0.883400  0.606000  0.387200  1.0  0.0914
  H  H1276  1  0.104000  0.712100  0.343900  1.0  0.0813
  H  H1277  1  0.886000  0.495200  0.589000  1.0  0.0846
  H  H1278  1  0.791700  0.370700  0.575200  1.0  0.1144
  H  H1279  1  0.064200  0.950700  0.364000  1.0  0.1264
  H  H1280  1  0.012600  0.817100  0.355600  1.0  0.0798
  H  H1281  1  0.838200  0.484900  0.606300  1.0  0.1312
  H  H1282  1  0.747100  0.361400  0.592500  1.0  0.0778
  H  H1283  1  0.040200  0.957400  0.344000  1.0  0.0801
  H  H1284  1  0.971300  0.825300  0.337400  1.0  0.1129
  H  H1285  1  0.826670  0.977830  0.839330  1.0  0.1057
  H  H1286  1  0.775870  0.864430  0.817630  1.0  0.0858
  H  H1287  1  0.827870  0.003930  0.765430  1.0  0.0887
  H  H1288  1  0.879470  0.112130  0.789830  1.0  0.1081
  H  H1289  1  0.770970  0.938730  0.853430  1.0  0.0915
  H  H1290  1  0.718770  0.823430  0.832330  1.0  0.1244
  H  H1291  1  0.796370  0.038830  0.753030  1.0  0.0968
  H  H1292  1  0.853570  0.149630  0.775630  1.0  0.1063
  H  H1293  1  0.674570  0.835330  0.851930  1.0  0.0647
  H  H1294  1  0.710770  0.822030  0.857630  1.0  0.082
  H  H1295  1  0.790970  0.135730  0.760130  1.0  0.0691
  H  H1296  1  0.834970  0.151230  0.751130  1.0  0.0636
  H  H1297  1  0.643170  0.792730  0.868730  1.0  0.1008
  H  H1298  1  0.790970  0.177430  0.743730  1.0  0.1059
  H  H1299  1  0.578770  0.771330  0.882230  1.0  0.1109
  H  H1300  1  0.748470  0.946430  0.881230  1.0  0.0911
  H  H1301  1  0.751270  0.200030  0.728730  1.0  0.1038
  H  H1302  1  0.737970  0.023030  0.731630  1.0  0.0898
  H  H1303  1  0.632870  0.903030  0.909530  1.0  0.0998
  H  H1304  1  0.667870  0.073330  0.703330  1.0  0.0966
  H  H1305  1  0.807370  0.964630  0.898230  1.0  0.1252
  H  H1306  1  0.737170  0.012330  0.872930  1.0  0.117
  H  H1307  1  0.661170  0.954330  0.737530  1.0  0.0713
  H  H1308  1  0.785470  0.010030  0.713630  1.0  0.1032
  H  H1309  1  0.559770  0.757330  0.904430  1.0  0.0857
  H  H1310  1  0.529870  0.769430  0.895130  1.0  0.0954
  H  H1311  1  0.694170  0.915830  0.929130  1.0  0.0877
  H  H1312  1  0.618870  0.960530  0.903630  1.0  0.0984
  H  H1313  1  0.818370  0.953530  0.922230  1.0  0.1026
  H  H1314  1  0.693370  0.046530  0.873630  1.0  0.0903
  H  H1315  1  0.756270  0.220330  0.707330  1.0  0.0919
  H  H1316  1  0.713470  0.217130  0.715030  1.0  0.0757
  H  H1317  1  0.593270  0.006430  0.708930  1.0  0.1071
  H  H1318  1  0.714870  0.060530  0.683330  1.0  0.1036
  H  H1319  1  0.581270  0.917330  0.737030  1.0  0.0955
  H  H1320  1  0.799370  0.009930  0.691630  1.0  0.088
  H  H1321  1  0.767470  0.937030  0.935030  1.0  0.1036
  H  H1322  1  0.638670  0.031230  0.891930  1.0  0.1101
  H  H1323  1  0.550070  0.939330  0.720530  1.0  0.0914
  H  H1324  1  0.770670  0.045430  0.677230  1.0  0.0811
  H  H1325  1  0.552670  0.828530  0.922330  1.0  0.0846
  H  H1326  1  0.458370  0.704030  0.908530  1.0  0.1144
  H  H1327  1  0.730870  0.284030  0.697330  1.0  0.1263
  H  H1328  1  0.679270  0.150430  0.688930  1.0  0.0799
  H  H1329  1  0.504870  0.818230  0.939630  1.0  0.1312
  H  H1330  1  0.413770  0.694730  0.925830  1.0  0.0778
  H  H1331  1  0.706870  0.290730  0.677330  1.0  0.0801
  H  H1332  1  0.637970  0.158630  0.670730  1.0  0.113
  H  H1333  1  0.493330  0.311170  0.172670  1.0  0.1056
  H  H1334  1  0.442530  0.197770  0.150970  1.0  0.0858
  H  H1335  1  0.494530  0.337270  0.098770  1.0  0.0886
  H  H1336  1  0.546130  0.445470  0.123170  1.0  0.1079
  H  H1337  1  0.437630  0.272070  0.186770  1.0  0.0915
  H  H1338  1  0.385430  0.156770  0.165670  1.0  0.1244
  H  H1339  1  0.463030  0.372170  0.086370  1.0  0.0967
  H  H1340  1  0.520230  0.482970  0.108970  1.0  0.1056
  H  H1341  1  0.341230  0.168670  0.185270  1.0  0.0646
  H  H1342  1  0.377430  0.155370  0.190970  1.0  0.0821
  H  H1343  1  0.457630  0.469070  0.093470  1.0  0.0691
  H  H1344  1  0.501630  0.484570  0.084470  1.0  0.0638
  H  H1345  1  0.309830  0.126070  0.202070  1.0  0.1012
  H  H1346  1  0.457630  0.510770  0.077070  1.0  0.1059
  H  H1347  1  0.245430  0.104670  0.215570  1.0  0.1109
  H  H1348  1  0.415130  0.279770  0.214570  1.0  0.0911
  H  H1349  1  0.417930  0.533370  0.062070  1.0  0.1036
  H  H1350  1  0.404630  0.356370  0.064970  1.0  0.0898
  H  H1351  1  0.299530  0.236370  0.242870  1.0  0.0997
  H  H1352  1  0.334530  0.406670  0.036670  1.0  0.0966
  H  H1353  1  0.474030  0.297970  0.231570  1.0  0.1252
  H  H1354  1  0.403830  0.345670  0.206270  1.0  0.1168
  H  H1355  1  0.327830  0.287670  0.070870  1.0  0.0713
  H  H1356  1  0.452130  0.343370  0.046970  1.0  0.1032
  H  H1357  1  0.226430  0.090670  0.237770  1.0  0.0857
  H  H1358  1  0.196530  0.102770  0.228470  1.0  0.0952
  H  H1359  1  0.360830  0.249170  0.262470  1.0  0.0876
  H  H1360  1  0.285530  0.293870  0.236970  1.0  0.097
  H  H1361  1  0.485030  0.286870  0.255570  1.0  0.0995
  H  H1362  1  0.360030  0.379870  0.206970  1.0  0.0903
  H  H1363  1  0.422930  0.553670  0.040670  1.0  0.092
  H  H1364  1  0.380130  0.550470  0.048370  1.0  0.0753
  H  H1365  1  0.259930  0.339770  0.042270  1.0  0.1076
  H  H1366  1  0.381530  0.393870  0.016670  1.0  0.1038
  H  H1367  1  0.247930  0.250670  0.070370  1.0  0.0955
  H  H1368  1  0.466030  0.343270  0.024970  1.0  0.0881
  H  H1369  1  0.434130  0.270370  0.268370  1.0  0.1044
  H  H1370  1  0.305330  0.364570  0.225270  1.0  0.1104
  H  H1371  1  0.216730  0.272670  0.053870  1.0  0.0916
  H  H1372  1  0.437330  0.378770  0.010570  1.0  0.0811
  H  H1373  1  0.219330  0.161870  0.255670  1.0  0.0845
  H  H1374  1  0.125030  0.037370  0.241870  1.0  0.1134
  H  H1375  1  0.397530  0.617370  0.030670  1.0  0.1264
  H  H1376  1  0.345930  0.483770  0.022270  1.0  0.0798
  H  H1377  1  0.171530  0.151570  0.272970  1.0  0.1316
  H  H1378  1  0.080430  0.028070  0.259170  1.0  0.0813
  H  H1379  1  0.373530  0.624070  0.010670  1.0  0.0801
  H  H1380  1  0.304630  0.491970  0.004070  1.0  0.113
  H  H1381  1  0.160000  0.515500  0.006000  1.0  0.1075
  H  H1382  1  0.109200  0.578100  0.984300  1.0  0.0863
  H  H1383  1  0.161200  0.490600  0.932100  1.0  0.0888
  H  H1384  1  0.212800  0.434000  0.956500  1.0  0.1071
  H  H1385  1  0.104300  0.498900  0.020100  1.0  0.0907
  H  H1386  1  0.052100  0.562000  0.999000  1.0  0.1251
  H  H1387  1  0.129700  0.424200  0.919700  1.0  0.0968
  H  H1388  1  0.186900  0.370600  0.942300  1.0  0.1048
  H  H1389  1  0.007900  0.505900  0.018600  1.0  0.0658
  H  H1390  1  0.044100  0.555400  0.024300  1.0  0.0814
  H  H1391  1  0.124300  0.321900  0.926800  1.0  0.0709
  H  H1392  1  0.168300  0.350400  0.917800  1.0  0.0674
  H  H1393  1  0.976500  0.517100  0.035400  1.0  0.1009
  H  H1394  1  0.124300  0.280200  0.910400  1.0  0.106
  H  H1395  1  0.912100  0.474100  0.048900  1.0  0.1102
  H  H1396  1  0.081800  0.468700  0.047900  1.0  0.0896
  H  H1397  1  0.084600  0.217900  0.895400  1.0  0.103
  H  H1398  1  0.071300  0.381600  0.898300  1.0  0.089
  H  H1399  1  0.966200  0.396500  0.076200  1.0  0.0998
  H  H1400  1  0.001200  0.261200  0.870000  1.0  0.0971
  H  H1401  1  0.140700  0.509400  0.064900  1.0  0.1212
  H  H1402  1  0.070500  0.391500  0.039600  1.0  0.1171
  H  H1403  1  0.994500  0.373500  0.904200  1.0  0.0742
  H  H1404  1  0.118800  0.442100  0.880300  1.0  0.1019
  H  H1405  1  0.893100  0.469100  0.071100  1.0  0.0858
  H  H1406  1  0.863200  0.427100  0.061800  1.0  0.095
  H  H1407  1  0.027500  0.445000  0.095800  1.0  0.0884
  H  H1408  1  0.952200  0.325000  0.070300  1.0  0.098
  H  H1409  1  0.151700  0.531500  0.088900  1.0  0.1012
  H  H1410  1  0.026700  0.313500  0.040300  1.0  0.0894
  H  H1411  1  0.089600  0.202600  0.874000  1.0  0.0875
  H  H1412  1  0.046800  0.163000  0.881700  1.0  0.0773
  H  H1413  1  0.926600  0.253500  0.875600  1.0  0.106
  H  H1414  1  0.048200  0.321000  0.850000  1.0  0.1028
  H  H1415  1  0.914600  0.330600  0.903700  1.0  0.0943
  H  H1416  1  0.132700  0.456100  0.858300  1.0  0.0875
  H  H1417  1  0.100800  0.497100  0.101700  1.0  0.104
  H  H1418  1  0.972000  0.274100  0.058600  1.0  0.1101
  H  H1419  1  0.883400  0.277400  0.887200  1.0  0.0908
  H  H1420  1  0.104000  0.391900  0.843900  1.0  0.0799
  H  H1421  1  0.886000  0.390800  0.089000  1.0  0.0843
  H  H1422  1  0.791700  0.421000  0.075200  1.0  0.1137
  H  H1423  1  0.064200  0.113500  0.864000  1.0  0.1273
  H  H1424  1  0.012600  0.195500  0.855600  1.0  0.0797
  H  H1425  1  0.838200  0.353300  0.106300  1.0  0.1327
  H  H1426  1  0.747100  0.385700  0.092500  1.0  0.0794
  H  H1427  1  0.040200  0.082800  0.844000  1.0  0.0794
  H  H1428  1  0.971300  0.146000  0.837400  1.0  0.1124
  H  H1429  1  0.826670  0.848830  0.339330  1.0  0.1075
  H  H1430  1  0.775870  0.911430  0.317630  1.0  0.0863
  H  H1431  1  0.827870  0.823930  0.265430  1.0  0.0887
  H  H1432  1  0.879470  0.767330  0.289830  1.0  0.1071
  H  H1433  1  0.770970  0.832230  0.353430  1.0  0.0907
  H  H1434  1  0.718770  0.895330  0.332330  1.0  0.1251
  H  H1435  1  0.796370  0.757530  0.253030  1.0  0.0968
  H  H1436  1  0.853570  0.703930  0.275630  1.0  0.1053
  H  H1437  1  0.674570  0.839230  0.351930  1.0  0.0659
  H  H1438  1  0.710770  0.888730  0.357630  1.0  0.0814
  H  H1439  1  0.790970  0.655230  0.260130  1.0  0.0709
  H  H1440  1  0.834970  0.683730  0.251130  1.0  0.0671
  H  H1441  1  0.643170  0.850430  0.368730  1.0  0.1009
  H  H1442  1  0.790970  0.613530  0.243730  1.0  0.1063
  H  H1443  1  0.578770  0.807430  0.382230  1.0  0.1102
  H  H1444  1  0.748470  0.802030  0.381230  1.0  0.0896
  H  H1445  1  0.751270  0.551230  0.228730  1.0  0.103
  H  H1446  1  0.737970  0.714930  0.231630  1.0  0.089
  H  H1447  1  0.632870  0.729830  0.409530  1.0  0.0998
  H  H1448  1  0.667870  0.594530  0.203330  1.0  0.0971
  H  H1449  1  0.807370  0.842730  0.398230  1.0  0.1212
  H  H1450  1  0.737170  0.724830  0.372930  1.0  0.1172
  H  H1451  1  0.661170  0.706830  0.237530  1.0  0.0741
  H  H1452  1  0.785470  0.775430  0.213630  1.0  0.1021
  H  H1453  1  0.559770  0.802430  0.404430  1.0  0.0858
  H  H1454  1  0.529870  0.760430  0.395130  1.0  0.095
  H  H1455  1  0.694170  0.778330  0.429130  1.0  0.0884
  H  H1456  1  0.618870  0.658330  0.403630  1.0  0.098
  H  H1457  1  0.818370  0.864830  0.422230  1.0  0.1012
  H  H1458  1  0.693370  0.646830  0.373630  1.0  0.0894
  H  H1459  1  0.756270  0.535930  0.207330  1.0  0.0874
  H  H1460  1  0.713470  0.496330  0.215030  1.0  0.0752
  H  H1461  1  0.593270  0.586830  0.208930  1.0  0.106
  H  H1462  1  0.714870  0.654330  0.183330  1.0  0.1028
  H  H1463  1  0.581270  0.663930  0.237030  1.0  0.0943
  H  H1464  1  0.799370  0.789430  0.191630  1.0  0.0875
  H  H1465  1  0.767470  0.830430  0.435030  1.0  0.1039
  H  H1466  1  0.638670  0.607430  0.391930  1.0  0.1101
  H  H1467  1  0.550070  0.610730  0.220530  1.0  0.0908
  H  H1468  1  0.770670  0.725230  0.177230  1.0  0.0795
  H  H1469  1  0.552670  0.724130  0.422330  1.0  0.0843
  H  H1470  1  0.458370  0.754330  0.408530  1.0  0.1137
  H  H1471  1  0.730870  0.446830  0.197330  1.0  0.1272
  H  H1472  1  0.679270  0.528830  0.188930  1.0  0.0798
  H  H1473  1  0.504870  0.686630  0.439630  1.0  0.1327
  H  H1474  1  0.413770  0.719030  0.425830  1.0  0.0794
  H  H1475  1  0.706870  0.416130  0.177330  1.0  0.0793
  H  H1476  1  0.637970  0.479330  0.170730  1.0  0.1124
  H  H1477  1  0.493330  0.182170  0.672670  1.0  0.1075
  H  H1478  1  0.442530  0.244770  0.650970  1.0  0.0863
  H  H1479  1  0.494530  0.157270  0.598770  1.0  0.0888
  H  H1480  1  0.546130  0.100670  0.623170  1.0  0.1071
  H  H1481  1  0.437630  0.165570  0.686770  1.0  0.0907
  H  H1482  1  0.385430  0.228670  0.665670  1.0  0.1251
  H  H1483  1  0.463030  0.090870  0.586370  1.0  0.0968
  H  H1484  1  0.520230  0.037270  0.608970  1.0  0.1048
  H  H1485  1  0.341230  0.172570  0.685270  1.0  0.0658
  H  H1486  1  0.377430  0.222070  0.690970  1.0  0.0814
  H  H1487  1  0.457630  0.988570  0.593470  1.0  0.0709
  H  H1488  1  0.501630  0.017070  0.584470  1.0  0.0674
  H  H1489  1  0.309830  0.183770  0.702070  1.0  0.1008
  H  H1490  1  0.457630  0.946870  0.577070  1.0  0.106
  H  H1491  1  0.245430  0.140770  0.715570  1.0  0.1102
  H  H1492  1  0.415130  0.135370  0.714570  1.0  0.0896
  H  H1493  1  0.417930  0.884570  0.562070  1.0  0.103
  H  H1494  1  0.404630  0.048270  0.564970  1.0  0.089
  H  H1495  1  0.299530  0.063170  0.742870  1.0  0.0997
  H  H1496  1  0.334530  0.927870  0.536670  1.0  0.0971
  H  H1497  1  0.474030  0.176070  0.731570  1.0  0.1212
  H  H1498  1  0.403830  0.058170  0.706270  1.0  0.1171
  H  H1499  1  0.327830  0.040170  0.570870  1.0  0.0742
  H  H1500  1  0.452130  0.108770  0.546970  1.0  0.1019
  H  H1501  1  0.226430  0.135770  0.737770  1.0  0.0857
  H  H1502  1  0.196530  0.093770  0.728470  1.0  0.0946
  H  H1503  1  0.360830  0.111670  0.762470  1.0  0.0883
  H  H1504  1  0.285530  0.991670  0.736970  1.0  0.098
  H  H1505  1  0.485030  0.198170  0.755570  1.0  0.103
  H  H1506  1  0.360030  0.980170  0.706970  1.0  0.0894
  H  H1507  1  0.422930  0.869270  0.540670  1.0  0.0875
  H  H1508  1  0.380130  0.829670  0.548370  1.0  0.0773
  H  H1509  1  0.259930  0.920170  0.542270  1.0  0.106
  H  H1510  1  0.381530  0.987670  0.516670  1.0  0.1028
  H  H1511  1  0.247930  0.997270  0.570370  1.0  0.0943
  H  H1512  1  0.466030  0.122770  0.524970  1.0  0.0875
  H  H1513  1  0.434130  0.163770  0.768370  1.0  0.104
  H  H1514  1  0.305330  0.940770  0.725270  1.0  0.1105
  H  H1515  1  0.216730  0.944070  0.553870  1.0  0.0908
  H  H1516  1  0.437330  0.058570  0.510570  1.0  0.0799
  H  H1517  1  0.219330  0.057470  0.755670  1.0  0.0845
  H  H1518  1  0.125030  0.087670  0.741870  1.0  0.1142
  H  H1519  1  0.397530  0.780170  0.530670  1.0  0.1273
  H  H1520  1  0.345930  0.862170  0.522270  1.0  0.0797
  H  H1521  1  0.171530  0.019970  0.772970  1.0  0.1327
  H  H1522  1  0.080430  0.052370  0.759170  1.0  0.0815
  H  H1523  1  0.373530  0.749470  0.510670  1.0  0.0794
  H  H1524  1  0.304630  0.812670  0.504070  1.0  0.1125
  H  H1525  1  0.484500  0.644500  0.006000  1.0  0.1051
  H  H1526  1  0.421900  0.531100  0.984300  1.0  0.086
  H  H1527  1  0.509400  0.670600  0.932100  1.0  0.0887
  H  H1528  1  0.566000  0.778800  0.956500  1.0  0.1076
  H  H1529  1  0.501100  0.605400  0.020100  1.0  0.0913
  H  H1530  1  0.438000  0.490100  0.999000  1.0  0.1239
  H  H1531  1  0.575800  0.705500  0.919700  1.0  0.0962
  H  H1532  1  0.629400  0.816300  0.942300  1.0  0.1052
  H  H1533  1  0.494100  0.502000  0.018600  1.0  0.0658
  H  H1534  1  0.444600  0.488700  0.024300  1.0  0.0827
  H  H1535  1  0.678100  0.802400  0.926800  1.0  0.0679
  H  H1536  1  0.649600  0.817900  0.917800  1.0  0.0655
  H  H1537  1  0.482900  0.459400  0.035400  1.0  0.1009
  H  H1538  1  0.719800  0.844100  0.910400  1.0  0.1062
  H  H1539  1  0.525900  0.438000  0.048900  1.0  0.1105
  H  H1540  1  0.531300  0.613100  0.047900  1.0  0.0911
  H  H1541  1  0.782100  0.866700  0.895400  1.0  0.1028
  H  H1542  1  0.618400  0.689700  0.898300  1.0  0.09
  H  H1543  1  0.603500  0.569700  0.076200  1.0  0.0989
  H  H1544  1  0.738800  0.740000  0.870000  1.0  0.0962
  H  H1545  1  0.490600  0.631300  0.064900  1.0  0.1258
  H  H1546  1  0.608500  0.679000  0.039600  1.0  0.1171
  H  H1547  1  0.626500  0.621000  0.904200  1.0  0.0714
  H  H1548  1  0.557900  0.676700  0.880300  1.0  0.1022
  H  H1549  1  0.530900  0.424000  0.071100  1.0  0.0846
  H  H1550  1  0.572900  0.436100  0.061800  1.0  0.0956
  H  H1551  1  0.555000  0.582500  0.095800  1.0  0.088
  H  H1552  1  0.675000  0.627200  0.070300  1.0  0.0974
  H  H1553  1  0.468500  0.620200  0.088900  1.0  0.1027
  H  H1554  1  0.686500  0.713200  0.040300  1.0  0.0899
  H  H1555  1  0.797400  0.887000  0.874000  1.0  0.092
  H  H1556  1  0.837000  0.883800  0.881700  1.0  0.0756
  H  H1557  1  0.746500  0.673100  0.875600  1.0  0.1076
  H  H1558  1  0.679000  0.727200  0.850000  1.0  0.1041
  H  H1559  1  0.669400  0.584000  0.903700  1.0  0.0956
  H  H1560  1  0.543900  0.676600  0.858300  1.0  0.0884
  H  H1561  1  0.502900  0.603700  0.101700  1.0  0.109
  H  H1562  1  0.725900  0.697900  0.058600  1.0  0.11
  H  H1563  1  0.722600  0.606000  0.887200  1.0  0.092
  H  H1564  1  0.608100  0.712100  0.843900  1.0  0.0813
  H  H1565  1  0.609200  0.495200  0.089000  1.0  0.0849
  H  H1566  1  0.579000  0.370700  0.075200  1.0  0.1142
  H  H1567  1  0.886500  0.950700  0.864000  1.0  0.1262
  H  H1568  1  0.804500  0.817100  0.855600  1.0  0.0798
  H  H1569  1  0.646700  0.484900  0.106300  1.0  0.1315
  H  H1570  1  0.614300  0.361400  0.092500  1.0  0.0808
  H  H1571  1  0.917200  0.957400  0.844000  1.0  0.0799
  H  H1572  1  0.854000  0.825300  0.837400  1.0  0.1133
  H  H1573  1  0.151170  0.977830  0.339330  1.0  0.1051
  H  H1574  1  0.088570  0.864430  0.317630  1.0  0.086
  H  H1575  1  0.176070  0.003930  0.265430  1.0  0.0888
  H  H1576  1  0.232670  0.112130  0.289830  1.0  0.1077
  H  H1577  1  0.167770  0.938730  0.353430  1.0  0.0913
  H  H1578  1  0.104670  0.823430  0.332330  1.0  0.1239
  H  H1579  1  0.242470  0.038830  0.253030  1.0  0.0962
  H  H1580  1  0.296070  0.149630  0.275630  1.0  0.1059
  H  H1581  1  0.160770  0.835330  0.351930  1.0  0.0658
  H  H1582  1  0.111270  0.822030  0.357630  1.0  0.0827
  H  H1583  1  0.344770  0.135730  0.260130  1.0  0.0679
  H  H1584  1  0.316270  0.151230  0.251130  1.0  0.0655
  H  H1585  1  0.149570  0.792730  0.368730  1.0  0.1009
  H  H1586  1  0.386470  0.177430  0.243730  1.0  0.106
  H  H1587  1  0.192570  0.771330  0.382230  1.0  0.1105
  H  H1588  1  0.197970  0.946430  0.381230  1.0  0.091
  H  H1589  1  0.448770  0.200030  0.228730  1.0  0.1028
  H  H1590  1  0.285070  0.023030  0.231630  1.0  0.09
  H  H1591  1  0.270170  0.903030  0.409530  1.0  0.0989
  H  H1592  1  0.405470  0.073330  0.203330  1.0  0.0962
  H  H1593  1  0.157270  0.964630  0.398230  1.0  0.1258
  H  H1594  1  0.275170  0.012330  0.372930  1.0  0.1171
  H  H1595  1  0.293170  0.954330  0.237530  1.0  0.0714
  H  H1596  1  0.224570  0.010030  0.213630  1.0  0.1021
  H  H1597  1  0.197570  0.757330  0.404430  1.0  0.0846
  H  H1598  1  0.239570  0.769430  0.395130  1.0  0.0956
  H  H1599  1  0.221670  0.915830  0.429130  1.0  0.088
  H  H1600  1  0.341670  0.960530  0.403630  1.0  0.0974
  H  H1601  1  0.135170  0.953530  0.422230  1.0  0.1028
  H  H1602  1  0.353170  0.046530  0.373630  1.0  0.0902
  H  H1603  1  0.464070  0.220330  0.207330  1.0  0.0919
  H  H1604  1  0.503670  0.217130  0.215030  1.0  0.0762
  H  H1605  1  0.413170  0.006430  0.208930  1.0  0.1076
  H  H1606  1  0.345670  0.060530  0.183330  1.0  0.1041
  H  H1607  1  0.336070  0.917330  0.237030  1.0  0.0956
  H  H1608  1  0.210570  0.009930  0.191630  1.0  0.0885
  H  H1609  1  0.169570  0.937030  0.435030  1.0  0.1054
  H  H1610  1  0.392570  0.031230  0.391930  1.0  0.11
  H  H1611  1  0.389270  0.939330  0.220530  1.0  0.092
  H  H1612  1  0.274770  0.045430  0.177230  1.0  0.0813
  H  H1613  1  0.275870  0.828530  0.422330  1.0  0.0849
  H  H1614  1  0.245670  0.704030  0.408530  1.0  0.1142
  H  H1615  1  0.553170  0.284030  0.197330  1.0  0.1261
  H  H1616  1  0.471170  0.150430  0.188930  1.0  0.0798
  H  H1617  1  0.313370  0.818230  0.439630  1.0  0.1315
  H  H1618  1  0.280970  0.694730  0.425830  1.0  0.0808
  H  H1619  1  0.583870  0.290730  0.177330  1.0  0.0799
  H  H1620  1  0.520670  0.158630  0.170730  1.0  0.1133
  H  H1621  1  0.817830  0.311170  0.672670  1.0  0.1051
  H  H1622  1  0.755230  0.197770  0.650970  1.0  0.086
  H  H1623  1  0.842730  0.337270  0.598770  1.0  0.0887
  H  H1624  1  0.899330  0.445470  0.623170  1.0  0.1076
  H  H1625  1  0.834430  0.272070  0.686770  1.0  0.0913
  H  H1626  1  0.771330  0.156770  0.665670  1.0  0.1239
  H  H1627  1  0.909130  0.372170  0.586370  1.0  0.0962
  H  H1628  1  0.962730  0.482970  0.608970  1.0  0.1052
  H  H1629  1  0.827430  0.168670  0.685270  1.0  0.0658
  H  H1630  1  0.777930  0.155370  0.690970  1.0  0.0826
  H  H1631  1  0.011430  0.469070  0.593470  1.0  0.0679
  H  H1632  1  0.982930  0.484570  0.584470  1.0  0.0655
  H  H1633  1  0.816230  0.126070  0.702070  1.0  0.1009
  H  H1634  1  0.053130  0.510770  0.577070  1.0  0.1062
  H  H1635  1  0.859230  0.104670  0.715570  1.0  0.1105
  H  H1636  1  0.864630  0.279770  0.714570  1.0  0.091
  H  H1637  1  0.115430  0.533370  0.562070  1.0  0.1028
  H  H1638  1  0.951730  0.356370  0.564970  1.0  0.09
  H  H1639  1  0.936830  0.236370  0.742870  1.0  0.0988
  H  H1640  1  0.072130  0.406670  0.536670  1.0  0.0962
  H  H1641  1  0.823930  0.297970  0.731570  1.0  0.1258
  H  H1642  1  0.941830  0.345670  0.706270  1.0  0.1171
  H  H1643  1  0.959830  0.287670  0.570870  1.0  0.0714
  H  H1644  1  0.891230  0.343370  0.546970  1.0  0.1022
  H  H1645  1  0.864230  0.090670  0.737770  1.0  0.0846
  H  H1646  1  0.906230  0.102770  0.728470  1.0  0.0953
  H  H1647  1  0.888330  0.249170  0.762470  1.0  0.0877
  H  H1648  1  0.008330  0.293870  0.736970  1.0  0.0974
  H  H1649  1  0.801830  0.286870  0.755570  1.0  0.1027
  H  H1650  1  0.019830  0.379870  0.706970  1.0  0.0902
  H  H1651  1  0.130730  0.553670  0.540670  1.0  0.092
  H  H1652  1  0.170330  0.550470  0.548370  1.0  0.0756
  H  H1653  1  0.079830  0.339770  0.542270  1.0  0.1076
  H  H1654  1  0.012330  0.393870  0.516670  1.0  0.1041
  H  H1655  1  0.002730  0.250670  0.570370  1.0  0.0956
  H  H1656  1  0.877230  0.343270  0.524970  1.0  0.0884
  H  H1657  1  0.836230  0.270370  0.768370  1.0  0.109
  H  H1658  1  0.059230  0.364570  0.725270  1.0  0.1103
  H  H1659  1  0.055930  0.272670  0.553870  1.0  0.092
  H  H1660  1  0.941430  0.378770  0.510570  1.0  0.0816
  H  H1661  1  0.942530  0.161870  0.755670  1.0  0.0849
  H  H1662  1  0.912330  0.037370  0.741870  1.0  0.1135
  H  H1663  1  0.219830  0.617370  0.530670  1.0  0.1262
  H  H1664  1  0.137830  0.483770  0.522270  1.0  0.0798
  H  H1665  1  0.980030  0.151570  0.772970  1.0  0.1319
  H  H1666  1  0.947630  0.028070  0.759170  1.0  0.0767
  H  H1667  1  0.250530  0.624070  0.510670  1.0  0.0799
  H  H1668  1  0.187330  0.491970  0.504070  1.0  0.1132
  H  H1669  1  0.355500  0.840000  0.006000  1.0  0.1068
  H  H1670  1  0.468900  0.890800  0.984300  1.0  0.0854
  H  H1671  1  0.329400  0.838800  0.932100  1.0  0.0882
  H  H1672  1  0.221200  0.787200  0.956500  1.0  0.1088
  H  H1673  1  0.394600  0.895700  0.020100  1.0  0.0902
  H  H1674  1  0.509900  0.947900  0.999000  1.0  0.1242
  H  H1675  1  0.294500  0.870300  0.919700  1.0  0.0958
  H  H1676  1  0.183700  0.813100  0.942300  1.0  0.106
  H  H1677  1  0.498000  0.992100  0.018600  1.0  0.0667
  H  H1678  1  0.511300  0.955900  0.024300  1.0  0.0805
  H  H1679  1  0.197600  0.875700  0.926800  1.0  0.0693
  H  H1680  1  0.182100  0.831700  0.917800  1.0  0.0653
  H  H1681  1  0.540600  0.023500  0.035400  1.0  0.1002
  H  H1682  1  0.155900  0.875700  0.910400  1.0  0.1055
  H  H1683  1  0.562000  0.087900  0.048900  1.0  0.1105
  H  H1684  1  0.386900  0.918200  0.047900  1.0  0.091
  H  H1685  1  0.133300  0.915400  0.895400  1.0  0.1043
  H  H1686  1  0.310300  0.928700  0.898300  1.0  0.0894
  H  H1687  1  0.430300  0.033800  0.076200  1.0  0.0992
  H  H1688  1  0.260000  0.998800  0.870000  1.0  0.0979
  H  H1689  1  0.368700  0.859300  0.064900  1.0  0.121
  H  H1690  1  0.321000  0.929500  0.039600  1.0  0.1146
  H  H1691  1  0.379000  0.005500  0.904200  1.0  0.073
  H  H1692  1  0.323300  0.881200  0.880300  1.0  0.103
  H  H1693  1  0.576000  0.106900  0.071100  1.0  0.0871
  H  H1694  1  0.563900  0.136800  0.061800  1.0  0.0962
  H  H1695  1  0.417500  0.972500  0.095800  1.0  0.0881
  H  H1696  1  0.372800  0.047800  0.070300  1.0  0.0996
  H  H1697  1  0.379800  0.848300  0.088900  1.0  0.1051
  H  H1698  1  0.286800  0.973300  0.040300  1.0  0.0891
  H  H1699  1  0.113000  0.910400  0.874000  1.0  0.089
  H  H1700  1  0.116200  0.953200  0.881700  1.0  0.0756
  H  H1701  1  0.326900  0.073400  0.875600  1.0  0.1094
  H  H1702  1  0.272800  0.951800  0.850000  1.0  0.1033
  H  H1703  1  0.416000  0.085400  0.903700  1.0  0.0985
  H  H1704  1  0.323400  0.867300  0.858300  1.0  0.0884
  H  H1705  1  0.396300  0.899200  0.101700  1.0  0.1048
  H  H1706  1  0.302100  0.028000  0.058600  1.0  0.1101
  H  H1707  1  0.394000  0.116600  0.887200  1.0  0.0924
  H  H1708  1  0.287900  0.896000  0.843900  1.0  0.0806
  H  H1709  1  0.504800  0.114000  0.089000  1.0  0.083
  H  H1710  1  0.629300  0.208300  0.075200  1.0  0.1147
  H  H1711  1  0.049300  0.935800  0.864000  1.0  0.1265
  H  H1712  1  0.182900  0.987400  0.855600  1.0  0.0826
  H  H1713  1  0.515100  0.161800  0.106300  1.0  0.1322
  H  H1714  1  0.638600  0.252900  0.092500  1.0  0.0782
  H  H1715  1  0.042600  0.959800  0.844000  1.0  0.0787
  H  H1716  1  0.174700  0.028700  0.837400  1.0  0.1145
  H  H1717  1  0.022170  0.173330  0.339330  1.0  0.1068
  H  H1718  1  0.135570  0.224130  0.317630  1.0  0.0854
  H  H1719  1  0.996070  0.172130  0.265430  1.0  0.0882
  H  H1720  1  0.887870  0.120530  0.289830  1.0  0.109
  H  H1721  1  0.061270  0.229030  0.353430  1.0  0.0902
  H  H1722  1  0.176570  0.281230  0.332330  1.0  0.1242
  H  H1723  1  0.961170  0.203630  0.253030  1.0  0.0959
  H  H1724  1  0.850370  0.146430  0.275630  1.0  0.1064
  H  H1725  1  0.164670  0.325430  0.351930  1.0  0.0667
  H  H1726  1  0.177970  0.289230  0.357630  1.0  0.0805
  H  H1727  1  0.864270  0.209030  0.260130  1.0  0.0693
  H  H1728  1  0.848770  0.165030  0.251130  1.0  0.065
  H  H1729  1  0.207270  0.356830  0.368730  1.0  0.1002
  H  H1730  1  0.822570  0.209030  0.243730  1.0  0.1055
  H  H1731  1  0.228670  0.421230  0.382230  1.0  0.1105
  H  H1732  1  0.053570  0.251530  0.381230  1.0  0.091
  H  H1733  1  0.799970  0.248730  0.228730  1.0  0.1045
  H  H1734  1  0.976970  0.262030  0.231630  1.0  0.0894
  H  H1735  1  0.096970  0.367130  0.409530  1.0  0.0992
  H  H1736  1  0.926670  0.332130  0.203330  1.0  0.0979
  H  H1737  1  0.035370  0.192630  0.398230  1.0  0.121
  H  H1738  1  0.987670  0.262830  0.372930  1.0  0.1148
  H  H1739  1  0.045670  0.338830  0.237530  1.0  0.073
  H  H1740  1  0.989970  0.214530  0.213630  1.0  0.1031
  H  H1741  1  0.242670  0.440230  0.404430  1.0  0.0871
  H  H1742  1  0.230570  0.470130  0.395130  1.0  0.0961
  H  H1743  1  0.084170  0.305830  0.429130  1.0  0.0881
  H  H1744  1  0.039470  0.381130  0.403630  1.0  0.0996
  H  H1745  1  0.046470  0.181630  0.422230  1.0  0.1049
  H  H1746  1  0.953470  0.306630  0.373630  1.0  0.0885
  H  H1747  1  0.779670  0.243730  0.207330  1.0  0.0889
  H  H1748  1  0.782870  0.286530  0.215030  1.0  0.076
  H  H1749  1  0.993570  0.406730  0.208930  1.0  0.1094
  H  H1750  1  0.939470  0.285130  0.183330  1.0  0.1031
  H  H1751  1  0.082670  0.418730  0.237030  1.0  0.0986
  H  H1752  1  0.990070  0.200630  0.191630  1.0  0.0883
  H  H1753  1  0.062970  0.232530  0.435030  1.0  0.1048
  H  H1754  1  0.968770  0.361330  0.391930  1.0  0.1101
  H  H1755  1  0.060670  0.449930  0.220530  1.0  0.0924
  H  H1756  1  0.954570  0.229330  0.177230  1.0  0.0804
  H  H1757  1  0.171470  0.447330  0.422330  1.0  0.083
  H  H1758  1  0.295970  0.541630  0.408530  1.0  0.1147
  H  H1759  1  0.715970  0.269130  0.197330  1.0  0.1264
  H  H1760  1  0.849570  0.320730  0.188930  1.0  0.0827
  H  H1761  1  0.181770  0.495130  0.439630  1.0  0.1322
  H  H1762  1  0.305270  0.586230  0.425830  1.0  0.0782
  H  H1763  1  0.709270  0.293130  0.177330  1.0  0.0787
  H  H1764  1  0.841370  0.362030  0.170730  1.0  0.1146
  H  H1765  1  0.688830  0.506670  0.672670  1.0  0.1068
  H  H1766  1  0.802230  0.557470  0.650970  1.0  0.0854
  H  H1767  1  0.662730  0.505470  0.598770  1.0  0.0882
  H  H1768  1  0.554530  0.453870  0.623170  1.0  0.1088
  H  H1769  1  0.727930  0.562370  0.686770  1.0  0.0902
  H  H1770  1  0.843230  0.614570  0.665670  1.0  0.1242
  H  H1771  1  0.627830  0.536970  0.586370  1.0  0.0958
  H  H1772  1  0.517030  0.479770  0.608970  1.0  0.106
  H  H1773  1  0.831330  0.658770  0.685270  1.0  0.0666
  H  H1774  1  0.844630  0.622570  0.690970  1.0  0.0806
  H  H1775  1  0.530930  0.542370  0.593470  1.0  0.0693
  H  H1776  1  0.515430  0.498370  0.584470  1.0  0.0653
  H  H1777  1  0.873930  0.690170  0.702070  1.0  0.1006
  H  H1778  1  0.489230  0.542370  0.577070  1.0  0.1055
  H  H1779  1  0.895330  0.754570  0.715570  1.0  0.1105
  H  H1780  1  0.720230  0.584870  0.714570  1.0  0.091
  H  H1781  1  0.466630  0.582070  0.562070  1.0  0.1043
  H  H1782  1  0.643630  0.595370  0.564970  1.0  0.0894
  H  H1783  1  0.763630  0.700470  0.742870  1.0  0.0991
  H  H1784  1  0.593330  0.665470  0.536670  1.0  0.0979
  H  H1785  1  0.702030  0.525970  0.731570  1.0  0.121
  H  H1786  1  0.654330  0.596170  0.706270  1.0  0.1146
  H  H1787  1  0.712330  0.672170  0.570870  1.0  0.073
  H  H1788  1  0.656630  0.547870  0.546970  1.0  0.103
  H  H1789  1  0.909330  0.773570  0.737770  1.0  0.0871
  H  H1790  1  0.897230  0.803470  0.728470  1.0  0.0959
  H  H1791  1  0.750830  0.639170  0.762470  1.0  0.088
  H  H1792  1  0.706130  0.714470  0.736970  1.0  0.0981
  H  H1793  1  0.713130  0.514970  0.755570  1.0  0.1021
  H  H1794  1  0.620130  0.639970  0.706970  1.0  0.0885
  H  H1795  1  0.446330  0.577070  0.540670  1.0  0.089
  H  H1796  1  0.449530  0.619870  0.548370  1.0  0.0756
  H  H1797  1  0.660230  0.740070  0.542270  1.0  0.1094
  H  H1798  1  0.606130  0.618470  0.516670  1.0  0.1033
  H  H1799  1  0.749330  0.752070  0.570370  1.0  0.0985
  H  H1800  1  0.656730  0.533970  0.524970  1.0  0.0884
  H  H1801  1  0.729630  0.565870  0.768370  1.0  0.1048
  H  H1802  1  0.635430  0.694670  0.725270  1.0  0.1105
  H  H1803  1  0.727330  0.783270  0.553870  1.0  0.0924
  H  H1804  1  0.621230  0.562670  0.510570  1.0  0.0803
  H  H1805  1  0.838130  0.780670  0.755670  1.0  0.0829
  H  H1806  1  0.962630  0.874970  0.741870  1.0  0.1137
  H  H1807  1  0.382630  0.602470  0.530670  1.0  0.1265
  H  H1808  1  0.516230  0.654070  0.522270  1.0  0.0826
  H  H1809  1  0.848430  0.828470  0.772970  1.0  0.1326
  H  H1810  1  0.971930  0.919570  0.759170  1.0  0.0824
  H  H1811  1  0.375930  0.626470  0.510670  1.0  0.0787
  H  H1812  1  0.508030  0.695370  0.504070  1.0  0.1146
  C  C1813  1  0.822300  0.441300  0.017290  1.0  0.5862
  C  C1814  1  0.785700  0.486500  0.045670  1.0  0.5974
  C  C1815  1  0.859400  0.450800  0.007070  1.0  -0.1202
  C  C1816  1  0.804700  0.528100  0.054620  1.0  -0.0759
  C  C1817  1  0.861800  0.474900  0.995560  1.0  -0.1685
  C  C1818  1  0.891500  0.438200  0.008220  1.0  -0.0847
  C  C1819  1  0.833000  0.533600  0.065690  1.0  -0.0776
  C  C1820  1  0.801200  0.565700  0.051270  1.0  -0.076
  C  C1821  1  0.894200  0.483600  0.987170  1.0  -0.1117
  C  C1822  1  0.925600  0.447000  0.999400  1.0  -0.209
  C  C1823  1  0.851800  0.573100  0.073170  1.0  -0.1574
  C  C1824  1  0.818800  0.605000  0.059630  1.0  -0.1593
  C  C1825  1  0.926800  0.469100  0.988170  1.0  0.0692
  C  C1826  1  0.843500  0.607900  0.070220  1.0  0.0336
  C  C1827  1  0.960300  0.475100  0.978180  1.0  0.025
  C  C1828  1  0.858800  0.649800  0.078360  1.0  0.0085
  C  C1829  1  0.990300  0.517700  0.959210  1.0  0.1261
  C  C1830  1  0.907700  0.685500  0.095480  1.0  0.2979
  C  C1831  1  0.024500  0.505500  0.958930  1.0  -0.2075
  C  C1832  1  0.981800  0.538100  0.948220  1.0  0.0266
  C  C1833  1  0.896800  0.719600  0.095580  1.0  -0.1714
  C  C1834  1  0.931200  0.680000  0.106350  1.0  0.0037
  C  C1835  1  0.060300  0.527200  0.950160  1.0  -0.2001
  C  C1836  1  0.016900  0.558200  0.939910  1.0  -0.0419
  C  C1837  1  0.943800  0.546900  0.945800  1.0  -0.0867
  C  C1838  1  0.918400  0.755400  0.105000  1.0  -0.1073
  C  C1839  1  0.952600  0.714100  0.115210  1.0  0.0601
  C  C1840  1  0.943400  0.643600  0.108150  1.0  -0.0883
  C  C1841  1  0.054400  0.551500  0.939690  1.0  0.2292
  C  C1842  1  0.008600  0.588000  0.930260  1.0  -0.1068
  C  C1843  1  0.929000  0.533800  0.933500  1.0  0.2043
  C  C1844  1  0.966500  0.597600  0.946500  1.0  0.0163
  C  C1845  1  0.945500  0.749800  0.115400  1.0  0.1084
  C  C1846  1  0.982600  0.711200  0.124370  1.0  -0.1174
  C  C1847  1  0.992100  0.663900  0.108550  1.0  0.0657
  C  C1848  1  0.925100  0.626800  0.121910  1.0  -0.0461
  C  C1849  1  0.961800  0.553200  0.924500  1.0  -0.0018
  C  C1850  1  0.000200  0.620100  0.937600  1.0  0.2621
  C  C1851  1  0.884600  0.503700  0.929400  1.0  -0.0715
  C  C1852  1  0.954200  0.623300  0.954500  1.0  -0.1067
  C  C1853  1  0.013700  0.699900  0.117260  1.0  0.1021
  C  C1854  1  0.947700  0.666000  0.131380  1.0  -0.043
  C  C1855  1  0.020100  0.652200  0.101370  1.0  -0.0729
  C  C1856  1  0.895200  0.582300  0.125640  1.0  -0.0415
  C  C1857  1  0.120000  0.564500  0.930050  1.0  -0.0565
  C  C1858  1  0.949300  0.540700  0.910500  1.0  -0.1468
  C  C1859  1  0.023700  0.662900  0.935830  1.0  -0.1303
  C  C1860  1  0.877700  0.491700  0.914000  1.0  -0.0112
  C  C1861  1  0.978200  0.668600  0.953600  1.0  -0.084
  C  C1862  1  0.944500  0.815700  0.125570  1.0  0.0576
  C  C1863  1  0.058600  0.721700  0.118600  1.0  -0.1608
  C  C1864  1  0.936800  0.655500  0.143780  1.0  -0.1025
  C  C1865  1  0.066700  0.675300  0.101900  1.0  -0.1183
  C  C1866  1  0.886100  0.574400  0.138640  1.0  -0.0836
  C  C1867  1  0.154300  0.589000  0.919690  1.0  0.1255
  C  C1868  1  0.905800  0.509600  0.907000  1.0  -0.1594
  C  C1869  1  0.013900  0.693700  0.943000  1.0  -0.1363
  C  C1870  1  0.963400  0.841800  0.137300  1.0  0.1285
  C  C1871  1  0.084400  0.708100  0.111200  1.0  -0.1176
  C  C1872  1  0.905700  0.613200  0.147510  1.0  -0.0881
  C  C1873  1  0.142800  0.610300  0.910420  1.0  -0.1076
  C  C1874  1  0.197900  0.592200  0.918530  1.0  -0.2359
  C  C1875  1  0.952700  0.877000  0.141200  1.0  -0.1981
  C  C1876  1  0.985200  0.831400  0.145800  1.0  -0.1198
  C  C1877  1  0.171400  0.633500  0.900090  1.0  -0.1413
  C  C1878  1  0.224800  0.614600  0.908380  1.0  -0.0979
  C  C1879  1  0.969000  0.896000  0.153280  1.0  -0.0855
  C  C1880  1  0.007300  0.858400  0.157790  1.0  -0.0993
  C  C1881  1  0.215300  0.636600  0.899590  1.0  -0.0219
  C  C1882  1  0.994200  0.889700  0.161170  1.0  0.2322
  C  C1883  1  0.247300  0.663500  0.889200  1.0  0.6831
  C  C1884  1  0.015400  0.918400  0.171900  1.0  0.6512
  C  C1885  1  0.488970  0.774630  0.350620  1.0  0.5867
  C  C1886  1  0.452370  0.819830  0.379000  1.0  0.5974
  C  C1887  1  0.526070  0.784130  0.340400  1.0  -0.1202
  C  C1888  1  0.471370  0.861430  0.387950  1.0  -0.0759
  C  C1889  1  0.528470  0.808230  0.328890  1.0  -0.1686
  C  C1890  1  0.558170  0.771530  0.341550  1.0  -0.0848
  C  C1891  1  0.499670  0.866930  0.399020  1.0  -0.0776
  C  C1892  1  0.467870  0.899030  0.384600  1.0  -0.076
  C  C1893  1  0.560870  0.816930  0.320500  1.0  -0.1117
  C  C1894  1  0.592270  0.780330  0.332730  1.0  -0.209
  C  C1895  1  0.518470  0.906430  0.406500  1.0  -0.1574
  C  C1896  1  0.485470  0.938330  0.392960  1.0  -0.1593
  C  C1897  1  0.593470  0.802430  0.321500  1.0  0.0692
  C  C1898  1  0.510170  0.941230  0.403550  1.0  0.0336
  C  C1899  1  0.626970  0.808430  0.311510  1.0  0.0249
  C  C1900  1  0.525470  0.983130  0.411690  1.0  0.0085
  C  C1901  1  0.656970  0.851030  0.292540  1.0  0.1261
  C  C1902  1  0.574370  0.018830  0.428810  1.0  0.2979
  C  C1903  1  0.691170  0.838830  0.292260  1.0  -0.2076
  C  C1904  1  0.648470  0.871430  0.281550  1.0  0.0265
  C  C1905  1  0.563470  0.052930  0.428910  1.0  -0.1714
  C  C1906  1  0.597870  0.013330  0.439680  1.0  0.0037
  C  C1907  1  0.726970  0.860530  0.283490  1.0  -0.2002
  C  C1908  1  0.683570  0.891530  0.273240  1.0  -0.0419
  C  C1909  1  0.610470  0.880230  0.279130  1.0  -0.0866
  C  C1910  1  0.585070  0.088730  0.438330  1.0  -0.1073
  C  C1911  1  0.619270  0.047430  0.448540  1.0  0.0601
  C  C1912  1  0.610070  0.976930  0.441480  1.0  -0.0883
  C  C1913  1  0.721070  0.884830  0.273020  1.0  0.2295
  C  C1914  1  0.675270  0.921330  0.263590  1.0  -0.1068
  C  C1915  1  0.595670  0.867130  0.266830  1.0  0.2043
  C  C1916  1  0.633170  0.930930  0.279830  1.0  0.0163
  C  C1917  1  0.612170  0.083130  0.448730  1.0  0.1084
  C  C1918  1  0.649270  0.044530  0.457700  1.0  -0.1174
  C  C1919  1  0.658770  0.997230  0.441880  1.0  0.0657
  C  C1920  1  0.591770  0.960130  0.455240  1.0  -0.0461
  C  C1921  1  0.628470  0.886530  0.257830  1.0  -0.0018
  C  C1922  1  0.666870  0.953430  0.270930  1.0  0.2629
  C  C1923  1  0.551270  0.837030  0.262730  1.0  -0.0717
  C  C1924  1  0.620870  0.956630  0.287830  1.0  -0.1067
  C  C1925  1  0.680370  0.033230  0.450590  1.0  0.1021
  C  C1926  1  0.614370  0.999330  0.464710  1.0  -0.043
  C  C1927  1  0.686770  0.985530  0.434700  1.0  -0.0729
  C  C1928  1  0.561870  0.915630  0.458970  1.0  -0.0415
  C  C1929  1  0.786670  0.897830  0.263380  1.0  -0.0565
  C  C1930  1  0.615970  0.874030  0.243830  1.0  -0.1467
  C  C1931  1  0.690370  0.996230  0.269160  1.0  -0.1303
  C  C1932  1  0.544370  0.825030  0.247330  1.0  -0.0113
  C  C1933  1  0.644870  0.001930  0.286930  1.0  -0.0842
  C  C1934  1  0.611170  0.149030  0.458900  1.0  0.0576
  C  C1935  1  0.725270  0.055030  0.451930  1.0  -0.1608
  C  C1936  1  0.603470  0.988830  0.477110  1.0  -0.1025
  C  C1937  1  0.733370  0.008630  0.435230  1.0  -0.1183
  C  C1938  1  0.552770  0.907730  0.471970  1.0  -0.0836
  C  C1939  1  0.820970  0.922330  0.253020  1.0  0.1255
  C  C1940  1  0.572470  0.842930  0.240330  1.0  -0.1594
  C  C1941  1  0.680570  0.027030  0.276330  1.0  -0.1362
  C  C1942  1  0.630070  0.175130  0.470630  1.0  0.1285
  C  C1943  1  0.751070  0.041430  0.444530  1.0  -0.1176
  C  C1944  1  0.572370  0.946530  0.480840  1.0  -0.0881
  C  C1945  1  0.809470  0.943630  0.243750  1.0  -0.1076
  C  C1946  1  0.864570  0.925530  0.251860  1.0  -0.2357
  C  C1947  1  0.619370  0.210330  0.474530  1.0  -0.1981
  C  C1948  1  0.651870  0.164730  0.479130  1.0  -0.1198
  C  C1949  1  0.838070  0.966830  0.233420  1.0  -0.1397
  C  C1950  1  0.891470  0.947930  0.241710  1.0  -0.0977
  C  C1951  1  0.635670  0.229330  0.486610  1.0  -0.0855
  C  C1952  1  0.673970  0.191730  0.491120  1.0  -0.0993
  C  C1953  1  0.881970  0.969930  0.232920  1.0  -0.0217
  C  C1954  1  0.660870  0.223030  0.494500  1.0  0.2322
  C  C1955  1  0.913970  0.996830  0.222530  1.0  0.6809
  C  C1956  1  0.682070  0.251730  0.505230  1.0  0.6512
  C  C1957  1  0.155630  0.107970  0.683960  1.0  0.5864
  C  C1958  1  0.119030  0.153170  0.712340  1.0  0.5974
  C  C1959  1  0.192730  0.117470  0.673740  1.0  -0.1202
  C  C1960  1  0.138030  0.194770  0.721290  1.0  -0.0758
  C  C1961  1  0.195130  0.141570  0.662230  1.0  -0.1685
  C  C1962  1  0.224830  0.104870  0.674890  1.0  -0.085
  C  C1963  1  0.166330  0.200270  0.732360  1.0  -0.0776
  C  C1964  1  0.134530  0.232370  0.717940  1.0  -0.076
  C  C1965  1  0.227530  0.150270  0.653840  1.0  -0.1115
  C  C1966  1  0.258930  0.113670  0.666070  1.0  -0.209
  C  C1967  1  0.185130  0.239770  0.739840  1.0  -0.1574
  C  C1968  1  0.152130  0.271670  0.726300  1.0  -0.1592
  C  C1969  1  0.260130  0.135770  0.654840  1.0  0.0692
  C  C1970  1  0.176830  0.274570  0.736890  1.0  0.0336
  C  C1971  1  0.293630  0.141770  0.644850  1.0  0.025
  C  C1972  1  0.192130  0.316470  0.745030  1.0  0.0085
  C  C1973  1  0.323630  0.184370  0.625880  1.0  0.1261
  C  C1974  1  0.241030  0.352170  0.762150  1.0  0.2982
  C  C1975  1  0.357830  0.172170  0.625600  1.0  -0.2075
  C  C1976  1  0.315130  0.204770  0.614890  1.0  0.0266
  C  C1977  1  0.230130  0.386270  0.762250  1.0  -0.1715
  C  C1978  1  0.264530  0.346670  0.773020  1.0  0.0037
  C  C1979  1  0.393630  0.193870  0.616830  1.0  -0.2001
  C  C1980  1  0.350230  0.224870  0.606580  1.0  -0.0419
  C  C1981  1  0.277130  0.213570  0.612470  1.0  -0.0867
  C  C1982  1  0.251730  0.422070  0.771670  1.0  -0.1076
  C  C1983  1  0.285930  0.380770  0.781880  1.0  0.0603
  C  C1984  1  0.276730  0.310270  0.774820  1.0  -0.0883
  C  C1985  1  0.387730  0.218170  0.606360  1.0  0.2292
  C  C1986  1  0.341930  0.254670  0.596930  1.0  -0.1068
  C  C1987  1  0.262330  0.200470  0.600170  1.0  0.2043
  C  C1988  1  0.299830  0.264270  0.613170  1.0  0.0163
  C  C1989  1  0.278830  0.416470  0.782070  1.0  0.1083
  C  C1990  1  0.315930  0.377870  0.791040  1.0  -0.1174
  C  C1991  1  0.325430  0.330570  0.775220  1.0  0.0657
  C  C1992  1  0.258430  0.293470  0.788580  1.0  -0.0461
  C  C1993  1  0.295130  0.219870  0.591170  1.0  -0.0018
  C  C1994  1  0.333530  0.286770  0.604270  1.0  0.2621
  C  C1995  1  0.217930  0.170370  0.596070  1.0  -0.0715
  C  C1996  1  0.287530  0.289970  0.621170  1.0  -0.1067
  C  C1997  1  0.347030  0.366570  0.783930  1.0  0.1022
  C  C1998  1  0.281030  0.332670  0.798050  1.0  -0.043
  C  C1999  1  0.353430  0.318870  0.768040  1.0  -0.0749
  C  C2000  1  0.228530  0.248970  0.792310  1.0  -0.0419
  C  C2001  1  0.453330  0.231170  0.596720  1.0  -0.0565
  C  C2002  1  0.282630  0.207370  0.577170  1.0  -0.1468
  C  C2003  1  0.357030  0.329570  0.602500  1.0  -0.1303
  C  C2004  1  0.211030  0.158370  0.580670  1.0  -0.0112
  C  C2005  1  0.311530  0.335270  0.620270  1.0  -0.084
  C  C2006  1  0.277830  0.482370  0.792240  1.0  0.0576
  C  C2007  1  0.391930  0.388370  0.785270  1.0  -0.1608
  C  C2008  1  0.270130  0.322170  0.810450  1.0  -0.09
  C  C2009  1  0.400030  0.341970  0.768570  1.0  -0.1185
  C  C2010  1  0.219430  0.241070  0.805310  1.0  -0.0821
  C  C2011  1  0.487630  0.255670  0.586360  1.0  0.1255
  C  C2012  1  0.239130  0.176270  0.573670  1.0  -0.1594
  C  C2013  1  0.347230  0.360370  0.609670  1.0  -0.1363
  C  C2014  1  0.296730  0.508470  0.803970  1.0  0.1285
  C  C2015  1  0.417730  0.374770  0.777870  1.0  -0.1176
  C  C2016  1  0.239030  0.279870  0.814180  1.0  -0.0826
  C  C2017  1  0.476130  0.276970  0.577090  1.0  -0.1076
  C  C2018  1  0.531230  0.258870  0.585200  1.0  -0.2359
  C  C2019  1  0.286030  0.543670  0.807870  1.0  -0.1981
  C  C2020  1  0.318530  0.498070  0.812470  1.0  -0.1196
  C  C2021  1  0.504730  0.300170  0.566760  1.0  -0.1413
  C  C2022  1  0.558130  0.281270  0.575050  1.0  -0.0979
  C  C2023  1  0.302330  0.562670  0.819950  1.0  -0.0854
  C  C2024  1  0.340630  0.525070  0.824460  1.0  -0.0991
  C  C2025  1  0.548630  0.303270  0.566260  1.0  -0.0219
  C  C2026  1  0.327530  0.556370  0.827840  1.0  0.2326
  C  C2027  1  0.580630  0.330170  0.555870  1.0  0.6831
  C  C2028  1  0.348730  0.585070  0.838570  1.0  0.6511
  C  C2029  1  0.558700  0.381000  0.017290  1.0  0.5883
  C  C2030  1  0.513500  0.299200  0.045670  1.0  0.5963
  C  C2031  1  0.549200  0.408600  0.007070  1.0  -0.1152
  C  C2032  1  0.471900  0.276600  0.054620  1.0  -0.0754
  C  C2033  1  0.525100  0.386900  0.995560  1.0  -0.1644
  C  C2034  1  0.561800  0.453300  0.008220  1.0  -0.0862
  C  C2035  1  0.466400  0.299400  0.065690  1.0  -0.0787
  C  C2036  1  0.434300  0.235500  0.051270  1.0  -0.078
  C  C2037  1  0.516400  0.410600  0.987170  1.0  -0.1102
  C  C2038  1  0.553000  0.478600  0.999400  1.0  -0.213
  C  C2039  1  0.426900  0.278700  0.073170  1.0  -0.1575
  C  C2040  1  0.395000  0.213800  0.059630  1.0  -0.161
  C  C2041  1  0.530900  0.457700  0.988170  1.0  0.0713
  C  C2042  1  0.392100  0.235600  0.070220  1.0  0.0332
  C  C2043  1  0.524900  0.485200  0.978180  1.0  0.0268
  C  C2044  1  0.350200  0.209000  0.078360  1.0  0.0087
  C  C2045  1  0.482300  0.472600  0.959210  1.0  0.1272
  C  C2046  1  0.314500  0.222200  0.095480  1.0  0.298
  C  C2047  1  0.494500  0.519000  0.958930  1.0  -0.2036
  C  C2048  1  0.461900  0.443700  0.948220  1.0  0.0264
  C  C2049  1  0.280400  0.177200  0.095580  1.0  -0.1684
  C  C2050  1  0.320000  0.251200  0.106350  1.0  0.0022
  C  C2051  1  0.472800  0.533100  0.950160  1.0  -0.1962
  C  C2052  1  0.441800  0.458700  0.939910  1.0  -0.0424
  C  C2053  1  0.453100  0.396900  0.945800  1.0  -0.0872
  C  C2054  1  0.244600  0.163000  0.105000  1.0  -0.1075
  C  C2055  1  0.285900  0.238500  0.115210  1.0  0.0568
  C  C2056  1  0.356400  0.299800  0.108150  1.0  -0.0869
  C  C2057  1  0.448500  0.502900  0.939690  1.0  0.2293
  C  C2058  1  0.412000  0.420600  0.930260  1.0  -0.1053
  C  C2059  1  0.466200  0.395200  0.933500  1.0  0.2055
  C  C2060  1  0.402400  0.368900  0.946500  1.0  0.0153
  C  C2061  1  0.250200  0.195700  0.115400  1.0  0.1082
  C  C2062  1  0.288800  0.271400  0.124370  1.0  -0.1192
  C  C2063  1  0.336100  0.328200  0.108550  1.0  0.0663
  C  C2064  1  0.373200  0.298300  0.121910  1.0  -0.0472
  C  C2065  1  0.446800  0.408600  0.924500  1.0  -0.0036
  C  C2066  1  0.379900  0.380100  0.937600  1.0  0.2627
  C  C2067  1  0.496300  0.380900  0.929400  1.0  -0.0687
  C  C2068  1  0.376700  0.330900  0.954500  1.0  -0.1082
  C  C2069  1  0.300100  0.313800  0.117260  1.0  0.1013
  C  C2070  1  0.334000  0.281700  0.131380  1.0  -0.0448
  C  C2071  1  0.347800  0.367900  0.101370  1.0  -0.0755
  C  C2072  1  0.417700  0.312900  0.125640  1.0  -0.0391
  C  C2073  1  0.435500  0.555500  0.930050  1.0  -0.0576
  C  C2074  1  0.459300  0.408600  0.910500  1.0  -0.149
  C  C2075  1  0.337100  0.360800  0.935830  1.0  -0.1357
  C  C2076  1  0.508300  0.386000  0.914000  1.0  -0.0106
  C  C2077  1  0.331400  0.309600  0.953600  1.0  -0.0866
  C  C2078  1  0.184300  0.128800  0.125570  1.0  0.0603
  C  C2079  1  0.278300  0.336900  0.118600  1.0  -0.163
  C  C2080  1  0.344500  0.281300  0.143780  1.0  -0.1038
  C  C2081  1  0.324700  0.391400  0.101900  1.0  -0.1203
  C  C2082  1  0.425600  0.311700  0.138640  1.0  -0.0839
  C  C2083  1  0.411000  0.565300  0.919690  1.0  0.1249
  C  C2084  1  0.490400  0.396200  0.907000  1.0  -0.1548
  C  C2085  1  0.306300  0.320200  0.943000  1.0  -0.1367
  C  C2086  1  0.158200  0.121600  0.137300  1.0  0.1304
  C  C2087  1  0.291900  0.376300  0.111200  1.0  -0.1183
  C  C2088  1  0.386800  0.292500  0.147510  1.0  -0.0921
  C  C2089  1  0.389700  0.532500  0.910420  1.0  -0.1112
  C  C2090  1  0.407800  0.605700  0.918530  1.0  -0.2349
  C  C2091  1  0.123000  0.075700  0.141200  1.0  -0.1955
  C  C2092  1  0.168600  0.153800  0.145800  1.0  -0.1245
  C  C2093  1  0.366500  0.537900  0.900090  1.0  -0.1402
  C  C2094  1  0.385400  0.610200  0.908380  1.0  -0.0968
  C  C2095  1  0.104000  0.073000  0.153280  1.0  -0.0914
  C  C2096  1  0.141600  0.148900  0.157790  1.0  -0.0986
  C  C2097  1  0.363400  0.578700  0.899590  1.0  -0.0243
  C  C2098  1  0.110300  0.104500  0.161170  1.0  0.235
  C  C2099  1  0.336500  0.583800  0.889200  1.0  0.6807
  C  C2100  1  0.081600  0.097000  0.171900  1.0  0.6519
  C  C2101  1  0.225370  0.714330  0.350620  1.0  0.5883
  C  C2102  1  0.180170  0.632530  0.379000  1.0  0.5963
  C  C2103  1  0.215870  0.741930  0.340400  1.0  -0.1153
  C  C2104  1  0.138570  0.609930  0.387950  1.0  -0.0754
  C  C2105  1  0.191770  0.720230  0.328890  1.0  -0.1645
  C  C2106  1  0.228470  0.786630  0.341550  1.0  -0.0862
  C  C2107  1  0.133070  0.632730  0.399020  1.0  -0.0787
  C  C2108  1  0.100970  0.568830  0.384600  1.0  -0.078
  C  C2109  1  0.183070  0.743930  0.320500  1.0  -0.1102
  C  C2110  1  0.219670  0.811930  0.332730  1.0  -0.2131
  C  C2111  1  0.093570  0.612030  0.406500  1.0  -0.1575
  C  C2112  1  0.061670  0.547130  0.392960  1.0  -0.161
  C  C2113  1  0.197570  0.791030  0.321500  1.0  0.0713
  C  C2114  1  0.058770  0.568930  0.403550  1.0  0.0332
  C  C2115  1  0.191570  0.818530  0.311510  1.0  0.0268
  C  C2116  1  0.016870  0.542330  0.411690  1.0  0.0087
  C  C2117  1  0.148970  0.805930  0.292540  1.0  0.1274
  C  C2118  1  0.981170  0.555530  0.428810  1.0  0.298
  C  C2119  1  0.161170  0.852330  0.292260  1.0  -0.2037
  C  C2120  1  0.128570  0.777030  0.281550  1.0  0.0264
  C  C2121  1  0.947070  0.510530  0.428910  1.0  -0.1684
  C  C2122  1  0.986670  0.584530  0.439680  1.0  0.0022
  C  C2123  1  0.139470  0.866430  0.283490  1.0  -0.1962
  C  C2124  1  0.108470  0.792030  0.273240  1.0  -0.0424
  C  C2125  1  0.119770  0.730230  0.279130  1.0  -0.0872
  C  C2126  1  0.911270  0.496330  0.438330  1.0  -0.1075
  C  C2127  1  0.952570  0.571830  0.448540  1.0  0.0568
  C  C2128  1  0.023070  0.633130  0.441480  1.0  -0.0869
  C  C2129  1  0.115170  0.836230  0.273020  1.0  0.2292
  C  C2130  1  0.078670  0.753930  0.263590  1.0  -0.1053
  C  C2131  1  0.132870  0.728530  0.266830  1.0  0.2055
  C  C2132  1  0.069070  0.702230  0.279830  1.0  0.0152
  C  C2133  1  0.916870  0.529030  0.448730  1.0  0.1082
  C  C2134  1  0.955470  0.604730  0.457700  1.0  -0.1192
  C  C2135  1  0.002770  0.661530  0.441880  1.0  0.0663
  C  C2136  1  0.039870  0.631630  0.455240  1.0  -0.0472
  C  C2137  1  0.113470  0.741930  0.257830  1.0  -0.0036
  C  C2138  1  0.046570  0.713430  0.270930  1.0  0.2633
  C  C2139  1  0.162970  0.714230  0.262730  1.0  -0.0689
  C  C2140  1  0.043370  0.664230  0.287830  1.0  -0.1082
  C  C2141  1  0.966770  0.647130  0.450590  1.0  0.1013
  C  C2142  1  0.000670  0.615030  0.464710  1.0  -0.0448
  C  C2143  1  0.014470  0.701230  0.434700  1.0  -0.0755
  C  C2144  1  0.084370  0.646230  0.458970  1.0  -0.0391
  C  C2145  1  0.102170  0.888830  0.263380  1.0  -0.0576
  C  C2146  1  0.125970  0.741930  0.243830  1.0  -0.1492
  C  C2147  1  0.003770  0.694130  0.269160  1.0  -0.1356
  C  C2148  1  0.174970  0.719330  0.247330  1.0  -0.0105
  C  C2149  1  0.998070  0.642930  0.286930  1.0  -0.0866
  C  C2150  1  0.850970  0.462130  0.458900  1.0  0.0603
  C  C2151  1  0.944970  0.670230  0.451930  1.0  -0.163
  C  C2152  1  0.011170  0.614630  0.477110  1.0  -0.1038
  C  C2153  1  0.991370  0.724730  0.435230  1.0  -0.1203
  C  C2154  1  0.092270  0.645030  0.471970  1.0  -0.0839
  C  C2155  1  0.077670  0.898630  0.253020  1.0  0.1248
  C  C2156  1  0.157070  0.729530  0.240330  1.0  -0.1552
  C  C2157  1  0.972970  0.653530  0.276330  1.0  -0.1366
  C  C2158  1  0.824870  0.454930  0.470630  1.0  0.1304
  C  C2159  1  0.958570  0.709630  0.444530  1.0  -0.1183
  C  C2160  1  0.053470  0.625830  0.480840  1.0  -0.0921
  C  C2161  1  0.056370  0.865830  0.243750  1.0  -0.1111
  C  C2162  1  0.074470  0.939030  0.251860  1.0  -0.2351
  C  C2163  1  0.789670  0.409030  0.474530  1.0  -0.1955
  C  C2164  1  0.835270  0.487130  0.479130  1.0  -0.1245
  C  C2165  1  0.033170  0.871230  0.233420  1.0  -0.1388
  C  C2166  1  0.052070  0.943530  0.241710  1.0  -0.0968
  C  C2167  1  0.770670  0.406330  0.486610  1.0  -0.0914
  C  C2168  1  0.808270  0.482230  0.491120  1.0  -0.0986
  C  C2169  1  0.030070  0.912030  0.232920  1.0  -0.0243
  C  C2170  1  0.776970  0.437830  0.494500  1.0  0.235
  C  C2171  1  0.003170  0.917130  0.222530  1.0  0.6823
  C  C2172  1  0.748270  0.430330  0.505230  1.0  0.6519
  C  C2173  1  0.892030  0.047670  0.683960  1.0  0.5882
  C  C2174  1  0.846830  0.965870  0.712340  1.0  0.5964
  C  C2175  1  0.882530  0.075270  0.673740  1.0  -0.1152
  C  C2176  1  0.805230  0.943270  0.721290  1.0  -0.0755
  C  C2177  1  0.858430  0.053570  0.662230  1.0  -0.1645
  C  C2178  1  0.895130  0.119970  0.674890  1.0  -0.0865
  C  C2179  1  0.799730  0.966070  0.732360  1.0  -0.0785
  C  C2180  1  0.767630  0.902170  0.717940  1.0  -0.0778
  C  C2181  1  0.849730  0.077270  0.653840  1.0  -0.1101
  C  C2182  1  0.886330  0.145270  0.666070  1.0  -0.213
  C  C2183  1  0.760230  0.945370  0.739840  1.0  -0.1575
  C  C2184  1  0.728330  0.880470  0.726300  1.0  -0.1607
  C  C2185  1  0.864230  0.124370  0.654840  1.0  0.0713
  C  C2186  1  0.725430  0.902270  0.736890  1.0  0.0331
  C  C2187  1  0.858230  0.151870  0.644850  1.0  0.0268
  C  C2188  1  0.683530  0.875670  0.745030  1.0  0.0087
  C  C2189  1  0.815630  0.139270  0.625880  1.0  0.1272
  C  C2190  1  0.647830  0.888870  0.762150  1.0  0.2981
  C  C2191  1  0.827830  0.185670  0.625600  1.0  -0.2036
  C  C2192  1  0.795230  0.110370  0.614890  1.0  0.0264
  C  C2193  1  0.613730  0.843870  0.762250  1.0  -0.1684
  C  C2194  1  0.653330  0.917870  0.773020  1.0  0.0021
  C  C2195  1  0.806130  0.199770  0.616830  1.0  -0.1962
  C  C2196  1  0.775130  0.125370  0.606580  1.0  -0.0424
  C  C2197  1  0.786430  0.063570  0.612470  1.0  -0.0872
  C  C2198  1  0.577930  0.829670  0.771670  1.0  -0.108
  C  C2199  1  0.619230  0.905170  0.781880  1.0  0.057
  C  C2200  1  0.689730  0.966470  0.774820  1.0  -0.0868
  C  C2201  1  0.781830  0.169570  0.606360  1.0  0.2293
  C  C2202  1  0.745330  0.087270  0.596930  1.0  -0.1053
  C  C2203  1  0.799530  0.061870  0.600170  1.0  0.2055
  C  C2204  1  0.735730  0.035570  0.613170  1.0  0.0153
  C  C2205  1  0.583530  0.862370  0.782070  1.0  0.1082
  C  C2206  1  0.622130  0.938070  0.791040  1.0  -0.1192
  C  C2207  1  0.669430  0.994870  0.775220  1.0  0.0663
  C  C2208  1  0.706530  0.964970  0.788580  1.0  -0.0471
  C  C2209  1  0.780130  0.075270  0.591170  1.0  -0.0036
  C  C2210  1  0.713230  0.046770  0.604270  1.0  0.2627
  C  C2211  1  0.829630  0.047570  0.596070  1.0  -0.0687
  C  C2212  1  0.710030  0.997570  0.621170  1.0  -0.1082
  C  C2213  1  0.633430  0.980470  0.783930  1.0  0.1013
  C  C2214  1  0.667330  0.948370  0.798050  1.0  -0.0448
  C  C2215  1  0.681130  0.034570  0.768040  1.0  -0.0757
  C  C2216  1  0.751030  0.979570  0.792310  1.0  -0.0396
  C  C2217  1  0.768830  0.222170  0.596720  1.0  -0.0576
  C  C2218  1  0.792630  0.075270  0.577170  1.0  -0.149
  C  C2219  1  0.670430  0.027470  0.602500  1.0  -0.1357
  C  C2220  1  0.841630  0.052670  0.580670  1.0  -0.0106
  C  C2221  1  0.664730  0.976270  0.620270  1.0  -0.0866
  C  C2222  1  0.517630  0.795470  0.792240  1.0  0.0603
  C  C2223  1  0.611630  0.003570  0.785270  1.0  -0.163
  C  C2224  1  0.677830  0.947970  0.810450  1.0  -0.0932
  C  C2225  1  0.658030  0.058070  0.768570  1.0  -0.1205
  C  C2226  1  0.758930  0.978370  0.805310  1.0  -0.0816
  C  C2227  1  0.744330  0.231970  0.586360  1.0  0.1249
  C  C2228  1  0.823730  0.062870  0.573670  1.0  -0.1548
  C  C2229  1  0.639630  0.986870  0.609670  1.0  -0.1367
  C  C2230  1  0.491530  0.788270  0.803970  1.0  0.1304
  C  C2231  1  0.625230  0.042970  0.777870  1.0  -0.118
  C  C2232  1  0.720130  0.959170  0.814180  1.0  -0.0858
  C  C2233  1  0.723030  0.199170  0.577090  1.0  -0.1112
  C  C2234  1  0.741130  0.272370  0.585200  1.0  -0.2349
  C  C2235  1  0.456330  0.742370  0.807870  1.0  -0.1955
  C  C2236  1  0.501930  0.820470  0.812470  1.0  -0.1245
  C  C2237  1  0.699830  0.204570  0.566760  1.0  -0.1402
  C  C2238  1  0.718730  0.276870  0.575050  1.0  -0.0968
  C  C2239  1  0.437330  0.739670  0.819950  1.0  -0.0913
  C  C2240  1  0.474930  0.815570  0.824460  1.0  -0.099
  C  C2241  1  0.696730  0.245370  0.566260  1.0  -0.0243
  C  C2242  1  0.443630  0.771170  0.827840  1.0  0.2363
  C  C2243  1  0.669830  0.250470  0.555870  1.0  0.6807
  C  C2244  1  0.414930  0.763670  0.838570  1.0  0.6509
  C  C2245  1  0.619000  0.177700  0.017290  1.0  0.5889
  C  C2246  1  0.700800  0.214300  0.045670  1.0  0.5978
  C  C2247  1  0.591400  0.140600  0.007070  1.0  -0.1144
  C  C2248  1  0.723400  0.195300  0.054620  1.0  -0.0755
  C  C2249  1  0.613100  0.138200  0.995560  1.0  -0.167
  C  C2250  1  0.546700  0.108500  0.008220  1.0  -0.0856
  C  C2251  1  0.700600  0.167000  0.065690  1.0  -0.0803
  C  C2252  1  0.764500  0.198800  0.051270  1.0  -0.0775
  C  C2253  1  0.589400  0.105800  0.987170  1.0  -0.1041
  C  C2254  1  0.521400  0.074400  0.999400  1.0  -0.2064
  C  C2255  1  0.721300  0.148200  0.073170  1.0  -0.1573
  C  C2256  1  0.786200  0.181200  0.059630  1.0  -0.1557
  C  C2257  1  0.542300  0.073200  0.988170  1.0  0.0709
  C  C2258  1  0.764400  0.156500  0.070220  1.0  0.0332
  C  C2259  1  0.514800  0.039700  0.978180  1.0  0.0265
  C  C2260  1  0.791000  0.141200  0.078360  1.0  0.0053
  C  C2261  1  0.527400  0.009700  0.959210  1.0  0.1301
  C  C2262  1  0.777800  0.092300  0.095480  1.0  0.2975
  C  C2263  1  0.481000  0.975500  0.958930  1.0  -0.2064
  C  C2264  1  0.556300  0.018200  0.948220  1.0  0.0281
  C  C2265  1  0.822800  0.103200  0.095580  1.0  -0.1708
  C  C2266  1  0.748800  0.068800  0.106350  1.0  0.0033
  C  C2267  1  0.466900  0.939700  0.950160  1.0  -0.1991
  C  C2268  1  0.541300  0.983100  0.939910  1.0  -0.0415
  C  C2269  1  0.603100  0.056200  0.945800  1.0  -0.082
  C  C2270  1  0.837000  0.081600  0.105000  1.0  -0.1058
  C  C2271  1  0.761500  0.047400  0.115210  1.0  0.0596
  C  C2272  1  0.700200  0.056600  0.108150  1.0  -0.0872
  C  C2273  1  0.497100  0.945600  0.939690  1.0  0.2295
  C  C2274  1  0.579400  0.991400  0.930260  1.0  -0.1056
  C  C2275  1  0.604800  0.071000  0.933500  1.0  0.208
  C  C2276  1  0.631100  0.033500  0.946500  1.0  0.0147
  C  C2277  1  0.804300  0.054500  0.115400  1.0  0.1104
  C  C2278  1  0.728600  0.017400  0.124370  1.0  -0.1212
  C  C2279  1  0.671800  0.007900  0.108550  1.0  0.0652
  C  C2280  1  0.701700  0.074900  0.121910  1.0  -0.0491
  C  C2281  1  0.591400  0.038200  0.924500  1.0  -0.0038
  C  C2282  1  0.619900  0.999800  0.937600  1.0  0.2663
  C  C2283  1  0.619100  0.115400  0.929400  1.0  -0.0715
  C  C2284  1  0.669100  0.045800  0.954500  1.0  -0.1067
  C  C2285  1  0.686200  0.986300  0.117260  1.0  0.1041
  C  C2286  1  0.718300  0.052300  0.131380  1.0  -0.0447
  C  C2287  1  0.632100  0.979900  0.101370  1.0  -0.0757
  C  C2288  1  0.687100  0.104800  0.125640  1.0  -0.0431
  C  C2289  1  0.444500  0.880000  0.930050  1.0  -0.0602
  C  C2290  1  0.591400  0.050700  0.910500  1.0  -0.1476
  C  C2291  1  0.639200  0.976300  0.935830  1.0  -0.1285
  C  C2292  1  0.614000  0.122300  0.914000  1.0  -0.0023
  C  C2293  1  0.690400  0.021800  0.953600  1.0  -0.0818
  C  C2294  1  0.871200  0.055500  0.125570  1.0  0.0613
  C  C2295  1  0.663100  0.941400  0.118600  1.0  -0.1633
  C  C2296  1  0.718700  0.063200  0.143780  1.0  -0.1079
  C  C2297  1  0.608600  0.933300  0.101900  1.0  -0.1182
  C  C2298  1  0.688300  0.113900  0.138640  1.0  -0.0805
  C  C2299  1  0.434700  0.845700  0.919690  1.0  0.1241
  C  C2300  1  0.603800  0.094200  0.907000  1.0  -0.1562
  C  C2301  1  0.679800  0.986100  0.943000  1.0  -0.1346
  C  C2302  1  0.878400  0.036600  0.137300  1.0  0.1291
  C  C2303  1  0.623700  0.915600  0.111200  1.0  -0.1189
  C  C2304  1  0.707500  0.094300  0.147510  1.0  -0.0882
  C  C2305  1  0.467500  0.857200  0.910420  1.0  -0.1096
  C  C2306  1  0.394300  0.802100  0.918530  1.0  -0.2353
  C  C2307  1  0.924300  0.047300  0.141200  1.0  -0.1985
  C  C2308  1  0.846200  0.014800  0.145800  1.0  -0.1212
  C  C2309  1  0.462100  0.828600  0.900090  1.0  -0.1428
  C  C2310  1  0.389800  0.775200  0.908380  1.0  -0.0973
  C  C2311  1  0.927000  0.031000  0.153280  1.0  -0.0853
  C  C2312  1  0.851100  0.992700  0.157790  1.0  -0.1046
  C  C2313  1  0.421300  0.784700  0.899590  1.0  -0.0238
  C  C2314  1  0.895500  0.005800  0.161170  1.0  0.2384
  C  C2315  1  0.416200  0.752700  0.889200  1.0  0.6824
  C  C2316  1  0.903000  0.984600  0.171900  1.0  0.6496
  C  C2317  1  0.285670  0.511030  0.350620  1.0  0.5889
  C  C2318  1  0.367470  0.547630  0.379000  1.0  0.5978
  C  C2319  1  0.258070  0.473930  0.340400  1.0  -0.1144
  C  C2320  1  0.390070  0.528630  0.387950  1.0  -0.0755
  C  C2321  1  0.279770  0.471530  0.328890  1.0  -0.1671
  C  C2322  1  0.213370  0.441830  0.341550  1.0  -0.0856
  C  C2323  1  0.367270  0.500330  0.399020  1.0  -0.0803
  C  C2324  1  0.431170  0.532130  0.384600  1.0  -0.0775
  C  C2325  1  0.256070  0.439130  0.320500  1.0  -0.1045
  C  C2326  1  0.188070  0.407730  0.332730  1.0  -0.2066
  C  C2327  1  0.387970  0.481530  0.406500  1.0  -0.1573
  C  C2328  1  0.452870  0.514530  0.392960  1.0  -0.1557
  C  C2329  1  0.208970  0.406530  0.321500  1.0  0.0709
  C  C2330  1  0.431070  0.489830  0.403550  1.0  0.0332
  C  C2331  1  0.181470  0.373030  0.311510  1.0  0.0265
  C  C2332  1  0.457670  0.474530  0.411690  1.0  0.0053
  C  C2333  1  0.194070  0.343030  0.292540  1.0  0.1301
  C  C2334  1  0.444470  0.425630  0.428810  1.0  0.2975
  C  C2335  1  0.147670  0.308830  0.292260  1.0  -0.2064
  C  C2336  1  0.222970  0.351530  0.281550  1.0  0.0281
  C  C2337  1  0.489470  0.436530  0.428910  1.0  -0.1708
  C  C2338  1  0.415470  0.402130  0.439680  1.0  0.0033
  C  C2339  1  0.133570  0.273030  0.283490  1.0  -0.1991
  C  C2340  1  0.207970  0.316430  0.273240  1.0  -0.0415
  C  C2341  1  0.269770  0.389530  0.279130  1.0  -0.082
  C  C2342  1  0.503670  0.414930  0.438330  1.0  -0.1058
  C  C2343  1  0.428170  0.380730  0.448540  1.0  0.0596
  C  C2344  1  0.366870  0.389930  0.441480  1.0  -0.0872
  C  C2345  1  0.163770  0.278930  0.273020  1.0  0.2296
  C  C2346  1  0.246070  0.324730  0.263590  1.0  -0.1056
  C  C2347  1  0.271470  0.404330  0.266830  1.0  0.208
  C  C2348  1  0.297770  0.366830  0.279830  1.0  0.0146
  C  C2349  1  0.470970  0.387830  0.448730  1.0  0.1104
  C  C2350  1  0.395270  0.350730  0.457700  1.0  -0.1212
  C  C2351  1  0.338470  0.341230  0.441880  1.0  0.0652
  C  C2352  1  0.368370  0.408230  0.455240  1.0  -0.0491
  C  C2353  1  0.258070  0.371530  0.257830  1.0  -0.0038
  C  C2354  1  0.286570  0.333130  0.270930  1.0  0.2671
  C  C2355  1  0.285770  0.448730  0.262730  1.0  -0.0715
  C  C2356  1  0.335770  0.379130  0.287830  1.0  -0.1067
  C  C2357  1  0.352870  0.319630  0.450590  1.0  0.1041
  C  C2358  1  0.384970  0.385630  0.464710  1.0  -0.0447
  C  C2359  1  0.298770  0.313230  0.434700  1.0  -0.0757
  C  C2360  1  0.353770  0.438130  0.458970  1.0  -0.0431
  C  C2361  1  0.111170  0.213330  0.263380  1.0  -0.0602
  C  C2362  1  0.258070  0.384030  0.243830  1.0  -0.1473
  C  C2363  1  0.305870  0.309630  0.269160  1.0  -0.1281
  C  C2364  1  0.280670  0.455630  0.247330  1.0  -0.0024
  C  C2365  1  0.357070  0.355130  0.286930  1.0  -0.082
  C  C2366  1  0.537870  0.388830  0.458900  1.0  0.0613
  C  C2367  1  0.329770  0.274730  0.451930  1.0  -0.1633
  C  C2368  1  0.385370  0.396530  0.477110  1.0  -0.1079
  C  C2369  1  0.275270  0.266630  0.435230  1.0  -0.1182
  C  C2370  1  0.354970  0.447230  0.471970  1.0  -0.0805
  C  C2371  1  0.101370  0.179030  0.253020  1.0  0.1244
  C  C2372  1  0.270470  0.427530  0.240330  1.0  -0.156
  C  C2373  1  0.346470  0.319430  0.276330  1.0  -0.1345
  C  C2374  1  0.545070  0.369930  0.470630  1.0  0.1291
  C  C2375  1  0.290370  0.248930  0.444530  1.0  -0.1189
  C  C2376  1  0.374170  0.427630  0.480840  1.0  -0.0882
  C  C2377  1  0.134170  0.190530  0.243750  1.0  -0.1096
  C  C2378  1  0.060970  0.135430  0.251860  1.0  -0.2355
  C  C2379  1  0.590970  0.380630  0.474530  1.0  -0.1985
  C  C2380  1  0.512870  0.348130  0.479130  1.0  -0.1212
  C  C2381  1  0.128770  0.161930  0.233420  1.0  -0.1412
  C  C2382  1  0.056470  0.108530  0.241710  1.0  -0.0972
  C  C2383  1  0.593670  0.364330  0.486610  1.0  -0.0853
  C  C2384  1  0.517770  0.326030  0.491120  1.0  -0.1046
  C  C2385  1  0.087970  0.118030  0.232920  1.0  -0.0237
  C  C2386  1  0.562170  0.339130  0.494500  1.0  0.2384
  C  C2387  1  0.082870  0.086030  0.222530  1.0  0.6805
  C  C2388  1  0.569670  0.317930  0.505230  1.0  0.6496
  C  C2389  1  0.952330  0.844370  0.683960  1.0  0.5892
  C  C2390  1  0.034130  0.880970  0.712340  1.0  0.5977
  C  C2391  1  0.924730  0.807270  0.673740  1.0  -0.1143
  C  C2392  1  0.056730  0.861970  0.721290  1.0  -0.0757
  C  C2393  1  0.946430  0.804870  0.662230  1.0  -0.167
  C  C2394  1  0.880030  0.775170  0.674890  1.0  -0.0859
  C  C2395  1  0.033930  0.833670  0.732360  1.0  -0.0804
  C  C2396  1  0.097830  0.865470  0.717940  1.0  -0.0773
  C  C2397  1  0.922730  0.772470  0.653840  1.0  -0.104
  C  C2398  1  0.854730  0.741070  0.666070  1.0  -0.2064
  C  C2399  1  0.054630  0.814870  0.739840  1.0  -0.1573
  C  C2400  1  0.119530  0.847870  0.726300  1.0  -0.1555
  C  C2401  1  0.875630  0.739870  0.654840  1.0  0.0709
  C  C2402  1  0.097730  0.823170  0.736890  1.0  0.0332
  C  C2403  1  0.848130  0.706370  0.644850  1.0  0.0265
  C  C2404  1  0.124330  0.807870  0.745030  1.0  0.0053
  C  C2405  1  0.860730  0.676370  0.625880  1.0  0.1301
  C  C2406  1  0.111130  0.758970  0.762150  1.0  0.2978
  C  C2407  1  0.814330  0.642170  0.625600  1.0  -0.2064
  C  C2408  1  0.889630  0.684870  0.614890  1.0  0.0281
  C  C2409  1  0.156130  0.769870  0.762250  1.0  -0.1708
  C  C2410  1  0.082130  0.735470  0.773020  1.0  0.0034
  C  C2411  1  0.800230  0.606370  0.616830  1.0  -0.1991
  C  C2412  1  0.874630  0.649770  0.606580  1.0  -0.0415
  C  C2413  1  0.936430  0.722870  0.612470  1.0  -0.082
  C  C2414  1  0.170330  0.748270  0.771670  1.0  -0.1062
  C  C2415  1  0.094830  0.714070  0.781880  1.0  0.0598
  C  C2416  1  0.033530  0.723270  0.774820  1.0  -0.0872
  C  C2417  1  0.830430  0.612270  0.606360  1.0  0.2295
  C  C2418  1  0.912730  0.658070  0.596930  1.0  -0.1056
  C  C2419  1  0.938130  0.737670  0.600170  1.0  0.208
  C  C2420  1  0.964430  0.700170  0.613170  1.0  0.0147
  C  C2421  1  0.137630  0.721170  0.782070  1.0  0.1104
  C  C2422  1  0.061930  0.684070  0.791040  1.0  -0.1212
  C  C2423  1  0.005130  0.674570  0.775220  1.0  0.0652
  C  C2424  1  0.035030  0.741570  0.788580  1.0  -0.0491
  C  C2425  1  0.924730  0.704870  0.591170  1.0  -0.0038
  C  C2426  1  0.953230  0.666470  0.604270  1.0  0.2663
  C  C2427  1  0.952430  0.782070  0.596070  1.0  -0.0715
  C  C2428  1  0.002430  0.712470  0.621170  1.0  -0.1067
  C  C2429  1  0.019530  0.652970  0.783930  1.0  0.1041
  C  C2430  1  0.051630  0.718970  0.798050  1.0  -0.0447
  C  C2431  1  0.965430  0.646570  0.768040  1.0  -0.0752
  C  C2432  1  0.020430  0.771470  0.792310  1.0  -0.0431
  C  C2433  1  0.777830  0.546670  0.596720  1.0  -0.0602
  C  C2434  1  0.924730  0.717370  0.577170  1.0  -0.1476
  C  C2435  1  0.972530  0.642970  0.602500  1.0  -0.1285
  C  C2436  1  0.947330  0.788970  0.580670  1.0  -0.0023
  C  C2437  1  0.023730  0.688470  0.620270  1.0  -0.0818
  C  C2438  1  0.204530  0.722170  0.792240  1.0  0.0613
  C  C2439  1  0.996430  0.608070  0.785270  1.0  -0.1634
  C  C2440  1  0.052030  0.729870  0.810450  1.0  -0.097
  C  C2441  1  0.941930  0.599970  0.768570  1.0  -0.1184
  C  C2442  1  0.021630  0.780570  0.805310  1.0  -0.0783
  C  C2443  1  0.768030  0.512370  0.586360  1.0  0.1241
  C  C2444  1  0.937130  0.760870  0.573670  1.0  -0.1562
  C  C2445  1  0.013130  0.652770  0.609670  1.0  -0.1346
  C  C2446  1  0.211730  0.703270  0.803970  1.0  0.1291
  C  C2447  1  0.957030  0.582270  0.777870  1.0  -0.119
  C  C2448  1  0.040830  0.760970  0.814180  1.0  -0.0831
  C  C2449  1  0.800830  0.523870  0.577090  1.0  -0.1096
  C  C2450  1  0.727630  0.468770  0.585200  1.0  -0.2353
  C  C2451  1  0.257630  0.713970  0.807870  1.0  -0.1986
  C  C2452  1  0.179530  0.681470  0.812470  1.0  -0.1211
  C  C2453  1  0.795430  0.495270  0.566760  1.0  -0.1428
  C  C2454  1  0.723130  0.441870  0.575050  1.0  -0.0973
  C  C2455  1  0.260330  0.697670  0.819950  1.0  -0.0853
  C  C2456  1  0.184430  0.659370  0.824460  1.0  -0.105
  C  C2457  1  0.754630  0.451370  0.566260  1.0  -0.0238
  C  C2458  1  0.228830  0.672470  0.827840  1.0  0.2372
  C  C2459  1  0.749530  0.419370  0.555870  1.0  0.6824
  C  C2460  1  0.236330  0.651270  0.838570  1.0  0.6494
  C  C2461  1  0.558700  0.177700  0.517290  1.0  0.5888
  C  C2462  1  0.513500  0.214300  0.545670  1.0  0.5976
  C  C2463  1  0.549200  0.140600  0.507070  1.0  -0.1142
  C  C2464  1  0.471900  0.195300  0.554620  1.0  -0.074
  C  C2465  1  0.525100  0.138200  0.495560  1.0  -0.1674
  C  C2466  1  0.561800  0.108500  0.508220  1.0  -0.0843
  C  C2467  1  0.466400  0.167000  0.565690  1.0  -0.081
  C  C2468  1  0.434300  0.198800  0.551270  1.0  -0.0775
  C  C2469  1  0.516400  0.105800  0.487170  1.0  -0.106
  C  C2470  1  0.553000  0.074400  0.499400  1.0  -0.207
  C  C2471  1  0.426900  0.148200  0.573170  1.0  -0.157
  C  C2472  1  0.395000  0.181200  0.559630  1.0  -0.157
  C  C2473  1  0.530900  0.073200  0.488170  1.0  0.0713
  C  C2474  1  0.392100  0.156500  0.570220  1.0  0.0335
  C  C2475  1  0.524900  0.039700  0.478180  1.0  0.026
  C  C2476  1  0.350200  0.141200  0.578360  1.0  0.005
  C  C2477  1  0.482300  0.009700  0.459210  1.0  0.1286
  C  C2478  1  0.314500  0.092300  0.595480  1.0  0.2979
  C  C2479  1  0.494500  0.975500  0.458930  1.0  -0.2075
  C  C2480  1  0.461900  0.018200  0.448220  1.0  0.0279
  C  C2481  1  0.280400  0.103200  0.595580  1.0  -0.1702
  C  C2482  1  0.320000  0.068800  0.606350  1.0  0.003
  C  C2483  1  0.472800  0.939700  0.450160  1.0  -0.1992
  C  C2484  1  0.441800  0.983100  0.439910  1.0  -0.0418
  C  C2485  1  0.453100  0.056200  0.445800  1.0  -0.0847
  C  C2486  1  0.244600  0.081600  0.605000  1.0  -0.1067
  C  C2487  1  0.285900  0.047400  0.615210  1.0  0.0594
  C  C2488  1  0.356400  0.056600  0.608150  1.0  -0.087
  C  C2489  1  0.448500  0.945600  0.439690  1.0  0.2283
  C  C2490  1  0.412000  0.991400  0.430260  1.0  -0.1063
  C  C2491  1  0.466200  0.071000  0.433500  1.0  0.2079
  C  C2492  1  0.402400  0.033500  0.446500  1.0  0.0134
  C  C2493  1  0.250200  0.054500  0.615400  1.0  0.1087
  C  C2494  1  0.288800  0.017400  0.624370  1.0  -0.1197
  C  C2495  1  0.336100  0.007900  0.608550  1.0  0.065
  C  C2496  1  0.373200  0.074900  0.621910  1.0  -0.0478
  C  C2497  1  0.446800  0.038200  0.424500  1.0  -0.0026
  C  C2498  1  0.379900  0.999800  0.437600  1.0  0.2654
  C  C2499  1  0.496300  0.115400  0.429400  1.0  -0.0709
  C  C2500  1  0.376700  0.045800  0.454500  1.0  -0.109
  C  C2501  1  0.300100  0.986300  0.617260  1.0  0.1044
  C  C2502  1  0.334000  0.052300  0.631380  1.0  -0.0448
  C  C2503  1  0.347800  0.979900  0.601370  1.0  -0.0754
  C  C2504  1  0.417700  0.104800  0.625640  1.0  -0.0424
  C  C2505  1  0.435500  0.880000  0.430050  1.0  -0.0588
  C  C2506  1  0.459300  0.050700  0.410500  1.0  -0.1453
  C  C2507  1  0.337100  0.976300  0.435830  1.0  -0.1305
  C  C2508  1  0.508300  0.122300  0.414000  1.0  -0.0032
  C  C2509  1  0.331400  0.021800  0.453600  1.0  -0.0828
  C  C2510  1  0.184300  0.055500  0.625570  1.0  0.0622
  C  C2511  1  0.278300  0.941400  0.618600  1.0  -0.1622
  C  C2512  1  0.344500  0.063200  0.643780  1.0  -0.107
  C  C2513  1  0.324700  0.933300  0.601900  1.0  -0.119
  C  C2514  1  0.425600  0.113900  0.638640  1.0  -0.0817
  C  C2515  1  0.411000  0.845700  0.419690  1.0  0.1246
  C  C2516  1  0.490400  0.094200  0.407000  1.0  -0.1551
  C  C2517  1  0.306300  0.986100  0.443000  1.0  -0.1337
  C  C2518  1  0.158200  0.036600  0.637300  1.0  0.1295
  C  C2519  1  0.291900  0.915600  0.611200  1.0  -0.1187
  C  C2520  1  0.386800  0.094300  0.647510  1.0  -0.0867
  C  C2521  1  0.389700  0.857200  0.410420  1.0  -0.1076
  C  C2522  1  0.407800  0.802100  0.418530  1.0  -0.2352
  C  C2523  1  0.123000  0.047300  0.641200  1.0  -0.1993
  C  C2524  1  0.168600  0.014800  0.645800  1.0  -0.1209
  C  C2525  1  0.366500  0.828600  0.400090  1.0  -0.1418
  C  C2526  1  0.385400  0.775200  0.408380  1.0  -0.0962
  C  C2527  1  0.104000  0.031000  0.653280  1.0  -0.0858
  C  C2528  1  0.141600  0.992700  0.657790  1.0  -0.1048
  C  C2529  1  0.363400  0.784700  0.399590  1.0  -0.0245
  C  C2530  1  0.110300  0.005800  0.661170  1.0  0.2373
  C  C2531  1  0.336500  0.752700  0.389200  1.0  0.6849
  C  C2532  1  0.081600  0.984600  0.671900  1.0  0.6496
  C  C2533  1  0.225370  0.511030  0.850620  1.0  0.5893
  C  C2534  1  0.180170  0.547630  0.879000  1.0  0.5976
  C  C2535  1  0.215870  0.473930  0.840400  1.0  -0.1143
  C  C2536  1  0.138570  0.528630  0.887950  1.0  -0.074
  C  C2537  1  0.191770  0.471530  0.828890  1.0  -0.1675
  C  C2538  1  0.228470  0.441830  0.841550  1.0  -0.0842
  C  C2539  1  0.133070  0.500330  0.899020  1.0  -0.081
  C  C2540  1  0.100970  0.532130  0.884600  1.0  -0.0775
  C  C2541  1  0.183070  0.439130  0.820500  1.0  -0.106
  C  C2542  1  0.219670  0.407730  0.832730  1.0  -0.207
  C  C2543  1  0.093570  0.481530  0.906500  1.0  -0.157
  C  C2544  1  0.061670  0.514530  0.892960  1.0  -0.157
  C  C2545  1  0.197570  0.406530  0.821500  1.0  0.0713
  C  C2546  1  0.058770  0.489830  0.903550  1.0  0.0335
  C  C2547  1  0.191570  0.373030  0.811510  1.0  0.0259
  C  C2548  1  0.016870  0.474530  0.911690  1.0  0.005
  C  C2549  1  0.148970  0.343030  0.792540  1.0  0.1288
  C  C2550  1  0.981170  0.425630  0.928810  1.0  0.2979
  C  C2551  1  0.161170  0.308830  0.792260  1.0  -0.2076
  C  C2552  1  0.128570  0.351530  0.781550  1.0  0.0279
  C  C2553  1  0.947070  0.436530  0.928910  1.0  -0.1702
  C  C2554  1  0.986670  0.402130  0.939680  1.0  0.003
  C  C2555  1  0.139470  0.273030  0.783490  1.0  -0.1993
  C  C2556  1  0.108470  0.316430  0.773240  1.0  -0.0418
  C  C2557  1  0.119770  0.389530  0.779130  1.0  -0.0846
  C  C2558  1  0.911270  0.414930  0.938330  1.0  -0.1067
  C  C2559  1  0.952570  0.380730  0.948540  1.0  0.0594
  C  C2560  1  0.023070  0.389930  0.941480  1.0  -0.087
  C  C2561  1  0.115170  0.278930  0.773020  1.0  0.2285
  C  C2562  1  0.078670  0.324730  0.763590  1.0  -0.1062
  C  C2563  1  0.132870  0.404330  0.766830  1.0  0.2079
  C  C2564  1  0.069070  0.366830  0.779830  1.0  0.0134
  C  C2565  1  0.916870  0.387830  0.948730  1.0  0.1087
  C  C2566  1  0.955470  0.350730  0.957700  1.0  -0.1197
  C  C2567  1  0.002770  0.341230  0.941880  1.0  0.065
  C  C2568  1  0.039870  0.408230  0.955240  1.0  -0.0478
  C  C2569  1  0.113470  0.371530  0.757830  1.0  -0.0026
  C  C2570  1  0.046570  0.333130  0.770930  1.0  0.2659
  C  C2571  1  0.162970  0.448730  0.762730  1.0  -0.0711
  C  C2572  1  0.043370  0.379130  0.787830  1.0  -0.109
  C  C2573  1  0.966770  0.319630  0.950590  1.0  0.1044
  C  C2574  1  0.000670  0.385630  0.964710  1.0  -0.0448
  C  C2575  1  0.014470  0.313230  0.934700  1.0  -0.0754
  C  C2576  1  0.084370  0.438130  0.958970  1.0  -0.0424
  C  C2577  1  0.102170  0.213330  0.763380  1.0  -0.0588
  C  C2578  1  0.125970  0.384030  0.743830  1.0  -0.1453
  C  C2579  1  0.003770  0.309630  0.769160  1.0  -0.1302
  C  C2580  1  0.174970  0.455630  0.747330  1.0  -0.0032
  C  C2581  1  0.998070  0.355130  0.786930  1.0  -0.0831
  C  C2582  1  0.850970  0.388830  0.958900  1.0  0.0622
  C  C2583  1  0.944970  0.274730  0.951930  1.0  -0.1622
  C  C2584  1  0.011170  0.396530  0.977110  1.0  -0.107
  C  C2585  1  0.991370  0.266630  0.935230  1.0  -0.119
  C  C2586  1  0.092270  0.447230  0.971970  1.0  -0.0817
  C  C2587  1  0.077670  0.179030  0.753020  1.0  0.1245
  C  C2588  1  0.157070  0.427530  0.740330  1.0  -0.155
  C  C2589  1  0.972970  0.319430  0.776330  1.0  -0.1337
  C  C2590  1  0.824870  0.369930  0.970630  1.0  0.1295
  C  C2591  1  0.958570  0.248930  0.944530  1.0  -0.1187
  C  C2592  1  0.053470  0.427630  0.980840  1.0  -0.0867
  C  C2593  1  0.056370  0.190530  0.743750  1.0  -0.1076
  C  C2594  1  0.074470  0.135430  0.751860  1.0  -0.2349
  C  C2595  1  0.789670  0.380630  0.974530  1.0  -0.1993
  C  C2596  1  0.835270  0.348130  0.979130  1.0  -0.1209
  C  C2597  1  0.033170  0.161930  0.733420  1.0  -0.1403
  C  C2598  1  0.052070  0.108530  0.741710  1.0  -0.0961
  C  C2599  1  0.770670  0.364330  0.986610  1.0  -0.0858
  C  C2600  1  0.808270  0.326030  0.991120  1.0  -0.1048
  C  C2601  1  0.030070  0.118030  0.732920  1.0  -0.0244
  C  C2602  1  0.776970  0.339130  0.994500  1.0  0.2373
  C  C2603  1  0.003170  0.086030  0.722530  1.0  0.6823
  C  C2604  1  0.748270  0.317930  0.005230  1.0  0.6496
  C  C2605  1  0.892030  0.844370  0.183960  1.0  0.589
  C  C2606  1  0.846830  0.880970  0.212340  1.0  0.5976
  C  C2607  1  0.882530  0.807270  0.173740  1.0  -0.1142
  C  C2608  1  0.805230  0.861970  0.221290  1.0  -0.0739
  C  C2609  1  0.858430  0.804870  0.162230  1.0  -0.1673
  C  C2610  1  0.895130  0.775170  0.174890  1.0  -0.0845
  C  C2611  1  0.799730  0.833670  0.232360  1.0  -0.0809
  C  C2612  1  0.767630  0.865470  0.217940  1.0  -0.0774
  C  C2613  1  0.849730  0.772470  0.153840  1.0  -0.1058
  C  C2614  1  0.886330  0.741070  0.166070  1.0  -0.207
  C  C2615  1  0.760230  0.814870  0.239840  1.0  -0.157
  C  C2616  1  0.728330  0.847870  0.226300  1.0  -0.1569
  C  C2617  1  0.864230  0.739870  0.154840  1.0  0.0713
  C  C2618  1  0.725430  0.823170  0.236890  1.0  0.0334
  C  C2619  1  0.858230  0.706370  0.144850  1.0  0.026
  C  C2620  1  0.683530  0.807870  0.245030  1.0  0.005
  C  C2621  1  0.815630  0.676370  0.125880  1.0  0.1286
  C  C2622  1  0.647830  0.758970  0.262150  1.0  0.2982
  C  C2623  1  0.827830  0.642170  0.125600  1.0  -0.2075
  C  C2624  1  0.795230  0.684870  0.114890  1.0  0.0279
  C  C2625  1  0.613730  0.769870  0.262250  1.0  -0.1702
  C  C2626  1  0.653330  0.735470  0.273020  1.0  0.003
  C  C2627  1  0.806130  0.606370  0.116830  1.0  -0.1992
  C  C2628  1  0.775130  0.649770  0.106580  1.0  -0.0418
  C  C2629  1  0.786430  0.722870  0.112470  1.0  -0.0847
  C  C2630  1  0.577930  0.748270  0.271670  1.0  -0.107
  C  C2631  1  0.619230  0.714070  0.281880  1.0  0.0595
  C  C2632  1  0.689730  0.723270  0.274820  1.0  -0.0869
  C  C2633  1  0.781830  0.612270  0.106360  1.0  0.2283
  C  C2634  1  0.745330  0.658070  0.096930  1.0  -0.1063
  C  C2635  1  0.799530  0.737670  0.100170  1.0  0.2079
  C  C2636  1  0.735730  0.700170  0.113170  1.0  0.0134
  C  C2637  1  0.583530  0.721170  0.282070  1.0  0.1087
  C  C2638  1  0.622130  0.684070  0.291040  1.0  -0.1197
  C  C2639  1  0.669430  0.674570  0.275220  1.0  0.065
  C  C2640  1  0.706530  0.741570  0.288580  1.0  -0.0478
  C  C2641  1  0.780130  0.704870  0.091170  1.0  -0.0026
  C  C2642  1  0.713230  0.666470  0.104270  1.0  0.2654
  C  C2643  1  0.829630  0.782070  0.096070  1.0  -0.0709
  C  C2644  1  0.710030  0.712470  0.121170  1.0  -0.109
  C  C2645  1  0.633430  0.652970  0.283930  1.0  0.1044
  C  C2646  1  0.667330  0.718970  0.298050  1.0  -0.0448
  C  C2647  1  0.681130  0.646570  0.268040  1.0  -0.0756
  C  C2648  1  0.751030  0.771470  0.292310  1.0  -0.0429
  C  C2649  1  0.768830  0.546670  0.096720  1.0  -0.0588
  C  C2650  1  0.792630  0.717370  0.077170  1.0  -0.1453
  C  C2651  1  0.670430  0.642970  0.102500  1.0  -0.1305
  C  C2652  1  0.841630  0.788970  0.080670  1.0  -0.0032
  C  C2653  1  0.664730  0.688470  0.120270  1.0  -0.0828
  C  C2654  1  0.517630  0.722170  0.292240  1.0  0.0622
  C  C2655  1  0.611630  0.608070  0.285270  1.0  -0.1622
  C  C2656  1  0.677830  0.729870  0.310450  1.0  -0.0959
  C  C2657  1  0.658030  0.599970  0.268570  1.0  -0.1192
  C  C2658  1  0.758930  0.780570  0.305310  1.0  -0.08
  C  C2659  1  0.744330  0.512370  0.086360  1.0  0.1246
  C  C2660  1  0.823730  0.760870  0.073670  1.0  -0.1551
  C  C2661  1  0.639630  0.652770  0.109670  1.0  -0.1337
  C  C2662  1  0.491530  0.703270  0.303970  1.0  0.1295
  C  C2663  1  0.625230  0.582270  0.277870  1.0  -0.1187
  C  C2664  1  0.720130  0.760970  0.314180  1.0  -0.0822
  C  C2665  1  0.723030  0.523870  0.077090  1.0  -0.1076
  C  C2666  1  0.741130  0.468770  0.085200  1.0  -0.2352
  C  C2667  1  0.456330  0.713970  0.307870  1.0  -0.1992
  C  C2668  1  0.501930  0.681470  0.312470  1.0  -0.1208
  C  C2669  1  0.699830  0.495270  0.066760  1.0  -0.1418
  C  C2670  1  0.718730  0.441870  0.075050  1.0  -0.0962
  C  C2671  1  0.437330  0.697670  0.319950  1.0  -0.0858
  C  C2672  1  0.474930  0.659370  0.324460  1.0  -0.1045
  C  C2673  1  0.696730  0.451370  0.066260  1.0  -0.0245
  C  C2674  1  0.443630  0.672470  0.327840  1.0  0.2378
  C  C2675  1  0.669830  0.419370  0.055870  1.0  0.6849
  C  C2676  1  0.414930  0.651270  0.338570  1.0  0.6493
  C  C2677  1  0.619000  0.441300  0.517290  1.0  0.5851
  C  C2678  1  0.700800  0.486500  0.545670  1.0  0.5973
  C  C2679  1  0.591400  0.450800  0.507070  1.0  -0.1161
  C  C2680  1  0.723400  0.528100  0.554620  1.0  -0.076
  C  C2681  1  0.613100  0.474900  0.495560  1.0  -0.1691
  C  C2682  1  0.546700  0.438200  0.508220  1.0  -0.0883
  C  C2683  1  0.700600  0.533600  0.565690  1.0  -0.0789
  C  C2684  1  0.764500  0.565700  0.551270  1.0  -0.0772
  C  C2685  1  0.589400  0.483600  0.487170  1.0  -0.1094
  C  C2686  1  0.521400  0.447000  0.499400  1.0  -0.2074
  C  C2687  1  0.721300  0.573100  0.573170  1.0  -0.1556
  C  C2688  1  0.786200  0.605000  0.559630  1.0  -0.16
  C  C2689  1  0.542300  0.469100  0.488170  1.0  0.0696
  C  C2690  1  0.764400  0.607900  0.570220  1.0  0.0342
  C  C2691  1  0.514800  0.475100  0.478180  1.0  0.0245
  C  C2692  1  0.791000  0.649800  0.578360  1.0  0.0082
  C  C2693  1  0.527400  0.517700  0.459210  1.0  0.1266
  C  C2694  1  0.777800  0.685500  0.595480  1.0  0.2974
  C  C2695  1  0.481000  0.505500  0.458930  1.0  -0.2074
  C  C2696  1  0.556300  0.538100  0.448220  1.0  0.0275
  C  C2697  1  0.822800  0.719600  0.595580  1.0  -0.1691
  C  C2698  1  0.748800  0.680000  0.606350  1.0  0.004
  C  C2699  1  0.466900  0.527200  0.450160  1.0  -0.1993
  C  C2700  1  0.541300  0.558200  0.439910  1.0  -0.0415
  C  C2701  1  0.603100  0.546900  0.445800  1.0  -0.0849
  C  C2702  1  0.837000  0.755400  0.605000  1.0  -0.1054
  C  C2703  1  0.761500  0.714100  0.615210  1.0  0.0582
  C  C2704  1  0.700200  0.643600  0.608150  1.0  -0.0895
  C  C2705  1  0.497100  0.551500  0.439690  1.0  0.2292
  C  C2706  1  0.579400  0.588000  0.430260  1.0  -0.1082
  C  C2707  1  0.604800  0.533800  0.433500  1.0  0.2029
  C  C2708  1  0.631100  0.597600  0.446500  1.0  0.0171
  C  C2709  1  0.804300  0.749800  0.615400  1.0  0.1072
  C  C2710  1  0.728600  0.711200  0.624370  1.0  -0.1177
  C  C2711  1  0.671800  0.663900  0.608550  1.0  0.0658
  C  C2712  1  0.701700  0.626800  0.621910  1.0  -0.0476
  C  C2713  1  0.591400  0.553200  0.424500  1.0  -0.0025
  C  C2714  1  0.619900  0.620100  0.437600  1.0  0.2621
  C  C2715  1  0.619100  0.503700  0.429400  1.0  -0.0717
  C  C2716  1  0.669100  0.623300  0.454500  1.0  -0.1046
  C  C2717  1  0.686200  0.699900  0.617260  1.0  0.1011
  C  C2718  1  0.718300  0.666000  0.631380  1.0  -0.0442
  C  C2719  1  0.632100  0.652200  0.601370  1.0  -0.0749
  C  C2720  1  0.687100  0.582300  0.625640  1.0  -0.0412
  C  C2721  1  0.444500  0.564500  0.430050  1.0  -0.0575
  C  C2722  1  0.591400  0.540700  0.410500  1.0  -0.1471
  C  C2723  1  0.639200  0.662900  0.435830  1.0  -0.1304
  C  C2724  1  0.614000  0.491700  0.414000  1.0  -0.0125
  C  C2725  1  0.690400  0.668600  0.453600  1.0  -0.0826
  C  C2726  1  0.871200  0.815700  0.625570  1.0  0.0574
  C  C2727  1  0.663100  0.721700  0.618600  1.0  -0.1642
  C  C2728  1  0.718700  0.655500  0.643780  1.0  -0.1036
  C  C2729  1  0.608600  0.675300  0.601900  1.0  -0.1188
  C  C2730  1  0.688300  0.574400  0.638640  1.0  -0.0829
  C  C2731  1  0.434700  0.589000  0.419690  1.0  0.1243
  C  C2732  1  0.603800  0.509600  0.407000  1.0  -0.1595
  C  C2733  1  0.679800  0.693700  0.443000  1.0  -0.1355
  C  C2734  1  0.878400  0.841800  0.637300  1.0  0.1284
  C  C2735  1  0.623700  0.708100  0.611200  1.0  -0.1164
  C  C2736  1  0.707500  0.613200  0.647510  1.0  -0.0881
  C  C2737  1  0.467500  0.610300  0.410420  1.0  -0.1098
  C  C2738  1  0.394300  0.592200  0.418530  1.0  -0.2356
  C  C2739  1  0.924300  0.877000  0.641200  1.0  -0.199
  C  C2740  1  0.846200  0.831400  0.645800  1.0  -0.1216
  C  C2741  1  0.462100  0.633500  0.400090  1.0  -0.1416
  C  C2742  1  0.389800  0.614600  0.408380  1.0  -0.0985
  C  C2743  1  0.927000  0.896000  0.653280  1.0  -0.0859
  C  C2744  1  0.851100  0.858400  0.657790  1.0  -0.1011
  C  C2745  1  0.421300  0.636600  0.399590  1.0  -0.0222
  C  C2746  1  0.895500  0.889700  0.661170  1.0  0.2338
  C  C2747  1  0.416200  0.663500  0.389200  1.0  0.6804
  C  C2748  1  0.903000  0.918400  0.671900  1.0  0.6514
  C  C2749  1  0.285670  0.774630  0.850620  1.0  0.5852
  C  C2750  1  0.367470  0.819830  0.879000  1.0  0.5973
  C  C2751  1  0.258070  0.784130  0.840400  1.0  -0.1161
  C  C2752  1  0.390070  0.861430  0.887950  1.0  -0.076
  C  C2753  1  0.279770  0.808230  0.828890  1.0  -0.1692
  C  C2754  1  0.213370  0.771530  0.841550  1.0  -0.0883
  C  C2755  1  0.367270  0.866930  0.899020  1.0  -0.0789
  C  C2756  1  0.431170  0.899030  0.884600  1.0  -0.0772
  C  C2757  1  0.256070  0.816930  0.820500  1.0  -0.1094
  C  C2758  1  0.188070  0.780330  0.832730  1.0  -0.2075
  C  C2759  1  0.387970  0.906430  0.906500  1.0  -0.1556
  C  C2760  1  0.452870  0.938330  0.892960  1.0  -0.16
  C  C2761  1  0.208970  0.802430  0.821500  1.0  0.0696
  C  C2762  1  0.431070  0.941230  0.903550  1.0  0.0342
  C  C2763  1  0.181470  0.808430  0.811510  1.0  0.0245
  C  C2764  1  0.457670  0.983130  0.911690  1.0  0.0082
  C  C2765  1  0.194070  0.851030  0.792540  1.0  0.1267
  C  C2766  1  0.444470  0.018830  0.928810  1.0  0.2974
  C  C2767  1  0.147670  0.838830  0.792260  1.0  -0.2074
  C  C2768  1  0.222970  0.871430  0.781550  1.0  0.0274
  C  C2769  1  0.489470  0.052930  0.928910  1.0  -0.1691
  C  C2770  1  0.415470  0.013330  0.939680  1.0  0.004
  C  C2771  1  0.133570  0.860530  0.783490  1.0  -0.1993
  C  C2772  1  0.207970  0.891530  0.773240  1.0  -0.0414
  C  C2773  1  0.269770  0.880230  0.779130  1.0  -0.0849
  C  C2774  1  0.503670  0.088730  0.938330  1.0  -0.1054
  C  C2775  1  0.428170  0.047430  0.948540  1.0  0.0582
  C  C2776  1  0.366870  0.976930  0.941480  1.0  -0.0895
  C  C2777  1  0.163770  0.884830  0.773020  1.0  0.2292
  C  C2778  1  0.246070  0.921330  0.763590  1.0  -0.1082
  C  C2779  1  0.271470  0.867130  0.766830  1.0  0.2029
  C  C2780  1  0.297770  0.930930  0.779830  1.0  0.017
  C  C2781  1  0.470970  0.083130  0.948730  1.0  0.1072
  C  C2782  1  0.395270  0.044530  0.957700  1.0  -0.1177
  C  C2783  1  0.338470  0.997230  0.941880  1.0  0.0658
  C  C2784  1  0.368370  0.960130  0.955240  1.0  -0.0476
  C  C2785  1  0.258070  0.886530  0.757830  1.0  -0.0025
  C  C2786  1  0.286570  0.953430  0.770930  1.0  0.2629
  C  C2787  1  0.285770  0.837030  0.762730  1.0  -0.0718
  C  C2788  1  0.335770  0.956630  0.787830  1.0  -0.1046
  C  C2789  1  0.352870  0.033230  0.950590  1.0  0.1011
  C  C2790  1  0.384970  0.999330  0.964710  1.0  -0.0442
  C  C2791  1  0.298770  0.985530  0.934700  1.0  -0.0749
  C  C2792  1  0.353770  0.915630  0.958970  1.0  -0.0412
  C  C2793  1  0.111170  0.897830  0.763380  1.0  -0.0575
  C  C2794  1  0.258070  0.874030  0.743830  1.0  -0.1472
  C  C2795  1  0.305870  0.996230  0.769160  1.0  -0.1304
  C  C2796  1  0.280670  0.825030  0.747330  1.0  -0.0125
  C  C2797  1  0.357070  0.001930  0.786930  1.0  -0.0826
  C  C2798  1  0.537870  0.149030  0.958900  1.0  0.0574
  C  C2799  1  0.329770  0.055030  0.951930  1.0  -0.1642
  C  C2800  1  0.385370  0.988830  0.977110  1.0  -0.1036
  C  C2801  1  0.275270  0.008630  0.935230  1.0  -0.1188
  C  C2802  1  0.354970  0.907730  0.971970  1.0  -0.0829
  C  C2803  1  0.101370  0.922330  0.753020  1.0  0.1243
  C  C2804  1  0.270470  0.842930  0.740330  1.0  -0.1598
  C  C2805  1  0.346470  0.027030  0.776330  1.0  -0.1353
  C  C2806  1  0.545070  0.175130  0.970630  1.0  0.1284
  C  C2807  1  0.290370  0.041430  0.944530  1.0  -0.1164
  C  C2808  1  0.374170  0.946530  0.980840  1.0  -0.0881
  C  C2809  1  0.134170  0.943630  0.743750  1.0  -0.1097
  C  C2810  1  0.060970  0.925530  0.751860  1.0  -0.2358
  C  C2811  1  0.590970  0.210330  0.974530  1.0  -0.199
  C  C2812  1  0.512870  0.164730  0.979130  1.0  -0.1216
  C  C2813  1  0.128770  0.966830  0.733420  1.0  -0.1401
  C  C2814  1  0.056470  0.947930  0.741710  1.0  -0.0985
  C  C2815  1  0.593670  0.229330  0.986610  1.0  -0.0859
  C  C2816  1  0.517770  0.191730  0.991120  1.0  -0.1011
  C  C2817  1  0.087970  0.969930  0.732920  1.0  -0.0222
  C  C2818  1  0.562170  0.223030  0.994500  1.0  0.2338
  C  C2819  1  0.082870  0.996830  0.722530  1.0  0.6819
  C  C2820  1  0.569670  0.251730  0.005230  1.0  0.6514
  C  C2821  1  0.952330  0.107970  0.183960  1.0  0.585
  C  C2822  1  0.034130  0.153170  0.212340  1.0  0.5972
  C  C2823  1  0.924730  0.117470  0.173740  1.0  -0.116
  C  C2824  1  0.056730  0.194770  0.221290  1.0  -0.0763
  C  C2825  1  0.946430  0.141570  0.162230  1.0  -0.1691
  C  C2826  1  0.880030  0.104870  0.174890  1.0  -0.0885
  C  C2827  1  0.033930  0.200270  0.232360  1.0  -0.0788
  C  C2828  1  0.097830  0.232370  0.217940  1.0  -0.0771
  C  C2829  1  0.922730  0.150270  0.153840  1.0  -0.1093
  C  C2830  1  0.854730  0.113670  0.166070  1.0  -0.2074
  C  C2831  1  0.054630  0.239770  0.239840  1.0  -0.1556
  C  C2832  1  0.119530  0.271670  0.226300  1.0  -0.16
  C  C2833  1  0.875630  0.135770  0.154840  1.0  0.0696
  C  C2834  1  0.097730  0.274570  0.236890  1.0  0.0341
  C  C2835  1  0.848130  0.141770  0.144850  1.0  0.0245
  C  C2836  1  0.124330  0.316470  0.245030  1.0  0.0082
  C  C2837  1  0.860730  0.184370  0.125880  1.0  0.1266
  C  C2838  1  0.111130  0.352170  0.262150  1.0  0.2975
  C  C2839  1  0.814330  0.172170  0.125600  1.0  -0.2074
  C  C2840  1  0.889630  0.204770  0.114890  1.0  0.0275
  C  C2841  1  0.156130  0.386270  0.262250  1.0  -0.1691
  C  C2842  1  0.082130  0.346670  0.273020  1.0  0.004
  C  C2843  1  0.800230  0.193870  0.116830  1.0  -0.1993
  C  C2844  1  0.874630  0.224870  0.106580  1.0  -0.0415
  C  C2845  1  0.936430  0.213570  0.112470  1.0  -0.0849
  C  C2846  1  0.170330  0.422070  0.271670  1.0  -0.1058
  C  C2847  1  0.094830  0.380770  0.281880  1.0  0.0584
  C  C2848  1  0.033530  0.310270  0.274820  1.0  -0.0895
  C  C2849  1  0.830430  0.218170  0.106360  1.0  0.2292
  C  C2850  1  0.912730  0.254670  0.096930  1.0  -0.1082
  C  C2851  1  0.938130  0.200470  0.100170  1.0  0.2029
  C  C2852  1  0.964430  0.264270  0.113170  1.0  0.0171
  C  C2853  1  0.137630  0.416470  0.282070  1.0  0.1072
  C  C2854  1  0.061930  0.377870  0.291040  1.0  -0.1177
  C  C2855  1  0.005130  0.330570  0.275220  1.0  0.0658
  C  C2856  1  0.035030  0.293470  0.288580  1.0  -0.0476
  C  C2857  1  0.924730  0.219870  0.091170  1.0  -0.0025
  C  C2858  1  0.953230  0.286770  0.104270  1.0  0.2621
  C  C2859  1  0.952430  0.170370  0.096070  1.0  -0.0717
  C  C2860  1  0.002430  0.289970  0.121170  1.0  -0.1046
  C  C2861  1  0.019530  0.366570  0.283930  1.0  0.1012
  C  C2862  1  0.051630  0.332670  0.298050  1.0  -0.0442
  C  C2863  1  0.965430  0.318870  0.268040  1.0  -0.0751
  C  C2864  1  0.020430  0.248970  0.292310  1.0  -0.0417
  C  C2865  1  0.777830  0.231170  0.096720  1.0  -0.0575
  C  C2866  1  0.924730  0.207370  0.077170  1.0  -0.1471
  C  C2867  1  0.972530  0.329570  0.102500  1.0  -0.1304
  C  C2868  1  0.947330  0.158370  0.080670  1.0  -0.0125
  C  C2869  1  0.023730  0.335270  0.120270  1.0  -0.0826
  C  C2870  1  0.204530  0.482370  0.292240  1.0  0.0576
  C  C2871  1  0.996430  0.388370  0.285270  1.0  -0.1642
  C  C2872  1  0.052030  0.322170  0.310450  1.0  -0.0925
  C  C2873  1  0.941930  0.341970  0.268570  1.0  -0.119
  C  C2874  1  0.021630  0.241070  0.305310  1.0  -0.0813
  C  C2875  1  0.768030  0.255670  0.086360  1.0  0.1243
  C  C2876  1  0.937130  0.176270  0.073670  1.0  -0.1595
  C  C2877  1  0.013130  0.360370  0.109670  1.0  -0.1355
  C  C2878  1  0.211730  0.508470  0.303970  1.0  0.1284
  C  C2879  1  0.957030  0.374770  0.277870  1.0  -0.1166
  C  C2880  1  0.040830  0.279870  0.314180  1.0  -0.0829
  C  C2881  1  0.800830  0.276970  0.077090  1.0  -0.1098
  C  C2882  1  0.727630  0.258870  0.085200  1.0  -0.2356
  C  C2883  1  0.257630  0.543670  0.307870  1.0  -0.199
  C  C2884  1  0.179530  0.498070  0.312470  1.0  -0.1216
  C  C2885  1  0.795430  0.300170  0.066760  1.0  -0.1416
  C  C2886  1  0.723130  0.281270  0.075050  1.0  -0.0985
  C  C2887  1  0.260330  0.562670  0.319950  1.0  -0.0859
  C  C2888  1  0.184430  0.525070  0.324460  1.0  -0.1014
  C  C2889  1  0.754630  0.303270  0.066260  1.0  -0.0222
  C  C2890  1  0.228830  0.556370  0.327840  1.0  0.235
  C  C2891  1  0.749530  0.330170  0.055870  1.0  0.6804
  C  C2892  1  0.236330  0.585070  0.338570  1.0  0.651
  C  C2893  1  0.822300  0.381000  0.517290  1.0  0.5889
  C  C2894  1  0.785700  0.299200  0.545670  1.0  0.5977
  C  C2895  1  0.859400  0.408600  0.507070  1.0  -0.1155
  C  C2896  1  0.804700  0.276600  0.554620  1.0  -0.0765
  C  C2897  1  0.861800  0.386900  0.495560  1.0  -0.1652
  C  C2898  1  0.891500  0.453300  0.508220  1.0  -0.0894
  C  C2899  1  0.833000  0.299400  0.565690  1.0  -0.08
  C  C2900  1  0.801200  0.235500  0.551270  1.0  -0.08
  C  C2901  1  0.894200  0.410600  0.487170  1.0  -0.1082
  C  C2902  1  0.925600  0.478600  0.499400  1.0  -0.2122
  C  C2903  1  0.851800  0.278700  0.573170  1.0  -0.158
  C  C2904  1  0.818800  0.213800  0.559630  1.0  -0.1614
  C  C2905  1  0.926800  0.457700  0.488170  1.0  0.0707
  C  C2906  1  0.843500  0.235600  0.570220  1.0  0.0331
  C  C2907  1  0.960300  0.485200  0.478180  1.0  0.0264
  C  C2908  1  0.858800  0.209000  0.578360  1.0  0.007
  C  C2909  1  0.990300  0.472600  0.459210  1.0  0.1287
  C  C2910  1  0.907700  0.222200  0.595480  1.0  0.2984
  C  C2911  1  0.024500  0.519000  0.458930  1.0  -0.2027
  C  C2912  1  0.981800  0.443700  0.448220  1.0  0.0275
  C  C2913  1  0.896800  0.177200  0.595580  1.0  -0.1676
  C  C2914  1  0.931200  0.251200  0.606350  1.0  0.0032
  C  C2915  1  0.060300  0.533100  0.450160  1.0  -0.1962
  C  C2916  1  0.016900  0.458700  0.439910  1.0  -0.0416
  C  C2917  1  0.943800  0.396900  0.445800  1.0  -0.0885
  C  C2918  1  0.918400  0.163000  0.605000  1.0  -0.1061
  C  C2919  1  0.952600  0.238500  0.615210  1.0  0.0597
  C  C2920  1  0.943400  0.299800  0.608150  1.0  -0.0869
  C  C2921  1  0.054400  0.502900  0.439690  1.0  0.2315
  C  C2922  1  0.008600  0.420600  0.430260  1.0  -0.1051
  C  C2923  1  0.929000  0.395200  0.433500  1.0  0.2072
  C  C2924  1  0.966500  0.368900  0.446500  1.0  0.0165
  C  C2925  1  0.945500  0.195700  0.615400  1.0  0.11
  C  C2926  1  0.982600  0.271400  0.624370  1.0  -0.1177
  C  C2927  1  0.992100  0.328200  0.608550  1.0  0.0662
  C  C2928  1  0.925100  0.298300  0.621910  1.0  -0.0478
  C  C2929  1  0.961800  0.408600  0.424500  1.0  -0.0037
  C  C2930  1  0.000200  0.380100  0.437600  1.0  0.2625
  C  C2931  1  0.884600  0.380900  0.429400  1.0  -0.0712
  C  C2932  1  0.954200  0.330900  0.454500  1.0  -0.109
  C  C2933  1  0.013700  0.313800  0.617260  1.0  0.1031
  C  C2934  1  0.947700  0.281700  0.631380  1.0  -0.0436
  C  C2935  1  0.020100  0.367900  0.601370  1.0  -0.0744
  C  C2936  1  0.895200  0.312900  0.625640  1.0  -0.0395
  C  C2937  1  0.120000  0.555500  0.430050  1.0  -0.0583
  C  C2938  1  0.949300  0.408600  0.410500  1.0  -0.1472
  C  C2939  1  0.023700  0.360800  0.435830  1.0  -0.1327
  C  C2940  1  0.877700  0.386000  0.414000  1.0  -0.0112
  C  C2941  1  0.978200  0.309600  0.453600  1.0  -0.0861
  C  C2942  1  0.944500  0.128800  0.625570  1.0  0.0606
  C  C2943  1  0.058600  0.336900  0.618600  1.0  -0.1609
  C  C2944  1  0.936800  0.281300  0.643780  1.0  -0.1051
  C  C2945  1  0.066700  0.391400  0.601900  1.0  -0.1201
  C  C2946  1  0.886100  0.311700  0.638640  1.0  -0.0848
  C  C2947  1  0.154300  0.565300  0.419690  1.0  0.1247
  C  C2948  1  0.905800  0.396200  0.407000  1.0  -0.1559
  C  C2949  1  0.013900  0.320200  0.443000  1.0  -0.1389
  C  C2950  1  0.963400  0.121600  0.637300  1.0  0.1301
  C  C2951  1  0.084400  0.376300  0.611200  1.0  -0.1199
  C  C2952  1  0.905700  0.292500  0.647510  1.0  -0.0909
  C  C2953  1  0.142800  0.532500  0.410420  1.0  -0.1114
  C  C2954  1  0.197900  0.605700  0.418530  1.0  -0.2353
  C  C2955  1  0.952700  0.075700  0.641200  1.0  -0.1961
  C  C2956  1  0.985200  0.153800  0.645800  1.0  -0.1225
  C  C2957  1  0.171400  0.537900  0.400090  1.0  -0.1401
  C  C2958  1  0.224800  0.610200  0.408380  1.0  -0.0961
  C  C2959  1  0.969000  0.073000  0.653280  1.0  -0.0871
  C  C2960  1  0.007300  0.148900  0.657790  1.0  -0.0994
  C  C2961  1  0.215300  0.578700  0.399590  1.0  -0.024
  C  C2962  1  0.994200  0.104500  0.661170  1.0  0.2324
  C  C2963  1  0.247300  0.583800  0.389200  1.0  0.6829
  C  C2964  1  0.015400  0.097000  0.671900  1.0  0.6512
  C  C2965  1  0.488970  0.714330  0.850620  1.0  0.5888
  C  C2966  1  0.452370  0.632530  0.879000  1.0  0.5977
  C  C2967  1  0.526070  0.741930  0.840400  1.0  -0.1155
  C  C2968  1  0.471370  0.609930  0.887950  1.0  -0.0765
  C  C2969  1  0.528470  0.720230  0.828890  1.0  -0.1653
  C  C2970  1  0.558170  0.786630  0.841550  1.0  -0.0894
  C  C2971  1  0.499670  0.632730  0.899020  1.0  -0.08
  C  C2972  1  0.467870  0.568830  0.884600  1.0  -0.08
  C  C2973  1  0.560870  0.743930  0.820500  1.0  -0.1084
  C  C2974  1  0.592270  0.811930  0.832730  1.0  -0.2123
  C  C2975  1  0.518470  0.612030  0.906500  1.0  -0.158
  C  C2976  1  0.485470  0.547130  0.892960  1.0  -0.1614
  C  C2977  1  0.593470  0.791030  0.821500  1.0  0.0707
  C  C2978  1  0.510170  0.568930  0.903550  1.0  0.0331
  C  C2979  1  0.626970  0.818530  0.811510  1.0  0.0264
  C  C2980  1  0.525470  0.542330  0.911690  1.0  0.007
  C  C2981  1  0.656970  0.805930  0.792540  1.0  0.1287
  C  C2982  1  0.574370  0.555530  0.928810  1.0  0.2984
  C  C2983  1  0.691170  0.852330  0.792260  1.0  -0.2029
  C  C2984  1  0.648470  0.777030  0.781550  1.0  0.0274
  C  C2985  1  0.563470  0.510530  0.928910  1.0  -0.1676
  C  C2986  1  0.597870  0.584530  0.939680  1.0  0.0032
  C  C2987  1  0.726970  0.866430  0.783490  1.0  -0.1962
  C  C2988  1  0.683570  0.792030  0.773240  1.0  -0.0416
  C  C2989  1  0.610470  0.730230  0.779130  1.0  -0.0885
  C  C2990  1  0.585070  0.496330  0.938330  1.0  -0.1061
  C  C2991  1  0.619270  0.571830  0.948540  1.0  0.0597
  C  C2992  1  0.610070  0.633130  0.941480  1.0  -0.0869
  C  C2993  1  0.721070  0.836230  0.773020  1.0  0.2315
  C  C2994  1  0.675270  0.753930  0.763590  1.0  -0.1051
  C  C2995  1  0.595670  0.728530  0.766830  1.0  0.2072
  C  C2996  1  0.633170  0.702230  0.779830  1.0  0.0164
  C  C2997  1  0.612170  0.529030  0.948730  1.0  0.11
  C  C2998  1  0.649270  0.604730  0.957700  1.0  -0.1177
  C  C2999  1  0.658770  0.661530  0.941880  1.0  0.0662
  C  C3000  1  0.591770  0.631630  0.955240  1.0  -0.0478
  C  C3001  1  0.628470  0.741930  0.757830  1.0  -0.0037
  C  C3002  1  0.666870  0.713430  0.770930  1.0  0.2634
  C  C3003  1  0.551270  0.714230  0.762730  1.0  -0.0712
  C  C3004  1  0.620870  0.664230  0.787830  1.0  -0.109
  C  C3005  1  0.680370  0.647130  0.950590  1.0  0.1031
  C  C3006  1  0.614370  0.615030  0.964710  1.0  -0.0436
  C  C3007  1  0.686770  0.701230  0.934700  1.0  -0.0744
  C  C3008  1  0.561870  0.646230  0.958970  1.0  -0.0395
  C  C3009  1  0.786670  0.888830  0.763380  1.0  -0.0583
  C  C3010  1  0.615970  0.741930  0.743830  1.0  -0.1472
  C  C3011  1  0.690370  0.694130  0.769160  1.0  -0.1324
  C  C3012  1  0.544370  0.719330  0.747330  1.0  -0.0112
  C  C3013  1  0.644870  0.642930  0.786930  1.0  -0.0863
  C  C3014  1  0.611170  0.462130  0.958900  1.0  0.0606
  C  C3015  1  0.725270  0.670230  0.951930  1.0  -0.1609
  C  C3016  1  0.603470  0.614630  0.977110  1.0  -0.1051
  C  C3017  1  0.733370  0.724730  0.935230  1.0  -0.1201
  C  C3018  1  0.552770  0.645030  0.971970  1.0  -0.0848
  C  C3019  1  0.820970  0.898630  0.753020  1.0  0.125
  C  C3020  1  0.572470  0.729530  0.740330  1.0  -0.1558
  C  C3021  1  0.680570  0.653530  0.776330  1.0  -0.1388
  C  C3022  1  0.630070  0.454930  0.970630  1.0  0.1301
  C  C3023  1  0.751070  0.709630  0.944530  1.0  -0.1199
  C  C3024  1  0.572370  0.625830  0.980840  1.0  -0.0909
  C  C3025  1  0.809470  0.865830  0.743750  1.0  -0.1113
  C  C3026  1  0.864570  0.939030  0.751860  1.0  -0.2354
  C  C3027  1  0.619370  0.409030  0.974530  1.0  -0.1961
  C  C3028  1  0.651870  0.487130  0.979130  1.0  -0.1225
  C  C3029  1  0.838070  0.871230  0.733420  1.0  -0.1387
  C  C3030  1  0.891470  0.943530  0.741710  1.0  -0.096
  C  C3031  1  0.635670  0.406330  0.986610  1.0  -0.0871
  C  C3032  1  0.673970  0.482230  0.991120  1.0  -0.0994
  C  C3033  1  0.881970  0.912030  0.732920  1.0  -0.0239
  C  C3034  1  0.660870  0.437830  0.994500  1.0  0.2324
  C  C3035  1  0.913970  0.917130  0.722530  1.0  0.6811
  C  C3036  1  0.682070  0.430330  0.005230  1.0  0.6512
  C  C3037  1  0.155630  0.047670  0.183960  1.0  0.5892
  C  C3038  1  0.119030  0.965870  0.212340  1.0  0.5977
  C  C3039  1  0.192730  0.075270  0.173740  1.0  -0.1153
  C  C3040  1  0.138030  0.943270  0.221290  1.0  -0.0765
  C  C3041  1  0.195130  0.053570  0.162230  1.0  -0.1653
  C  C3042  1  0.224830  0.119970  0.174890  1.0  -0.0895
  C  C3043  1  0.166330  0.966070  0.232360  1.0  -0.0801
  C  C3044  1  0.134530  0.902170  0.217940  1.0  -0.0794
  C  C3045  1  0.227530  0.077270  0.153840  1.0  -0.1081
  C  C3046  1  0.258930  0.145270  0.166070  1.0  -0.2122
  C  C3047  1  0.185130  0.945370  0.239840  1.0  -0.158
  C  C3048  1  0.152130  0.880470  0.226300  1.0  -0.1612
  C  C3049  1  0.260130  0.124370  0.154840  1.0  0.0707
  C  C3050  1  0.176830  0.902270  0.236890  1.0  0.0331
  C  C3051  1  0.293630  0.151870  0.144850  1.0  0.0264
  C  C3052  1  0.192130  0.875670  0.245030  1.0  0.007
  C  C3053  1  0.323630  0.139270  0.125880  1.0  0.1287
  C  C3054  1  0.241030  0.888870  0.262150  1.0  0.2987
  C  C3055  1  0.357830  0.185670  0.125600  1.0  -0.2027
  C  C3056  1  0.315130  0.110370  0.114890  1.0  0.0275
  C  C3057  1  0.230130  0.843870  0.262250  1.0  -0.1676
  C  C3058  1  0.264530  0.917870  0.273020  1.0  0.0032
  C  C3059  1  0.393630  0.199770  0.116830  1.0  -0.1962
  C  C3060  1  0.350230  0.125370  0.106580  1.0  -0.0416
  C  C3061  1  0.277130  0.063570  0.112470  1.0  -0.0885
  C  C3062  1  0.251730  0.829670  0.271670  1.0  -0.1065
  C  C3063  1  0.285930  0.905170  0.281880  1.0  0.0598
  C  C3064  1  0.276730  0.966470  0.274820  1.0  -0.0869
  C  C3065  1  0.387730  0.169570  0.106360  1.0  0.2315
  C  C3066  1  0.341930  0.087270  0.096930  1.0  -0.1051
  C  C3067  1  0.262330  0.061870  0.100170  1.0  0.2072
  C  C3068  1  0.299830  0.035570  0.113170  1.0  0.0165
  C  C3069  1  0.278830  0.862370  0.282070  1.0  0.1098
  C  C3070  1  0.315930  0.938070  0.291040  1.0  -0.1177
  C  C3071  1  0.325430  0.994870  0.275220  1.0  0.0662
  C  C3072  1  0.258430  0.964970  0.288580  1.0  -0.0478
  C  C3073  1  0.295130  0.075270  0.091170  1.0  -0.0037
  C  C3074  1  0.333530  0.046770  0.104270  1.0  0.2625
  C  C3075  1  0.217930  0.047570  0.096070  1.0  -0.0712
  C  C3076  1  0.287530  0.997570  0.121170  1.0  -0.109
  C  C3077  1  0.347030  0.980470  0.283930  1.0  0.1031
  C  C3078  1  0.281030  0.948370  0.298050  1.0  -0.0436
  C  C3079  1  0.353430  0.034570  0.268040  1.0  -0.0728
  C  C3080  1  0.228530  0.979570  0.292310  1.0  -0.0395
  C  C3081  1  0.453330  0.222170  0.096720  1.0  -0.0583
  C  C3082  1  0.282630  0.075270  0.077170  1.0  -0.1472
  C  C3083  1  0.357030  0.027470  0.102500  1.0  -0.1327
  C  C3084  1  0.211030  0.052670  0.080670  1.0  -0.0112
  C  C3085  1  0.311530  0.976270  0.120270  1.0  -0.0861
  C  C3086  1  0.277830  0.795470  0.292240  1.0  0.0606
  C  C3087  1  0.391930  0.003570  0.285270  1.0  -0.1609
  C  C3088  1  0.270130  0.947970  0.310450  1.0  -0.093
  C  C3089  1  0.400030  0.058070  0.268570  1.0  -0.1203
  C  C3090  1  0.219430  0.978370  0.305310  1.0  -0.0828
  C  C3091  1  0.487630  0.231970  0.086360  1.0  0.1247
  C  C3092  1  0.239130  0.062870  0.073670  1.0  -0.1559
  C  C3093  1  0.347230  0.986870  0.109670  1.0  -0.1389
  C  C3094  1  0.296730  0.788270  0.303970  1.0  0.1302
  C  C3095  1  0.417730  0.042970  0.277870  1.0  -0.1194
  C  C3096  1  0.239030  0.959170  0.314180  1.0  -0.0857
  C  C3097  1  0.476130  0.199170  0.077090  1.0  -0.1114
  C  C3098  1  0.531230  0.272370  0.085200  1.0  -0.2353
  C  C3099  1  0.286030  0.742370  0.307870  1.0  -0.1963
  C  C3100  1  0.318530  0.820470  0.312470  1.0  -0.1224
  C  C3101  1  0.504730  0.204570  0.066760  1.0  -0.1401
  C  C3102  1  0.558130  0.276870  0.075050  1.0  -0.0961
  C  C3103  1  0.302330  0.739670  0.319950  1.0  -0.087
  C  C3104  1  0.340630  0.815570  0.324460  1.0  -0.0998
  C  C3105  1  0.548630  0.245370  0.066260  1.0  -0.024
  C  C3106  1  0.327530  0.771170  0.327840  1.0  0.2312
  C  C3107  1  0.580630  0.250470  0.055870  1.0  0.6829
  C  C3108  1  0.348730  0.763670  0.338570  1.0  0.651
  C  C3109  1  0.441300  0.822300  0.482710  1.0  0.5889
  C  C3110  1  0.486500  0.785700  0.454330  1.0  0.5972
  C  C3111  1  0.450800  0.859400  0.492930  1.0  -0.1165
  C  C3112  1  0.528100  0.804700  0.445380  1.0  -0.0704
  C  C3113  1  0.474900  0.861800  0.504440  1.0  -0.1652
  C  C3114  1  0.438200  0.891500  0.491780  1.0  -0.0853
  C  C3115  1  0.533600  0.833000  0.434310  1.0  -0.0788
  C  C3116  1  0.565700  0.801200  0.448730  1.0  -0.0701
  C  C3117  1  0.483600  0.894200  0.512830  1.0  -0.1047
  C  C3118  1  0.447000  0.925600  0.500600  1.0  -0.2077
  C  C3119  1  0.573100  0.851800  0.426830  1.0  -0.1576
  C  C3120  1  0.605000  0.818800  0.440370  1.0  -0.1562
  C  C3121  1  0.469100  0.926800  0.511830  1.0  0.0704
  C  C3122  1  0.607900  0.843500  0.429780  1.0  0.034
  C  C3123  1  0.475100  0.960300  0.521820  1.0  0.0256
  C  C3124  1  0.649800  0.858800  0.421640  1.0  0.0053
  C  C3125  1  0.517700  0.990300  0.540790  1.0  0.1283
  C  C3126  1  0.685500  0.907700  0.404520  1.0  0.299
  C  C3127  1  0.505500  0.024500  0.541070  1.0  -0.2051
  C  C3128  1  0.538100  0.981800  0.551780  1.0  0.0257
  C  C3129  1  0.719600  0.896800  0.404420  1.0  -0.1712
  C  C3130  1  0.680000  0.931200  0.393650  1.0  0.0038
  C  C3131  1  0.527200  0.060300  0.549840  1.0  -0.1972
  C  C3132  1  0.558200  0.016900  0.560090  1.0  -0.0408
  C  C3133  1  0.546900  0.943800  0.554200  1.0  -0.0844
  C  C3134  1  0.755400  0.918400  0.395000  1.0  -0.1018
  C  C3135  1  0.714100  0.952600  0.384790  1.0  0.0583
  C  C3136  1  0.643600  0.943400  0.391850  1.0  -0.0865
  C  C3137  1  0.551500  0.054400  0.560310  1.0  0.2308
  C  C3138  1  0.588000  0.008600  0.569740  1.0  -0.1061
  C  C3139  1  0.533800  0.929000  0.566500  1.0  0.2057
  C  C3140  1  0.597600  0.966500  0.553500  1.0  0.0159
  C  C3141  1  0.749800  0.945500  0.384600  1.0  0.1089
  C  C3142  1  0.711200  0.982600  0.375630  1.0  -0.1196
  C  C3143  1  0.663900  0.992100  0.391450  1.0  0.0632
  C  C3144  1  0.626800  0.925100  0.378090  1.0  -0.0476
  C  C3145  1  0.553200  0.961800  0.575500  1.0  -0.0026
  C  C3146  1  0.620100  0.000200  0.562400  1.0  0.2663
  C  C3147  1  0.503700  0.884600  0.570600  1.0  -0.07
  C  C3148  1  0.623300  0.954200  0.545500  1.0  -0.1065
  C  C3149  1  0.699900  0.013700  0.382740  1.0  0.1063
  C  C3150  1  0.666000  0.947700  0.368620  1.0  -0.0451
  C  C3151  1  0.652200  0.020100  0.398630  1.0  -0.0762
  C  C3152  1  0.582300  0.895200  0.374360  1.0  -0.0433
  C  C3153  1  0.564500  0.120000  0.569950  1.0  -0.062
  C  C3154  1  0.540700  0.949300  0.589500  1.0  -0.1471
  C  C3155  1  0.662900  0.023700  0.564170  1.0  -0.1288
  C  C3156  1  0.491700  0.877700  0.586000  1.0  -0.005
  C  C3157  1  0.668600  0.978200  0.546400  1.0  -0.0848
  C  C3158  1  0.815700  0.944500  0.374430  1.0  0.0608
  C  C3159  1  0.721700  0.058600  0.381400  1.0  -0.1611
  C  C3160  1  0.655500  0.936800  0.356220  1.0  -0.103
  C  C3161  1  0.675300  0.066700  0.398100  1.0  -0.1162
  C  C3162  1  0.574400  0.886100  0.361360  1.0  -0.0807
  C  C3163  1  0.589000  0.154300  0.580310  1.0  0.1244
  C  C3164  1  0.509600  0.905800  0.593000  1.0  -0.1603
  C  C3165  1  0.693700  0.013900  0.557000  1.0  -0.1319
  C  C3166  1  0.841800  0.963400  0.362700  1.0  0.1281
  C  C3167  1  0.708100  0.084400  0.388800  1.0  -0.114
  C  C3168  1  0.613200  0.905700  0.352490  1.0  -0.0881
  C  C3169  1  0.610300  0.142800  0.589580  1.0  -0.1104
  C  C3170  1  0.592200  0.197900  0.581470  1.0  -0.2344
  C  C3171  1  0.877000  0.952700  0.358800  1.0  -0.1964
  C  C3172  1  0.831400  0.985200  0.354200  1.0  -0.1217
  C  C3173  1  0.633500  0.171400  0.599910  1.0  -0.1439
  C  C3174  1  0.614600  0.224800  0.591620  1.0  -0.0978
  C  C3175  1  0.896000  0.969000  0.346720  1.0  -0.0864
  C  C3176  1  0.858400  0.007300  0.342210  1.0  -0.1031
  C  C3177  1  0.636600  0.215300  0.600410  1.0  -0.0246
  C  C3178  1  0.889700  0.994200  0.338830  1.0  0.238
  C  C3179  1  0.663500  0.247300  0.610800  1.0  0.6822
  C  C3180  1  0.918400  0.015400  0.328100  1.0  0.6488
  C  C3181  1  0.107970  0.155630  0.816040  1.0  0.589
  C  C3182  1  0.153170  0.119030  0.787660  1.0  0.5972
  C  C3183  1  0.117470  0.192730  0.826260  1.0  -0.1165
  C  C3184  1  0.194770  0.138030  0.778710  1.0  -0.0705
  C  C3185  1  0.141570  0.195130  0.837770  1.0  -0.1653
  C  C3186  1  0.104870  0.224830  0.825110  1.0  -0.0854
  C  C3187  1  0.200270  0.166330  0.767640  1.0  -0.0787
  C  C3188  1  0.232370  0.134530  0.782060  1.0  -0.07
  C  C3189  1  0.150270  0.227530  0.846160  1.0  -0.1046
  C  C3190  1  0.113670  0.258930  0.833930  1.0  -0.2077
  C  C3191  1  0.239770  0.185130  0.760160  1.0  -0.1576
  C  C3192  1  0.271670  0.152130  0.773700  1.0  -0.1562
  C  C3193  1  0.135770  0.260130  0.845160  1.0  0.0704
  C  C3194  1  0.274570  0.176830  0.763110  1.0  0.0339
  C  C3195  1  0.141770  0.293630  0.855150  1.0  0.0256
  C  C3196  1  0.316470  0.192130  0.754970  1.0  0.0053
  C  C3197  1  0.184370  0.323630  0.874120  1.0  0.1283
  C  C3198  1  0.352170  0.241030  0.737850  1.0  0.2993
  C  C3199  1  0.172170  0.357830  0.874400  1.0  -0.2051
  C  C3200  1  0.204770  0.315130  0.885110  1.0  0.0257
  C  C3201  1  0.386270  0.230130  0.737750  1.0  -0.1712
  C  C3202  1  0.346670  0.264530  0.726980  1.0  0.0038
  C  C3203  1  0.193870  0.393630  0.883170  1.0  -0.1972
  C  C3204  1  0.224870  0.350230  0.893420  1.0  -0.0408
  C  C3205  1  0.213570  0.277130  0.887530  1.0  -0.0844
  C  C3206  1  0.422070  0.251730  0.728330  1.0  -0.1021
  C  C3207  1  0.380770  0.285930  0.718120  1.0  0.0584
  C  C3208  1  0.310270  0.276730  0.725180  1.0  -0.0864
  C  C3209  1  0.218170  0.387730  0.893640  1.0  0.2308
  C  C3210  1  0.254670  0.341930  0.903070  1.0  -0.1061
  C  C3211  1  0.200470  0.262330  0.899830  1.0  0.2057
  C  C3212  1  0.264270  0.299830  0.886830  1.0  0.0159
  C  C3213  1  0.416470  0.278830  0.717930  1.0  0.1089
  C  C3214  1  0.377870  0.315930  0.708960  1.0  -0.1197
  C  C3215  1  0.330570  0.325430  0.724780  1.0  0.0632
  C  C3216  1  0.293470  0.258430  0.711420  1.0  -0.0476
  C  C3217  1  0.219870  0.295130  0.908830  1.0  -0.0026
  C  C3218  1  0.286770  0.333530  0.895730  1.0  0.2663
  C  C3219  1  0.170370  0.217930  0.903930  1.0  -0.07
  C  C3220  1  0.289970  0.287530  0.878830  1.0  -0.1065
  C  C3221  1  0.366570  0.347030  0.716070  1.0  0.1064
  C  C3222  1  0.332670  0.281030  0.701950  1.0  -0.0451
  C  C3223  1  0.318870  0.353430  0.731960  1.0  -0.0777
  C  C3224  1  0.248970  0.228530  0.707690  1.0  -0.0439
  C  C3225  1  0.231170  0.453330  0.903280  1.0  -0.062
  C  C3226  1  0.207370  0.282630  0.922830  1.0  -0.1471
  C  C3227  1  0.329570  0.357030  0.897500  1.0  -0.1288
  C  C3228  1  0.158370  0.211030  0.919330  1.0  -0.005
  C  C3229  1  0.335270  0.311530  0.879730  1.0  -0.0848
  C  C3230  1  0.482370  0.277830  0.707760  1.0  0.0608
  C  C3231  1  0.388370  0.391930  0.714730  1.0  -0.1612
  C  C3232  1  0.322170  0.270130  0.689550  1.0  -0.0939
  C  C3233  1  0.341970  0.400030  0.731430  1.0  -0.1164
  C  C3234  1  0.241070  0.219430  0.694690  1.0  -0.0792
  C  C3235  1  0.255670  0.487630  0.913640  1.0  0.1244
  C  C3236  1  0.176270  0.239130  0.926330  1.0  -0.1603
  C  C3237  1  0.360370  0.347230  0.890330  1.0  -0.1319
  C  C3238  1  0.508470  0.296730  0.696030  1.0  0.1281
  C  C3239  1  0.374770  0.417730  0.722130  1.0  -0.114
  C  C3240  1  0.279870  0.239030  0.685820  1.0  -0.0836
  C  C3241  1  0.276970  0.476130  0.922910  1.0  -0.1104
  C  C3242  1  0.258870  0.531230  0.914800  1.0  -0.2344
  C  C3243  1  0.543670  0.286030  0.692130  1.0  -0.1965
  C  C3244  1  0.498070  0.318530  0.687530  1.0  -0.1215
  C  C3245  1  0.300170  0.504730  0.933240  1.0  -0.1439
  C  C3246  1  0.281270  0.558130  0.924950  1.0  -0.0978
  C  C3247  1  0.562670  0.302330  0.680050  1.0  -0.086
  C  C3248  1  0.525070  0.340630  0.675540  1.0  -0.1029
  C  C3249  1  0.303270  0.548630  0.933740  1.0  -0.0246
  C  C3250  1  0.556370  0.327530  0.672160  1.0  0.2385
  C  C3251  1  0.330170  0.580630  0.944130  1.0  0.6822
  C  C3252  1  0.585070  0.348730  0.661430  1.0  0.6487
  C  C3253  1  0.774630  0.488970  0.149380  1.0  0.5894
  C  C3254  1  0.819830  0.452370  0.121000  1.0  0.5972
  C  C3255  1  0.784130  0.526070  0.159600  1.0  -0.1165
  C  C3256  1  0.861430  0.471370  0.112050  1.0  -0.0704
  C  C3257  1  0.808230  0.528470  0.171110  1.0  -0.1654
  C  C3258  1  0.771530  0.558170  0.158450  1.0  -0.0851
  C  C3259  1  0.866930  0.499670  0.100980  1.0  -0.0788
  C  C3260  1  0.899030  0.467870  0.115400  1.0  -0.0701
  C  C3261  1  0.816930  0.560870  0.179500  1.0  -0.1048
  C  C3262  1  0.780330  0.592270  0.167270  1.0  -0.2077
  C  C3263  1  0.906430  0.518470  0.093500  1.0  -0.1576
  C  C3264  1  0.938330  0.485470  0.107040  1.0  -0.1562
  C  C3265  1  0.802430  0.593470  0.178500  1.0  0.0704
  C  C3266  1  0.941230  0.510170  0.096450  1.0  0.034
  C  C3267  1  0.808430  0.626970  0.188490  1.0  0.0256
  C  C3268  1  0.983130  0.525470  0.088310  1.0  0.0053
  C  C3269  1  0.851030  0.656970  0.207460  1.0  0.1284
  C  C3270  1  0.018830  0.574370  0.071190  1.0  0.299
  C  C3271  1  0.838830  0.691170  0.207740  1.0  -0.2052
  C  C3272  1  0.871430  0.648470  0.218450  1.0  0.0257
  C  C3273  1  0.052930  0.563470  0.071090  1.0  -0.1712
  C  C3274  1  0.013330  0.597870  0.060320  1.0  0.0038
  C  C3275  1  0.860530  0.726970  0.216510  1.0  -0.1972
  C  C3276  1  0.891530  0.683570  0.226760  1.0  -0.0408
  C  C3277  1  0.880230  0.610470  0.220870  1.0  -0.0843
  C  C3278  1  0.088730  0.585070  0.061670  1.0  -0.1018
  C  C3279  1  0.047430  0.619270  0.051460  1.0  0.0583
  C  C3280  1  0.976930  0.610070  0.058520  1.0  -0.0865
  C  C3281  1  0.884830  0.721070  0.226980  1.0  0.2309
  C  C3282  1  0.921330  0.675270  0.236410  1.0  -0.1061
  C  C3283  1  0.867130  0.595670  0.233170  1.0  0.2057
  C  C3284  1  0.930930  0.633170  0.220170  1.0  0.0159
  C  C3285  1  0.083130  0.612170  0.051270  1.0  0.1089
  C  C3286  1  0.044530  0.649270  0.042300  1.0  -0.1196
  C  C3287  1  0.997230  0.658770  0.058120  1.0  0.0632
  C  C3288  1  0.960130  0.591770  0.044760  1.0  -0.0476
  C  C3289  1  0.886530  0.628470  0.242170  1.0  -0.0026
  C  C3290  1  0.953430  0.666870  0.229070  1.0  0.2669
  C  C3291  1  0.837030  0.551270  0.237270  1.0  -0.07
  C  C3292  1  0.956630  0.620870  0.212170  1.0  -0.1065
  C  C3293  1  0.033230  0.680370  0.049410  1.0  0.1063
  C  C3294  1  0.999330  0.614370  0.035290  1.0  -0.0451
  C  C3295  1  0.985530  0.686770  0.065300  1.0  -0.0762
  C  C3296  1  0.915630  0.561870  0.041030  1.0  -0.0433
  C  C3297  1  0.897830  0.786670  0.236620  1.0  -0.062
  C  C3298  1  0.874030  0.615970  0.256170  1.0  -0.1469
  C  C3299  1  0.996230  0.690370  0.230840  1.0  -0.1288
  C  C3300  1  0.825030  0.544370  0.252670  1.0  -0.005
  C  C3301  1  0.001930  0.644870  0.213070  1.0  -0.0849
  C  C3302  1  0.149030  0.611170  0.041100  1.0  0.0608
  C  C3303  1  0.055030  0.725270  0.048070  1.0  -0.1611
  C  C3304  1  0.988830  0.603470  0.022890  1.0  -0.103
  C  C3305  1  0.008630  0.733370  0.064770  1.0  -0.1162
  C  C3306  1  0.907730  0.552770  0.028030  1.0  -0.0807
  C  C3307  1  0.922330  0.820970  0.246980  1.0  0.1246
  C  C3308  1  0.842930  0.572470  0.259670  1.0  -0.1602
  C  C3309  1  0.027030  0.680570  0.223670  1.0  -0.1319
  C  C3310  1  0.175130  0.630070  0.029370  1.0  0.1281
  C  C3311  1  0.041430  0.751070  0.055470  1.0  -0.114
  C  C3312  1  0.946530  0.572370  0.019160  1.0  -0.0881
  C  C3313  1  0.943630  0.809470  0.256250  1.0  -0.1103
  C  C3314  1  0.925530  0.864570  0.248140  1.0  -0.2342
  C  C3315  1  0.210330  0.619370  0.025470  1.0  -0.1964
  C  C3316  1  0.164730  0.651870  0.020870  1.0  -0.1217
  C  C3317  1  0.966830  0.838070  0.266580  1.0  -0.1424
  C  C3318  1  0.947930  0.891470  0.258290  1.0  -0.0977
  C  C3319  1  0.229330  0.635670  0.013390  1.0  -0.0864
  C  C3320  1  0.191730  0.673970  0.008880  1.0  -0.1031
  C  C3321  1  0.969930  0.881970  0.267080  1.0  -0.0246
  C  C3322  1  0.223030  0.660870  0.005500  1.0  0.238
  C  C3323  1  0.996830  0.913970  0.277470  1.0  0.6799
  C  C3324  1  0.251730  0.682070  0.994770  1.0  0.6488
  C  C3325  1  0.381000  0.558700  0.482710  1.0  0.5869
  C  C3326  1  0.299200  0.513500  0.454330  1.0  0.5956
  C  C3327  1  0.408600  0.549200  0.492930  1.0  -0.1215
  C  C3328  1  0.276600  0.471900  0.445380  1.0  -0.0708
  C  C3329  1  0.386900  0.525100  0.504440  1.0  -0.1657
  C  C3330  1  0.453300  0.561800  0.491780  1.0  -0.0854
  C  C3331  1  0.299400  0.466400  0.434310  1.0  -0.0765
  C  C3332  1  0.235500  0.434300  0.448730  1.0  -0.0734
  C  C3333  1  0.410600  0.516400  0.512830  1.0  -0.1112
  C  C3334  1  0.478600  0.553000  0.500600  1.0  -0.2099
  C  C3335  1  0.278700  0.426900  0.426830  1.0  -0.1575
  C  C3336  1  0.213800  0.395000  0.440370  1.0  -0.1598
  C  C3337  1  0.457700  0.530900  0.511830  1.0  0.0694
  C  C3338  1  0.235600  0.392100  0.429780  1.0  0.0345
  C  C3339  1  0.485200  0.524900  0.521820  1.0  0.0244
  C  C3340  1  0.209000  0.350200  0.421640  1.0  0.0092
  C  C3341  1  0.472600  0.482300  0.540790  1.0  0.127
  C  C3342  1  0.222200  0.314500  0.404520  1.0  0.2999
  C  C3343  1  0.519000  0.494500  0.541070  1.0  -0.2062
  C  C3344  1  0.443700  0.461900  0.551780  1.0  0.025
  C  C3345  1  0.177200  0.280400  0.404420  1.0  -0.1715
  C  C3346  1  0.251200  0.320000  0.393650  1.0  0.0042
  C  C3347  1  0.533100  0.472800  0.549840  1.0  -0.2005
  C  C3348  1  0.458700  0.441800  0.560090  1.0  -0.0418
  C  C3349  1  0.396900  0.453100  0.554200  1.0  -0.0866
  C  C3350  1  0.163000  0.244600  0.395000  1.0  -0.1047
  C  C3351  1  0.238500  0.285900  0.384790  1.0  0.0585
  C  C3352  1  0.299800  0.356400  0.391850  1.0  -0.0861
  C  C3353  1  0.502900  0.448500  0.560310  1.0  0.2301
  C  C3354  1  0.420600  0.412000  0.569740  1.0  -0.1084
  C  C3355  1  0.395200  0.466200  0.566500  1.0  0.2036
  C  C3356  1  0.368900  0.402400  0.553500  1.0  0.0166
  C  C3357  1  0.195700  0.250200  0.384600  1.0  0.1092
  C  C3358  1  0.271400  0.288800  0.375630  1.0  -0.1187
  C  C3359  1  0.328200  0.336100  0.391450  1.0  0.0654
  C  C3360  1  0.298300  0.373200  0.378090  1.0  -0.0445
  C  C3361  1  0.408600  0.446800  0.575500  1.0  -0.0019
  C  C3362  1  0.380100  0.379900  0.562400  1.0  0.2629
  C  C3363  1  0.380900  0.496300  0.570600  1.0  -0.0715
  C  C3364  1  0.330900  0.376700  0.545500  1.0  -0.1057
  C  C3365  1  0.313800  0.300100  0.382740  1.0  0.1027
  C  C3366  1  0.281700  0.334000  0.368620  1.0  -0.0455
  C  C3367  1  0.367900  0.347800  0.398630  1.0  -0.071
  C  C3368  1  0.312900  0.417700  0.374360  1.0  -0.042
  C  C3369  1  0.555500  0.435500  0.569950  1.0  -0.0595
  C  C3370  1  0.408600  0.459300  0.589500  1.0  -0.1468
  C  C3371  1  0.360800  0.337100  0.564170  1.0  -0.1315
  C  C3372  1  0.386000  0.508300  0.586000  1.0  -0.0107
  C  C3373  1  0.309600  0.331400  0.546400  1.0  -0.0831
  C  C3374  1  0.128800  0.184300  0.374430  1.0  0.0585
  C  C3375  1  0.336900  0.278300  0.381400  1.0  -0.162
  C  C3376  1  0.281300  0.344500  0.356220  1.0  -0.1019
  C  C3377  1  0.391400  0.324700  0.398100  1.0  -0.1164
  C  C3378  1  0.311700  0.425600  0.361360  1.0  -0.0836
  C  C3379  1  0.565300  0.411000  0.580310  1.0  0.1252
  C  C3380  1  0.396200  0.490400  0.593000  1.0  -0.163
  C  C3381  1  0.320200  0.306300  0.557000  1.0  -0.136
  C  C3382  1  0.121600  0.158200  0.362700  1.0  0.1291
  C  C3383  1  0.376300  0.291900  0.388800  1.0  -0.1175
  C  C3384  1  0.292500  0.386800  0.352490  1.0  -0.0874
  C  C3385  1  0.532500  0.389700  0.589580  1.0  -0.1084
  C  C3386  1  0.605700  0.407800  0.581470  1.0  -0.2347
  C  C3387  1  0.075700  0.123000  0.358800  1.0  -0.1981
  C  C3388  1  0.153800  0.168600  0.354200  1.0  -0.119
  C  C3389  1  0.537900  0.366500  0.599910  1.0  -0.1427
  C  C3390  1  0.610200  0.385400  0.591620  1.0  -0.098
  C  C3391  1  0.073000  0.104000  0.346720  1.0  -0.086
  C  C3392  1  0.148900  0.141600  0.342210  1.0  -0.0991
  C  C3393  1  0.578700  0.363400  0.600410  1.0  -0.0233
  C  C3394  1  0.104500  0.110300  0.338830  1.0  0.2295
  C  C3395  1  0.583800  0.336500  0.610800  1.0  0.6796
  C  C3396  1  0.097000  0.081600  0.328100  1.0  0.6521
  C  C3397  1  0.047670  0.892030  0.816040  1.0  0.5868
  C  C3398  1  0.965870  0.846830  0.787660  1.0  0.5956
  C  C3399  1  0.075270  0.882530  0.826260  1.0  -0.1214
  C  C3400  1  0.943270  0.805230  0.778710  1.0  -0.0709
  C  C3401  1  0.053570  0.858430  0.837770  1.0  -0.1658
  C  C3402  1  0.119970  0.895130  0.825110  1.0  -0.0856
  C  C3403  1  0.966070  0.799730  0.767640  1.0  -0.0764
  C  C3404  1  0.902170  0.767630  0.782060  1.0  -0.0732
  C  C3405  1  0.077270  0.849730  0.846160  1.0  -0.1111
  C  C3406  1  0.145270  0.886330  0.833930  1.0  -0.2099
  C  C3407  1  0.945370  0.760230  0.760160  1.0  -0.1575
  C  C3408  1  0.880470  0.728330  0.773700  1.0  -0.1596
  C  C3409  1  0.124370  0.864230  0.845160  1.0  0.0694
  C  C3410  1  0.902270  0.725430  0.763110  1.0  0.0344
  C  C3411  1  0.151870  0.858230  0.855150  1.0  0.0244
  C  C3412  1  0.875670  0.683530  0.754970  1.0  0.0092
  C  C3413  1  0.139270  0.815630  0.874120  1.0  0.127
  C  C3414  1  0.888870  0.647830  0.737850  1.0  0.3
  C  C3415  1  0.185670  0.827830  0.874400  1.0  -0.2062
  C  C3416  1  0.110370  0.795230  0.885110  1.0  0.025
  C  C3417  1  0.843870  0.613730  0.737750  1.0  -0.1715
  C  C3418  1  0.917870  0.653330  0.726980  1.0  0.0041
  C  C3419  1  0.199770  0.806130  0.883170  1.0  -0.2005
  C  C3420  1  0.125370  0.775130  0.893420  1.0  -0.0418
  C  C3421  1  0.063570  0.786430  0.887530  1.0  -0.0866
  C  C3422  1  0.829670  0.577930  0.728330  1.0  -0.1051
  C  C3423  1  0.905170  0.619230  0.718120  1.0  0.0587
  C  C3424  1  0.966470  0.689730  0.725180  1.0  -0.086
  C  C3425  1  0.169570  0.781830  0.893640  1.0  0.2301
  C  C3426  1  0.087270  0.745330  0.903070  1.0  -0.1084
  C  C3427  1  0.061870  0.799530  0.899830  1.0  0.2036
  C  C3428  1  0.035570  0.735730  0.886830  1.0  0.0166
  C  C3429  1  0.862370  0.583530  0.717930  1.0  0.1092
  C  C3430  1  0.938070  0.622130  0.708960  1.0  -0.1187
  C  C3431  1  0.994870  0.669430  0.724780  1.0  0.0653
  C  C3432  1  0.964970  0.706530  0.711420  1.0  -0.0445
  C  C3433  1  0.075270  0.780130  0.908830  1.0  -0.0019
  C  C3434  1  0.046770  0.713230  0.895730  1.0  0.2629
  C  C3435  1  0.047570  0.829630  0.903930  1.0  -0.0715
  C  C3436  1  0.997570  0.710030  0.878830  1.0  -0.1057
  C  C3437  1  0.980470  0.633430  0.716070  1.0  0.1029
  C  C3438  1  0.948370  0.667330  0.701950  1.0  -0.0455
  C  C3439  1  0.034570  0.681130  0.731960  1.0  -0.0711
  C  C3440  1  0.979570  0.751030  0.707690  1.0  -0.0424
  C  C3441  1  0.222170  0.768830  0.903280  1.0  -0.0595
  C  C3442  1  0.075270  0.792630  0.922830  1.0  -0.1468
  C  C3443  1  0.027470  0.670430  0.897500  1.0  -0.1315
  C  C3444  1  0.052670  0.841630  0.919330  1.0  -0.0107
  C  C3445  1  0.976270  0.664730  0.879730  1.0  -0.0831
  C  C3446  1  0.795470  0.517630  0.707760  1.0  0.0585
  C  C3447  1  0.003570  0.611630  0.714730  1.0  -0.1621
  C  C3448  1  0.947970  0.677830  0.689550  1.0  -0.0906
  C  C3449  1  0.058070  0.658030  0.731430  1.0  -0.1166
  C  C3450  1  0.978370  0.758930  0.694690  1.0  -0.0822
  C  C3451  1  0.231970  0.744330  0.913640  1.0  0.1252
  C  C3452  1  0.062870  0.823730  0.926330  1.0  -0.163
  C  C3453  1  0.986870  0.639630  0.890330  1.0  -0.136
  C  C3454  1  0.788270  0.491530  0.696030  1.0  0.1291
  C  C3455  1  0.042970  0.625230  0.722130  1.0  -0.1174
  C  C3456  1  0.959170  0.720130  0.685820  1.0  -0.0833
  C  C3457  1  0.199170  0.723030  0.922910  1.0  -0.1084
  C  C3458  1  0.272370  0.741130  0.914800  1.0  -0.2347
  C  C3459  1  0.742370  0.456330  0.692130  1.0  -0.1981
  C  C3460  1  0.820470  0.501930  0.687530  1.0  -0.119
  C  C3461  1  0.204570  0.699830  0.933240  1.0  -0.1427
  C  C3462  1  0.276870  0.718730  0.924950  1.0  -0.098
  C  C3463  1  0.739670  0.437330  0.680050  1.0  -0.0857
  C  C3464  1  0.815570  0.474930  0.675540  1.0  -0.0995
  C  C3465  1  0.245370  0.696730  0.933740  1.0  -0.0233
  C  C3466  1  0.771170  0.443630  0.672160  1.0  0.2309
  C  C3467  1  0.250470  0.669830  0.944130  1.0  0.6796
  C  C3468  1  0.763670  0.414930  0.661430  1.0  0.6505
  C  C3469  1  0.714330  0.225370  0.149380  1.0  0.587
  C  C3470  1  0.632530  0.180170  0.121000  1.0  0.5956
  C  C3471  1  0.741930  0.215870  0.159600  1.0  -0.1215
  C  C3472  1  0.609930  0.138570  0.112050  1.0  -0.0708
  C  C3473  1  0.720230  0.191770  0.171110  1.0  -0.1659
  C  C3474  1  0.786630  0.228470  0.158450  1.0  -0.0853
  C  C3475  1  0.632730  0.133070  0.100980  1.0  -0.0765
  C  C3476  1  0.568830  0.100970  0.115400  1.0  -0.0734
  C  C3477  1  0.743930  0.183070  0.179500  1.0  -0.111
  C  C3478  1  0.811930  0.219670  0.167270  1.0  -0.2098
  C  C3479  1  0.612030  0.093570  0.093500  1.0  -0.1575
  C  C3480  1  0.547130  0.061670  0.107040  1.0  -0.1598
  C  C3481  1  0.791030  0.197570  0.178500  1.0  0.0694
  C  C3482  1  0.568930  0.058770  0.096450  1.0  0.0345
  C  C3483  1  0.818530  0.191570  0.188490  1.0  0.0243
  C  C3484  1  0.542330  0.016870  0.088310  1.0  0.0092
  C  C3485  1  0.805930  0.148970  0.207460  1.0  0.1272
  C  C3486  1  0.555530  0.981170  0.071190  1.0  0.2999
  C  C3487  1  0.852330  0.161170  0.207740  1.0  -0.2064
  C  C3488  1  0.777030  0.128570  0.218450  1.0  0.0249
  C  C3489  1  0.510530  0.947070  0.071090  1.0  -0.1715
  C  C3490  1  0.584530  0.986670  0.060320  1.0  0.0042
  C  C3491  1  0.866430  0.139470  0.216510  1.0  -0.2005
  C  C3492  1  0.792030  0.108470  0.226760  1.0  -0.0418
  C  C3493  1  0.730230  0.119770  0.220870  1.0  -0.0866
  C  C3494  1  0.496330  0.911270  0.061670  1.0  -0.1047
  C  C3495  1  0.571830  0.952570  0.051460  1.0  0.0585
  C  C3496  1  0.633130  0.023070  0.058520  1.0  -0.0861
  C  C3497  1  0.836230  0.115170  0.226980  1.0  0.23
  C  C3498  1  0.753930  0.078670  0.236410  1.0  -0.1084
  C  C3499  1  0.728530  0.132870  0.233170  1.0  0.2036
  C  C3500  1  0.702230  0.069070  0.220170  1.0  0.0165
  C  C3501  1  0.529030  0.916870  0.051270  1.0  0.1092
  C  C3502  1  0.604730  0.955470  0.042300  1.0  -0.1187
  C  C3503  1  0.661530  0.002770  0.058120  1.0  0.0654
  C  C3504  1  0.631630  0.039870  0.044760  1.0  -0.0445
  C  C3505  1  0.741930  0.113470  0.242170  1.0  -0.0019
  C  C3506  1  0.713430  0.046570  0.229070  1.0  0.2635
  C  C3507  1  0.714230  0.162970  0.237270  1.0  -0.0715
  C  C3508  1  0.664230  0.043370  0.212170  1.0  -0.1057
  C  C3509  1  0.647130  0.966770  0.049410  1.0  0.1027
  C  C3510  1  0.615030  0.000670  0.035290  1.0  -0.0455
  C  C3511  1  0.701230  0.014470  0.065300  1.0  -0.071
  C  C3512  1  0.646230  0.084370  0.041030  1.0  -0.042
  C  C3513  1  0.888830  0.102170  0.236620  1.0  -0.0595
  C  C3514  1  0.741930  0.125970  0.256170  1.0  -0.1473
  C  C3515  1  0.694130  0.003770  0.230840  1.0  -0.1315
  C  C3516  1  0.719330  0.174970  0.252670  1.0  -0.0107
  C  C3517  1  0.642930  0.998070  0.213070  1.0  -0.0829
  C  C3518  1  0.462130  0.850970  0.041100  1.0  0.0585
  C  C3519  1  0.670230  0.944970  0.048070  1.0  -0.162
  C  C3520  1  0.614630  0.011170  0.022890  1.0  -0.1019
  C  C3521  1  0.724730  0.991370  0.064770  1.0  -0.1164
  C  C3522  1  0.645030  0.092270  0.028030  1.0  -0.0836
  C  C3523  1  0.898630  0.077670  0.246980  1.0  0.1251
  C  C3524  1  0.729530  0.157070  0.259670  1.0  -0.1634
  C  C3525  1  0.653530  0.972970  0.223670  1.0  -0.1359
  C  C3526  1  0.454930  0.824870  0.029370  1.0  0.1291
  C  C3527  1  0.709630  0.958570  0.055470  1.0  -0.1175
  C  C3528  1  0.625830  0.053470  0.019160  1.0  -0.0874
  C  C3529  1  0.865830  0.056370  0.256250  1.0  -0.1083
  C  C3530  1  0.939030  0.074470  0.248140  1.0  -0.2349
  C  C3531  1  0.409030  0.789670  0.025470  1.0  -0.1981
  C  C3532  1  0.487130  0.835270  0.020870  1.0  -0.119
  C  C3533  1  0.871230  0.033170  0.266580  1.0  -0.1411
  C  C3534  1  0.943530  0.052070  0.258290  1.0  -0.098
  C  C3535  1  0.406330  0.770670  0.013390  1.0  -0.086
  C  C3536  1  0.482230  0.808270  0.008880  1.0  -0.0991
  C  C3537  1  0.912030  0.030070  0.267080  1.0  -0.0233
  C  C3538  1  0.437830  0.776970  0.005500  1.0  0.2295
  C  C3539  1  0.917130  0.003170  0.277470  1.0  0.6813
  C  C3540  1  0.430330  0.748270  0.994770  1.0  0.6521
  C  C3541  1  0.177700  0.619000  0.482710  1.0  0.5882
  C  C3542  1  0.214300  0.700800  0.454330  1.0  0.5952
  C  C3543  1  0.140600  0.591400  0.492930  1.0  -0.1151
  C  C3544  1  0.195300  0.723400  0.445380  1.0  -0.0712
  C  C3545  1  0.138200  0.613100  0.504440  1.0  -0.1661
  C  C3546  1  0.108500  0.546700  0.491780  1.0  -0.0855
  C  C3547  1  0.167000  0.700600  0.434310  1.0  -0.0772
  C  C3548  1  0.198800  0.764500  0.448730  1.0  -0.0754
  C  C3549  1  0.105800  0.589400  0.512830  1.0  -0.1114
  C  C3550  1  0.074400  0.521400  0.500600  1.0  -0.2124
  C  C3551  1  0.148200  0.721300  0.426830  1.0  -0.1578
  C  C3552  1  0.181200  0.786200  0.440370  1.0  -0.1615
  C  C3553  1  0.073200  0.542300  0.511830  1.0  0.0711
  C  C3554  1  0.156500  0.764400  0.429780  1.0  0.0334
  C  C3555  1  0.039700  0.514800  0.521820  1.0  0.0246
  C  C3556  1  0.141200  0.791000  0.421640  1.0  0.0072
  C  C3557  1  0.009700  0.527400  0.540790  1.0  0.1256
  C  C3558  1  0.092300  0.777800  0.404520  1.0  0.3002
  C  C3559  1  0.975500  0.481000  0.541070  1.0  -0.2041
  C  C3560  1  0.018200  0.556300  0.551780  1.0  0.0234
  C  C3561  1  0.103200  0.822800  0.404420  1.0  -0.1682
  C  C3562  1  0.068800  0.748800  0.393650  1.0  0.0024
  C  C3563  1  0.939700  0.466900  0.549840  1.0  -0.196
  C  C3564  1  0.983100  0.541300  0.560090  1.0  -0.0428
  C  C3565  1  0.056200  0.603100  0.554200  1.0  -0.0846
  C  C3566  1  0.081600  0.837000  0.395000  1.0  -0.1076
  C  C3567  1  0.047400  0.761500  0.384790  1.0  0.0573
  C  C3568  1  0.056600  0.700200  0.391850  1.0  -0.0873
  C  C3569  1  0.945600  0.497100  0.560310  1.0  0.2302
  C  C3570  1  0.991400  0.579400  0.569740  1.0  -0.1059
  C  C3571  1  0.071000  0.604800  0.566500  1.0  0.2044
  C  C3572  1  0.033500  0.631100  0.553500  1.0  0.0159
  C  C3573  1  0.054500  0.804300  0.384600  1.0  0.1085
  C  C3574  1  0.017400  0.728600  0.375630  1.0  -0.1197
  C  C3575  1  0.007900  0.671800  0.391450  1.0  0.0656
  C  C3576  1  0.074900  0.701700  0.378090  1.0  -0.0453
  C  C3577  1  0.038200  0.591400  0.575500  1.0  -0.0022
  C  C3578  1  0.999800  0.619900  0.562400  1.0  0.264
  C  C3579  1  0.115400  0.619100  0.570600  1.0  -0.0721
  C  C3580  1  0.045800  0.669100  0.545500  1.0  -0.1079
  C  C3581  1  0.986300  0.686200  0.382740  1.0  0.1002
  C  C3582  1  0.052300  0.718300  0.368620  1.0  -0.0461
  C  C3583  1  0.979900  0.632100  0.398630  1.0  -0.0744
  C  C3584  1  0.104800  0.687100  0.374360  1.0  -0.0393
  C  C3585  1  0.880000  0.444500  0.569950  1.0  -0.059
  C  C3586  1  0.050700  0.591400  0.589500  1.0  -0.1495
  C  C3587  1  0.976300  0.639200  0.564170  1.0  -0.1343
  C  C3588  1  0.122300  0.614000  0.586000  1.0  -0.0103
  C  C3589  1  0.021800  0.690400  0.546400  1.0  -0.0879
  C  C3590  1  0.055500  0.871200  0.374430  1.0  0.0606
  C  C3591  1  0.941400  0.663100  0.381400  1.0  -0.1599
  C  C3592  1  0.063200  0.718700  0.356220  1.0  -0.101
  C  C3593  1  0.933300  0.608600  0.398100  1.0  -0.1208
  C  C3594  1  0.113900  0.688300  0.361360  1.0  -0.0856
  C  C3595  1  0.845700  0.434700  0.580310  1.0  0.1248
  C  C3596  1  0.094200  0.603800  0.593000  1.0  -0.1552
  C  C3597  1  0.986100  0.679800  0.557000  1.0  -0.1345
  C  C3598  1  0.036600  0.878400  0.362700  1.0  0.1299
  C  C3599  1  0.915600  0.623700  0.388800  1.0  -0.1183
  C  C3600  1  0.094300  0.707500  0.352490  1.0  -0.0911
  C  C3601  1  0.857200  0.467500  0.589580  1.0  -0.109
  C  C3602  1  0.802100  0.394300  0.581470  1.0  -0.2338
  C  C3603  1  0.047300  0.924300  0.358800  1.0  -0.195
  C  C3604  1  0.014800  0.846200  0.354200  1.0  -0.1258
  C  C3605  1  0.828600  0.462100  0.599910  1.0  -0.1388
  C  C3606  1  0.775200  0.389800  0.591620  1.0  -0.0979
  C  C3607  1  0.031000  0.927000  0.346720  1.0  -0.0894
  C  C3608  1  0.992700  0.851100  0.342210  1.0  -0.0994
  C  C3609  1  0.784700  0.421300  0.600410  1.0  -0.0238
  C  C3610  1  0.005800  0.895500  0.338830  1.0  0.2344
  C  C3611  1  0.752700  0.416200  0.610800  1.0  0.6813
  C  C3612  1  0.984600  0.903000  0.328100  1.0  0.651
  C  C3613  1  0.844370  0.952330  0.816040  1.0  0.5884
  C  C3614  1  0.880970  0.034130  0.787660  1.0  0.5951
  C  C3615  1  0.807270  0.924730  0.826260  1.0  -0.1149
  C  C3616  1  0.861970  0.056730  0.778710  1.0  -0.0712
  C  C3617  1  0.804870  0.946430  0.837770  1.0  -0.1661
  C  C3618  1  0.775170  0.880030  0.825110  1.0  -0.0855
  C  C3619  1  0.833670  0.033930  0.767640  1.0  -0.0772
  C  C3620  1  0.865470  0.097830  0.782060  1.0  -0.0751
  C  C3621  1  0.772470  0.922730  0.846160  1.0  -0.1113
  C  C3622  1  0.741070  0.854730  0.833930  1.0  -0.2124
  C  C3623  1  0.814870  0.054630  0.760160  1.0  -0.1578
  C  C3624  1  0.847870  0.119530  0.773700  1.0  -0.1613
  C  C3625  1  0.739870  0.875630  0.845160  1.0  0.0711
  C  C3626  1  0.823170  0.097730  0.763110  1.0  0.0334
  C  C3627  1  0.706370  0.848130  0.855150  1.0  0.0246
  C  C3628  1  0.807870  0.124330  0.754970  1.0  0.0072
  C  C3629  1  0.676370  0.860730  0.874120  1.0  0.1256
  C  C3630  1  0.758970  0.111130  0.737850  1.0  0.3004
  C  C3631  1  0.642170  0.814330  0.874400  1.0  -0.2041
  C  C3632  1  0.684870  0.889630  0.885110  1.0  0.0234
  C  C3633  1  0.769870  0.156130  0.737750  1.0  -0.1682
  C  C3634  1  0.735470  0.082130  0.726980  1.0  0.0024
  C  C3635  1  0.606370  0.800230  0.883170  1.0  -0.196
  C  C3636  1  0.649770  0.874630  0.893420  1.0  -0.0428
  C  C3637  1  0.722870  0.936430  0.887530  1.0  -0.0846
  C  C3638  1  0.748270  0.170330  0.728330  1.0  -0.108
  C  C3639  1  0.714070  0.094830  0.718120  1.0  0.0574
  C  C3640  1  0.723270  0.033530  0.725180  1.0  -0.0872
  C  C3641  1  0.612270  0.830430  0.893640  1.0  0.2302
  C  C3642  1  0.658070  0.912730  0.903070  1.0  -0.1059
  C  C3643  1  0.737670  0.938130  0.899830  1.0  0.2044
  C  C3644  1  0.700170  0.964430  0.886830  1.0  0.0159
  C  C3645  1  0.721170  0.137630  0.717930  1.0  0.1085
  C  C3646  1  0.684070  0.061930  0.708960  1.0  -0.1197
  C  C3647  1  0.674570  0.005130  0.724780  1.0  0.0656
  C  C3648  1  0.741570  0.035030  0.711420  1.0  -0.0453
  C  C3649  1  0.704870  0.924730  0.908830  1.0  -0.0022
  C  C3650  1  0.666470  0.953230  0.895730  1.0  0.264
  C  C3651  1  0.782070  0.952430  0.903930  1.0  -0.0721
  C  C3652  1  0.712470  0.002430  0.878830  1.0  -0.1079
  C  C3653  1  0.652970  0.019530  0.716070  1.0  0.1002
  C  C3654  1  0.718970  0.051630  0.701950  1.0  -0.0461
  C  C3655  1  0.646570  0.965430  0.731960  1.0  -0.074
  C  C3656  1  0.771470  0.020430  0.707690  1.0  -0.0393
  C  C3657  1  0.546670  0.777830  0.903280  1.0  -0.059
  C  C3658  1  0.717370  0.924730  0.922830  1.0  -0.1495
  C  C3659  1  0.642970  0.972530  0.897500  1.0  -0.1343
  C  C3660  1  0.788970  0.947330  0.919330  1.0  -0.0103
  C  C3661  1  0.688470  0.023730  0.879730  1.0  -0.0879
  C  C3662  1  0.722170  0.204530  0.707760  1.0  0.0606
  C  C3663  1  0.608070  0.996430  0.714730  1.0  -0.16
  C  C3664  1  0.729870  0.052030  0.689550  1.0  -0.0903
  C  C3665  1  0.599970  0.941930  0.731430  1.0  -0.121
  C  C3666  1  0.780570  0.021630  0.694690  1.0  -0.0833
  C  C3667  1  0.512370  0.768030  0.913640  1.0  0.1248
  C  C3668  1  0.760870  0.937130  0.926330  1.0  -0.1552
  C  C3669  1  0.652770  0.013130  0.890330  1.0  -0.1345
  C  C3670  1  0.703270  0.211730  0.696030  1.0  0.1299
  C  C3671  1  0.582270  0.957030  0.722130  1.0  -0.1177
  C  C3672  1  0.760970  0.040830  0.685820  1.0  -0.0864
  C  C3673  1  0.523870  0.800830  0.922910  1.0  -0.109
  C  C3674  1  0.468770  0.727630  0.914800  1.0  -0.2338
  C  C3675  1  0.713970  0.257630  0.692130  1.0  -0.195
  C  C3676  1  0.681470  0.179530  0.687530  1.0  -0.1257
  C  C3677  1  0.495270  0.795430  0.933240  1.0  -0.1388
  C  C3678  1  0.441870  0.723130  0.924950  1.0  -0.0979
  C  C3679  1  0.697670  0.260330  0.680050  1.0  -0.0891
  C  C3680  1  0.659370  0.184430  0.675540  1.0  -0.0998
  C  C3681  1  0.451370  0.754630  0.933740  1.0  -0.0238
  C  C3682  1  0.672470  0.228830  0.672160  1.0  0.2334
  C  C3683  1  0.419370  0.749530  0.944130  1.0  0.6813
  C  C3684  1  0.651270  0.236330  0.661430  1.0  0.6507
  C  C3685  1  0.511030  0.285670  0.149380  1.0  0.5881
  C  C3686  1  0.547630  0.367470  0.121000  1.0  0.5952
  C  C3687  1  0.473930  0.258070  0.159600  1.0  -0.1151
  C  C3688  1  0.528630  0.390070  0.112050  1.0  -0.0712
  C  C3689  1  0.471530  0.279770  0.171110  1.0  -0.1662
  C  C3690  1  0.441830  0.213370  0.158450  1.0  -0.0855
  C  C3691  1  0.500330  0.367270  0.100980  1.0  -0.0772
  C  C3692  1  0.532130  0.431170  0.115400  1.0  -0.0754
  C  C3693  1  0.439130  0.256070  0.179500  1.0  -0.1117
  C  C3694  1  0.407730  0.188070  0.167270  1.0  -0.2125
  C  C3695  1  0.481530  0.387970  0.093500  1.0  -0.1578
  C  C3696  1  0.514530  0.452870  0.107040  1.0  -0.1615
  C  C3697  1  0.406530  0.208970  0.178500  1.0  0.0711
  C  C3698  1  0.489830  0.431070  0.096450  1.0  0.0334
  C  C3699  1  0.373030  0.181470  0.188490  1.0  0.0246
  C  C3700  1  0.474530  0.457670  0.088310  1.0  0.0072
  C  C3701  1  0.343030  0.194070  0.207460  1.0  0.1256
  C  C3702  1  0.425630  0.444470  0.071190  1.0  0.3002
  C  C3703  1  0.308830  0.147670  0.207740  1.0  -0.2041
  C  C3704  1  0.351530  0.222970  0.218450  1.0  0.0233
  C  C3705  1  0.436530  0.489470  0.071090  1.0  -0.1682
  C  C3706  1  0.402130  0.415470  0.060320  1.0  0.0024
  C  C3707  1  0.273030  0.133570  0.216510  1.0  -0.196
  C  C3708  1  0.316430  0.207970  0.226760  1.0  -0.0428
  C  C3709  1  0.389530  0.269770  0.220870  1.0  -0.0845
  C  C3710  1  0.414930  0.503670  0.061670  1.0  -0.1076
  C  C3711  1  0.380730  0.428170  0.051460  1.0  0.0573
  C  C3712  1  0.389930  0.366870  0.058520  1.0  -0.0873
  C  C3713  1  0.278930  0.163770  0.226980  1.0  0.2302
  C  C3714  1  0.324730  0.246070  0.236410  1.0  -0.1059
  C  C3715  1  0.404330  0.271470  0.233170  1.0  0.2044
  C  C3716  1  0.366830  0.297770  0.220170  1.0  0.0158
  C  C3717  1  0.387830  0.470970  0.051270  1.0  0.1085
  C  C3718  1  0.350730  0.395270  0.042300  1.0  -0.1197
  C  C3719  1  0.341230  0.338470  0.058120  1.0  0.0656
  C  C3720  1  0.408230  0.368370  0.044760  1.0  -0.0453
  C  C3721  1  0.371530  0.258070  0.242170  1.0  -0.0022
  C  C3722  1  0.333130  0.286570  0.229070  1.0  0.2645
  C  C3723  1  0.448730  0.285770  0.237270  1.0  -0.0722
  C  C3724  1  0.379130  0.335770  0.212170  1.0  -0.1079
  C  C3725  1  0.319630  0.352870  0.049410  1.0  0.1002
  C  C3726  1  0.385630  0.384970  0.035290  1.0  -0.0461
  C  C3727  1  0.313230  0.298770  0.065300  1.0  -0.0744
  C  C3728  1  0.438130  0.353770  0.041030  1.0  -0.0393
  C  C3729  1  0.213330  0.111170  0.236620  1.0  -0.059
  C  C3730  1  0.384030  0.258070  0.256170  1.0  -0.1493
  C  C3731  1  0.309630  0.305870  0.230840  1.0  -0.134
  C  C3732  1  0.455630  0.280670  0.252670  1.0  -0.0103
  C  C3733  1  0.355130  0.357070  0.213070  1.0  -0.0881
  C  C3734  1  0.388830  0.537870  0.041100  1.0  0.0606
  C  C3735  1  0.274730  0.329770  0.048070  1.0  -0.1599
  C  C3736  1  0.396530  0.385370  0.022890  1.0  -0.101
  C  C3737  1  0.266630  0.275270  0.064770  1.0  -0.1208
  C  C3738  1  0.447230  0.354970  0.028030  1.0  -0.0856
  C  C3739  1  0.179030  0.101370  0.246980  1.0  0.1248
  C  C3740  1  0.427530  0.270470  0.259670  1.0  -0.1551
  C  C3741  1  0.319430  0.346470  0.223670  1.0  -0.1347
  C  C3742  1  0.369930  0.545070  0.029370  1.0  0.1299
  C  C3743  1  0.248930  0.290370  0.055470  1.0  -0.1183
  C  C3744  1  0.427630  0.374170  0.019160  1.0  -0.0911
  C  C3745  1  0.190530  0.134170  0.256250  1.0  -0.1089
  C  C3746  1  0.135430  0.060970  0.248140  1.0  -0.234
  C  C3747  1  0.380630  0.590970  0.025470  1.0  -0.195
  C  C3748  1  0.348130  0.512870  0.020870  1.0  -0.1259
  C  C3749  1  0.161930  0.128770  0.266580  1.0  -0.1372
  C  C3750  1  0.108530  0.056470  0.258290  1.0  -0.0978
  C  C3751  1  0.364330  0.593670  0.013390  1.0  -0.0894
  C  C3752  1  0.326030  0.517770  0.008880  1.0  -0.0994
  C  C3753  1  0.118030  0.087970  0.267080  1.0  -0.0237
  C  C3754  1  0.339130  0.562170  0.005500  1.0  0.2344
  C  C3755  1  0.086030  0.082870  0.277470  1.0  0.6799
  C  C3756  1  0.317930  0.569670  0.994770  1.0  0.651
  C  C3757  1  0.177700  0.558700  0.982710  1.0  0.585
  C  C3758  1  0.214300  0.513500  0.954330  1.0  0.598
  C  C3759  1  0.140600  0.549200  0.992930  1.0  -0.1162
  C  C3760  1  0.195300  0.471900  0.945380  1.0  -0.0702
  C  C3761  1  0.138200  0.525100  0.004440  1.0  -0.1665
  C  C3762  1  0.108500  0.561800  0.991780  1.0  -0.0882
  C  C3763  1  0.167000  0.466400  0.934310  1.0  -0.0774
  C  C3764  1  0.198800  0.434300  0.948730  1.0  -0.0717
  C  C3765  1  0.105800  0.516400  0.012830  1.0  -0.1087
  C  C3766  1  0.074400  0.553000  0.000600  1.0  -0.2093
  C  C3767  1  0.148200  0.426900  0.926830  1.0  -0.1566
  C  C3768  1  0.181200  0.395000  0.940370  1.0  -0.1591
  C  C3769  1  0.073200  0.530900  0.011830  1.0  0.0698
  C  C3770  1  0.156500  0.392100  0.929780  1.0  0.0354
  C  C3771  1  0.039700  0.524900  0.021820  1.0  0.0238
  C  C3772  1  0.141200  0.350200  0.921640  1.0  0.0087
  C  C3773  1  0.009700  0.482300  0.040790  1.0  0.1267
  C  C3774  1  0.092300  0.314500  0.904520  1.0  0.3002
  C  C3775  1  0.975500  0.494500  0.041070  1.0  -0.2065
  C  C3776  1  0.018200  0.461900  0.051780  1.0  0.0257
  C  C3777  1  0.103200  0.280400  0.904420  1.0  -0.1695
  C  C3778  1  0.068800  0.320000  0.893650  1.0  0.0047
  C  C3779  1  0.939700  0.472800  0.049840  1.0  -0.1985
  C  C3780  1  0.983100  0.441800  0.060090  1.0  -0.0418
  C  C3781  1  0.056200  0.453100  0.054200  1.0  -0.0842
  C  C3782  1  0.081600  0.244600  0.895000  1.0  -0.1055
  C  C3783  1  0.047400  0.285900  0.884790  1.0  0.0563
  C  C3784  1  0.056600  0.356400  0.891850  1.0  -0.087
  C  C3785  1  0.945600  0.448500  0.060310  1.0  0.2303
  C  C3786  1  0.991400  0.412000  0.069740  1.0  -0.1098
  C  C3787  1  0.071000  0.466200  0.066500  1.0  0.2023
  C  C3788  1  0.033500  0.402400  0.053500  1.0  0.0184
  C  C3789  1  0.054500  0.250200  0.884600  1.0  0.1094
  C  C3790  1  0.017400  0.288800  0.875630  1.0  -0.1195
  C  C3791  1  0.007900  0.336100  0.891450  1.0  0.0658
  C  C3792  1  0.074900  0.373200  0.878090  1.0  -0.0458
  C  C3793  1  0.038200  0.446800  0.075500  1.0  -0.0022
  C  C3794  1  0.999800  0.379900  0.062400  1.0  0.2632
  C  C3795  1  0.115400  0.496300  0.070600  1.0  -0.071
  C  C3796  1  0.045800  0.376700  0.045500  1.0  -0.1053
  C  C3797  1  0.986300  0.300100  0.882740  1.0  0.1
  C  C3798  1  0.052300  0.334000  0.868620  1.0  -0.0454
  C  C3799  1  0.979900  0.347800  0.898630  1.0  -0.0726
  C  C3800  1  0.104800  0.417700  0.874360  1.0  -0.0423
  C  C3801  1  0.880000  0.435500  0.069950  1.0  -0.0606
  C  C3802  1  0.050700  0.459300  0.089500  1.0  -0.1452
  C  C3803  1  0.976300  0.337100  0.064170  1.0  -0.1316
  C  C3804  1  0.122300  0.508300  0.086000  1.0  -0.0139
  C  C3805  1  0.021800  0.331400  0.046400  1.0  -0.0852
  C  C3806  1  0.055500  0.184300  0.874430  1.0  0.0574
  C  C3807  1  0.941400  0.278300  0.881400  1.0  -0.1646
  C  C3808  1  0.063200  0.344500  0.856220  1.0  -0.1007
  C  C3809  1  0.933300  0.324700  0.898100  1.0  -0.1179
  C  C3810  1  0.113900  0.425600  0.861360  1.0  -0.0836
  C  C3811  1  0.845700  0.411000  0.080310  1.0  0.124
  C  C3812  1  0.094200  0.490400  0.093000  1.0  -0.1604
  C  C3813  1  0.986100  0.306300  0.057000  1.0  -0.1347
  C  C3814  1  0.036600  0.158200  0.862700  1.0  0.1297
  C  C3815  1  0.915600  0.291900  0.888800  1.0  -0.1168
  C  C3816  1  0.094300  0.386800  0.852490  1.0  -0.0877
  C  C3817  1  0.857200  0.389700  0.089580  1.0  -0.1099
  C  C3818  1  0.802100  0.407800  0.081470  1.0  -0.2345
  C  C3819  1  0.047300  0.123000  0.858800  1.0  -0.1988
  C  C3820  1  0.014800  0.168600  0.854200  1.0  -0.1214
  C  C3821  1  0.828600  0.366500  0.099910  1.0  -0.1426
  C  C3822  1  0.775200  0.385400  0.091620  1.0  -0.0984
  C  C3823  1  0.031000  0.104000  0.846720  1.0  -0.0866
  C  C3824  1  0.992700  0.141600  0.842210  1.0  -0.102
  C  C3825  1  0.784700  0.363400  0.100410  1.0  -0.0236
  C  C3826  1  0.005800  0.110300  0.838830  1.0  0.2313
  C  C3827  1  0.752700  0.336500  0.110800  1.0  0.681
  C  C3828  1  0.984600  0.081600  0.828100  1.0  0.6512
  C  C3829  1  0.844370  0.892030  0.316040  1.0  0.5852
  C  C3830  1  0.880970  0.846830  0.287660  1.0  0.598
  C  C3831  1  0.807270  0.882530  0.326260  1.0  -0.1162
  C  C3832  1  0.861970  0.805230  0.278710  1.0  -0.0703
  C  C3833  1  0.804870  0.858430  0.337770  1.0  -0.1665
  C  C3834  1  0.775170  0.895130  0.325110  1.0  -0.0884
  C  C3835  1  0.833670  0.799730  0.267640  1.0  -0.0772
  C  C3836  1  0.865470  0.767630  0.282060  1.0  -0.0715
  C  C3837  1  0.772470  0.849730  0.346160  1.0  -0.1086
  C  C3838  1  0.741070  0.886330  0.333930  1.0  -0.2093
  C  C3839  1  0.814870  0.760230  0.260160  1.0  -0.1566
  C  C3840  1  0.847870  0.728330  0.273700  1.0  -0.159
  C  C3841  1  0.739870  0.864230  0.345160  1.0  0.0698
  C  C3842  1  0.823170  0.725430  0.263110  1.0  0.0354
  C  C3843  1  0.706370  0.858230  0.355150  1.0  0.0238
  C  C3844  1  0.807870  0.683530  0.254970  1.0  0.0087
  C  C3845  1  0.676370  0.815630  0.374120  1.0  0.1267
  C  C3846  1  0.758970  0.647830  0.237850  1.0  0.3005
  C  C3847  1  0.642170  0.827830  0.374400  1.0  -0.2065
  C  C3848  1  0.684870  0.795230  0.385110  1.0  0.0257
  C  C3849  1  0.769870  0.613730  0.237750  1.0  -0.1695
  C  C3850  1  0.735470  0.653330  0.226980  1.0  0.0047
  C  C3851  1  0.606370  0.806130  0.383170  1.0  -0.1985
  C  C3852  1  0.649770  0.775130  0.393420  1.0  -0.0418
  C  C3853  1  0.722870  0.786430  0.387530  1.0  -0.0842
  C  C3854  1  0.748270  0.577930  0.228330  1.0  -0.1058
  C  C3855  1  0.714070  0.619230  0.218120  1.0  0.0565
  C  C3856  1  0.723270  0.689730  0.225180  1.0  -0.0869
  C  C3857  1  0.612270  0.781830  0.393640  1.0  0.2303
  C  C3858  1  0.658070  0.745330  0.403070  1.0  -0.1098
  C  C3859  1  0.737670  0.799530  0.399830  1.0  0.2023
  C  C3860  1  0.700170  0.735730  0.386830  1.0  0.0184
  C  C3861  1  0.721170  0.583530  0.217930  1.0  0.1094
  C  C3862  1  0.684070  0.622130  0.208960  1.0  -0.1195
  C  C3863  1  0.674570  0.669430  0.224780  1.0  0.0658
  C  C3864  1  0.741570  0.706530  0.211420  1.0  -0.0458
  C  C3865  1  0.704870  0.780130  0.408830  1.0  -0.0022
  C  C3866  1  0.666470  0.713230  0.395730  1.0  0.2632
  C  C3867  1  0.782070  0.829630  0.403930  1.0  -0.071
  C  C3868  1  0.712470  0.710030  0.378830  1.0  -0.1053
  C  C3869  1  0.652970  0.633430  0.216070  1.0  0.1001
  C  C3870  1  0.718970  0.667330  0.201950  1.0  -0.0454
  C  C3871  1  0.646570  0.681130  0.231960  1.0  -0.0732
  C  C3872  1  0.771470  0.751030  0.207690  1.0  -0.0422
  C  C3873  1  0.546670  0.768830  0.403280  1.0  -0.0606
  C  C3874  1  0.717370  0.792630  0.422830  1.0  -0.1452
  C  C3875  1  0.642970  0.670430  0.397500  1.0  -0.1316
  C  C3876  1  0.788970  0.841630  0.419330  1.0  -0.0139
  C  C3877  1  0.688470  0.664730  0.379730  1.0  -0.0852
  C  C3878  1  0.722170  0.517630  0.207760  1.0  0.0574
  C  C3879  1  0.608070  0.611630  0.214730  1.0  -0.1646
  C  C3880  1  0.729870  0.677830  0.189550  1.0  -0.0913
  C  C3881  1  0.599970  0.658030  0.231430  1.0  -0.1181
  C  C3882  1  0.780570  0.758930  0.194690  1.0  -0.0819
  C  C3883  1  0.512370  0.744330  0.413640  1.0  0.124
  C  C3884  1  0.760870  0.823730  0.426330  1.0  -0.1604
  C  C3885  1  0.652770  0.639630  0.390330  1.0  -0.1347
  C  C3886  1  0.703270  0.491530  0.196030  1.0  0.1297
  C  C3887  1  0.582270  0.625230  0.222130  1.0  -0.1162
  C  C3888  1  0.760970  0.720130  0.185820  1.0  -0.0837
  C  C3889  1  0.523870  0.723030  0.422910  1.0  -0.1099
  C  C3890  1  0.468770  0.741130  0.414800  1.0  -0.2345
  C  C3891  1  0.713970  0.456330  0.192130  1.0  -0.1989
  C  C3892  1  0.681470  0.501930  0.187530  1.0  -0.1212
  C  C3893  1  0.495270  0.699830  0.433240  1.0  -0.1426
  C  C3894  1  0.441870  0.718730  0.424950  1.0  -0.0984
  C  C3895  1  0.697670  0.437330  0.180050  1.0  -0.0863
  C  C3896  1  0.659370  0.474930  0.175540  1.0  -0.1018
  C  C3897  1  0.451370  0.696730  0.433740  1.0  -0.0236
  C  C3898  1  0.672470  0.443630  0.172160  1.0  0.2319
  C  C3899  1  0.419370  0.669830  0.444130  1.0  0.681
  C  C3900  1  0.651270  0.414930  0.161430  1.0  0.6511
  C  C3901  1  0.511030  0.225370  0.649380  1.0  0.5855
  C  C3902  1  0.547630  0.180170  0.621000  1.0  0.598
  C  C3903  1  0.473930  0.215870  0.659600  1.0  -0.1162
  C  C3904  1  0.528630  0.138570  0.612050  1.0  -0.0702
  C  C3905  1  0.471530  0.191770  0.671110  1.0  -0.1667
  C  C3906  1  0.441830  0.228470  0.658450  1.0  -0.0881
  C  C3907  1  0.500330  0.133070  0.600980  1.0  -0.0774
  C  C3908  1  0.532130  0.100970  0.615400  1.0  -0.0717
  C  C3909  1  0.439130  0.183070  0.679500  1.0  -0.1086
  C  C3910  1  0.407730  0.219670  0.667270  1.0  -0.2091
  C  C3911  1  0.481530  0.093570  0.593500  1.0  -0.1566
  C  C3912  1  0.514530  0.061670  0.607040  1.0  -0.1591
  C  C3913  1  0.406530  0.197570  0.678500  1.0  0.0698
  C  C3914  1  0.489830  0.058770  0.596450  1.0  0.0354
  C  C3915  1  0.373030  0.191570  0.688490  1.0  0.0238
  C  C3916  1  0.474530  0.016870  0.588310  1.0  0.0087
  C  C3917  1  0.343030  0.148970  0.707460  1.0  0.1269
  C  C3918  1  0.425630  0.981170  0.571190  1.0  0.3002
  C  C3919  1  0.308830  0.161170  0.707740  1.0  -0.2065
  C  C3920  1  0.351530  0.128570  0.718450  1.0  0.0256
  C  C3921  1  0.436530  0.947070  0.571090  1.0  -0.1695
  C  C3922  1  0.402130  0.986670  0.560320  1.0  0.0047
  C  C3923  1  0.273030  0.139470  0.716510  1.0  -0.1986
  C  C3924  1  0.316430  0.108470  0.726760  1.0  -0.0417
  C  C3925  1  0.389530  0.119770  0.720870  1.0  -0.0841
  C  C3926  1  0.414930  0.911270  0.561670  1.0  -0.1055
  C  C3927  1  0.380730  0.952570  0.551460  1.0  0.0563
  C  C3928  1  0.389930  0.023070  0.558520  1.0  -0.087
  C  C3929  1  0.278930  0.115170  0.726980  1.0  0.2305
  C  C3930  1  0.324730  0.078670  0.736410  1.0  -0.1098
  C  C3931  1  0.404330  0.132870  0.733170  1.0  0.2024
  C  C3932  1  0.366830  0.069070  0.720170  1.0  0.0184
  C  C3933  1  0.387830  0.916870  0.551270  1.0  0.1094
  C  C3934  1  0.350730  0.955470  0.542300  1.0  -0.1195
  C  C3935  1  0.341230  0.002770  0.558120  1.0  0.0658
  C  C3936  1  0.408230  0.039870  0.544760  1.0  -0.0458
  C  C3937  1  0.371530  0.113470  0.742170  1.0  -0.0022
  C  C3938  1  0.333130  0.046570  0.729070  1.0  0.2637
  C  C3939  1  0.448730  0.162970  0.737270  1.0  -0.0711
  C  C3940  1  0.379130  0.043370  0.712170  1.0  -0.1053
  C  C3941  1  0.319630  0.966770  0.549410  1.0  0.1
  C  C3942  1  0.385630  0.000670  0.535290  1.0  -0.0454
  C  C3943  1  0.313230  0.014470  0.565300  1.0  -0.0726
  C  C3944  1  0.438130  0.084370  0.541030  1.0  -0.0423
  C  C3945  1  0.213330  0.102170  0.736620  1.0  -0.0606
  C  C3946  1  0.384030  0.125970  0.756170  1.0  -0.1449
  C  C3947  1  0.309630  0.003770  0.730840  1.0  -0.1315
  C  C3948  1  0.455630  0.174970  0.752670  1.0  -0.0139
  C  C3949  1  0.355130  0.998070  0.713070  1.0  -0.0853
  C  C3950  1  0.388830  0.850970  0.541100  1.0  0.0574
  C  C3951  1  0.274730  0.944970  0.548070  1.0  -0.1646
  C  C3952  1  0.396530  0.011170  0.522890  1.0  -0.1007
  C  C3953  1  0.266630  0.991370  0.564770  1.0  -0.1179
  C  C3954  1  0.447230  0.092270  0.528030  1.0  -0.0836
  C  C3955  1  0.179030  0.077670  0.746980  1.0  0.124
  C  C3956  1  0.427530  0.157070  0.759670  1.0  -0.1603
  C  C3957  1  0.319430  0.972970  0.723670  1.0  -0.1347
  C  C3958  1  0.369930  0.824870  0.529370  1.0  0.1297
  C  C3959  1  0.248930  0.958570  0.555470  1.0  -0.1168
  C  C3960  1  0.427630  0.053470  0.519160  1.0  -0.0877
  C  C3961  1  0.190530  0.056370  0.756250  1.0  -0.1099
  C  C3962  1  0.135430  0.074470  0.748140  1.0  -0.2343
  C  C3963  1  0.380630  0.789670  0.525470  1.0  -0.1988
  C  C3964  1  0.348130  0.835270  0.520870  1.0  -0.1214
  C  C3965  1  0.161930  0.033170  0.766580  1.0  -0.1411
  C  C3966  1  0.108530  0.052070  0.758290  1.0  -0.0983
  C  C3967  1  0.364330  0.770670  0.513390  1.0  -0.0866
  C  C3968  1  0.326030  0.808270  0.508880  1.0  -0.102
  C  C3969  1  0.118030  0.030070  0.767080  1.0  -0.0235
  C  C3970  1  0.339130  0.776970  0.505500  1.0  0.2313
  C  C3971  1  0.086030  0.003170  0.777470  1.0  0.6791
  C  C3972  1  0.317930  0.748270  0.494770  1.0  0.6512
  C  C3973  1  0.441300  0.619000  0.982710  1.0  0.5888
  C  C3974  1  0.486500  0.700800  0.954330  1.0  0.595
  C  C3975  1  0.450800  0.591400  0.992930  1.0  -0.1153
  C  C3976  1  0.528100  0.723400  0.945380  1.0  -0.0712
  C  C3977  1  0.474900  0.613100  0.004440  1.0  -0.1666
  C  C3978  1  0.438200  0.546700  0.991780  1.0  -0.0878
  C  C3979  1  0.533600  0.700600  0.934310  1.0  -0.0793
  C  C3980  1  0.565700  0.764500  0.948730  1.0  -0.0753
  C  C3981  1  0.483600  0.589400  0.012830  1.0  -0.1097
  C  C3982  1  0.447000  0.521400  0.000600  1.0  -0.2122
  C  C3983  1  0.573100  0.721300  0.926830  1.0  -0.1581
  C  C3984  1  0.605000  0.786200  0.940370  1.0  -0.1598
  C  C3985  1  0.469100  0.542300  0.011830  1.0  0.0705
  C  C3986  1  0.607900  0.764400  0.929780  1.0  0.0343
  C  C3987  1  0.475100  0.514800  0.021820  1.0  0.0239
  C  C3988  1  0.649800  0.791000  0.921640  1.0  0.0061
  C  C3989  1  0.517700  0.527400  0.040790  1.0  0.1263
  C  C3990  1  0.685500  0.777800  0.904520  1.0  0.2993
  C  C3991  1  0.505500  0.481000  0.041070  1.0  -0.2028
  C  C3992  1  0.538100  0.556300  0.051780  1.0  0.0244
  C  C3993  1  0.719600  0.822800  0.904420  1.0  -0.167
  C  C3994  1  0.680000  0.748800  0.893650  1.0  0.0032
  C  C3995  1  0.527200  0.466900  0.049840  1.0  -0.1956
  C  C3996  1  0.558200  0.541300  0.060090  1.0  -0.0413
  C  C3997  1  0.546900  0.603100  0.054200  1.0  -0.0856
  C  C3998  1  0.755400  0.837000  0.895000  1.0  -0.1059
  C  C3999  1  0.714100  0.761500  0.884790  1.0  0.0593
  C  C4000  1  0.643600  0.700200  0.891850  1.0  -0.0873
  C  C4001  1  0.551500  0.497100  0.060310  1.0  0.233
  C  C4002  1  0.588000  0.579400  0.069740  1.0  -0.106
  C  C4003  1  0.533800  0.604800  0.066500  1.0  0.2055
  C  C4004  1  0.597600  0.631100  0.053500  1.0  0.0174
  C  C4005  1  0.749800  0.804300  0.884600  1.0  0.1094
  C  C4006  1  0.711200  0.728600  0.875630  1.0  -0.118
  C  C4007  1  0.663900  0.671800  0.891450  1.0  0.0652
  C  C4008  1  0.626800  0.701700  0.878090  1.0  -0.0464
  C  C4009  1  0.553200  0.591400  0.075500  1.0  -0.0027
  C  C4010  1  0.620100  0.619900  0.062400  1.0  0.2636
  C  C4011  1  0.503700  0.619100  0.070600  1.0  -0.0716
  C  C4012  1  0.623300  0.669100  0.045500  1.0  -0.1083
  C  C4013  1  0.699900  0.686200  0.882740  1.0  0.1034
  C  C4014  1  0.666000  0.718300  0.868620  1.0  -0.0463
  C  C4015  1  0.652200  0.632100  0.898630  1.0  -0.0729
  C  C4016  1  0.582300  0.687100  0.874360  1.0  -0.0366
  C  C4017  1  0.564500  0.444500  0.069950  1.0  -0.0601
  C  C4018  1  0.540700  0.591400  0.089500  1.0  -0.1492
  C  C4019  1  0.662900  0.639200  0.064170  1.0  -0.1312
  C  C4020  1  0.491700  0.614000  0.086000  1.0  -0.0097
  C  C4021  1  0.668600  0.690400  0.046400  1.0  -0.0891
  C  C4022  1  0.815700  0.871200  0.874430  1.0  0.0606
  C  C4023  1  0.721700  0.663100  0.881400  1.0  -0.1609
  C  C4024  1  0.655500  0.718700  0.856220  1.0  -0.104
  C  C4025  1  0.675300  0.608600  0.898100  1.0  -0.12
  C  C4026  1  0.574400  0.688300  0.861360  1.0  -0.0858
  C  C4027  1  0.589000  0.434700  0.080310  1.0  0.1247
  C  C4028  1  0.509600  0.603800  0.093000  1.0  -0.1592
  C  C4029  1  0.693700  0.679800  0.057000  1.0  -0.1351
  C  C4030  1  0.841800  0.878400  0.862700  1.0  0.1294
  C  C4031  1  0.708100  0.623700  0.888800  1.0  -0.1192
  C  C4032  1  0.613200  0.707500  0.852490  1.0  -0.0917
  C  C4033  1  0.610300  0.467500  0.089580  1.0  -0.1104
  C  C4034  1  0.592200  0.394300  0.081470  1.0  -0.2341
  C  C4035  1  0.877000  0.924300  0.858800  1.0  -0.1941
  C  C4036  1  0.831400  0.846200  0.854200  1.0  -0.1212
  C  C4037  1  0.633500  0.462100  0.099910  1.0  -0.1386
  C  C4038  1  0.614600  0.389800  0.091620  1.0  -0.0966
  C  C4039  1  0.896000  0.927000  0.846720  1.0  -0.0863
  C  C4040  1  0.858400  0.851100  0.842210  1.0  -0.1004
  C  C4041  1  0.636600  0.421300  0.100410  1.0  -0.024
  C  C4042  1  0.889700  0.895500  0.838830  1.0  0.2294
  C  C4043  1  0.663500  0.416200  0.110800  1.0  0.6805
  C  C4044  1  0.918400  0.903000  0.828100  1.0  0.6522
  C  C4045  1  0.107970  0.952330  0.316040  1.0  0.5887
  C  C4046  1  0.153170  0.034130  0.287660  1.0  0.595
  C  C4047  1  0.117470  0.924730  0.326260  1.0  -0.1152
  C  C4048  1  0.194770  0.056730  0.278710  1.0  -0.0713
  C  C4049  1  0.141570  0.946430  0.337770  1.0  -0.1667
  C  C4050  1  0.104870  0.880030  0.325110  1.0  -0.0881
  C  C4051  1  0.200270  0.033930  0.267640  1.0  -0.0791
  C  C4052  1  0.232370  0.097830  0.282060  1.0  -0.0751
  C  C4053  1  0.150270  0.922730  0.346160  1.0  -0.1096
  C  C4054  1  0.113670  0.854730  0.333930  1.0  -0.2122
  C  C4055  1  0.239770  0.054630  0.260160  1.0  -0.1581
  C  C4056  1  0.271670  0.119530  0.273700  1.0  -0.1596
  C  C4057  1  0.135770  0.875630  0.345160  1.0  0.0705
  C  C4058  1  0.274570  0.097730  0.263110  1.0  0.0342
  C  C4059  1  0.141770  0.848130  0.355150  1.0  0.0239
  C  C4060  1  0.316470  0.124330  0.254970  1.0  0.0061
  C  C4061  1  0.184370  0.860730  0.374120  1.0  0.1263
  C  C4062  1  0.352170  0.111130  0.237850  1.0  0.2994
  C  C4063  1  0.172170  0.814330  0.374400  1.0  -0.2028
  C  C4064  1  0.204770  0.889630  0.385110  1.0  0.0244
  C  C4065  1  0.386270  0.156130  0.237750  1.0  -0.167
  C  C4066  1  0.346670  0.082130  0.226980  1.0  0.0032
  C  C4067  1  0.193870  0.800230  0.383170  1.0  -0.1956
  C  C4068  1  0.224870  0.874630  0.393420  1.0  -0.0413
  C  C4069  1  0.213570  0.936430  0.387530  1.0  -0.0856
  C  C4070  1  0.422070  0.170330  0.228330  1.0  -0.1064
  C  C4071  1  0.380770  0.094830  0.218120  1.0  0.0595
  C  C4072  1  0.310270  0.033530  0.225180  1.0  -0.0873
  C  C4073  1  0.218170  0.830430  0.393640  1.0  0.233
  C  C4074  1  0.254670  0.912730  0.403070  1.0  -0.106
  C  C4075  1  0.200470  0.938130  0.399830  1.0  0.2055
  C  C4076  1  0.264270  0.964430  0.386830  1.0  0.0174
  C  C4077  1  0.416470  0.137630  0.217930  1.0  0.1093
  C  C4078  1  0.377870  0.061930  0.208960  1.0  -0.118
  C  C4079  1  0.330570  0.005130  0.224780  1.0  0.0652
  C  C4080  1  0.293470  0.035030  0.211420  1.0  -0.0464
  C  C4081  1  0.219870  0.924730  0.408830  1.0  -0.0027
  C  C4082  1  0.286770  0.953230  0.395730  1.0  0.2636
  C  C4083  1  0.170370  0.952430  0.403930  1.0  -0.0716
  C  C4084  1  0.289970  0.002430  0.378830  1.0  -0.1083
  C  C4085  1  0.366570  0.019530  0.216070  1.0  0.1035
  C  C4086  1  0.332670  0.051630  0.201950  1.0  -0.0463
  C  C4087  1  0.318870  0.965430  0.231960  1.0  -0.0731
  C  C4088  1  0.248970  0.020430  0.207690  1.0  -0.0374
  C  C4089  1  0.231170  0.777830  0.403280  1.0  -0.0601
  C  C4090  1  0.207370  0.924730  0.422830  1.0  -0.1492
  C  C4091  1  0.329570  0.972530  0.397500  1.0  -0.1312
  C  C4092  1  0.158370  0.947330  0.419330  1.0  -0.0097
  C  C4093  1  0.335270  0.023730  0.379730  1.0  -0.0891
  C  C4094  1  0.482370  0.204530  0.207760  1.0  0.0606
  C  C4095  1  0.388370  0.996430  0.214730  1.0  -0.1609
  C  C4096  1  0.322170  0.052030  0.189550  1.0  -0.0927
  C  C4097  1  0.341970  0.941930  0.231430  1.0  -0.1203
  C  C4098  1  0.241070  0.021630  0.194690  1.0  -0.0834
  C  C4099  1  0.255670  0.768030  0.413640  1.0  0.1247
  C  C4100  1  0.176270  0.937130  0.426330  1.0  -0.1592
  C  C4101  1  0.360370  0.013130  0.390330  1.0  -0.1351
  C  C4102  1  0.508470  0.211730  0.196030  1.0  0.1294
  C  C4103  1  0.374770  0.957030  0.222130  1.0  -0.1185
  C  C4104  1  0.279870  0.040830  0.185820  1.0  -0.0871
  C  C4105  1  0.276970  0.800830  0.422910  1.0  -0.1104
  C  C4106  1  0.258870  0.727630  0.414800  1.0  -0.2341
  C  C4107  1  0.543670  0.257630  0.192130  1.0  -0.1941
  C  C4108  1  0.498070  0.179530  0.187530  1.0  -0.1212
  C  C4109  1  0.300170  0.795430  0.433240  1.0  -0.1386
  C  C4110  1  0.281270  0.723130  0.424950  1.0  -0.0966
  C  C4111  1  0.562670  0.260330  0.180050  1.0  -0.086
  C  C4112  1  0.525070  0.184430  0.175540  1.0  -0.1008
  C  C4113  1  0.303270  0.754630  0.433740  1.0  -0.024
  C  C4114  1  0.556370  0.228830  0.172160  1.0  0.2307
  C  C4115  1  0.330170  0.749530  0.444130  1.0  0.6805
  C  C4116  1  0.585070  0.236330  0.161430  1.0  0.6504
  C  C4117  1  0.774630  0.285670  0.649380  1.0  0.5888
  C  C4118  1  0.819830  0.367470  0.621000  1.0  0.595
  C  C4119  1  0.784130  0.258070  0.659600  1.0  -0.1154
  C  C4120  1  0.861430  0.390070  0.612050  1.0  -0.0712
  C  C4121  1  0.808230  0.279770  0.671110  1.0  -0.1667
  C  C4122  1  0.771530  0.213370  0.658450  1.0  -0.0878
  C  C4123  1  0.866930  0.367270  0.600980  1.0  -0.0793
  C  C4124  1  0.899030  0.431170  0.615400  1.0  -0.0753
  C  C4125  1  0.816930  0.256070  0.679500  1.0  -0.1098
  C  C4126  1  0.780330  0.188070  0.667270  1.0  -0.2122
  C  C4127  1  0.906430  0.387970  0.593500  1.0  -0.1581
  C  C4128  1  0.938330  0.452870  0.607040  1.0  -0.1598
  C  C4129  1  0.802430  0.208970  0.678500  1.0  0.0705
  C  C4130  1  0.941230  0.431070  0.596450  1.0  0.0343
  C  C4131  1  0.808430  0.181470  0.688490  1.0  0.0239
  C  C4132  1  0.983130  0.457670  0.588310  1.0  0.0061
  C  C4133  1  0.851030  0.194070  0.707460  1.0  0.1265
  C  C4134  1  0.018830  0.444470  0.571190  1.0  0.2993
  C  C4135  1  0.838830  0.147670  0.707740  1.0  -0.2029
  C  C4136  1  0.871430  0.222970  0.718450  1.0  0.0244
  C  C4137  1  0.052930  0.489470  0.571090  1.0  -0.167
  C  C4138  1  0.013330  0.415470  0.560320  1.0  0.0032
  C  C4139  1  0.860530  0.133570  0.716510  1.0  -0.1956
  C  C4140  1  0.891530  0.207970  0.726760  1.0  -0.0414
  C  C4141  1  0.880230  0.269770  0.720870  1.0  -0.0856
  C  C4142  1  0.088730  0.503670  0.561670  1.0  -0.1059
  C  C4143  1  0.047430  0.428170  0.551460  1.0  0.0593
  C  C4144  1  0.976930  0.366870  0.558520  1.0  -0.0873
  C  C4145  1  0.884830  0.163770  0.726980  1.0  0.233
  C  C4146  1  0.921330  0.246070  0.736410  1.0  -0.106
  C  C4147  1  0.867130  0.271470  0.733170  1.0  0.2055
  C  C4148  1  0.930930  0.297770  0.720170  1.0  0.0173
  C  C4149  1  0.083130  0.470970  0.551270  1.0  0.1094
  C  C4150  1  0.044530  0.395270  0.542300  1.0  -0.118
  C  C4151  1  0.997230  0.338470  0.558120  1.0  0.0652
  C  C4152  1  0.960130  0.368370  0.544760  1.0  -0.0464
  C  C4153  1  0.886530  0.258070  0.742170  1.0  -0.0027
  C  C4154  1  0.953430  0.286570  0.729070  1.0  0.2642
  C  C4155  1  0.837030  0.285770  0.737270  1.0  -0.0716
  C  C4156  1  0.956630  0.335770  0.712170  1.0  -0.1083
  C  C4157  1  0.033230  0.352870  0.549410  1.0  0.1034
  C  C4158  1  0.999330  0.384970  0.535290  1.0  -0.0463
  C  C4159  1  0.985530  0.298770  0.565300  1.0  -0.0729
  C  C4160  1  0.915630  0.353770  0.541030  1.0  -0.0366
  C  C4161  1  0.897830  0.111170  0.736620  1.0  -0.0601
  C  C4162  1  0.874030  0.258070  0.756170  1.0  -0.1496
  C  C4163  1  0.996230  0.305870  0.730840  1.0  -0.1312
  C  C4164  1  0.825030  0.280670  0.752670  1.0  -0.0097
  C  C4165  1  0.001930  0.357070  0.713070  1.0  -0.089
  C  C4166  1  0.149030  0.537870  0.541100  1.0  0.0606
  C  C4167  1  0.055030  0.329770  0.548070  1.0  -0.1609
  C  C4168  1  0.988830  0.385370  0.522890  1.0  -0.104
  C  C4169  1  0.008630  0.275270  0.564770  1.0  -0.12
  C  C4170  1  0.907730  0.354970  0.528030  1.0  -0.0858
  C  C4171  1  0.922330  0.101370  0.746980  1.0  0.125
  C  C4172  1  0.842930  0.270470  0.759670  1.0  -0.1594
  C  C4173  1  0.027030  0.346470  0.723670  1.0  -0.135
  C  C4174  1  0.175130  0.545070  0.529370  1.0  0.1294
  C  C4175  1  0.041430  0.290370  0.555470  1.0  -0.1192
  C  C4176  1  0.946530  0.374170  0.519160  1.0  -0.0917
  C  C4177  1  0.943630  0.134170  0.756250  1.0  -0.1104
  C  C4178  1  0.925530  0.060970  0.748140  1.0  -0.2343
  C  C4179  1  0.210330  0.590970  0.525470  1.0  -0.1941
  C  C4180  1  0.164730  0.512870  0.520870  1.0  -0.1212
  C  C4181  1  0.966830  0.128770  0.766580  1.0  -0.1372
  C  C4182  1  0.947930  0.056470  0.758290  1.0  -0.0967
  C  C4183  1  0.229330  0.593670  0.513390  1.0  -0.0863
  C  C4184  1  0.191730  0.517770  0.508880  1.0  -0.1004
  C  C4185  1  0.969930  0.087970  0.767080  1.0  -0.0239
  C  C4186  1  0.223030  0.562170  0.505500  1.0  0.2294
  C  C4187  1  0.996830  0.082870  0.777470  1.0  0.6821
  C  C4188  1  0.251730  0.569670  0.494770  1.0  0.6522
  C  C4189  1  0.381000  0.822300  0.982710  1.0  0.5898
  C  C4190  1  0.299200  0.785700  0.954330  1.0  0.5959
  C  C4191  1  0.408600  0.859400  0.992930  1.0  -0.1166
  C  C4192  1  0.276600  0.804700  0.945380  1.0  -0.0693
  C  C4193  1  0.386900  0.861800  0.004440  1.0  -0.1656
  C  C4194  1  0.453300  0.891500  0.991780  1.0  -0.0839
  C  C4195  1  0.299400  0.833000  0.934310  1.0  -0.0793
  C  C4196  1  0.235500  0.801200  0.948730  1.0  -0.0734
  C  C4197  1  0.410600  0.894200  0.012830  1.0  -0.1059
  C  C4198  1  0.478600  0.925600  0.000600  1.0  -0.2075
  C  C4199  1  0.278700  0.851800  0.926830  1.0  -0.1567
  C  C4200  1  0.213800  0.818800  0.940370  1.0  -0.1584
  C  C4201  1  0.457700  0.926800  0.011830  1.0  0.0708
  C  C4202  1  0.235600  0.843500  0.929780  1.0  0.034
  C  C4203  1  0.485200  0.960300  0.021820  1.0  0.0258
  C  C4204  1  0.209000  0.858800  0.921640  1.0  0.0044
  C  C4205  1  0.472600  0.990300  0.040790  1.0  0.1278
  C  C4206  1  0.222200  0.907700  0.904520  1.0  0.2991
  C  C4207  1  0.519000  0.024500  0.041070  1.0  -0.2063
  C  C4208  1  0.443700  0.981800  0.051780  1.0  0.0251
  C  C4209  1  0.177200  0.896800  0.904420  1.0  -0.1724
  C  C4210  1  0.251200  0.931200  0.893650  1.0  0.0034
  C  C4211  1  0.533100  0.060300  0.049840  1.0  -0.1976
  C  C4212  1  0.458700  0.016900  0.060090  1.0  -0.0421
  C  C4213  1  0.396900  0.943800  0.054200  1.0  -0.0869
  C  C4214  1  0.163000  0.918400  0.895000  1.0  -0.1045
  C  C4215  1  0.238500  0.952600  0.884790  1.0  0.0569
  C  C4216  1  0.299800  0.943400  0.891850  1.0  -0.0868
  C  C4217  1  0.502900  0.054400  0.060310  1.0  0.2293
  C  C4218  1  0.420600  0.008600  0.069740  1.0  -0.1068
  C  C4219  1  0.395200  0.929000  0.066500  1.0  0.2069
  C  C4220  1  0.368900  0.966500  0.053500  1.0  0.0131
  C  C4221  1  0.195700  0.945500  0.884600  1.0  0.1084
  C  C4222  1  0.271400  0.982600  0.875630  1.0  -0.1193
  C  C4223  1  0.328200  0.992100  0.891450  1.0  0.0634
  C  C4224  1  0.298300  0.925100  0.878090  1.0  -0.0456
  C  C4225  1  0.408600  0.961800  0.075500  1.0  -0.0017
  C  C4226  1  0.380100  0.000200  0.062400  1.0  0.2652
  C  C4227  1  0.380900  0.884600  0.070600  1.0  -0.0705
  C  C4228  1  0.330900  0.954200  0.045500  1.0  -0.1064
  C  C4229  1  0.313800  0.013700  0.882740  1.0  0.1066
  C  C4230  1  0.281700  0.947700  0.868620  1.0  -0.0453
  C  C4231  1  0.367900  0.020100  0.898630  1.0  -0.0764
  C  C4232  1  0.312900  0.895200  0.874360  1.0  -0.0428
  C  C4233  1  0.555500  0.120000  0.069950  1.0  -0.0607
  C  C4234  1  0.408600  0.949300  0.089500  1.0  -0.1487
  C  C4235  1  0.360800  0.023700  0.064170  1.0  -0.131
  C  C4236  1  0.386000  0.877700  0.086000  1.0  -0.004
  C  C4237  1  0.309600  0.978200  0.046400  1.0  -0.083
  C  C4238  1  0.128800  0.944500  0.874430  1.0  0.0603
  C  C4239  1  0.336900  0.058600  0.881400  1.0  -0.1611
  C  C4240  1  0.281300  0.936800  0.856220  1.0  -0.104
  C  C4241  1  0.391400  0.066700  0.898100  1.0  -0.1153
  C  C4242  1  0.311700  0.886100  0.861360  1.0  -0.0818
  C  C4243  1  0.565300  0.154300  0.080310  1.0  0.1248
  C  C4244  1  0.396200  0.905800  0.093000  1.0  -0.1607
  C  C4245  1  0.320200  0.013900  0.057000  1.0  -0.1318
  C  C4246  1  0.121600  0.963400  0.862700  1.0  0.1285
  C  C4247  1  0.376300  0.084400  0.888800  1.0  -0.1139
  C  C4248  1  0.292500  0.905700  0.852490  1.0  -0.0869
  C  C4249  1  0.532500  0.142800  0.089580  1.0  -0.1097
  C  C4250  1  0.605700  0.197900  0.081470  1.0  -0.234
  C  C4251  1  0.075700  0.952700  0.858800  1.0  -0.1995
  C  C4252  1  0.153800  0.985200  0.854200  1.0  -0.12
  C  C4253  1  0.537900  0.171400  0.099910  1.0  -0.1441
  C  C4254  1  0.610200  0.224800  0.091620  1.0  -0.0962
  C  C4255  1  0.073000  0.969000  0.846720  1.0  -0.0872
  C  C4256  1  0.148900  0.007300  0.842210  1.0  -0.1025
  C  C4257  1  0.578700  0.215300  0.100410  1.0  -0.025
  C  C4258  1  0.104500  0.994200  0.838830  1.0  0.2391
  C  C4259  1  0.583800  0.247300  0.110800  1.0  0.6836
  C  C4260  1  0.097000  0.015400  0.828100  1.0  0.649
  C  C4261  1  0.047670  0.155630  0.316040  1.0  0.59
  C  C4262  1  0.965870  0.119030  0.287660  1.0  0.5959
  C  C4263  1  0.075270  0.192730  0.326260  1.0  -0.1165
  C  C4264  1  0.943270  0.138030  0.278710  1.0  -0.0693
  C  C4265  1  0.053570  0.195130  0.337770  1.0  -0.1656
  C  C4266  1  0.119970  0.224830  0.325110  1.0  -0.0841
  C  C4267  1  0.966070  0.166330  0.267640  1.0  -0.0793
  C  C4268  1  0.902170  0.134530  0.282060  1.0  -0.0732
  C  C4269  1  0.077270  0.227530  0.346160  1.0  -0.1058
  C  C4270  1  0.145270  0.258930  0.333930  1.0  -0.2075
  C  C4271  1  0.945370  0.185130  0.260160  1.0  -0.1567
  C  C4272  1  0.880470  0.152130  0.273700  1.0  -0.1583
  C  C4273  1  0.124370  0.260130  0.345160  1.0  0.0708
  C  C4274  1  0.902270  0.176830  0.263110  1.0  0.0339
  C  C4275  1  0.151870  0.293630  0.355150  1.0  0.0258
  C  C4276  1  0.875670  0.192130  0.254970  1.0  0.0044
  C  C4277  1  0.139270  0.323630  0.374120  1.0  0.1278
  C  C4278  1  0.888870  0.241030  0.237850  1.0  0.2995
  C  C4279  1  0.185670  0.357830  0.374400  1.0  -0.2063
  C  C4280  1  0.110370  0.315130  0.385110  1.0  0.0251
  C  C4281  1  0.843870  0.230130  0.237750  1.0  -0.1724
  C  C4282  1  0.917870  0.264530  0.226980  1.0  0.0034
  C  C4283  1  0.199770  0.393630  0.383170  1.0  -0.1976
  C  C4284  1  0.125370  0.350230  0.393420  1.0  -0.0421
  C  C4285  1  0.063570  0.277130  0.387530  1.0  -0.0869
  C  C4286  1  0.829670  0.251730  0.228330  1.0  -0.1049
  C  C4287  1  0.905170  0.285930  0.218120  1.0  0.057
  C  C4288  1  0.966470  0.276730  0.225180  1.0  -0.0867
  C  C4289  1  0.169570  0.387730  0.393640  1.0  0.2293
  C  C4290  1  0.087270  0.341930  0.403070  1.0  -0.1068
  C  C4291  1  0.061870  0.262330  0.399830  1.0  0.2069
  C  C4292  1  0.035570  0.299830  0.386830  1.0  0.0131
  C  C4293  1  0.862370  0.278830  0.217930  1.0  0.1084
  C  C4294  1  0.938070  0.315930  0.208960  1.0  -0.1193
  C  C4295  1  0.994870  0.325430  0.224780  1.0  0.0634
  C  C4296  1  0.964970  0.258430  0.211420  1.0  -0.0456
  C  C4297  1  0.075270  0.295130  0.408830  1.0  -0.0017
  C  C4298  1  0.046770  0.333530  0.395730  1.0  0.2652
  C  C4299  1  0.047570  0.217930  0.403930  1.0  -0.0705
  C  C4300  1  0.997570  0.287530  0.378830  1.0  -0.1064
  C  C4301  1  0.980470  0.347030  0.216070  1.0  0.1065
  C  C4302  1  0.948370  0.281030  0.201950  1.0  -0.0453
  C  C4303  1  0.034570  0.353430  0.231960  1.0  -0.0762
  C  C4304  1  0.979570  0.228530  0.207690  1.0  -0.0428
  C  C4305  1  0.222170  0.453330  0.403280  1.0  -0.0607
  C  C4306  1  0.075270  0.282630  0.422830  1.0  -0.1487
  C  C4307  1  0.027470  0.357030  0.397500  1.0  -0.131
  C  C4308  1  0.052670  0.211030  0.419330  1.0  -0.004
  C  C4309  1  0.976270  0.311530  0.379730  1.0  -0.083
  C  C4310  1  0.795470  0.277830  0.207760  1.0  0.0603
  C  C4311  1  0.003570  0.391930  0.214730  1.0  -0.1612
  C  C4312  1  0.947970  0.270130  0.189550  1.0  -0.095
  C  C4313  1  0.058070  0.400030  0.231430  1.0  -0.1155
  C  C4314  1  0.978370  0.219430  0.194690  1.0  -0.0807
  C  C4315  1  0.231970  0.487630  0.413640  1.0  0.1248
  C  C4316  1  0.062870  0.239130  0.426330  1.0  -0.1607
  C  C4317  1  0.986870  0.347230  0.390330  1.0  -0.1318
  C  C4318  1  0.788270  0.296730  0.196030  1.0  0.1285
  C  C4319  1  0.042970  0.417730  0.222130  1.0  -0.114
  C  C4320  1  0.959170  0.239030  0.185820  1.0  -0.0826
  C  C4321  1  0.199170  0.476130  0.422910  1.0  -0.1097
  C  C4322  1  0.272370  0.531230  0.414800  1.0  -0.234
  C  C4323  1  0.742370  0.286030  0.192130  1.0  -0.1995
  C  C4324  1  0.820470  0.318530  0.187530  1.0  -0.1199
  C  C4325  1  0.204570  0.504730  0.433240  1.0  -0.1441
  C  C4326  1  0.276870  0.558130  0.424950  1.0  -0.0962
  C  C4327  1  0.739670  0.302330  0.180050  1.0  -0.0871
  C  C4328  1  0.815570  0.340630  0.175540  1.0  -0.1029
  C  C4329  1  0.245370  0.548630  0.433740  1.0  -0.025
  C  C4330  1  0.771170  0.327530  0.172160  1.0  0.2381
  C  C4331  1  0.250470  0.580630  0.444130  1.0  0.6836
  C  C4332  1  0.763670  0.348730  0.161430  1.0  0.6488
  C  C4333  1  0.714330  0.488970  0.649380  1.0  0.5897
  C  C4334  1  0.632530  0.452370  0.621000  1.0  0.5959
  C  C4335  1  0.741930  0.526070  0.659600  1.0  -0.1166
  C  C4336  1  0.609930  0.471370  0.612050  1.0  -0.0693
  C  C4337  1  0.720230  0.528470  0.671110  1.0  -0.1657
  C  C4338  1  0.786630  0.558170  0.658450  1.0  -0.0839
  C  C4339  1  0.632730  0.499670  0.600980  1.0  -0.0793
  C  C4340  1  0.568830  0.467870  0.615400  1.0  -0.0734
  C  C4341  1  0.743930  0.560870  0.679500  1.0  -0.1061
  C  C4342  1  0.811930  0.592270  0.667270  1.0  -0.2076
  C  C4343  1  0.612030  0.518470  0.593500  1.0  -0.1567
  C  C4344  1  0.547130  0.485470  0.607040  1.0  -0.1584
  C  C4345  1  0.791030  0.593470  0.678500  1.0  0.0708
  C  C4346  1  0.568930  0.510170  0.596450  1.0  0.034
  C  C4347  1  0.818530  0.626970  0.688490  1.0  0.0258
  C  C4348  1  0.542330  0.525470  0.588310  1.0  0.0044
  C  C4349  1  0.805930  0.656970  0.707460  1.0  0.1278
  C  C4350  1  0.555530  0.574370  0.571190  1.0  0.2991
  C  C4351  1  0.852330  0.691170  0.707740  1.0  -0.2063
  C  C4352  1  0.777030  0.648470  0.718450  1.0  0.0251
  C  C4353  1  0.510530  0.563470  0.571090  1.0  -0.1724
  C  C4354  1  0.584530  0.597870  0.560320  1.0  0.0034
  C  C4355  1  0.866430  0.726970  0.716510  1.0  -0.1976
  C  C4356  1  0.792030  0.683570  0.726760  1.0  -0.0421
  C  C4357  1  0.730230  0.610470  0.720870  1.0  -0.0869
  C  C4358  1  0.496330  0.585070  0.561670  1.0  -0.1045
  C  C4359  1  0.571830  0.619270  0.551460  1.0  0.0569
  C  C4360  1  0.633130  0.610070  0.558520  1.0  -0.0868
  C  C4361  1  0.836230  0.721070  0.726980  1.0  0.2294
  C  C4362  1  0.753930  0.675270  0.736410  1.0  -0.1068
  C  C4363  1  0.728530  0.595670  0.733170  1.0  0.2069
  C  C4364  1  0.702230  0.633170  0.720170  1.0  0.013
  C  C4365  1  0.529030  0.612170  0.551270  1.0  0.1084
  C  C4366  1  0.604730  0.649270  0.542300  1.0  -0.1193
  C  C4367  1  0.661530  0.658770  0.558120  1.0  0.0634
  C  C4368  1  0.631630  0.591770  0.544760  1.0  -0.0456
  C  C4369  1  0.741930  0.628470  0.742170  1.0  -0.0017
  C  C4370  1  0.713430  0.666870  0.729070  1.0  0.2658
  C  C4371  1  0.714230  0.551270  0.737270  1.0  -0.0706
  C  C4372  1  0.664230  0.620870  0.712170  1.0  -0.1064
  C  C4373  1  0.647130  0.680370  0.549410  1.0  0.1066
  C  C4374  1  0.615030  0.614370  0.535290  1.0  -0.0453
  C  C4375  1  0.701230  0.686770  0.565300  1.0  -0.0764
  C  C4376  1  0.646230  0.561870  0.541030  1.0  -0.0428
  C  C4377  1  0.888830  0.786670  0.736620  1.0  -0.0607
  C  C4378  1  0.741930  0.615970  0.756170  1.0  -0.1485
  C  C4379  1  0.694130  0.690370  0.730840  1.0  -0.1305
  C  C4380  1  0.719330  0.544370  0.752670  1.0  -0.0041
  C  C4381  1  0.642930  0.644870  0.713070  1.0  -0.0831
  C  C4382  1  0.462130  0.611170  0.541100  1.0  0.0603
  C  C4383  1  0.670230  0.725270  0.548070  1.0  -0.1611
  C  C4384  1  0.614630  0.603470  0.522890  1.0  -0.104
  C  C4385  1  0.724730  0.733370  0.564770  1.0  -0.1153
  C  C4386  1  0.645030  0.552770  0.528030  1.0  -0.0818
  C  C4387  1  0.898630  0.820970  0.746980  1.0  0.1248
  C  C4388  1  0.729530  0.572470  0.759670  1.0  -0.1606
  C  C4389  1  0.653530  0.680570  0.723670  1.0  -0.1317
  C  C4390  1  0.454930  0.630070  0.529370  1.0  0.1285
  C  C4391  1  0.709630  0.751070  0.555470  1.0  -0.1139
  C  C4392  1  0.625830  0.572370  0.519160  1.0  -0.0869
  C  C4393  1  0.865830  0.809470  0.756250  1.0  -0.1097
  C  C4394  1  0.939030  0.864570  0.748140  1.0  -0.2342
  C  C4395  1  0.409030  0.619370  0.525470  1.0  -0.1995
  C  C4396  1  0.487130  0.651870  0.520870  1.0  -0.12
  C  C4397  1  0.871230  0.838070  0.766580  1.0  -0.1424
  C  C4398  1  0.943530  0.891470  0.758290  1.0  -0.0961
  C  C4399  1  0.406330  0.635670  0.513390  1.0  -0.0872
  C  C4400  1  0.482230  0.673970  0.508880  1.0  -0.1025
  C  C4401  1  0.912030  0.881970  0.767080  1.0  -0.0249
  C  C4402  1  0.437830  0.660870  0.505500  1.0  0.2391
  C  C4403  1  0.917130  0.913970  0.777470  1.0  0.6817
  C  C4404  1  0.430330  0.682070  0.494770  1.0  0.649
  O  O4405  1  0.722200  0.381700  0.030970  1.0  -0.7003
  O  O4406  1  0.825700  0.418500  0.026340  1.0  -0.5945
  O  O4407  1  0.796400  0.455100  0.049140  1.0  -0.5618
  O  O4408  1  0.784000  0.359400  0.050050  1.0  -0.5895
  O  O4409  1  0.795800  0.455900  0.014660  1.0  -0.5899
  O  O4410  1  0.759700  0.485500  0.036820  1.0  -0.5829
  O  O4411  1  0.708900  0.460900  0.011480  1.0  -0.5765
  O  O4412  1  0.679300  0.387900  0.053890  1.0  -0.6342
  O  O4413  1  0.953900  0.496500  0.967740  1.0  -0.2645
  O  O4414  1  0.887500  0.648900  0.087870  1.0  -0.2763
  O  O4415  1  0.086600  0.572500  0.930940  1.0  -0.3736
  O  O4416  1  0.962600  0.786900  0.124180  1.0  -0.299
  O  O4417  1  0.993400  0.936500  0.175790  1.0  -0.4882
  O  O4418  1  0.388870  0.715030  0.364300  1.0  -0.6947
  O  O4419  1  0.492370  0.751830  0.359670  1.0  -0.5945
  O  O4420  1  0.463070  0.788430  0.382470  1.0  -0.5617
  O  O4421  1  0.450670  0.692730  0.383380  1.0  -0.5895
  O  O4422  1  0.462470  0.789230  0.347990  1.0  -0.5899
  O  O4423  1  0.426370  0.818830  0.370150  1.0  -0.5829
  O  O4424  1  0.375570  0.794230  0.344810  1.0  -0.5767
  O  O4425  1  0.345970  0.721230  0.387220  1.0  -0.6342
  O  O4426  1  0.620570  0.829830  0.301070  1.0  -0.2646
  O  O4427  1  0.554170  0.982230  0.421200  1.0  -0.2763
  O  O4428  1  0.753270  0.905830  0.264270  1.0  -0.3735
  O  O4429  1  0.629270  0.120230  0.457510  1.0  -0.299
  O  O4430  1  0.660070  0.269830  0.509120  1.0  -0.4882
  O  O4431  1  0.055530  0.048370  0.697640  1.0  -0.7003
  O  O4432  1  0.159030  0.085170  0.693010  1.0  -0.5945
  O  O4433  1  0.129730  0.121770  0.715810  1.0  -0.5614
  O  O4434  1  0.117330  0.026070  0.716720  1.0  -0.5897
  O  O4435  1  0.129130  0.122570  0.681330  1.0  -0.5899
  O  O4436  1  0.093030  0.152170  0.703490  1.0  -0.5829
  O  O4437  1  0.042230  0.127570  0.678150  1.0  -0.5766
  O  O4438  1  0.012630  0.054570  0.720560  1.0  -0.6441
  O  O4439  1  0.287230  0.163170  0.634410  1.0  -0.2645
  O  O4440  1  0.220830  0.315570  0.754540  1.0  -0.2763
  O  O4441  1  0.419930  0.239170  0.597610  1.0  -0.3736
  O  O4442  1  0.295930  0.453570  0.790850  1.0  -0.299
  O  O4443  1  0.326730  0.603170  0.842460  1.0  -0.4894
  O  O4444  1  0.618300  0.340500  0.030970  1.0  -0.6938
  O  O4445  1  0.581500  0.407200  0.026340  1.0  -0.5957
  O  O4446  1  0.544900  0.341300  0.049140  1.0  -0.5591
  O  O4447  1  0.640600  0.424600  0.050050  1.0  -0.5911
  O  O4448  1  0.544100  0.339900  0.014660  1.0  -0.5918
  O  O4449  1  0.514500  0.274200  0.036820  1.0  -0.5862
  O  O4450  1  0.539100  0.248000  0.011480  1.0  -0.5718
  O  O4451  1  0.612100  0.291400  0.053890  1.0  -0.6437
  O  O4452  1  0.503500  0.457400  0.967740  1.0  -0.2661
  O  O4453  1  0.351100  0.238600  0.087870  1.0  -0.2779
  O  O4454  1  0.427500  0.514100  0.930940  1.0  -0.3723
  O  O4455  1  0.213100  0.175700  0.124180  1.0  -0.2964
  O  O4456  1  0.063500  0.056900  0.175790  1.0  -0.491
  O  O4457  1  0.284970  0.673830  0.364300  1.0  -0.7072
  O  O4458  1  0.248170  0.740530  0.359670  1.0  -0.5957
  O  O4459  1  0.211570  0.674630  0.382470  1.0  -0.5591
  O  O4460  1  0.307270  0.757930  0.383380  1.0  -0.5911
  O  O4461  1  0.210770  0.673230  0.347990  1.0  -0.5919
  O  O4462  1  0.181170  0.607530  0.370150  1.0  -0.5862
  O  O4463  1  0.205770  0.581330  0.344810  1.0  -0.572
  O  O4464  1  0.278770  0.624730  0.387220  1.0  -0.6437
  O  O4465  1  0.170170  0.790730  0.301070  1.0  -0.2662
  O  O4466  1  0.017770  0.571930  0.421200  1.0  -0.2779
  O  O4467  1  0.094170  0.847430  0.264270  1.0  -0.3723
  O  O4468  1  0.879770  0.509030  0.457510  1.0  -0.2964
  O  O4469  1  0.730170  0.390230  0.509120  1.0  -0.491
  O  O4470  1  0.951630  0.007170  0.697640  1.0  -0.6938
  O  O4471  1  0.914830  0.073870  0.693010  1.0  -0.5957
  O  O4472  1  0.878230  0.007970  0.715810  1.0  -0.5596
  O  O4473  1  0.973930  0.091270  0.716720  1.0  -0.5909
  O  O4474  1  0.877430  0.006570  0.681330  1.0  -0.5917
  O  O4475  1  0.847830  0.940870  0.703490  1.0  -0.5862
  O  O4476  1  0.872430  0.914670  0.678150  1.0  -0.5717
  O  O4477  1  0.945430  0.958070  0.720560  1.0  -0.6428
  O  O4478  1  0.836830  0.124070  0.634410  1.0  -0.2661
  O  O4479  1  0.684430  0.905270  0.754540  1.0  -0.278
  O  O4480  1  0.760830  0.180770  0.597610  1.0  -0.3723
  O  O4481  1  0.546430  0.842370  0.790850  1.0  -0.2965
  O  O4482  1  0.396830  0.723570  0.842460  1.0  -0.4877
  O  O4483  1  0.659500  0.277800  0.030970  1.0  -0.7073
  O  O4484  1  0.592800  0.174300  0.026340  1.0  -0.5941
  O  O4485  1  0.658700  0.203600  0.049140  1.0  -0.5606
  O  O4486  1  0.575400  0.216000  0.050050  1.0  -0.5942
  O  O4487  1  0.660100  0.204200  0.014660  1.0  -0.5908
  O  O4488  1  0.725800  0.240300  0.036820  1.0  -0.5847
  O  O4489  1  0.752000  0.291100  0.011480  1.0  -0.5769
  O  O4490  1  0.708600  0.320700  0.053890  1.0  -0.6433
  O  O4491  1  0.542600  0.046100  0.967740  1.0  -0.2626
  O  O4492  1  0.761400  0.112500  0.087870  1.0  -0.2783
  O  O4493  1  0.485900  0.913400  0.930940  1.0  -0.3705
  O  O4494  1  0.824300  0.037400  0.124180  1.0  -0.2933
  O  O4495  1  0.943100  0.006600  0.175790  1.0  -0.488
  O  O4496  1  0.326170  0.611130  0.364300  1.0  -0.6996
  O  O4497  1  0.259470  0.507630  0.359670  1.0  -0.5941
  O  O4498  1  0.325370  0.536930  0.382470  1.0  -0.5606
  O  O4499  1  0.242070  0.549330  0.383380  1.0  -0.5942
  O  O4500  1  0.326770  0.537530  0.347990  1.0  -0.5907
  O  O4501  1  0.392470  0.573630  0.370150  1.0  -0.5847
  O  O4502  1  0.418670  0.624430  0.344810  1.0  -0.5778
  O  O4503  1  0.375270  0.654030  0.387220  1.0  -0.6433
  O  O4504  1  0.209270  0.379430  0.301070  1.0  -0.2627
  O  O4505  1  0.428070  0.445830  0.421200  1.0  -0.2783
  O  O4506  1  0.152570  0.246730  0.264270  1.0  -0.3704
  O  O4507  1  0.490970  0.370730  0.457510  1.0  -0.2933
  O  O4508  1  0.609770  0.339930  0.509120  1.0  -0.488
  O  O4509  1  0.992830  0.944470  0.697640  1.0  -0.7073
  O  O4510  1  0.926130  0.840970  0.693010  1.0  -0.5941
  O  O4511  1  0.992030  0.870270  0.715810  1.0  -0.5613
  O  O4512  1  0.908730  0.882670  0.716720  1.0  -0.5917
  O  O4513  1  0.993430  0.870870  0.681330  1.0  -0.5906
  O  O4514  1  0.059130  0.906970  0.703490  1.0  -0.5847
  O  O4515  1  0.085330  0.957770  0.678150  1.0  -0.577
  O  O4516  1  0.041930  0.987370  0.720560  1.0  -0.6351
  O  O4517  1  0.875930  0.712770  0.634410  1.0  -0.2626
  O  O4518  1  0.094730  0.779170  0.754540  1.0  -0.2784
  O  O4519  1  0.819230  0.580070  0.597610  1.0  -0.3705
  O  O4520  1  0.157630  0.704070  0.790850  1.0  -0.2933
  O  O4521  1  0.276430  0.673270  0.842460  1.0  -0.4906
  O  O4522  1  0.618300  0.277800  0.530970  1.0  -0.7004
  O  O4523  1  0.581500  0.174300  0.526340  1.0  -0.5944
  O  O4524  1  0.544900  0.203600  0.549140  1.0  -0.56
  O  O4525  1  0.640600  0.216000  0.550050  1.0  -0.5922
  O  O4526  1  0.544100  0.204200  0.514660  1.0  -0.5908
  O  O4527  1  0.514500  0.240300  0.536820  1.0  -0.5835
  O  O4528  1  0.539100  0.291100  0.511480  1.0  -0.5752
  O  O4529  1  0.612100  0.320700  0.553890  1.0  -0.6327
  O  O4530  1  0.503500  0.046100  0.467740  1.0  -0.2642
  O  O4531  1  0.351100  0.112500  0.587870  1.0  -0.2785
  O  O4532  1  0.427500  0.913400  0.430940  1.0  -0.3732
  O  O4533  1  0.213100  0.037400  0.624180  1.0  -0.2921
  O  O4534  1  0.063500  0.006600  0.675790  1.0  -0.4877
  O  O4535  1  0.284970  0.611130  0.864300  1.0  -0.6949
  O  O4536  1  0.248170  0.507630  0.859670  1.0  -0.5944
  O  O4537  1  0.211570  0.536930  0.882470  1.0  -0.56
  O  O4538  1  0.307270  0.549330  0.883380  1.0  -0.5922
  O  O4539  1  0.210770  0.537530  0.847990  1.0  -0.5908
  O  O4540  1  0.181170  0.573630  0.870150  1.0  -0.5835
  O  O4541  1  0.205770  0.624430  0.844810  1.0  -0.5754
  O  O4542  1  0.278770  0.654030  0.887220  1.0  -0.6327
  O  O4543  1  0.170170  0.379430  0.801070  1.0  -0.2643
  O  O4544  1  0.017770  0.445830  0.921200  1.0  -0.2785
  O  O4545  1  0.094170  0.246730  0.764270  1.0  -0.373
  O  O4546  1  0.879770  0.370730  0.957510  1.0  -0.2921
  O  O4547  1  0.730170  0.339930  0.009120  1.0  -0.4877
  O  O4548  1  0.951630  0.944470  0.197640  1.0  -0.7004
  O  O4549  1  0.914830  0.840970  0.193010  1.0  -0.5944
  O  O4550  1  0.878230  0.870270  0.215810  1.0  -0.5593
  O  O4551  1  0.973930  0.882670  0.216720  1.0  -0.5924
  O  O4552  1  0.877430  0.870870  0.181330  1.0  -0.5908
  O  O4553  1  0.847830  0.906970  0.203490  1.0  -0.5835
  O  O4554  1  0.872430  0.957770  0.178150  1.0  -0.5753
  O  O4555  1  0.945430  0.987370  0.220560  1.0  -0.6431
  O  O4556  1  0.836830  0.712770  0.134410  1.0  -0.2642
  O  O4557  1  0.684430  0.779170  0.254540  1.0  -0.2785
  O  O4558  1  0.760830  0.580070  0.097610  1.0  -0.3732
  O  O4559  1  0.546430  0.704070  0.290850  1.0  -0.2921
  O  O4560  1  0.396830  0.673270  0.342460  1.0  -0.4885
  O  O4561  1  0.659500  0.381700  0.530970  1.0  -0.6947
  O  O4562  1  0.592800  0.418500  0.526340  1.0  -0.595
  O  O4563  1  0.658700  0.455100  0.549140  1.0  -0.5606
  O  O4564  1  0.575400  0.359400  0.550050  1.0  -0.5897
  O  O4565  1  0.660100  0.455900  0.514660  1.0  -0.5906
  O  O4566  1  0.725800  0.485500  0.536820  1.0  -0.5839
  O  O4567  1  0.752000  0.460900  0.511480  1.0  -0.5767
  O  O4568  1  0.708600  0.387900  0.553890  1.0  -0.6422
  O  O4569  1  0.542600  0.496500  0.467740  1.0  -0.2638
  O  O4570  1  0.761400  0.648900  0.587870  1.0  -0.2773
  O  O4571  1  0.485900  0.572500  0.430940  1.0  -0.3737
  O  O4572  1  0.824300  0.786900  0.624180  1.0  -0.2946
  O  O4573  1  0.943100  0.936500  0.675790  1.0  -0.492
  O  O4574  1  0.326170  0.715030  0.864300  1.0  -0.7075
  O  O4575  1  0.259470  0.751830  0.859670  1.0  -0.595
  O  O4576  1  0.325370  0.788430  0.882470  1.0  -0.5606
  O  O4577  1  0.242070  0.692730  0.883380  1.0  -0.5897
  O  O4578  1  0.326770  0.789230  0.847990  1.0  -0.5906
  O  O4579  1  0.392470  0.818830  0.870150  1.0  -0.5839
  O  O4580  1  0.418670  0.794230  0.844810  1.0  -0.5764
  O  O4581  1  0.375270  0.721230  0.887220  1.0  -0.6422
  O  O4582  1  0.209270  0.829830  0.801070  1.0  -0.2639
  O  O4583  1  0.428070  0.982230  0.921200  1.0  -0.2773
  O  O4584  1  0.152570  0.905830  0.764270  1.0  -0.3738
  O  O4585  1  0.490970  0.120230  0.957510  1.0  -0.2946
  O  O4586  1  0.609770  0.269830  0.009120  1.0  -0.492
  O  O4587  1  0.992830  0.048370  0.197640  1.0  -0.6947
  O  O4588  1  0.926130  0.085170  0.193010  1.0  -0.595
  O  O4589  1  0.992030  0.121770  0.215810  1.0  -0.5612
  O  O4590  1  0.908730  0.026070  0.216720  1.0  -0.5896
  O  O4591  1  0.993430  0.122570  0.181330  1.0  -0.5905
  O  O4592  1  0.059130  0.152170  0.203490  1.0  -0.5839
  O  O4593  1  0.085330  0.127570  0.178150  1.0  -0.5767
  O  O4594  1  0.041930  0.054570  0.220560  1.0  -0.6421
  O  O4595  1  0.875930  0.163170  0.134410  1.0  -0.2638
  O  O4596  1  0.094730  0.315570  0.254540  1.0  -0.2773
  O  O4597  1  0.819230  0.239170  0.097610  1.0  -0.3737
  O  O4598  1  0.157630  0.453570  0.290850  1.0  -0.2947
  O  O4599  1  0.276430  0.603170  0.342460  1.0  -0.4888
  O  O4600  1  0.722200  0.340500  0.530970  1.0  -0.7076
  O  O4601  1  0.825700  0.407200  0.526340  1.0  -0.5953
  O  O4602  1  0.796400  0.341300  0.549140  1.0  -0.5595
  O  O4603  1  0.784000  0.424600  0.550050  1.0  -0.5926
  O  O4604  1  0.795800  0.339900  0.514660  1.0  -0.5917
  O  O4605  1  0.759700  0.274200  0.536820  1.0  -0.5853
  O  O4606  1  0.708900  0.248000  0.511480  1.0  -0.5742
  O  O4607  1  0.679300  0.291400  0.553890  1.0  -0.6439
  O  O4608  1  0.953900  0.457400  0.467740  1.0  -0.2652
  O  O4609  1  0.887500  0.238600  0.587870  1.0  -0.2767
  O  O4610  1  0.086600  0.514100  0.430940  1.0  -0.3717
  O  O4611  1  0.962600  0.175700  0.624180  1.0  -0.2985
  O  O4612  1  0.993400  0.056900  0.675790  1.0  -0.4884
  O  O4613  1  0.388870  0.673830  0.864300  1.0  -0.6996
  O  O4614  1  0.492370  0.740530  0.859670  1.0  -0.5953
  O  O4615  1  0.463070  0.674630  0.882470  1.0  -0.5595
  O  O4616  1  0.450670  0.757930  0.883380  1.0  -0.5926
  O  O4617  1  0.462470  0.673230  0.847990  1.0  -0.5916
  O  O4618  1  0.426370  0.607530  0.870150  1.0  -0.5853
  O  O4619  1  0.375570  0.581330  0.844810  1.0  -0.5751
  O  O4620  1  0.345970  0.624730  0.887220  1.0  -0.6438
  O  O4621  1  0.620570  0.790730  0.801070  1.0  -0.2653
  O  O4622  1  0.554170  0.571930  0.921200  1.0  -0.2767
  O  O4623  1  0.753270  0.847430  0.764270  1.0  -0.3716
  O  O4624  1  0.629270  0.509030  0.957510  1.0  -0.2985
  O  O4625  1  0.660070  0.390230  0.009120  1.0  -0.4884
  O  O4626  1  0.055530  0.007170  0.197640  1.0  -0.7076
  O  O4627  1  0.159030  0.073870  0.193010  1.0  -0.5953
  O  O4628  1  0.129730  0.007970  0.215810  1.0  -0.5597
  O  O4629  1  0.117330  0.091270  0.216720  1.0  -0.5903
  O  O4630  1  0.129130  0.006570  0.181330  1.0  -0.5915
  O  O4631  1  0.093030  0.940870  0.203490  1.0  -0.5853
  O  O4632  1  0.042230  0.914670  0.178150  1.0  -0.5743
  O  O4633  1  0.012630  0.958070  0.220560  1.0  -0.6367
  O  O4634  1  0.287230  0.124070  0.134410  1.0  -0.2652
  O  O4635  1  0.220830  0.905270  0.254540  1.0  -0.2768
  O  O4636  1  0.419930  0.180770  0.097610  1.0  -0.3717
  O  O4637  1  0.295930  0.842370  0.290850  1.0  -0.2986
  O  O4638  1  0.326730  0.723570  0.342460  1.0  -0.4908
  O  O4639  1  0.381700  0.722200  0.469030  1.0  -0.6989
  O  O4640  1  0.418500  0.825700  0.473660  1.0  -0.5948
  O  O4641  1  0.455100  0.796400  0.450860  1.0  -0.5615
  O  O4642  1  0.359400  0.784000  0.449950  1.0  -0.593
  O  O4643  1  0.455900  0.795800  0.485340  1.0  -0.5911
  O  O4644  1  0.485500  0.759700  0.463180  1.0  -0.5848
  O  O4645  1  0.460900  0.708900  0.488520  1.0  -0.5787
  O  O4646  1  0.387900  0.679300  0.446110  1.0  -0.6343
  O  O4647  1  0.496500  0.953900  0.532260  1.0  -0.2631
  O  O4648  1  0.648900  0.887500  0.412130  1.0  -0.2752
  O  O4649  1  0.572500  0.086600  0.569060  1.0  -0.3715
  O  O4650  1  0.786900  0.962600  0.375820  1.0  -0.2929
  O  O4651  1  0.936500  0.993400  0.324210  1.0  -0.488
  O  O4652  1  0.048370  0.055530  0.802360  1.0  -0.6989
  O  O4653  1  0.085170  0.159030  0.806990  1.0  -0.5948
  O  O4654  1  0.121770  0.129730  0.784190  1.0  -0.5616
  O  O4655  1  0.026070  0.117330  0.783280  1.0  -0.5933
  O  O4656  1  0.122570  0.129130  0.818670  1.0  -0.5911
  O  O4657  1  0.152170  0.093030  0.796510  1.0  -0.5849
  O  O4658  1  0.127570  0.042230  0.821850  1.0  -0.5789
  O  O4659  1  0.054570  0.012630  0.779440  1.0  -0.6449
  O  O4660  1  0.163170  0.287230  0.865590  1.0  -0.2631
  O  O4661  1  0.315570  0.220830  0.745460  1.0  -0.2752
  O  O4662  1  0.239170  0.419930  0.902390  1.0  -0.3715
  O  O4663  1  0.453570  0.295930  0.709150  1.0  -0.2929
  O  O4664  1  0.603170  0.326730  0.657540  1.0  -0.489
  O  O4665  1  0.715030  0.388870  0.135700  1.0  -0.6934
  O  O4666  1  0.751830  0.492370  0.140330  1.0  -0.5948
  O  O4667  1  0.788430  0.463070  0.117530  1.0  -0.5615
  O  O4668  1  0.692730  0.450670  0.116620  1.0  -0.593
  O  O4669  1  0.789230  0.462470  0.152010  1.0  -0.5911
  O  O4670  1  0.818830  0.426370  0.129850  1.0  -0.5847
  O  O4671  1  0.794230  0.375570  0.155190  1.0  -0.5788
  O  O4672  1  0.721230  0.345970  0.112780  1.0  -0.6343
  O  O4673  1  0.829830  0.620570  0.198930  1.0  -0.2631
  O  O4674  1  0.982230  0.554170  0.078800  1.0  -0.2752
  O  O4675  1  0.905830  0.753270  0.235730  1.0  -0.3714
  O  O4676  1  0.120230  0.629270  0.042490  1.0  -0.2929
  O  O4677  1  0.269830  0.660070  0.990880  1.0  -0.488
  O  O4678  1  0.340500  0.618300  0.469030  1.0  -0.6936
  O  O4679  1  0.407200  0.581500  0.473660  1.0  -0.5943
  O  O4680  1  0.341300  0.544900  0.450860  1.0  -0.5622
  O  O4681  1  0.424600  0.640600  0.449950  1.0  -0.5899
  O  O4682  1  0.339900  0.544100  0.485340  1.0  -0.5895
  O  O4683  1  0.274200  0.514500  0.463180  1.0  -0.5827
  O  O4684  1  0.248000  0.539100  0.488520  1.0  -0.575
  O  O4685  1  0.291400  0.612100  0.446110  1.0  -0.6423
  O  O4686  1  0.457400  0.503500  0.532260  1.0  -0.2665
  O  O4687  1  0.238600  0.351100  0.412130  1.0  -0.2748
  O  O4688  1  0.514100  0.427500  0.569060  1.0  -0.3748
  O  O4689  1  0.175700  0.213100  0.375820  1.0  -0.2954
  O  O4690  1  0.056900  0.063500  0.324210  1.0  -0.4923
  O  O4691  1  0.007170  0.951630  0.802360  1.0  -0.6936
  O  O4692  1  0.073870  0.914830  0.806990  1.0  -0.5943
  O  O4693  1  0.007970  0.878230  0.784190  1.0  -0.5621
  O  O4694  1  0.091270  0.973930  0.783280  1.0  -0.5898
  O  O4695  1  0.006570  0.877430  0.818670  1.0  -0.5893
  O  O4696  1  0.940870  0.847830  0.796510  1.0  -0.5827
  O  O4697  1  0.914670  0.872430  0.821850  1.0  -0.575
  O  O4698  1  0.958070  0.945430  0.779440  1.0  -0.6429
  O  O4699  1  0.124070  0.836830  0.865590  1.0  -0.2665
  O  O4700  1  0.905270  0.684430  0.745460  1.0  -0.2748
  O  O4701  1  0.180770  0.760830  0.902390  1.0  -0.3748
  O  O4702  1  0.842370  0.546430  0.709150  1.0  -0.2955
  O  O4703  1  0.723570  0.396830  0.657540  1.0  -0.4888
  O  O4704  1  0.673830  0.284970  0.135700  1.0  -0.7065
  O  O4705  1  0.740530  0.248170  0.140330  1.0  -0.5943
  O  O4706  1  0.674630  0.211570  0.117530  1.0  -0.5622
  O  O4707  1  0.757930  0.307270  0.116620  1.0  -0.5899
  O  O4708  1  0.673230  0.210770  0.152010  1.0  -0.5895
  O  O4709  1  0.607530  0.181170  0.129850  1.0  -0.5828
  O  O4710  1  0.581330  0.205770  0.155190  1.0  -0.5752
  O  O4711  1  0.624730  0.278770  0.112780  1.0  -0.6423
  O  O4712  1  0.790730  0.170170  0.198930  1.0  -0.2666
  O  O4713  1  0.571930  0.017770  0.078800  1.0  -0.2748
  O  O4714  1  0.847430  0.094170  0.235730  1.0  -0.3749
  O  O4715  1  0.509030  0.879770  0.042490  1.0  -0.2954
  O  O4716  1  0.390230  0.730170  0.990880  1.0  -0.4923
  O  O4717  1  0.277800  0.659500  0.469030  1.0  -0.7055
  O  O4718  1  0.174300  0.592800  0.473660  1.0  -0.5971
  O  O4719  1  0.203600  0.658700  0.450860  1.0  -0.5603
  O  O4720  1  0.216000  0.575400  0.449950  1.0  -0.5929
  O  O4721  1  0.204200  0.660100  0.485340  1.0  -0.5911
  O  O4722  1  0.240300  0.725800  0.463180  1.0  -0.5867
  O  O4723  1  0.291100  0.752000  0.488520  1.0  -0.5732
  O  O4724  1  0.320700  0.708600  0.446110  1.0  -0.6424
  O  O4725  1  0.046100  0.542600  0.532260  1.0  -0.2642
  O  O4726  1  0.112500  0.761400  0.412130  1.0  -0.2775
  O  O4727  1  0.913400  0.485900  0.569060  1.0  -0.3713
  O  O4728  1  0.037400  0.824300  0.375820  1.0  -0.2949
  O  O4729  1  0.006600  0.943100  0.324210  1.0  -0.4901
  O  O4730  1  0.944470  0.992830  0.802360  1.0  -0.7055
  O  O4731  1  0.840970  0.926130  0.806990  1.0  -0.5971
  O  O4732  1  0.870270  0.992030  0.784190  1.0  -0.5607
  O  O4733  1  0.882670  0.908730  0.783280  1.0  -0.5907
  O  O4734  1  0.870870  0.993430  0.818670  1.0  -0.5909
  O  O4735  1  0.906970  0.059130  0.796510  1.0  -0.5867
  O  O4736  1  0.957770  0.085330  0.821850  1.0  -0.5733
  O  O4737  1  0.987370  0.041930  0.779440  1.0  -0.6363
  O  O4738  1  0.712770  0.875930  0.865590  1.0  -0.2642
  O  O4739  1  0.779170  0.094730  0.745460  1.0  -0.2775
  O  O4740  1  0.580070  0.819230  0.902390  1.0  -0.3713
  O  O4741  1  0.704070  0.157630  0.709150  1.0  -0.295
  O  O4742  1  0.673270  0.276430  0.657540  1.0  -0.4928
  O  O4743  1  0.611130  0.326170  0.135700  1.0  -0.6979
  O  O4744  1  0.507630  0.259470  0.140330  1.0  -0.5971
  O  O4745  1  0.536930  0.325370  0.117530  1.0  -0.5603
  O  O4746  1  0.549330  0.242070  0.116620  1.0  -0.5929
  O  O4747  1  0.537530  0.326770  0.152010  1.0  -0.591
  O  O4748  1  0.573630  0.392470  0.129850  1.0  -0.5866
  O  O4749  1  0.624430  0.418670  0.155190  1.0  -0.5742
  O  O4750  1  0.654030  0.375270  0.112780  1.0  -0.6424
  O  O4751  1  0.379430  0.209270  0.198930  1.0  -0.2643
  O  O4752  1  0.445830  0.428070  0.078800  1.0  -0.2775
  O  O4753  1  0.246730  0.152570  0.235730  1.0  -0.3711
  O  O4754  1  0.370730  0.490970  0.042490  1.0  -0.2949
  O  O4755  1  0.339930  0.609770  0.990880  1.0  -0.4901
  O  O4756  1  0.277800  0.618300  0.969030  1.0  -0.6992
  O  O4757  1  0.174300  0.581500  0.973660  1.0  -0.5945
  O  O4758  1  0.203600  0.544900  0.950860  1.0  -0.5611
  O  O4759  1  0.216000  0.640600  0.949950  1.0  -0.5906
  O  O4760  1  0.204200  0.544100  0.985340  1.0  -0.5903
  O  O4761  1  0.240300  0.514500  0.963180  1.0  -0.5831
  O  O4762  1  0.291100  0.539100  0.988520  1.0  -0.5761
  O  O4763  1  0.320700  0.612100  0.946110  1.0  -0.6352
  O  O4764  1  0.046100  0.503500  0.032260  1.0  -0.265
  O  O4765  1  0.112500  0.351100  0.912130  1.0  -0.2756
  O  O4766  1  0.913400  0.427500  0.069060  1.0  -0.3723
  O  O4767  1  0.037400  0.213100  0.875820  1.0  -0.2926
  O  O4768  1  0.006600  0.063500  0.824210  1.0  -0.4888
  O  O4769  1  0.944470  0.951630  0.302360  1.0  -0.6992
  O  O4770  1  0.840970  0.914830  0.306990  1.0  -0.5945
  O  O4771  1  0.870270  0.878230  0.284190  1.0  -0.5613
  O  O4772  1  0.882670  0.973930  0.283280  1.0  -0.5908
  O  O4773  1  0.870870  0.877430  0.318670  1.0  -0.5903
  O  O4774  1  0.906970  0.847830  0.296510  1.0  -0.5831
  O  O4775  1  0.957770  0.872430  0.321850  1.0  -0.5763
  O  O4776  1  0.987370  0.945430  0.279440  1.0  -0.6451
  O  O4777  1  0.712770  0.836830  0.365590  1.0  -0.265
  O  O4778  1  0.779170  0.684430  0.245460  1.0  -0.2757
  O  O4779  1  0.580070  0.760830  0.402390  1.0  -0.3723
  O  O4780  1  0.704070  0.546430  0.209150  1.0  -0.2926
  O  O4781  1  0.673270  0.396830  0.157540  1.0  -0.49
  O  O4782  1  0.611130  0.284970  0.635700  1.0  -0.6937
  O  O4783  1  0.507630  0.248170  0.640330  1.0  -0.5945
  O  O4784  1  0.536930  0.211570  0.617530  1.0  -0.5611
  O  O4785  1  0.549330  0.307270  0.616620  1.0  -0.5906
  O  O4786  1  0.537530  0.210770  0.652010  1.0  -0.5903
  O  O4787  1  0.573630  0.181170  0.629850  1.0  -0.583
  O  O4788  1  0.624430  0.205770  0.655190  1.0  -0.5765
  O  O4789  1  0.654030  0.278770  0.612780  1.0  -0.6352
  O  O4790  1  0.379430  0.170170  0.698930  1.0  -0.2651
  O  O4791  1  0.445830  0.017770  0.578800  1.0  -0.2756
  O  O4792  1  0.246730  0.094170  0.735730  1.0  -0.3722
  O  O4793  1  0.370730  0.879770  0.542490  1.0  -0.2926
  O  O4794  1  0.339930  0.730170  0.490880  1.0  -0.4888
  O  O4795  1  0.381700  0.659500  0.969030  1.0  -0.6927
  O  O4796  1  0.418500  0.592800  0.973660  1.0  -0.5972
  O  O4797  1  0.455100  0.658700  0.950860  1.0  -0.5608
  O  O4798  1  0.359400  0.575400  0.949950  1.0  -0.5904
  O  O4799  1  0.455900  0.660100  0.985340  1.0  -0.5907
  O  O4800  1  0.485500  0.725800  0.963180  1.0  -0.5841
  O  O4801  1  0.460900  0.752000  0.988520  1.0  -0.5756
  O  O4802  1  0.387900  0.708600  0.946110  1.0  -0.643
  O  O4803  1  0.496500  0.542600  0.032260  1.0  -0.2638
  O  O4804  1  0.648900  0.761400  0.912130  1.0  -0.276
  O  O4805  1  0.572500  0.485900  0.069060  1.0  -0.3718
  O  O4806  1  0.786900  0.824300  0.875820  1.0  -0.2962
  O  O4807  1  0.936500  0.943100  0.824210  1.0  -0.492
  O  O4808  1  0.048370  0.992830  0.302360  1.0  -0.6927
  O  O4809  1  0.085170  0.926130  0.306990  1.0  -0.5972
  O  O4810  1  0.121770  0.992030  0.284190  1.0  -0.5607
  O  O4811  1  0.026070  0.908730  0.283280  1.0  -0.5903
  O  O4812  1  0.122570  0.993430  0.318670  1.0  -0.5906
  O  O4813  1  0.152170  0.059130  0.296510  1.0  -0.5841
  O  O4814  1  0.127570  0.085330  0.321850  1.0  -0.5755
  O  O4815  1  0.054570  0.041930  0.279440  1.0  -0.6416
  O  O4816  1  0.163170  0.875930  0.365590  1.0  -0.2638
  O  O4817  1  0.315570  0.094730  0.245460  1.0  -0.2761
  O  O4818  1  0.239170  0.819230  0.402390  1.0  -0.3718
  O  O4819  1  0.453570  0.157630  0.209150  1.0  -0.2963
  O  O4820  1  0.603170  0.276430  0.157540  1.0  -0.4886
  O  O4821  1  0.715030  0.326170  0.635700  1.0  -0.706
  O  O4822  1  0.751830  0.259470  0.640330  1.0  -0.5972
  O  O4823  1  0.788430  0.325370  0.617530  1.0  -0.5607
  O  O4824  1  0.692730  0.242070  0.616620  1.0  -0.5904
  O  O4825  1  0.789230  0.326770  0.652010  1.0  -0.5907
  O  O4826  1  0.818830  0.392470  0.629850  1.0  -0.584
  O  O4827  1  0.794230  0.418670  0.655190  1.0  -0.5752
  O  O4828  1  0.721230  0.375270  0.612780  1.0  -0.643
  O  O4829  1  0.829830  0.209270  0.698930  1.0  -0.2639
  O  O4830  1  0.982230  0.428070  0.578800  1.0  -0.276
  O  O4831  1  0.905830  0.152570  0.735730  1.0  -0.3719
  O  O4832  1  0.120230  0.490970  0.542490  1.0  -0.2962
  O  O4833  1  0.269830  0.609770  0.490880  1.0  -0.492
  O  O4834  1  0.340500  0.722200  0.969030  1.0  -0.7066
  O  O4835  1  0.407200  0.825700  0.973660  1.0  -0.5946
  O  O4836  1  0.341300  0.796400  0.950860  1.0  -0.5604
  O  O4837  1  0.424600  0.784000  0.949950  1.0  -0.5943
  O  O4838  1  0.339900  0.795800  0.985340  1.0  -0.5904
  O  O4839  1  0.274200  0.759700  0.963180  1.0  -0.5833
  O  O4840  1  0.248000  0.708900  0.988520  1.0  -0.576
  O  O4841  1  0.291400  0.679300  0.946110  1.0  -0.6421
  O  O4842  1  0.457400  0.953900  0.032260  1.0  -0.2644
  O  O4843  1  0.238600  0.887500  0.912130  1.0  -0.2767
  O  O4844  1  0.514100  0.086600  0.069060  1.0  -0.3735
  O  O4845  1  0.175700  0.962600  0.875820  1.0  -0.2926
  O  O4846  1  0.056900  0.993400  0.824210  1.0  -0.4894
  O  O4847  1  0.007170  0.055530  0.302360  1.0  -0.7066
  O  O4848  1  0.073870  0.159030  0.306990  1.0  -0.5946
  O  O4849  1  0.007970  0.129730  0.284190  1.0  -0.5608
  O  O4850  1  0.091270  0.117330  0.283280  1.0  -0.5922
  O  O4851  1  0.006570  0.129130  0.318670  1.0  -0.5903
  O  O4852  1  0.940870  0.093030  0.296510  1.0  -0.5833
  O  O4853  1  0.914670  0.042230  0.321850  1.0  -0.576
  O  O4854  1  0.958070  0.012630  0.279440  1.0  -0.6337
  O  O4855  1  0.124070  0.287230  0.365590  1.0  -0.2644
  O  O4856  1  0.905270  0.220830  0.245460  1.0  -0.2768
  O  O4857  1  0.180770  0.419930  0.402390  1.0  -0.3735
  O  O4858  1  0.842370  0.295930  0.209150  1.0  -0.2927
  O  O4859  1  0.723570  0.326730  0.157540  1.0  -0.4918
  O  O4860  1  0.673830  0.388870  0.635700  1.0  -0.6995
  O  O4861  1  0.740530  0.492370  0.640330  1.0  -0.5946
  O  O4862  1  0.674630  0.463070  0.617530  1.0  -0.5604
  O  O4863  1  0.757930  0.450670  0.616620  1.0  -0.5943
  O  O4864  1  0.673230  0.462470  0.652010  1.0  -0.5904
  O  O4865  1  0.607530  0.426370  0.629850  1.0  -0.5833
  O  O4866  1  0.581330  0.375570  0.655190  1.0  -0.577
  O  O4867  1  0.624730  0.345970  0.612780  1.0  -0.6421
  O  O4868  1  0.790730  0.620570  0.698930  1.0  -0.2645
  O  O4869  1  0.571930  0.554170  0.578800  1.0  -0.2767
  O  O4870  1  0.847430  0.753270  0.735730  1.0  -0.3734
  O  O4871  1  0.509030  0.629270  0.542490  1.0  -0.2926
  O  O4872  1  0.390230  0.660070  0.490880  1.0  -0.4894
