# generated using pymatgen
data_Zn11P12H96C168N12O73
_symmetry_space_group_name_H-M   'P 1'
_cell_length_a   34.00110000
_cell_length_b   34.00110000
_cell_length_c   54.95950000
_cell_angle_alpha   71.98120000
_cell_angle_beta   71.98120000
_cell_angle_gamma   60.00000000
_symmetry_Int_Tables_number   1
_chemical_formula_structural   Zn11P12H96C168N12O73
_chemical_formula_sum   'Zn44 P48 H384 C672 N48 O292'
_cell_volume   51395.17239424
_cell_formula_units_Z   4
loop_
 _symmetry_equiv_pos_site_id
 _symmetry_equiv_pos_as_xyz
  1  'x, y, z'
loop_
 _atom_site_type_symbol
 _atom_site_label
 _atom_site_symmetry_multiplicity
 _atom_site_fract_x
 _atom_site_fract_y
 _atom_site_fract_z
 _atom_site_occupancy
 _atom_site_charge
  Zn  Zn1  1  0.788710  0.896020  0.471800  1.0  1.0142
  Zn  Zn2  1  0.383480  0.383480  0.849560  1.0  0.8988
  Zn  Zn3  1  0.603980  0.711290  0.028200  1.0  1.0148
  Zn  Zn4  1  0.017980  0.163930  0.506150  1.0  1.1003
  Zn  Zn5  1  0.575820  0.077510  0.716800  1.0  1.1132
  Zn  Zn6  1  0.883480  0.883480  0.349560  1.0  0.8529
  Zn  Zn7  1  0.688060  0.982020  0.493850  1.0  1.1026
  Zn  Zn8  1  0.924180  0.870130  0.783200  1.0  1.1047
  Zn  Zn9  1  0.288710  0.343470  0.971800  1.0  1.0131
  Zn  Zn10  1  0.211290  0.103980  0.528200  1.0  1.0139
  Zn  Zn11  1  0.424180  0.922490  0.283200  1.0  1.1123
  Zn  Zn12  1  0.811940  0.663930  0.006150  1.0  1.1008
  Zn  Zn13  1  0.140330  0.140330  0.579010  1.0  1.0205
  Zn  Zn14  1  0.422490  0.924180  0.783200  1.0  1.1128
  Zn  Zn15  1  0.616520  0.616520  0.150440  1.0  0.8844
  Zn  Zn16  1  0.711290  0.656530  0.028200  1.0  1.0132
  Zn  Zn17  1  0.396020  0.288710  0.971800  1.0  1.0149
  Zn  Zn18  1  0.629870  0.575820  0.716800  1.0  1.1124
  Zn  Zn19  1  0.896020  0.843470  0.471800  1.0  1.013
  Zn  Zn20  1  0.870130  0.422490  0.783200  1.0  1.1093
  Zn  Zn21  1  0.482020  0.188060  0.993850  1.0  1.1018
  Zn  Zn22  1  0.859670  0.859670  0.420990  1.0  1.0211
  Zn  Zn23  1  0.370130  0.424180  0.283200  1.0  1.1129
  Zn  Zn24  1  0.663930  0.517980  0.006150  1.0  1.1021
  Zn  Zn25  1  0.129870  0.577510  0.216800  1.0  1.1088
  Zn  Zn26  1  0.656530  0.603980  0.028200  1.0  1.0153
  Zn  Zn27  1  0.077510  0.629870  0.716800  1.0  1.1121
  Zn  Zn28  1  0.343470  0.396020  0.971800  1.0  1.0148
  Zn  Zn29  1  0.640330  0.640330  0.079010  1.0  1.0205
  Zn  Zn30  1  0.311940  0.017980  0.506150  1.0  1.1024
  Zn  Zn31  1  0.517980  0.811940  0.006150  1.0  1.1027
  Zn  Zn32  1  0.188060  0.336070  0.993850  1.0  1.1009
  Zn  Zn33  1  0.116520  0.116520  0.650440  1.0  0.844
  Zn  Zn34  1  0.103980  0.156530  0.528200  1.0  1.0128
  Zn  Zn35  1  0.843470  0.788710  0.471800  1.0  1.0155
  Zn  Zn36  1  0.336070  0.482020  0.993850  1.0  1.1024
  Zn  Zn37  1  0.359670  0.359670  0.920990  1.0  1.0211
  Zn  Zn38  1  0.163930  0.311940  0.506150  1.0  1.1025
  Zn  Zn39  1  0.156530  0.211290  0.528200  1.0  1.0146
  Zn  Zn40  1  0.982020  0.836070  0.493850  1.0  1.1001
  Zn  Zn41  1  0.577510  0.075820  0.216800  1.0  1.1135
  Zn  Zn42  1  0.075820  0.129870  0.216800  1.0  1.1049
  Zn  Zn43  1  0.922490  0.370130  0.283200  1.0  1.1109
  Zn  Zn44  1  0.836070  0.688060  0.493850  1.0  1.1023
  P  P45  1  0.289800  0.239600  0.141900  1.0  1.372
  P  P46  1  0.855560  0.348460  0.624020  1.0  1.4507
  P  P47  1  0.210200  0.171300  0.358100  1.0  1.3477
  P  P48  1  0.847910  0.137610  0.422270  1.0  1.4997
  P  P49  1  0.151540  0.644440  0.875980  1.0  1.4486
  P  P50  1  0.152090  0.862390  0.577730  1.0  1.4989
  P  P51  1  0.602910  0.415710  0.882970  1.0  1.4807
  P  P52  1  0.901590  0.397090  0.117030  1.0  1.481
  P  P53  1  0.407790  0.152090  0.577730  1.0  1.4992
  P  P54  1  0.102910  0.598410  0.382970  1.0  1.4782
  P  P55  1  0.710200  0.760400  0.858100  1.0  1.3724
  P  P56  1  0.789800  0.828700  0.641900  1.0  1.3486
  P  P57  1  0.171300  0.260400  0.358100  1.0  1.3782
  P  P58  1  0.092210  0.637610  0.922270  1.0  1.5002
  P  P59  1  0.328700  0.289800  0.141900  1.0  1.3482
  P  P60  1  0.239600  0.328700  0.141900  1.0  1.3777
  P  P61  1  0.907790  0.362390  0.077730  1.0  1.4992
  P  P62  1  0.828700  0.739600  0.641900  1.0  1.3786
  P  P63  1  0.328040  0.151540  0.875980  1.0  1.4482
  P  P64  1  0.362390  0.652090  0.077730  1.0  1.4996
  P  P65  1  0.671300  0.710200  0.858100  1.0  1.3474
  P  P66  1  0.897090  0.401590  0.617030  1.0  1.4811
  P  P67  1  0.739600  0.789800  0.641900  1.0  1.371
  P  P68  1  0.760400  0.671300  0.858100  1.0  1.3786
  P  P69  1  0.355560  0.671960  0.124020  1.0  1.4504
  P  P70  1  0.415710  0.098410  0.882970  1.0  1.4803
  P  P71  1  0.644440  0.328040  0.875980  1.0  1.4496
  P  P72  1  0.137610  0.592210  0.422270  1.0  1.4996
  P  P73  1  0.828040  0.144440  0.375980  1.0  1.4461
  P  P74  1  0.171960  0.855560  0.624020  1.0  1.451
  P  P75  1  0.347910  0.092210  0.922270  1.0  1.4969
  P  P76  1  0.671960  0.848460  0.124020  1.0  1.4517
  P  P77  1  0.848460  0.355560  0.124020  1.0  1.45
  P  P78  1  0.592210  0.847910  0.422270  1.0  1.4952
  P  P79  1  0.260400  0.210200  0.358100  1.0  1.3722
  P  P80  1  0.862390  0.407790  0.577730  1.0  1.4977
  P  P81  1  0.598410  0.915710  0.382970  1.0  1.4811
  P  P82  1  0.098410  0.602910  0.882970  1.0  1.4771
  P  P83  1  0.084290  0.897090  0.617030  1.0  1.4781
  P  P84  1  0.652090  0.907790  0.077730  1.0  1.497
  P  P85  1  0.397090  0.584290  0.117030  1.0  1.4813
  P  P86  1  0.348460  0.171960  0.624020  1.0  1.4496
  P  P87  1  0.637610  0.347910  0.922270  1.0  1.4987
  P  P88  1  0.915710  0.102910  0.382970  1.0  1.4812
  P  P89  1  0.651540  0.828040  0.375980  1.0  1.449
  P  P90  1  0.584290  0.901590  0.117030  1.0  1.4781
  P  P91  1  0.144440  0.651540  0.375980  1.0  1.4489
  P  P92  1  0.401590  0.084290  0.617030  1.0  1.4807
  H  H93  1  0.083200  0.369700  0.330500  1.0  0.1299
  H  H94  1  0.170600  0.509800  0.476600  1.0  0.1207
  H  H95  1  0.626600  0.942000  0.203100  1.0  0.144
  H  H96  1  0.157000  0.829400  0.523400  1.0  0.1193
  H  H97  1  0.694900  0.410800  0.904000  1.0  0.1274
  H  H98  1  0.360900  0.777600  0.095700  1.0  0.1311
  H  H99  1  0.738500  0.843800  0.377600  1.0  0.1113
  H  H100  1  0.265300  0.682400  0.114900  1.0  0.1266
  H  H101  1  0.432900  0.144400  0.921100  1.0  0.1261
  H  H102  1  0.218300  0.114300  0.186600  1.0  0.1208
  H  H103  1  0.777600  0.765800  0.095700  1.0  0.128
  H  H104  1  0.268400  0.149100  0.415700  1.0  0.13
  H  H105  1  0.282900  0.483500  0.907900  1.0  0.1306
  H  H106  1  0.416800  0.283400  0.169500  1.0  0.1317
  H  H107  1  0.062200  0.272000  0.395000  1.0  0.106
  H  H108  1  0.783400  0.916800  0.669500  1.0  0.1288
  H  H109  1  0.829400  0.490200  0.523400  1.0  0.1198
  H  H110  1  0.355600  0.067100  0.578900  1.0  0.1283
  H  H111  1  0.515400  0.670600  0.040500  1.0  0.1176
  H  H112  1  0.080500  0.307900  0.080100  1.0  0.1362
  H  H113  1  0.781700  0.885700  0.813400  1.0  0.1218
  H  H114  1  0.760200  0.591400  0.792700  1.0  0.135
  H  H115  1  0.270800  0.062200  0.395000  1.0  0.1069
  H  H116  1  0.944700  0.955400  0.347000  1.0  0.1372
  H  H117  1  0.825700  0.983500  0.407900  1.0  0.1303
  H  H118  1  0.434900  0.697700  0.053700  1.0  0.1234
  H  H119  1  0.416900  0.976600  0.180000  1.0  0.1274
  H  H120  1  0.192100  0.419500  0.419900  1.0  0.1358
  H  H121  1  0.782300  0.557900  0.075000  1.0  0.1176
  H  H122  1  0.885700  0.519200  0.813400  1.0  0.1204
  H  H123  1  0.040100  0.738500  0.377600  1.0  0.1105
  H  H124  1  0.057700  0.567300  0.473900  1.0  0.1278
  H  H125  1  0.533000  0.018500  0.860200  1.0  0.1274
  H  H126  1  0.018500  0.588300  0.860200  1.0  0.1293
  H  H127  1  0.100300  0.828100  0.506300  1.0  0.1386
  H  H128  1  0.836000  0.856000  0.541700  1.0  0.0994
  H  H129  1  0.978200  0.606000  0.487700  1.0  0.1298
  H  H130  1  0.490200  0.157000  0.523400  1.0  0.1174
  H  H131  1  0.194900  0.490300  0.404000  1.0  0.1278
  H  H132  1  0.716600  0.869700  0.830500  1.0  0.1265
  H  H133  1  0.065100  0.686300  0.446300  1.0  0.1238
  H  H134  1  0.674300  0.717100  0.092100  1.0  0.1298
  H  H135  1  0.520400  0.454500  0.842800  1.0  0.1263
  H  H136  1  0.473700  0.098600  0.784600  1.0  0.1247
  H  H137  1  0.734200  0.722400  0.404300  1.0  0.1288
  H  H138  1  0.983500  0.782900  0.407900  1.0  0.1294
  H  H139  1  0.373400  0.058000  0.796900  1.0  0.1431
  H  H140  1  0.062600  0.734700  0.885100  1.0  0.1259
  H  H141  1  0.765800  0.360900  0.095700  1.0  0.1285
  H  H142  1  0.283400  0.130300  0.169500  1.0  0.1268
  H  H143  1  0.444700  0.252900  0.847000  1.0  0.1366
  H  H144  1  0.437800  0.229200  0.105000  1.0  0.1046
  H  H145  1  0.091400  0.260200  0.292700  1.0  0.1351
  H  H146  1  0.144000  0.233700  0.458300  1.0  0.0964
  H  H147  1  0.649100  0.768400  0.915700  1.0  0.1319
  H  H148  1  0.298200  0.917100  0.566900  1.0  0.1271
  H  H149  1  0.782200  0.701800  0.433100  1.0  0.1258
  H  H150  1  0.328100  0.600300  0.006300  1.0  0.139
  H  H151  1  0.860900  0.265800  0.595700  1.0  0.1299
  H  H152  1  0.234200  0.639100  0.904300  1.0  0.1277
  H  H153  1  0.917100  0.217800  0.566900  1.0  0.1265
  H  H154  1  0.817600  0.234700  0.385100  1.0  0.1274
  H  H155  1  0.208000  0.252800  0.191400  1.0  0.1282
  H  H156  1  0.084800  0.057900  0.575000  1.0  0.1158
  H  H157  1  0.802300  0.065100  0.446300  1.0  0.1236
  H  H158  1  0.644000  0.664000  0.958300  1.0  0.1001
  H  H159  1  0.410800  0.990300  0.904000  1.0  0.1277
  H  H160  1  0.490300  0.910800  0.404000  1.0  0.1268
  H  H161  1  0.959900  0.261500  0.622400  1.0  0.1105
  H  H162  1  0.019200  0.385700  0.313400  1.0  0.1204
  H  H163  1  0.664500  0.872400  0.187800  1.0  0.1059
  H  H164  1  0.937800  0.728000  0.605000  1.0  0.1068
  H  H165  1  0.526300  0.901400  0.215400  1.0  0.1251
  H  H166  1  0.149100  0.166800  0.415700  1.0  0.1317
  H  H167  1  0.399700  0.934700  0.993700  1.0  0.1385
  H  H168  1  0.872400  0.275300  0.187800  1.0  0.1064
  H  H169  1  0.233700  0.164000  0.458300  1.0  0.0991
  H  H170  1  0.828100  0.565300  0.506300  1.0  0.1383
  H  H171  1  0.292000  0.152200  0.308600  1.0  0.1276
  H  H172  1  0.350900  0.231600  0.084300  1.0  0.1322
  H  H173  1  0.562600  0.817600  0.385100  1.0  0.1247
  H  H174  1  0.343000  0.009800  0.976600  1.0  0.1251
  H  H175  1  0.238500  0.540100  0.877600  1.0  0.1119
  H  H176  1  0.829400  0.984600  0.459500  1.0  0.1175
  H  H177  1  0.990300  0.694900  0.904000  1.0  0.1267
  H  H178  1  0.411700  0.467000  0.139800  1.0  0.1289
  H  H179  1  0.277600  0.860900  0.595700  1.0  0.1285
  H  H180  1  0.261500  0.156200  0.622400  1.0  0.1124
  H  H181  1  0.916800  0.630300  0.669500  1.0  0.1285
  H  H182  1  0.562200  0.770800  0.895000  1.0  0.1052
  H  H183  1  0.850900  0.833200  0.584300  1.0  0.1315
  H  H184  1  0.644300  0.908600  0.707300  1.0  0.1336
  H  H185  1  0.045500  0.979600  0.657200  1.0  0.1294
  H  H186  1  0.643100  0.473700  0.784600  1.0  0.1253
  H  H187  1  0.807900  0.580500  0.580100  1.0  0.1356
  H  H188  1  0.843000  0.170600  0.476600  1.0  0.12
  H  H189  1  0.639100  0.222400  0.904300  1.0  0.1276
  H  H190  1  0.454500  0.182300  0.842800  1.0  0.1301
  H  H191  1  0.217800  0.298200  0.566900  1.0  0.1261
  H  H192  1  0.919500  0.692100  0.919900  1.0  0.1363
  H  H193  1  0.904600  0.344900  0.174900  1.0  0.122
  H  H194  1  0.155100  0.595400  0.325100  1.0  0.1208
  H  H195  1  0.901100  0.057700  0.473900  1.0  0.1301
  H  H196  1  0.067100  0.998400  0.578900  1.0  0.1282
  H  H197  1  0.657000  0.990200  0.023400  1.0  0.123
  H  H198  1  0.307900  0.531500  0.080100  1.0  0.1368
  H  H199  1  0.260200  0.355700  0.292700  1.0  0.1353
  H  H200  1  0.747200  0.652200  0.808600  1.0  0.1279
  H  H201  1  0.766300  0.836000  0.541700  1.0  0.0982
  H  H202  1  0.228300  0.626600  0.203100  1.0  0.1445
  H  H203  1  0.768400  0.666800  0.915700  1.0  0.1302
  H  H204  1  0.082900  0.782200  0.433100  1.0  0.1269
  H  H205  1  0.415200  0.217700  0.925000  1.0  0.1182
  H  H206  1  0.981500  0.411700  0.139800  1.0  0.1275
  H  H207  1  0.545500  0.817700  0.157200  1.0  0.1288
  H  H208  1  0.717700  0.915200  0.425000  1.0  0.1171
  H  H209  1  0.432700  0.098900  0.526100  1.0  0.1308
  H  H210  1  0.355700  0.091400  0.292700  1.0  0.134
  H  H211  1  0.765300  0.437400  0.614900  1.0  0.1222
  H  H212  1  0.934700  0.671900  0.993700  1.0  0.1385
  H  H213  1  0.652500  0.006900  0.129600  1.0  0.1222
  H  H214  1  0.724700  0.335500  0.812200  1.0  0.1066
  H  H215  1  0.055300  0.044600  0.653000  1.0  0.1385
  H  H216  1  0.057900  0.282300  0.575000  1.0  0.1174
  H  H217  1  0.239800  0.408600  0.207300  1.0  0.1353
  H  H218  1  0.908600  0.739800  0.707300  1.0  0.1355
  H  H219  1  0.498400  0.567100  0.078900  1.0  0.1298
  H  H220  1  0.247100  0.055300  0.653000  1.0  0.1383
  H  H221  1  0.844900  0.404600  0.674900  1.0  0.1217
  H  H222  1  0.580500  0.031500  0.580100  1.0  0.1374
  H  H223  1  0.644400  0.932900  0.421100  1.0  0.1276
  H  H224  1  0.244600  0.282700  0.438500  1.0  0.1324
  H  H225  1  0.856900  0.401400  0.715400  1.0  0.1248
  H  H226  1  0.697700  0.813700  0.053700  1.0  0.1229
  H  H227  1  0.976600  0.426500  0.180000  1.0  0.1271
  H  H228  1  0.247200  0.292000  0.308600  1.0  0.1272
  H  H229  1  0.369700  0.216600  0.330500  1.0  0.1289
  H  H230  1  0.557700  0.401100  0.973900  1.0  0.1299
  H  H231  1  0.734700  0.317600  0.885100  1.0  0.1273
  H  H232  1  0.979600  0.317700  0.657200  1.0  0.1291
  H  H233  1  0.843800  0.040100  0.377600  1.0  0.1114
  H  H234  1  0.468500  0.919500  0.919900  1.0  0.1367
  H  H235  1  0.275300  0.664500  0.187800  1.0  0.1067
  H  H236  1  0.197700  0.934900  0.553700  1.0  0.1224
  H  H237  1  0.544600  0.555300  0.153000  1.0  0.1377
  H  H238  1  0.575600  0.904600  0.174900  1.0  0.1219
  H  H239  1  0.224700  0.627600  0.312200  1.0  0.105
  H  H240  1  0.728000  0.729200  0.605000  1.0  0.1042
  H  H241  1  0.717800  0.417100  0.066900  1.0  0.1259
  H  H242  1  0.573500  0.583100  0.820000  1.0  0.1277
  H  H243  1  0.789000  0.347500  0.870400  1.0  0.1209
  H  H244  1  0.222400  0.234200  0.904300  1.0  0.1298
  H  H245  1  0.915200  0.942100  0.425000  1.0  0.1157
  H  H246  1  0.937400  0.265300  0.114900  1.0  0.1261
  H  H247  1  0.356900  0.526300  0.215400  1.0  0.1252
  H  H248  1  0.001600  0.644400  0.421100  1.0  0.1262
  H  H249  1  0.493100  0.847500  0.370400  1.0  0.1198
  H  H250  1  0.770800  0.772000  0.895000  1.0  0.105
  H  H251  1  0.718300  0.980800  0.686600  1.0  0.1211
  H  H252  1  0.419500  0.968500  0.419900  1.0  0.1376
  H  H253  1  0.506900  0.152500  0.629600  1.0  0.1203
  H  H254  1  0.356000  0.336000  0.041700  1.0  0.0996
  H  H255  1  0.127600  0.724700  0.812200  1.0  0.1059
  H  H256  1  0.031500  0.807900  0.580100  1.0  0.1377
  H  H257  1  0.401400  0.026300  0.715400  1.0  0.1251
  H  H258  1  0.591400  0.855700  0.792700  1.0  0.1351
  H  H259  1  0.728300  0.442000  0.703100  1.0  0.143
  H  H260  1  0.588300  0.533000  0.860200  1.0  0.1291
  H  H261  1  0.152200  0.247200  0.308600  1.0  0.1277
  H  H262  1  0.571900  0.894000  0.012300  1.0  0.1295
  H  H263  1  0.075600  0.844900  0.674900  1.0  0.1216
  H  H264  1  0.282300  0.084800  0.575000  1.0  0.1173
  H  H265  1  0.899700  0.171900  0.493700  1.0  0.1389
  H  H266  1  0.089200  0.805100  0.596000  1.0  0.1271
  H  H267  1  0.302300  0.186300  0.946300  1.0  0.1234
  H  H268  1  0.385700  0.281700  0.313400  1.0  0.1196
  H  H269  1  0.144400  0.501600  0.921100  1.0  0.127
  H  H270  1  0.630300  0.783400  0.669500  1.0  0.1294
  H  H271  1  0.083100  0.073500  0.320000  1.0  0.1295
  H  H272  1  0.509800  0.843000  0.476600  1.0  0.1192
  H  H273  1  0.015400  0.273500  0.540500  1.0  0.1177
  H  H274  1  0.401100  0.067300  0.973900  1.0  0.1279
  H  H275  1  0.557900  0.584800  0.075000  1.0  0.115
  H  H276  1  0.772000  0.562200  0.895000  1.0  0.1053
  H  H277  1  0.752900  0.944700  0.347000  1.0  0.1373
  H  H278  1  0.980800  0.614300  0.686600  1.0  0.12
  H  H279  1  0.317700  0.045500  0.657200  1.0  0.1272
  H  H280  1  0.044600  0.247100  0.653000  1.0  0.1367
  H  H281  1  0.911700  0.481500  0.639800  1.0  0.1288
  H  H282  1  0.761500  0.459900  0.122400  1.0  0.1118
  H  H283  1  0.139100  0.734200  0.404300  1.0  0.1284
  H  H284  1  0.394000  0.071900  0.512300  1.0  0.1283
  H  H285  1  0.686300  0.802300  0.446300  1.0  0.1219
  H  H286  1  0.217700  0.442100  0.925000  1.0  0.1179
  H  H287  1  0.484600  0.329400  0.959500  1.0  0.1174
  H  H288  1  0.523400  0.083100  0.320000  1.0  0.1279
  H  H289  1  0.655100  0.424400  0.825100  1.0  0.1208
  H  H290  1  0.664000  0.733700  0.958300  1.0  0.099
  H  H291  1  0.067300  0.557700  0.973900  1.0  0.1307
  H  H292  1  0.773500  0.515400  0.040500  1.0  0.1176
  H  H293  1  0.998400  0.355600  0.578900  1.0  0.1271
  H  H294  1  0.152500  0.711000  0.629600  1.0  0.121
  H  H295  1  0.652200  0.792000  0.808600  1.0  0.1272
  H  H296  1  0.614300  0.718300  0.686600  1.0  0.1196
  H  H297  1  0.114300  0.480800  0.186600  1.0  0.121
  H  H298  1  0.521800  0.571900  0.012300  1.0  0.1279
  H  H299  1  0.501600  0.432900  0.921100  1.0  0.1287
  H  H300  1  0.467000  0.981500  0.139800  1.0  0.1279
  H  H301  1  0.201800  0.282200  0.933100  1.0  0.1259
  H  H302  1  0.404600  0.075600  0.674900  1.0  0.1208
  H  H303  1  0.272000  0.270800  0.395000  1.0  0.1046
  H  H304  1  0.518500  0.033000  0.360200  1.0  0.1288
  H  H305  1  0.792000  0.747200  0.808600  1.0  0.1274
  H  H306  1  0.993100  0.789000  0.870400  1.0  0.1214
  H  H307  1  0.171900  0.434700  0.493700  1.0  0.1386
  H  H308  1  0.156200  0.959900  0.622400  1.0  0.1113
  H  H309  1  0.739800  0.644300  0.707300  1.0  0.1354
  H  H310  1  0.565100  0.302300  0.946300  1.0  0.1225
  H  H311  1  0.752800  0.708000  0.691400  1.0  0.1283
  H  H312  1  0.692100  0.468500  0.919900  1.0  0.1374
  H  H313  1  0.973700  0.143100  0.284600  1.0  0.1259
  H  H314  1  0.771700  0.373400  0.796900  1.0  0.1429
  H  H315  1  0.670600  0.343000  0.976600  1.0  0.124
  H  H316  1  0.873400  0.271700  0.296900  1.0  0.1436
  H  H317  1  0.744600  0.534200  0.938500  1.0  0.1344
  H  H318  1  0.006900  0.211000  0.129600  1.0  0.121
  H  H319  1  0.126600  0.728300  0.703100  1.0  0.1442
  H  H320  1  0.282200  0.582900  0.933100  1.0  0.1261
  H  H321  1  0.034200  0.244600  0.438500  1.0  0.1357
  H  H322  1  0.478200  0.428100  0.987700  1.0  0.1293
  H  H323  1  0.926500  0.476600  0.680000  1.0  0.1272
  H  H324  1  0.567300  0.901100  0.473900  1.0  0.1309
  H  H325  1  0.143100  0.598600  0.284600  1.0  0.125
  H  H326  1  0.088300  0.518500  0.360200  1.0  0.1294
  H  H327  1  0.344900  0.575600  0.174900  1.0  0.121
  H  H328  1  0.009800  0.670600  0.976600  1.0  0.1234
  H  H329  1  0.252800  0.347800  0.191400  1.0  0.1279
  H  H330  1  0.682400  0.937400  0.114900  1.0  0.1241
  H  H331  1  0.955400  0.752900  0.347000  1.0  0.1361
  H  H332  1  0.305100  0.589200  0.096000  1.0  0.1275
  H  H333  1  0.479600  0.545500  0.157200  1.0  0.131
  H  H334  1  0.166800  0.268400  0.415700  1.0  0.1317
  H  H335  1  0.347500  0.993100  0.870400  1.0  0.1206
  H  H336  1  0.782900  0.825700  0.407900  1.0  0.1303
  H  H337  1  0.417100  0.798200  0.066900  1.0  0.1258
  H  H338  1  0.098900  0.942300  0.526100  1.0  0.1296
  H  H339  1  0.234700  0.562600  0.385100  1.0  0.123
  H  H340  1  0.701800  0.082900  0.433100  1.0  0.1267
  H  H341  1  0.426500  0.416900  0.180000  1.0  0.1271
  H  H342  1  0.932900  0.001600  0.421100  1.0  0.1281
  H  H343  1  0.016500  0.217100  0.592100  1.0  0.1287
  H  H344  1  0.020400  0.682300  0.342800  1.0  0.1296
  H  H345  1  0.329400  0.226500  0.959500  1.0  0.118
  H  H346  1  0.942300  0.432700  0.526100  1.0  0.1273
  H  H347  1  0.058000  0.771700  0.796900  1.0  0.1426
  H  H348  1  0.534200  0.782700  0.938500  1.0  0.1351
  H  H349  1  0.317600  0.062600  0.885100  1.0  0.1242
  H  H350  1  0.343800  0.238500  0.877600  1.0  0.1099
  H  H351  1  0.729200  0.937800  0.605000  1.0  0.1071
  H  H352  1  0.910800  0.194900  0.404000  1.0  0.127
  H  H353  1  0.065300  0.328100  0.006300  1.0  0.1382
  H  H354  1  0.442100  0.415200  0.925000  1.0  0.1154
  H  H355  1  0.954500  0.020400  0.342800  1.0  0.1293
  H  H356  1  0.519200  0.781700  0.813400  1.0  0.1215
  H  H357  1  0.144300  0.239800  0.207300  1.0  0.1353
  H  H358  1  0.833200  0.731600  0.584300  1.0  0.1332
  H  H359  1  0.164000  0.144000  0.458300  1.0  0.0998
  H  H360  1  0.627600  0.835500  0.312200  1.0  0.1059
  H  H361  1  0.584800  0.782300  0.075000  1.0  0.1204
  H  H362  1  0.282700  0.034200  0.438500  1.0  0.1353
  H  H363  1  0.717100  0.516500  0.092100  1.0  0.1317
  H  H364  1  0.671900  0.399700  0.993700  1.0  0.1394
  H  H365  1  0.733700  0.644000  0.958300  1.0  0.0984
  H  H366  1  0.455400  0.444700  0.847000  1.0  0.1367
  H  H367  1  0.217100  0.174300  0.592100  1.0  0.1304
  H  H368  1  0.033000  0.088300  0.360200  1.0  0.1284
  H  H369  1  0.170600  0.015400  0.540500  1.0  0.1173
  H  H370  1  0.924400  0.155100  0.325100  1.0  0.1213
  H  H371  1  0.942000  0.228300  0.203100  1.0  0.1432
  H  H372  1  0.336000  0.266300  0.041700  1.0  0.0975
  H  H373  1  0.894000  0.521800  0.012300  1.0  0.1301
  H  H374  1  0.483500  0.325700  0.907900  1.0  0.1297
  H  H375  1  0.428100  0.106000  0.987700  1.0  0.1301
  H  H376  1  0.182300  0.520400  0.842800  1.0  0.1291
  H  H377  1  0.009700  0.305100  0.096000  1.0  0.1273
  H  H378  1  0.722400  0.139100  0.404300  1.0  0.1288
  H  H379  1  0.408600  0.144300  0.207300  1.0  0.1343
  H  H380  1  0.182400  0.765300  0.614900  1.0  0.1265
  H  H381  1  0.252900  0.455400  0.847000  1.0  0.1362
  H  H382  1  0.226500  0.484600  0.959500  1.0  0.1181
  H  H383  1  0.755400  0.717300  0.561500  1.0  0.1326
  H  H384  1  0.967000  0.911700  0.639800  1.0  0.1276
  H  H385  1  0.656200  0.761500  0.122400  1.0  0.1109
  H  H386  1  0.289000  0.493100  0.370400  1.0  0.1199
  H  H387  1  0.775300  0.372400  0.687800  1.0  0.1048
  H  H388  1  0.711000  0.506900  0.629600  1.0  0.1209
  H  H389  1  0.174300  0.016500  0.592100  1.0  0.1307
  H  H390  1  0.372400  0.164500  0.687800  1.0  0.1069
  H  H391  1  0.437400  0.182400  0.614900  1.0  0.124
  H  H392  1  0.990200  0.329400  0.023400  1.0  0.1226
  H  H393  1  0.325700  0.282900  0.907900  1.0  0.1298
  H  H394  1  0.856000  0.766300  0.541700  1.0  0.0964
  H  H395  1  0.229200  0.228000  0.105000  1.0  0.1057
  H  H396  1  0.555300  0.747100  0.153000  1.0  0.138
  H  H397  1  0.558000  0.873400  0.296900  1.0  0.1429
  H  H398  1  0.424400  0.095400  0.825100  1.0  0.1208
  H  H399  1  0.164500  0.775300  0.687800  1.0  0.1062
  H  H400  1  0.313700  0.197700  0.553700  1.0  0.121
  H  H401  1  0.798200  0.717800  0.066900  1.0  0.1263
  H  H402  1  0.869700  0.583200  0.830500  1.0  0.1268
  H  H403  1  0.442000  0.126600  0.703100  1.0  0.1444
  H  H404  1  0.106000  0.478200  0.987700  1.0  0.1298
  H  H405  1  0.782700  0.744600  0.938500  1.0  0.1331
  H  H406  1  0.817700  0.479600  0.157200  1.0  0.1258
  H  H407  1  0.465800  0.217300  0.061500  1.0  0.1346
  H  H408  1  0.984600  0.726500  0.459500  1.0  0.1182
  H  H409  1  0.813700  0.434900  0.053700  1.0  0.1233
  H  H410  1  0.567100  0.855600  0.078900  1.0  0.126
  H  H411  1  0.600300  0.065300  0.006300  1.0  0.1382
  H  H412  1  0.266300  0.356000  0.041700  1.0  0.0987
  H  H413  1  0.731600  0.850900  0.584300  1.0  0.13
  H  H414  1  0.747100  0.544600  0.153000  1.0  0.1378
  H  H415  1  0.442300  0.598900  0.026100  1.0  0.1297
  H  H416  1  0.582900  0.201800  0.933100  1.0  0.1261
  H  H417  1  0.516500  0.674300  0.092100  1.0  0.1302
  H  H418  1  0.583100  0.023400  0.820000  1.0  0.1284
  H  H419  1  0.098600  0.643100  0.784600  1.0  0.1254
  H  H420  1  0.021800  0.394000  0.512300  1.0  0.1303
  H  H421  1  0.901400  0.356900  0.215400  1.0  0.1252
  H  H422  1  0.916900  0.926500  0.680000  1.0  0.1289
  H  H423  1  0.216600  0.083200  0.330500  1.0  0.1292
  H  H424  1  0.708000  0.847800  0.691400  1.0  0.1276
  H  H425  1  0.589200  0.009700  0.096000  1.0  0.1273
  H  H426  1  0.071900  0.021800  0.512300  1.0  0.1286
  H  H427  1  0.855700  0.760200  0.792700  1.0  0.1348
  H  H428  1  0.228000  0.437800  0.105000  1.0  0.1058
  H  H429  1  0.459900  0.656200  0.122400  1.0  0.1116
  H  H430  1  0.682300  0.954500  0.342800  1.0  0.1296
  H  H431  1  0.932700  0.442300  0.026100  1.0  0.1309
  H  H432  1  0.595400  0.924400  0.325100  1.0  0.1203
  H  H433  1  0.255400  0.465800  0.061500  1.0  0.1348
  H  H434  1  0.847800  0.752800  0.691400  1.0  0.1278
  H  H435  1  0.847500  0.289000  0.370400  1.0  0.1212
  H  H436  1  0.855600  0.498400  0.078900  1.0  0.1284
  H  H437  1  0.934900  0.313700  0.553700  1.0  0.1231
  H  H438  1  0.928100  0.978200  0.487700  1.0  0.1297
  H  H439  1  0.968500  0.192100  0.419900  1.0  0.1373
  H  H440  1  0.598900  0.932700  0.026100  1.0  0.1276
  H  H441  1  0.835500  0.224700  0.312200  1.0  0.1056
  H  H442  1  0.481500  0.967000  0.639800  1.0  0.1276
  H  H443  1  0.509700  0.089200  0.596000  1.0  0.1275
  H  H444  1  0.023400  0.573500  0.820000  1.0  0.127
  H  H445  1  0.026300  0.856900  0.715400  1.0  0.1255
  H  H446  1  0.965800  0.755400  0.561500  1.0  0.1343
  H  H447  1  0.231600  0.333200  0.084300  1.0  0.1311
  H  H448  1  0.717300  0.965800  0.561500  1.0  0.1351
  H  H449  1  0.531500  0.080500  0.080100  1.0  0.1368
  H  H450  1  0.805100  0.509700  0.596000  1.0  0.1276
  H  H451  1  0.942100  0.717700  0.425000  1.0  0.1178
  H  H452  1  0.130300  0.416800  0.169500  1.0  0.127
  H  H453  1  0.095400  0.655100  0.825100  1.0  0.121
  H  H454  1  0.273500  0.170600  0.540500  1.0  0.117
  H  H455  1  0.217300  0.255400  0.061500  1.0  0.1332
  H  H456  1  0.726500  0.829400  0.459500  1.0  0.1163
  H  H457  1  0.271700  0.558000  0.296900  1.0  0.1426
  H  H458  1  0.281700  0.019200  0.313400  1.0  0.1196
  H  H459  1  0.329400  0.657000  0.023400  1.0  0.1237
  H  H460  1  0.606000  0.928100  0.487700  1.0  0.1291
  H  H461  1  0.265800  0.277600  0.595700  1.0  0.1302
  H  H462  1  0.476600  0.916900  0.680000  1.0  0.1275
  H  H463  1  0.073500  0.523400  0.320000  1.0  0.1272
  H  H464  1  0.480800  0.218300  0.186600  1.0  0.1198
  H  H465  1  0.335500  0.127600  0.812200  1.0  0.1062
  H  H466  1  0.598600  0.973700  0.284600  1.0  0.1248
  H  H467  1  0.583200  0.716600  0.830500  1.0  0.1293
  H  H468  1  0.347800  0.208000  0.191400  1.0  0.1292
  H  H469  1  0.434700  0.899700  0.493700  1.0  0.1386
  H  H470  1  0.565300  0.100300  0.506300  1.0  0.1385
  H  H471  1  0.540100  0.343800  0.877600  1.0  0.1115
  H  H472  1  0.333200  0.350900  0.084300  1.0  0.1303
  H  H473  1  0.186300  0.565100  0.946300  1.0  0.1234
  H  H474  1  0.211000  0.652500  0.129600  1.0  0.1209
  H  H475  1  0.666800  0.649100  0.915700  1.0  0.1307
  H  H476  1  0.670600  0.773500  0.040500  1.0  0.1173
  C  C477  1  0.831080  0.524580  0.026160  1.0  -0.0319
  C  C478  1  0.713860  0.481060  0.667220  1.0  -0.0798
  C  C479  1  0.750340  0.806240  0.821380  1.0  0.3189
  C  C480  1  0.957310  0.400610  0.528770  1.0  -0.1331
  C  C481  1  0.756980  0.747980  0.933760  1.0  -0.1228
  C  C482  1  0.348190  0.244790  0.323030  1.0  -0.125
  C  C483  1  0.457840  0.423340  0.908680  1.0  -0.129
  C  C484  1  0.225290  0.386990  0.097830  1.0  0.2859
  C  C485  1  0.074570  0.053970  0.614090  1.0  -0.0125
  C  C486  1  0.377740  0.096840  0.520880  1.0  -0.1347
  C  C487  1  0.859010  0.737010  0.579770  1.0  -0.1696
  C  C488  1  0.139500  0.580300  0.323900  1.0  -0.1831
  C  C489  1  0.439870  0.923070  0.957490  1.0  -0.0606
  C  C490  1  0.182880  0.504780  0.440060  1.0  0.2791
  C  C491  1  0.466510  0.440010  0.861670  1.0  -0.1091
  C  C492  1  0.408480  0.448580  0.179160  1.0  -0.0645
  C  C493  1  0.122260  0.495460  0.979120  1.0  -0.1394
  C  C494  1  0.892120  0.255820  0.595040  1.0  -0.078
  C  C495  1  0.505180  0.746980  0.056160  1.0  0.4563
  C  C496  1  0.909550  0.189450  0.421850  1.0  -0.1571
  C  C497  1  0.175820  0.451720  0.197640  1.0  -0.0694
  C  C498  1  0.396370  0.435870  0.225690  1.0  0.3377
  C  C499  1  0.446810  0.902210  0.475970  1.0  -0.0699
  C  C500  1  0.448580  0.963780  0.179160  1.0  -0.0652
  C  C501  1  0.435870  0.942070  0.225690  1.0  0.3371
  C  C502  1  0.048510  0.746410  0.389270  1.0  -0.0886
  C  C503  1  0.172350  0.952550  0.545450  1.0  -0.1488
  C  C504  1  0.639020  0.941120  0.185640  1.0  -0.1169
  C  C505  1  0.003890  0.688990  0.359330  1.0  -0.1169
  C  C506  1  0.289860  0.076660  0.591320  1.0  -0.1291
  C  C507  1  0.975420  0.668920  0.473840  1.0  -0.0338
  C  C508  1  0.693760  0.749660  0.678620  1.0  0.319
  C  C509  1  0.684960  0.742560  0.945520  1.0  -0.0453
  C  C510  1  0.715910  0.954410  0.687170  1.0  -0.0727
  C  C511  1  0.184190  0.951490  0.610730  1.0  -0.0914
  C  C512  1  0.213860  0.637860  0.167220  1.0  -0.0788
  C  C513  1  0.452550  0.672350  0.045450  1.0  -0.1437
  C  C514  1  0.916010  0.651810  0.676970  1.0  -0.1274
  C  C515  1  0.825180  0.824180  0.802360  1.0  -0.0687
  C  C516  1  0.191680  0.246980  0.556160  1.0  0.4596
  C  C517  1  0.215780  0.237580  0.576260  1.0  -0.0698
  C  C518  1  0.670350  0.827650  0.454550  1.0  -0.1436
  C  C519  1  0.656120  0.805620  0.037740  1.0  -0.0972
  C  C520  1  0.881820  0.975420  0.473840  1.0  -0.0292
  C  C521  1  0.272980  0.514780  0.907060  1.0  -0.1254
  C  C522  1  0.967200  0.888600  0.701300  1.0  -0.0614
  C  C523  1  0.151810  0.416010  0.176970  1.0  -0.126
  C  C524  1  0.671810  0.938810  0.132570  1.0  -0.1377
  C  C525  1  0.088730  0.235530  0.451610  1.0  -0.0802
  C  C526  1  0.903160  0.995460  0.479120  1.0  -0.1378
  C  C527  1  0.288490  0.411690  0.888430  1.0  0.4504
  C  C528  1  0.113010  0.274710  0.402170  1.0  0.2914
  C  C529  1  0.425430  0.242630  0.885910  1.0  -0.0118
  C  C530  1  0.119900  0.323900  0.031800  1.0  0.3823
  C  C531  1  0.543700  0.919700  0.176100  1.0  -0.1844
  C  C532  1  0.242560  0.184960  0.445520  1.0  -0.0376
  C  C533  1  0.403160  0.122260  0.979120  1.0  -0.1448
  C  C534  1  0.923340  0.957840  0.408680  1.0  -0.1245
  C  C535  1  0.523100  0.118000  0.677300  1.0  0.2653
  C  C536  1  0.548510  0.315810  0.889270  1.0  -0.092
  C  C537  1  0.274530  0.290430  0.310010  1.0  -0.1892
  C  C538  1  0.411690  0.411390  0.888430  1.0  0.4528
  C  C539  1  0.574570  0.757370  0.114090  1.0  -0.0112
  C  C540  1  0.618180  0.831080  0.026160  1.0  -0.0293
  C  C541  1  0.946810  0.675010  0.975970  1.0  -0.0682
  C  C542  1  0.775870  0.911270  0.548390  1.0  -0.0831
  C  C543  1  0.689450  0.409550  0.921850  1.0  -0.1571
  C  C544  1  0.553190  0.097790  0.524030  1.0  -0.0663
  C  C545  1  0.877960  0.693760  0.678620  1.0  0.3181
  C  C546  1  0.666910  0.933610  0.406370  1.0  -0.1381
  C  C547  1  0.160030  0.763830  0.676010  1.0  0.049
  C  C548  1  0.925430  0.946030  0.385910  1.0  -0.0117
  C  C549  1  0.366960  0.010260  0.293420  1.0  0.319
  C  C550  1  0.755210  0.916010  0.676970  1.0  -0.1258
  C  C551  1  0.451720  0.174820  0.197640  1.0  -0.0699
  C  C552  1  0.099390  0.542690  0.971230  1.0  -0.1343
  C  C553  1  0.682880  0.372280  0.940060  1.0  0.2802
  C  C554  1  0.325180  0.048280  0.302360  1.0  -0.07
  C  C555  1  0.504540  0.596840  0.020880  1.0  -0.1434
  C  C556  1  0.156120  0.000520  0.537740  1.0  -0.097
  C  C557  1  0.495220  0.127720  0.559940  1.0  0.2786
  C  C558  1  0.724240  0.326640  0.848680  1.0  0.277
  C  C559  1  0.668920  0.881820  0.473840  1.0  -0.0274
  C  C560  1  0.447790  0.188990  0.859330  1.0  -0.1128
  C  C561  1  0.257440  0.373040  0.054480  1.0  -0.0458
  C  C562  1  0.956300  0.139500  0.323900  1.0  -0.1858
  C  C563  1  0.284090  0.045590  0.312830  1.0  -0.0754
  C  C564  1  0.267100  0.286200  0.022500  1.0  0.4518
  C  C565  1  0.671890  0.910790  0.699530  1.0  -0.0864
  C  C566  1  0.317120  0.627720  0.059940  1.0  0.2775
  C  C567  1  0.217790  0.410790  0.199530  1.0  -0.0859
  C  C568  1  0.575800  0.732900  0.977500  1.0  0.4529
  C  C569  1  0.561280  0.756980  0.933760  1.0  -0.1233
  C  C570  1  0.400130  0.160030  0.676010  1.0  0.0454
  C  C571  1  0.625030  0.790430  0.810010  1.0  -0.1902
  C  C572  1  0.376140  0.150640  0.540680  1.0  0.2837
  C  C573  1  0.349360  0.123860  0.959320  1.0  0.2805
  C  C574  1  0.828110  0.782210  0.800470  1.0  -0.0853
  C  C575  1  0.359010  0.324210  0.079770  1.0  -0.1698
  C  C576  1  0.999480  0.694380  0.462260  1.0  -0.0941
  C  C577  1  0.918410  0.366910  0.200370  1.0  -0.0809
  C  C578  1  0.324490  0.632190  0.034530  1.0  -0.1773
  C  C579  1  0.400790  0.478590  0.155130  1.0  -0.1408
  C  C580  1  0.724800  0.480200  0.641300  1.0  -0.0262
  C  C581  1  0.556360  0.062560  0.068820  1.0  -0.1016
  C  C582  1  0.077390  0.265990  0.408230  1.0  -0.1277
  C  C583  1  0.734220  0.441120  0.685640  1.0  -0.1012
  C  C584  1  0.788490  0.911390  0.388430  1.0  0.4496
  C  C585  1  0.576660  0.789860  0.091320  1.0  -0.1287
  C  C586  1  0.976900  0.818400  0.822700  1.0  0.2827
  C  C587  1  0.048280  0.324180  0.302360  1.0  -0.0714
  C  C588  1  0.123860  0.567460  0.959320  1.0  0.2805
  C  C589  1  0.409550  0.979150  0.921850  1.0  -0.1592
  C  C590  1  0.275200  0.519800  0.358700  1.0  -0.0286
  C  C591  1  0.014310  0.866910  0.700370  1.0  -0.0814
  C  C592  1  0.237580  0.970380  0.576260  1.0  -0.0718
  C  C593  1  0.510260  0.866960  0.793420  1.0  0.3189
  C  C594  1  0.768190  0.533490  0.138330  1.0  -0.1095
  C  C595  1  0.021410  0.099210  0.344870  1.0  -0.137
  C  C596  1  0.749660  0.877960  0.678620  1.0  0.3177
  C  C597  1  0.323900  0.524400  0.031800  1.0  0.3809
  C  C598  1  0.877740  0.504540  0.020880  1.0  -0.1387
  C  C599  1  0.188990  0.503890  0.859330  1.0  -0.1146
  C  C600  1  0.388600  0.467200  0.201300  1.0  -0.0615
  C  C601  1  0.470380  0.737580  0.076260  1.0  -0.0673
  C  C602  1  0.725470  0.709570  0.689990  1.0  -0.1884
  C  C603  1  0.088610  0.088310  0.611570  1.0  0.4498
  C  C604  1  0.411390  0.288490  0.888430  1.0  0.4492
  C  C605  1  0.113310  0.957310  0.528770  1.0  -0.1356
  C  C606  1  0.227020  0.194820  0.592940  1.0  -0.1263
  C  C607  1  0.118000  0.681600  0.677300  1.0  0.2656
  C  C608  1  0.732900  0.713800  0.977500  1.0  0.4545
  C  C609  1  0.000520  0.305620  0.537740  1.0  -0.0923
  C  C610  1  0.551420  0.036220  0.820840  1.0  -0.0649
  C  C611  1  0.083990  0.348190  0.323030  1.0  -0.1264
  C  C612  1  0.599210  0.521410  0.844870  1.0  -0.1409
  C  C613  1  0.622700  0.475100  0.845500  1.0  0.3005
  C  C614  1  0.142510  0.454410  0.187170  1.0  -0.0749
  C  C615  1  0.996110  0.311010  0.640670  1.0  -0.1157
  C  C616  1  0.416010  0.255210  0.176970  1.0  -0.1231
  C  C617  1  0.747980  0.561280  0.933760  1.0  -0.1216
  C  C618  1  0.052210  0.996110  0.640670  1.0  -0.1158
  C  C619  1  0.880100  0.676100  0.968200  1.0  0.3811
  C  C620  1  0.899560  0.275760  0.151320  1.0  0.2776
  C  C621  1  0.033490  0.268190  0.638330  1.0  -0.109
  C  C622  1  0.516460  0.445460  0.881320  1.0  0.2702
  C  C623  1  0.588610  0.711510  0.111570  1.0  0.4491
  C  C624  1  0.529620  0.262420  0.923740  1.0  -0.0696
  C  C625  1  0.425460  0.769160  0.077520  1.0  -0.1401
  C  C626  1  0.153700  0.724800  0.641300  1.0  -0.0356
  C  C627  1  0.275870  0.264470  0.048390  1.0  -0.081
  C  C628  1  0.237010  0.359010  0.079770  1.0  -0.1674
  C  C629  1  0.463780  0.948580  0.679160  1.0  -0.0642
  C  C630  1  0.366910  0.514310  0.200370  1.0  -0.0847
  C  C631  1  0.567460  0.349360  0.959320  1.0  0.2845
  C  C632  1  0.224130  0.088730  0.451610  1.0  -0.0816
  C  C633  1  0.824210  0.859010  0.579770  1.0  -0.1658
  C  C634  1  0.081590  0.633090  0.799630  1.0  -0.083
  C  C635  1  0.315040  0.257440  0.054480  1.0  -0.0462
  C  C636  1  0.441120  0.139020  0.685640  1.0  -0.1033
  C  C637  1  0.306240  0.250340  0.321380  1.0  0.3175
  C  C638  1  0.156760  0.516460  0.881320  1.0  0.2776
  C  C639  1  0.111400  0.557100  0.298700  1.0  -0.0577
  C  C640  1  0.374970  0.209570  0.189990  1.0  -0.1929
  C  C641  1  0.424200  0.267100  0.022500  1.0  0.4525
  C  C642  1  0.242630  0.446030  0.885910  1.0  -0.0113
  C  C643  1  0.475420  0.381820  0.973840  1.0  -0.0261
  C  C644  1  0.554540  0.843240  0.118680  1.0  0.267
  C  C645  1  0.478590  0.965490  0.155130  1.0  -0.1381
  C  C646  1  0.980200  0.224800  0.141300  1.0  -0.0348
  C  C647  1  0.234010  0.422610  0.091770  1.0  -0.1261
  C  C648  1  0.746410  0.815810  0.389270  1.0  -0.0913
  C  C649  1  0.552210  0.811010  0.140670  1.0  -0.1134
  C  C650  1  0.042690  0.599390  0.471230  1.0  -0.1373
  C  C651  1  0.253020  0.308320  0.943840  1.0  0.4594
  C  C652  1  0.860980  0.265780  0.314360  1.0  -0.1035
  C  C653  1  0.746980  0.691680  0.056160  1.0  0.459
  C  C654  1  0.727860  0.425460  0.077520  1.0  -0.1476
  C  C655  1  0.562560  0.056360  0.568820  1.0  -0.1015
  C  C656  1  0.485690  0.081590  0.799630  1.0  -0.0804
  C  C657  1  0.623860  0.849360  0.459320  1.0  0.281
  C  C658  1  0.611400  0.532800  0.798700  1.0  -0.0619
  C  C659  1  0.438810  0.171810  0.632570  1.0  -0.1445
  C  C660  1  0.373040  0.315040  0.054480  1.0  -0.0335
  C  C661  1  0.097790  0.824990  0.524030  1.0  -0.0665
  C  C662  1  0.476900  0.882000  0.322700  1.0  0.2659
  C  C663  1  0.911390  0.911690  0.388430  1.0  0.4514
  C  C664  1  0.236170  0.599870  0.323990  1.0  0.0471
  C  C665  1  0.981060  0.213860  0.167220  1.0  -0.0818
  C  C666  1  0.175510  0.491210  0.465470  1.0  -0.175
  C  C667  1  0.748390  0.765990  0.908230  1.0  -0.1182
  C  C668  1  0.725290  0.789890  0.597830  1.0  0.2894
  C  C669  1  0.194450  0.425950  0.979750  1.0  0.4588
  C  C670  1  0.437440  0.943640  0.431180  1.0  -0.1012
  C  C671  1  0.753020  0.994820  0.443840  1.0  0.4547
  C  C672  1  0.843240  0.483540  0.118680  1.0  0.2668
  C  C673  1  0.599870  0.839970  0.323990  1.0  0.0443
  C  C674  1  0.074540  0.772140  0.422480  1.0  -0.1454
  C  C675  1  0.076930  0.320430  0.042510  1.0  -0.0607
  C  C676  1  0.042160  0.289860  0.591320  1.0  -0.1275
  C  C677  1  0.751610  0.922610  0.591770  1.0  -0.1234
  C  C678  1  0.902210  0.175010  0.475970  1.0  -0.0643
  C  C679  1  0.327650  0.170350  0.954550  1.0  -0.1451
  C  C680  1  0.710110  0.774710  0.902170  1.0  0.2893
  C  C681  1  0.399850  0.194450  0.979750  1.0  0.4631
  C  C682  1  0.618000  0.023100  0.177300  1.0  0.2659
  C  C683  1  0.694380  0.843880  0.462260  1.0  -0.0982
  C  C684  1  0.211510  0.088610  0.611570  1.0  0.4493
  C  C685  1  0.557100  0.032800  0.298700  1.0  -0.0598
  C  C686  1  0.985690  0.133090  0.299630  1.0  -0.0812
  C  C687  1  0.255210  0.151810  0.176970  1.0  -0.1274
  C  C688  1  0.815810  0.048510  0.389270  1.0  -0.0901
  C  C689  1  0.500520  0.656120  0.037740  1.0  -0.0967
  C  C690  1  0.872280  0.182880  0.440060  1.0  0.2774
  C  C691  1  0.274710  0.210110  0.402170  1.0  0.2894
  C  C692  1  0.675820  0.674820  0.697640  1.0  -0.0702
  C  C693  1  0.324210  0.237010  0.079770  1.0  -0.1716
  C  C694  1  0.268190  0.059990  0.638330  1.0  -0.1143
  C  C695  1  0.983540  0.343240  0.618680  1.0  0.2695
  C  C696  1  0.954410  0.642510  0.687170  1.0  -0.0728
  C  C697  1  0.310550  0.590450  0.078150  1.0  -0.1567
  C  C698  1  0.442070  0.935870  0.725690  1.0  0.3346
  C  C699  1  0.282210  0.328110  0.300470  1.0  -0.0844
  C  C700  1  0.275760  0.673360  0.151320  1.0  0.2767
  C  C701  1  0.333090  0.066390  0.593630  1.0  -0.1397
  C  C702  1  0.423340  0.210140  0.908680  1.0  -0.1299
  C  C703  1  0.547450  0.327650  0.954550  1.0  -0.1478
  C  C704  1  0.675010  0.402210  0.975970  1.0  -0.0643
  C  C705  1  0.024580  0.331080  0.526160  1.0  -0.0341
  C  C706  1  0.251610  0.234010  0.091770  1.0  -0.1187
  C  C707  1  0.054540  0.983540  0.618680  1.0  0.273
  C  C708  1  0.329360  0.366960  0.293420  1.0  0.3185
  C  C709  1  0.911690  0.788490  0.388430  1.0  0.4506
  C  C710  1  0.419700  0.043700  0.676100  1.0  -0.1832
  C  C711  1  0.184960  0.126960  0.445520  1.0  -0.0403
  C  C712  1  0.053190  0.324990  0.024030  1.0  -0.0694
  C  C713  1  0.848190  0.583990  0.823030  1.0  -0.1242
  C  C714  1  0.824990  0.553190  0.524030  1.0  -0.067
  C  C715  1  0.828190  0.243190  0.367430  1.0  -0.1476
  C  C716  1  0.561190  0.828190  0.367430  1.0  -0.1452
  C  C717  1  0.377300  0.524900  0.154500  1.0  0.302
  C  C718  1  0.924200  0.786200  0.522500  1.0  0.4541
  C  C719  1  0.382000  0.976900  0.822700  1.0  0.2651
  C  C720  1  0.672350  0.829650  0.045450  1.0  -0.1446
  C  C721  1  0.443300  0.024900  0.654500  1.0  0.3004
  C  C722  1  0.250340  0.122040  0.321380  1.0  0.3163
  C  C723  1  0.360980  0.058880  0.814360  1.0  -0.1166
  C  C724  1  0.386690  0.099390  0.971230  1.0  -0.1385
  C  C725  1  0.786140  0.362140  0.832780  1.0  -0.0794
  C  C726  1  0.815040  0.873040  0.554480  1.0  -0.0402
  C  C727  1  0.367810  0.991210  0.965470  1.0  -0.1702
  C  C728  1  0.737010  0.824210  0.579770  1.0  -0.1719
  C  C729  1  0.224800  0.653700  0.141300  1.0  -0.0283
  C  C730  1  0.784220  0.762420  0.423740  1.0  -0.071
  C  C731  1  0.018940  0.786140  0.832780  1.0  -0.0807
  C  C732  1  0.979150  0.689450  0.921850  1.0  -0.1597
  C  C733  1  0.255820  0.257020  0.595040  1.0  -0.0767
  C  C734  1  0.833090  0.506890  0.093630  1.0  -0.1367
  C  C735  1  0.769160  0.727860  0.077520  1.0  -0.1487
  C  C736  1  0.362140  0.018940  0.832780  1.0  -0.0821
  C  C737  1  0.774530  0.625030  0.810010  1.0  -0.1929
  C  C738  1  0.742560  0.626960  0.945520  1.0  -0.043
  C  C739  1  0.556700  0.975100  0.345500  1.0  0.2984
  C  C740  1  0.597790  0.053190  0.024030  1.0  -0.0672
  C  C741  1  0.857490  0.545590  0.812830  1.0  -0.0733
  C  C742  1  0.774710  0.613010  0.902170  1.0  0.2867
  C  C743  1  0.489740  0.133040  0.206580  1.0  0.3193
  C  C744  1  0.249660  0.193760  0.178620  1.0  0.3227
  C  C745  1  0.232900  0.075800  0.477500  1.0  0.4536
  C  C746  1  0.886690  0.042690  0.471230  1.0  -0.136
  C  C747  1  0.034510  0.599210  0.844870  1.0  -0.1382
  C  C748  1  0.043700  0.860500  0.676100  1.0  -0.1853
  C  C749  1  0.812260  0.562560  0.568820  1.0  -0.102
  C  C750  1  0.548280  0.825180  0.802360  1.0  -0.0705
  C  C751  1  0.443640  0.937440  0.931180  1.0  -0.1015
  C  C752  1  0.789860  0.542160  0.091320  1.0  -0.1279
  C  C753  1  0.305550  0.100150  0.520250  1.0  0.4622
  C  C754  1  0.446030  0.425430  0.885910  1.0  -0.0107
  C  C755  1  0.032800  0.111400  0.298700  1.0  -0.0617
  C  C756  1  0.133040  0.170640  0.206580  1.0  0.3174
  C  C757  1  0.485220  0.694820  0.092940  1.0  -0.1239
  C  C758  1  0.399560  0.173360  0.651320  1.0  0.2769
  C  C759  1  0.193760  0.377960  0.178620  1.0  0.3186
  C  C760  1  0.289890  0.225290  0.097830  1.0  0.2883
  C  C761  1  0.024400  0.823900  0.531800  1.0  0.3818
  C  C762  1  0.820430  0.576930  0.542510  1.0  -0.0602
  C  C763  1  0.305180  0.272980  0.907060  1.0  -0.1282
  C  C764  1  0.244180  0.607880  0.904960  1.0  -0.0771
  C  C765  1  0.257020  0.892120  0.595040  1.0  -0.0788
  C  C766  1  0.107880  0.744180  0.404960  1.0  -0.0798
  C  C767  1  0.765780  0.360980  0.814360  1.0  -0.1171
  C  C768  1  0.372280  0.004780  0.940060  1.0  0.2773
  C  C769  1  0.633040  0.989740  0.706580  1.0  0.3184
  C  C770  1  0.688990  0.947790  0.359330  1.0  -0.1154
  C  C771  1  0.613310  0.900610  0.028770  1.0  -0.1335
  C  C772  1  0.243020  0.252020  0.066240  1.0  -0.1225
  C  C773  1  0.713800  0.575800  0.977500  1.0  0.4528
  C  C774  1  0.253590  0.184190  0.610730  1.0  -0.0917
  C  C775  1  0.860500  0.419700  0.676100  1.0  -0.183
  C  C776  1  0.600150  0.805550  0.020250  1.0  0.4626
  C  C777  1  0.029620  0.784220  0.423740  1.0  -0.068
  C  C778  1  0.096840  0.004540  0.520880  1.0  -0.1409
  C  C779  1  0.755820  0.392120  0.095040  1.0  -0.0782
  C  C780  1  0.247980  0.256980  0.433760  1.0  -0.1231
  C  C781  1  0.024900  0.877300  0.654500  1.0  0.3039
  C  C782  1  0.004780  0.682880  0.940060  1.0  0.2799
  C  C783  1  0.896370  0.442070  0.725690  1.0  0.3359
  C  C784  1  0.481060  0.137860  0.667220  1.0  -0.08
  C  C785  1  0.674820  0.951720  0.697640  1.0  -0.0702
  C  C786  1  0.246980  0.005180  0.556160  1.0  0.4538
  C  C787  1  0.493110  0.433610  0.906370  1.0  -0.1416
  C  C788  1  0.710140  0.923340  0.408680  1.0  -0.1292
  C  C789  1  0.590450  0.020850  0.078150  1.0  -0.1597
  C  C790  1  0.189450  0.479150  0.421850  1.0  -0.1622
  C  C791  1  0.392120  0.757020  0.095040  1.0  -0.0757
  C  C792  1  0.006890  0.333090  0.593630  1.0  -0.1347
  C  C793  1  0.234220  0.639020  0.185640  1.0  -0.1169
  C  C794  1  0.014780  0.772980  0.407060  1.0  -0.1261
  C  C795  1  0.877300  0.443300  0.654500  1.0  0.3053
  C  C796  1  0.256980  0.061280  0.433760  1.0  -0.1207
  C  C797  1  0.179570  0.423070  0.457490  1.0  -0.0602
  C  C798  1  0.343880  0.194380  0.962260  1.0  -0.0984
  C  C799  1  0.402210  0.946810  0.975970  1.0  -0.0684
  C  C800  1  0.100440  0.724240  0.848680  1.0  0.2801
  C  C801  1  0.637860  0.981060  0.167220  1.0  -0.0809
  C  C802  1  0.757440  0.815040  0.554480  1.0  -0.0438
  C  C803  1  0.757370  0.553970  0.114090  1.0  -0.0104
  C  C804  1  0.524900  0.943300  0.154500  1.0  0.3026
  C  C805  1  0.122040  0.306240  0.321380  1.0  0.3185
  C  C806  1  0.381820  0.168920  0.973840  1.0  -0.0258
  C  C807  1  0.843880  0.999480  0.462260  1.0  -0.0978
  C  C808  1  0.175790  0.140990  0.420230  1.0  -0.167
  C  C809  1  0.532800  0.057100  0.798700  1.0  -0.0603
  C  C810  1  0.948580  0.908480  0.679160  1.0  -0.0652
  C  C811  1  0.329650  0.172350  0.545450  1.0  -0.1398
  C  C812  1  0.933610  0.993110  0.406370  1.0  -0.1459
  C  C813  1  0.676100  0.475600  0.968200  1.0  0.3812
  C  C814  1  0.062560  0.312260  0.068820  1.0  -0.1014
  C  C815  1  0.495460  0.403160  0.979120  1.0  -0.1413
  C  C816  1  0.004540  0.377740  0.520880  1.0  -0.1386
  C  C817  1  0.089210  0.282210  0.300470  1.0  -0.0869
  C  C818  1  0.675510  0.367810  0.965470  1.0  -0.1762
  C  C819  1  0.518940  0.862140  0.332780  1.0  -0.08
  C  C820  1  0.433610  0.166910  0.906370  1.0  -0.1381
  C  C821  1  0.545590  0.784090  0.812830  1.0  -0.0808
  C  C822  1  0.312260  0.556360  0.068820  1.0  -0.0995
  C  C823  1  0.743020  0.938720  0.566240  1.0  -0.1208
  C  C824  1  0.753590  0.451490  0.110730  1.0  -0.0907
  C  C825  1  0.818400  0.382000  0.822700  1.0  0.2642
  C  C826  1  0.789890  0.886990  0.597830  1.0  0.2956
  C  C827  1  0.775200  0.346300  0.858700  1.0  -0.0308
  C  C828  1  0.262990  0.175790  0.420230  1.0  -0.1706
  C  C829  1  0.989740  0.670640  0.706580  1.0  0.3171
  C  C830  1  0.076660  0.042160  0.591320  1.0  -0.1248
  C  C831  1  0.589210  0.828110  0.800470  1.0  -0.0843
  C  C832  1  0.756810  0.438810  0.632570  1.0  -0.1393
  C  C833  1  0.922610  0.734010  0.591770  1.0  -0.121
  C  C834  1  0.242980  0.244180  0.904960  1.0  -0.0792
  C  C835  1  0.866910  0.418410  0.700370  1.0  -0.0799
  C  C836  1  0.715780  0.470380  0.076260  1.0  -0.0716
  C  C837  1  0.171890  0.217790  0.199530  1.0  -0.0869
  C  C838  1  0.231520  0.594620  0.888640  1.0  0.2723
  C  C839  1  0.005180  0.191680  0.556160  1.0  0.4559
  C  C840  1  0.125030  0.274530  0.310010  1.0  -0.1923
  C  C841  1  0.975600  0.176100  0.468200  1.0  0.3837
  C  C842  1  0.252020  0.438720  0.066240  1.0  -0.1219
  C  C843  1  0.817120  0.495220  0.559940  1.0  0.2789
  C  C844  1  0.991210  0.675510  0.965470  1.0  -0.1776
  C  C845  1  0.174820  0.175820  0.197640  1.0  -0.0685
  C  C846  1  0.284220  0.529620  0.923740  1.0  -0.0719
  C  C847  1  0.475100  0.056700  0.845500  1.0  0.3049
  C  C848  1  0.343240  0.054540  0.618680  1.0  0.2715
  C  C849  1  0.622260  0.903160  0.479120  1.0  -0.1354
  C  C850  1  0.346300  0.019800  0.858700  1.0  -0.0304
  C  C851  1  0.826640  0.224240  0.348680  1.0  0.2776
  C  C852  1  0.010260  0.329360  0.293420  1.0  0.3164
  C  C853  1  0.724130  0.735530  0.951610  1.0  -0.0818
  C  C854  1  0.594620  0.285220  0.888640  1.0  0.2753
  C  C855  1  0.694450  0.899850  0.479750  1.0  0.4622
  C  C856  1  0.140990  0.262990  0.420230  1.0  -0.1692
  C  C857  1  0.919700  0.360500  0.176100  1.0  -0.1811
  C  C858  1  0.603630  0.564130  0.774310  1.0  0.3387
  C  C859  1  0.066390  0.006890  0.593630  1.0  -0.1409
  C  C860  1  0.215910  0.142510  0.187170  1.0  -0.074
  C  C861  1  0.805180  0.014780  0.407060  1.0  -0.1262
  C  C862  1  0.235530  0.224130  0.451610  1.0  -0.0843
  C  C863  1  0.286200  0.424200  0.022500  1.0  0.4538
  C  C864  1  0.418410  0.014310  0.700370  1.0  -0.0848
  C  C865  1  0.542160  0.576660  0.091320  1.0  -0.1319
  C  C866  1  0.264470  0.411270  0.048390  1.0  -0.0787
  C  C867  1  0.862140  0.286140  0.332780  1.0  -0.0815
  C  C868  1  0.519800  0.846300  0.358700  1.0  -0.0261
  C  C869  1  0.091520  0.536220  0.320840  1.0  -0.0648
  C  C870  1  0.827650  0.047450  0.454550  1.0  -0.1471
  C  C871  1  0.357490  0.284090  0.312830  1.0  -0.0772
  C  C872  1  0.257370  0.074570  0.614090  1.0  -0.013
  C  C873  1  0.583990  0.744790  0.823030  1.0  -0.1241
  C  C874  1  0.457310  0.613310  0.028770  1.0  -0.134
  C  C875  1  0.056700  0.622700  0.845500  1.0  0.303
  C  C876  1  0.810550  0.520850  0.578150  1.0  -0.1621
  C  C877  1  0.687740  0.443640  0.931180  1.0  -0.0994
  C  C878  1  0.496110  0.552210  0.140670  1.0  -0.1186
  C  C879  1  0.099210  0.534510  0.344870  1.0  -0.1352
  C  C880  1  0.058880  0.765780  0.814360  1.0  -0.1025
  C  C881  1  0.905380  0.268480  0.611360  1.0  0.2673
  C  C882  1  0.080300  0.639500  0.823900  1.0  -0.1826
  C  C883  1  0.576930  0.060130  0.542510  1.0  -0.0615
  C  C884  1  0.768480  0.405380  0.111360  1.0  0.2716
  C  C885  1  0.581590  0.985690  0.299630  1.0  -0.0808
  C  C886  1  0.514780  0.305180  0.907060  1.0  -0.124
  C  C887  1  0.137860  0.713860  0.667220  1.0  -0.0805
  C  C888  1  0.910790  0.717790  0.699530  1.0  -0.0866
  C  C889  1  0.811010  0.496110  0.140670  1.0  -0.1152
  C  C890  1  0.456300  0.080300  0.823900  1.0  -0.1858
  C  C891  1  0.246410  0.548510  0.889270  1.0  -0.0907
  C  C892  1  0.574540  0.230840  0.922480  1.0  -0.1481
  C  C893  1  0.633090  0.485690  0.799630  1.0  -0.0804
  C  C894  1  0.016460  0.656760  0.381320  1.0  0.2797
  C  C895  1  0.400610  0.113310  0.528770  1.0  -0.1305
  C  C896  1  0.467200  0.942900  0.201300  1.0  -0.0588
  C  C897  1  0.170640  0.489740  0.206580  1.0  0.3195
  C  C898  1  0.380100  0.975600  0.468200  1.0  0.3813
  C  C899  1  0.150640  0.932540  0.540680  1.0  0.283
  C  C900  1  0.067460  0.623860  0.459320  1.0  0.2851
  C  C901  1  0.651810  0.755210  0.676970  1.0  -0.1277
  C  C902  1  0.566390  0.833090  0.093630  1.0  -0.1385
  C  C903  1  0.786200  0.767100  0.522500  1.0  0.4523
  C  C904  1  0.727020  0.485220  0.092940  1.0  -0.1245
  C  C905  1  0.248390  0.077390  0.408230  1.0  -0.1204
  C  C906  1  0.056360  0.812260  0.568820  1.0  -0.1005
  C  C907  1  0.127720  0.817120  0.559940  1.0  0.2778
  C  C908  1  0.558880  0.860980  0.314360  1.0  -0.1052
  C  C909  1  0.790430  0.774530  0.810010  1.0  -0.1924
  C  C910  1  0.957840  0.710140  0.408680  1.0  -0.1301
  C  C911  1  0.742980  0.107880  0.404960  1.0  -0.0755
  C  C912  1  0.876140  0.432540  0.040680  1.0  0.2837
  C  C913  1  0.326640  0.100440  0.848680  1.0  0.2776
  C  C914  1  0.534510  0.021410  0.344870  1.0  -0.1404
  C  C915  1  0.681600  0.523100  0.677300  1.0  0.2668
  C  C916  1  0.122700  0.556700  0.345500  1.0  0.3012
  C  C917  1  0.942070  0.396370  0.225690  1.0  0.3334
  C  C918  1  0.020850  0.310550  0.078150  1.0  -0.1586
  C  C919  1  0.627720  0.995220  0.059940  1.0  0.2767
  C  C920  1  0.090450  0.810550  0.578150  1.0  -0.1562
  C  C921  1  0.994820  0.808320  0.443840  1.0  0.4574
  C  C922  1  0.940010  0.966510  0.361670  1.0  -0.1045
  C  C923  1  0.734010  0.751610  0.591770  1.0  -0.121
  C  C924  1  0.772980  0.805180  0.407060  1.0  -0.1261
  C  C925  1  0.839970  0.236170  0.323990  1.0  0.0502
  C  C926  1  0.100150  0.074050  0.520250  1.0  0.457
  C  C927  1  0.214780  0.905380  0.611360  1.0  0.2753
  C  C928  1  0.613010  0.710110  0.902170  1.0  0.287
  C  C929  1  0.506890  0.566390  0.093630  1.0  -0.1432
  C  C930  1  0.118180  0.024580  0.526160  1.0  -0.0286
  C  C931  1  0.772140  0.730840  0.422480  1.0  -0.1444
  C  C932  1  0.650640  0.876140  0.040680  1.0  0.2831
  C  C933  1  0.763830  0.400130  0.676010  1.0  0.0487
  C  C934  1  0.262420  0.284220  0.923740  1.0  -0.0683
  C  C935  1  0.866960  0.829360  0.793420  1.0  0.3179
  C  C936  1  0.639500  0.456300  0.823900  1.0  -0.1824
  C  C937  1  0.290430  0.125030  0.310010  1.0  -0.1895
  C  C938  1  0.272140  0.574540  0.922480  1.0  -0.1481
  C  C939  1  0.946030  0.742630  0.385910  1.0  -0.0115
  C  C940  1  0.057930  0.603630  0.774310  1.0  0.3378
  C  C941  1  0.194820  0.985220  0.592940  1.0  -0.1253
  C  C942  1  0.061280  0.247980  0.433760  1.0  -0.1218
  C  C943  1  0.900610  0.457310  0.028770  1.0  -0.1311
  C  C944  1  0.925950  0.694450  0.479750  1.0  0.4581
  C  C945  1  0.679570  0.439870  0.957490  1.0  -0.0614
  C  C946  1  0.829360  0.510260  0.793420  1.0  0.3191
  C  C947  1  0.244790  0.083990  0.323030  1.0  -0.1254
  C  C948  1  0.074050  0.305550  0.520250  1.0  0.458
  C  C949  1  0.268480  0.214780  0.611360  1.0  0.2729
  C  C950  1  0.057100  0.611400  0.798700  1.0  -0.0572
  C  C951  1  0.051420  0.091520  0.320840  1.0  -0.0658
  C  C952  1  0.574050  0.600150  0.020250  1.0  0.4567
  C  C953  1  0.285220  0.231520  0.888640  1.0  0.276
  C  C954  1  0.318400  0.476900  0.322700  1.0  0.2659
  C  C955  1  0.559990  0.768190  0.138330  1.0  -0.1115
  C  C956  1  0.324990  0.597790  0.024030  1.0  -0.0653
  C  C957  1  0.923070  0.679570  0.957490  1.0  -0.0601
  C  C958  1  0.060130  0.820430  0.542510  1.0  -0.0627
  C  C959  1  0.425950  0.399850  0.979750  1.0  0.4573
  C  C960  1  0.951490  0.253590  0.610730  1.0  -0.0893
  C  C961  1  0.491210  0.867810  0.465470  1.0  -0.1763
  C  C962  1  0.494820  0.253020  0.943840  1.0  0.455
  C  C963  1  0.263830  0.660030  0.176010  1.0  0.0418
  C  C964  1  0.653700  0.980200  0.141300  1.0  -0.0278
  C  C965  1  0.823900  0.619900  0.531800  1.0  0.381
  C  C966  1  0.360500  0.543700  0.176100  1.0  -0.1835
  C  C967  1  0.694820  0.727020  0.092940  1.0  -0.1269
  C  C968  1  0.256810  0.671810  0.132570  1.0  -0.1499
  C  C969  1  0.873040  0.757440  0.554480  1.0  -0.0471
  C  C970  1  0.888600  0.442900  0.701300  1.0  -0.0588
  C  C971  1  0.908480  0.463780  0.679160  1.0  -0.0651
  C  C972  1  0.445460  0.156760  0.881320  1.0  0.2801
  C  C973  1  0.520850  0.090450  0.578150  1.0  -0.1582
  C  C974  1  0.480200  0.153700  0.641300  1.0  -0.0304
  C  C975  1  0.932540  0.376140  0.540680  1.0  0.2838
  C  C976  1  0.231810  0.466510  0.861670  1.0  -0.1111
  C  C977  1  0.454410  0.215910  0.187170  1.0  -0.0787
  C  C978  1  0.938810  0.256810  0.132570  1.0  -0.1435
  C  C979  1  0.937440  0.687740  0.931180  1.0  -0.1017
  C  C980  1  0.508790  0.132190  0.534530  1.0  -0.1768
  C  C981  1  0.975100  0.122700  0.345500  1.0  0.3099
  C  C982  1  0.670640  0.633040  0.706580  1.0  0.3171
  C  C983  1  0.782210  0.589210  0.800470  1.0  -0.088
  C  C984  1  0.970380  0.215780  0.576260  1.0  -0.0681
  C  C985  1  0.765990  0.577390  0.908230  1.0  -0.1218
  C  C986  1  0.061190  0.743190  0.867430  1.0  -0.1466
  C  C987  1  0.846300  0.275200  0.358700  1.0  -0.0332
  C  C988  1  0.939870  0.179570  0.457490  1.0  -0.0609
  C  C989  1  0.824180  0.548280  0.802360  1.0  -0.0701
  C  C990  1  0.900790  0.465490  0.655130  1.0  -0.1368
  C  C991  1  0.045590  0.357490  0.312830  1.0  -0.0732
  C  C992  1  0.642510  0.715910  0.687170  1.0  -0.0798
  C  C993  1  0.560130  0.076930  0.042510  1.0  -0.0611
  C  C994  1  0.036220  0.591520  0.820840  1.0  -0.0646
  C  C995  1  0.557930  0.064130  0.274310  1.0  0.3367
  C  C996  1  0.785220  0.094620  0.388640  1.0  0.2767
  C  C997  1  0.126960  0.242560  0.445520  1.0  -0.0468
  C  C998  1  0.176100  0.380100  0.468200  1.0  0.3812
  C  C999  1  0.168920  0.475420  0.973840  1.0  -0.0307
  C  C1000  1  0.619900  0.024400  0.531800  1.0  0.381
  C  C1001  1  0.524580  0.618180  0.026160  1.0  -0.028
  C  C1002  1  0.132190  0.824490  0.534530  1.0  -0.1775
  C  C1003  1  0.735530  0.588730  0.951610  1.0  -0.0811
  C  C1004  1  0.943300  0.377300  0.154500  1.0  0.3052
  C  C1005  1  0.577390  0.748390  0.908230  1.0  -0.1212
  C  C1006  1  0.742630  0.925430  0.385910  1.0  -0.0131
  C  C1007  1  0.762990  0.640990  0.920230  1.0  -0.1655
  C  C1008  1  0.094620  0.731520  0.388640  1.0  0.2672
  C  C1009  1  0.607880  0.242980  0.904960  1.0  -0.0779
  C  C1010  1  0.405380  0.714780  0.111360  1.0  0.2684
  C  C1011  1  0.952550  0.329650  0.545450  1.0  -0.1431
  C  C1012  1  0.622040  0.750340  0.821380  1.0  0.3168
  C  C1013  1  0.479150  0.909550  0.421850  1.0  -0.1568
  C  C1014  1  0.963780  0.408480  0.179160  1.0  -0.0641
  C  C1015  1  0.243190  0.561190  0.367430  1.0  -0.1403
  C  C1016  1  0.103630  0.557930  0.274310  1.0  0.3385
  C  C1017  1  0.533490  0.559990  0.138330  1.0  -0.1075
  C  C1018  1  0.938720  0.752020  0.566240  1.0  -0.1212
  C  C1019  1  0.475600  0.880100  0.968200  1.0  0.3811
  C  C1020  1  0.711510  0.588310  0.111570  1.0  0.4506
  C  C1021  1  0.224240  0.600440  0.348680  1.0  0.2804
  C  C1022  1  0.942900  0.388600  0.201300  1.0  -0.0582
  C  C1023  1  0.673360  0.899560  0.151320  1.0  0.2779
  C  C1024  1  0.709570  0.874970  0.689990  1.0  -0.1879
  C  C1025  1  0.691680  0.505180  0.056160  1.0  0.456
  C  C1026  1  0.503890  0.447790  0.859330  1.0  -0.1156
  C  C1027  1  0.717790  0.671890  0.699530  1.0  -0.0843
  C  C1028  1  0.315810  0.246410  0.889270  1.0  -0.0906
  C  C1029  1  0.925460  0.227860  0.577520  1.0  -0.1486
  C  C1030  1  0.993110  0.666910  0.406370  1.0  -0.137
  C  C1031  1  0.824490  0.508790  0.534530  1.0  -0.1741
  C  C1032  1  0.966510  0.731810  0.361670  1.0  -0.1093
  C  C1033  1  0.432540  0.650640  0.040680  1.0  0.2831
  C  C1034  1  0.019800  0.775200  0.858700  1.0  -0.0346
  C  C1035  1  0.064130  0.103630  0.274310  1.0  0.336
  C  C1036  1  0.752020  0.743020  0.566240  1.0  -0.1241
  C  C1037  1  0.059990  0.033490  0.638330  1.0  -0.1023
  C  C1038  1  0.775760  0.399560  0.651320  1.0  0.2747
  C  C1039  1  0.553970  0.574570  0.114090  1.0  -0.0122
  C  C1040  1  0.521410  0.034510  0.844870  1.0  -0.1371
  C  C1041  1  0.524400  0.119900  0.031800  1.0  0.3817
  C  C1042  1  0.442900  0.967200  0.701300  1.0  -0.0586
  C  C1043  1  0.580300  0.956300  0.323900  1.0  -0.1839
  C  C1044  1  0.640990  0.675790  0.920230  1.0  -0.1714
  C  C1045  1  0.808320  0.753020  0.443840  1.0  0.4594
  C  C1046  1  0.743190  0.328190  0.867430  1.0  -0.151
  C  C1047  1  0.173360  0.775760  0.651320  1.0  0.2807
  C  C1048  1  0.886990  0.725290  0.597830  1.0  0.2936
  C  C1049  1  0.536220  0.051420  0.320840  1.0  -0.061
  C  C1050  1  0.757020  0.755820  0.095040  1.0  -0.0809
  C  C1051  1  0.053970  0.257370  0.614090  1.0  -0.0107
  C  C1052  1  0.947790  0.003890  0.359330  1.0  -0.1131
  C  C1053  1  0.075800  0.213800  0.477500  1.0  0.4538
  C  C1054  1  0.935870  0.896370  0.725690  1.0  0.3388
  C  C1055  1  0.225470  0.374970  0.189990  1.0  -0.1905
  C  C1056  1  0.451490  0.684190  0.110730  1.0  -0.0926
  C  C1057  1  0.320430  0.560130  0.042510  1.0  -0.0621
  C  C1058  1  0.656760  0.945460  0.381320  1.0  0.28
  C  C1059  1  0.978590  0.900790  0.655130  1.0  -0.1364
  C  C1060  1  0.213800  0.232900  0.477500  1.0  0.4544
  C  C1061  1  0.139020  0.734220  0.685640  1.0  -0.106
  C  C1062  1  0.714780  0.768480  0.111360  1.0  0.27
  C  C1063  1  0.438720  0.243020  0.066240  1.0  -0.1227
  C  C1064  1  0.410790  0.171890  0.199530  1.0  -0.0838
  C  C1065  1  0.166910  0.493110  0.906370  1.0  -0.1392
  C  C1066  1  0.386990  0.289890  0.097830  1.0  0.2894
  C  C1067  1  0.588730  0.724130  0.951610  1.0  -0.0828
  C  C1068  1  0.995220  0.317120  0.059940  1.0  0.2788
  C  C1069  1  0.181600  0.618000  0.177300  1.0  0.2668
  C  C1070  1  0.227860  0.269160  0.577520  1.0  -0.1388
  C  C1071  1  0.265780  0.558880  0.314360  1.0  -0.1016
  C  C1072  1  0.175010  0.446810  0.475970  1.0  -0.0681
  C  C1073  1  0.209570  0.225470  0.189990  1.0  -0.1915
  C  C1074  1  0.440010  0.231810  0.861670  1.0  -0.1109
  C  C1075  1  0.170350  0.547450  0.954550  1.0  -0.1463
  C  C1076  1  0.675790  0.762990  0.920230  1.0  -0.1716
  C  C1077  1  0.311010  0.052210  0.640670  1.0  -0.1161
  C  C1078  1  0.744180  0.742980  0.404960  1.0  -0.0777
  C  C1079  1  0.514310  0.918410  0.200370  1.0  -0.0824
  C  C1080  1  0.736170  0.339970  0.823990  1.0  0.0431
  C  C1081  1  0.286140  0.518940  0.332780  1.0  -0.0792
  C  C1082  1  0.133090  0.581590  0.299630  1.0  -0.0797
  C  C1083  1  0.874970  0.725470  0.689990  1.0  -0.1918
  C  C1084  1  0.542690  0.386690  0.971230  1.0  -0.1363
  C  C1085  1  0.762420  0.029620  0.423740  1.0  -0.0716
  C  C1086  1  0.591520  0.551420  0.820840  1.0  -0.0619
  C  C1087  1  0.730840  0.074540  0.422480  1.0  -0.1475
  C  C1088  1  0.210140  0.457840  0.908680  1.0  -0.1287
  C  C1089  1  0.829650  0.452550  0.045450  1.0  -0.1439
  C  C1090  1  0.805620  0.500520  0.037740  1.0  -0.0904
  C  C1091  1  0.911270  0.764470  0.548390  1.0  -0.0832
  C  C1092  1  0.483540  0.554540  0.118680  1.0  0.2703
  C  C1093  1  0.339970  0.099870  0.823990  1.0  0.0444
  C  C1094  1  0.171810  0.756810  0.632570  1.0  -0.1484
  C  C1095  1  0.423070  0.939870  0.457490  1.0  -0.0614
  C  C1096  1  0.331080  0.118180  0.526160  1.0  -0.0291
  C  C1097  1  0.985220  0.227020  0.592940  1.0  -0.1293
  C  C1098  1  0.951720  0.675820  0.697640  1.0  -0.0704
  C  C1099  1  0.626960  0.684960  0.945520  1.0  -0.0399
  C  C1100  1  0.965490  0.400790  0.155130  1.0  -0.1386
  C  C1101  1  0.308320  0.494820  0.943840  1.0  0.4578
  C  C1102  1  0.422610  0.251610  0.091770  1.0  -0.1205
  C  C1103  1  0.899850  0.925950  0.479750  1.0  0.4572
  C  C1104  1  0.995460  0.622260  0.479120  1.0  -0.1417
  C  C1105  1  0.187740  0.437440  0.431180  1.0  -0.1029
  C  C1106  1  0.099870  0.736170  0.823990  1.0  0.0463
  C  C1107  1  0.588310  0.588610  0.111570  1.0  0.4531
  C  C1108  1  0.744790  0.848190  0.823030  1.0  -0.1258
  C  C1109  1  0.411270  0.275870  0.048390  1.0  -0.088
  C  C1110  1  0.564130  0.057930  0.774310  1.0  0.3331
  C  C1111  1  0.194380  0.499480  0.962260  1.0  -0.0938
  C  C1112  1  0.660030  0.900130  0.176010  1.0  0.0451
  C  C1113  1  0.900130  0.263830  0.176010  1.0  0.0402
  C  C1114  1  0.305620  0.156120  0.537740  1.0  -0.0947
  C  C1115  1  0.465490  0.978590  0.655130  1.0  -0.1407
  C  C1116  1  0.945460  0.016460  0.381320  1.0  0.2691
  C  C1117  1  0.805550  0.574050  0.020250  1.0  0.4583
  C  C1118  1  0.764470  0.775870  0.548390  1.0  -0.0807
  C  C1119  1  0.230840  0.272140  0.922480  1.0  -0.1459
  C  C1120  1  0.632190  0.008790  0.034530  1.0  -0.1765
  C  C1121  1  0.849360  0.067460  0.459320  1.0  0.2797
  C  C1122  1  0.328190  0.061190  0.867430  1.0  -0.1374
  C  C1123  1  0.767100  0.924200  0.522500  1.0  0.4525
  C  C1124  1  0.023100  0.181600  0.177300  1.0  0.2815
  C  C1125  1  0.806240  0.622040  0.821380  1.0  0.3177
  C  C1126  1  0.599390  0.886690  0.471230  1.0  -0.1341
  C  C1127  1  0.941120  0.234220  0.185640  1.0  -0.1029
  C  C1128  1  0.088310  0.211510  0.611570  1.0  0.452
  C  C1129  1  0.504780  0.872280  0.440060  1.0  0.2793
  C  C1130  1  0.882000  0.318400  0.322700  1.0  0.2669
  C  C1131  1  0.731520  0.785220  0.388640  1.0  0.2754
  C  C1132  1  0.600440  0.826640  0.348680  1.0  0.2769
  C  C1133  1  0.737580  0.715780  0.076260  1.0  -0.0696
  C  C1134  1  0.943640  0.187740  0.431180  1.0  -0.0992
  C  C1135  1  0.008790  0.324490  0.034530  1.0  -0.1742
  C  C1136  1  0.047450  0.670350  0.454550  1.0  -0.1468
  C  C1137  1  0.265990  0.248390  0.408230  1.0  -0.1197
  C  C1138  1  0.684190  0.753590  0.110730  1.0  -0.0904
  C  C1139  1  0.324180  0.325180  0.302360  1.0  -0.0698
  C  C1140  1  0.328110  0.089210  0.300470  1.0  -0.0877
  C  C1141  1  0.377960  0.249660  0.178620  1.0  0.3187
  C  C1142  1  0.499480  0.343880  0.962260  1.0  -0.0987
  C  C1143  1  0.784090  0.857490  0.812830  1.0  -0.0727
  C  C1144  1  0.269160  0.925460  0.577520  1.0  -0.1471
  C  C1145  1  0.210110  0.113010  0.402170  1.0  0.2891
  C  C1146  1  0.731810  0.940010  0.361670  1.0  -0.1129
  C  C1147  1  0.867810  0.175510  0.465470  1.0  -0.1766
  C  C1148  1  0.596840  0.877740  0.020880  1.0  -0.1398
  N  N1149  1  0.719080  0.662480  0.861460  1.0  -0.4933
  N  N1150  1  0.811350  0.152850  0.405050  1.0  -0.4695
  N  N1151  1  0.361570  0.120270  0.634190  1.0  -0.5393
  N  N1152  1  0.243020  0.280920  0.138540  1.0  -0.493
  N  N1153  1  0.130750  0.652850  0.905050  1.0  -0.4719
  N  N1154  1  0.162480  0.219080  0.361460  1.0  -0.4928
  N  N1155  1  0.311350  0.130750  0.905050  1.0  -0.4677
  N  N1156  1  0.756980  0.719080  0.861460  1.0  -0.4943
  N  N1157  1  0.879730  0.116030  0.365810  1.0  -0.5391
  N  N1158  1  0.219080  0.256980  0.361460  1.0  -0.4951
  N  N1159  1  0.919230  0.391030  0.088110  1.0  -0.5602
  N  N1160  1  0.743020  0.837520  0.638540  1.0  -0.5079
  N  N1161  1  0.369250  0.188650  0.594950  1.0  -0.4681
  N  N1162  1  0.391030  0.601630  0.088110  1.0  -0.5657
  N  N1163  1  0.638430  0.879730  0.365810  1.0  -0.5397
  N  N1164  1  0.152850  0.630750  0.405050  1.0  -0.4718
  N  N1165  1  0.688650  0.869250  0.094950  1.0  -0.4705
  N  N1166  1  0.861570  0.383970  0.134190  1.0  -0.538
  N  N1167  1  0.869250  0.347150  0.094950  1.0  -0.4741
  N  N1168  1  0.120270  0.883970  0.634190  1.0  -0.5392
  N  N1169  1  0.383970  0.620270  0.134190  1.0  -0.5388
  N  N1170  1  0.780920  0.743020  0.638540  1.0  -0.4957
  N  N1171  1  0.398370  0.080770  0.911890  1.0  -0.5628
  N  N1172  1  0.608970  0.398370  0.911890  1.0  -0.5654
  N  N1173  1  0.101630  0.891030  0.588110  1.0  -0.56
  N  N1174  1  0.891030  0.419230  0.588110  1.0  -0.5604
  N  N1175  1  0.347150  0.688650  0.094950  1.0  -0.4677
  N  N1176  1  0.616030  0.379730  0.865810  1.0  -0.5388
  N  N1177  1  0.847150  0.369250  0.594950  1.0  -0.4716
  N  N1178  1  0.883970  0.361570  0.634190  1.0  -0.5384
  N  N1179  1  0.620270  0.861570  0.134190  1.0  -0.5392
  N  N1180  1  0.280920  0.337520  0.138540  1.0  -0.4933
  N  N1181  1  0.580770  0.898370  0.411890  1.0  -0.5645
  N  N1182  1  0.116030  0.638430  0.365810  1.0  -0.5395
  N  N1183  1  0.419230  0.101630  0.588110  1.0  -0.5622
  N  N1184  1  0.138430  0.616030  0.865810  1.0  -0.5381
  N  N1185  1  0.652850  0.311350  0.905050  1.0  -0.4704
  N  N1186  1  0.080770  0.608970  0.911890  1.0  -0.5597
  N  N1187  1  0.108970  0.580770  0.411890  1.0  -0.5621
  N  N1188  1  0.837520  0.780920  0.638540  1.0  -0.4934
  N  N1189  1  0.379730  0.138430  0.865810  1.0  -0.5392
  N  N1190  1  0.601630  0.919230  0.088110  1.0  -0.5612
  N  N1191  1  0.898370  0.108970  0.411890  1.0  -0.5609
  N  N1192  1  0.188650  0.847150  0.594950  1.0  -0.4737
  N  N1193  1  0.256980  0.162480  0.361460  1.0  -0.5058
  N  N1194  1  0.662480  0.756980  0.861460  1.0  -0.5076
  N  N1195  1  0.337520  0.243020  0.138540  1.0  -0.5068
  N  N1196  1  0.630750  0.811350  0.405050  1.0  -0.4677
  O  O1197  1  0.228960  0.292560  0.015120  1.0  -0.6483
  O  O1198  1  0.758850  0.596450  0.026850  1.0  -0.6043
  O  O1199  1  0.944520  0.371820  0.130140  1.0  -0.3987
  O  O1200  1  0.153030  0.153030  0.540910  1.0  -1.0537
  O  O1201  1  0.655350  0.562850  0.660650  1.0  -0.4368
  O  O1202  1  0.796220  0.512220  0.781840  1.0  -0.4683
  O  O1203  1  0.463360  0.228960  0.015120  1.0  -0.6484
  O  O1204  1  0.301390  0.397990  0.912130  1.0  -0.5636
  O  O1205  1  0.521040  0.093740  0.703580  1.0  -0.5944
  O  O1206  1  0.436190  0.172890  0.992530  1.0  -0.6205
  O  O1207  1  0.053090  0.613390  0.379430  1.0  -0.4741
  O  O1208  1  0.296220  0.409720  0.281840  1.0  -0.4711
  O  O1209  1  0.953460  0.873260  0.748820  1.0  -0.5937
  O  O1210  1  0.373260  0.453460  0.248820  1.0  -0.5961
  O  O1211  1  0.384770  0.667170  0.048690  1.0  -0.422
  O  O1212  1  0.995220  0.173920  0.541340  1.0  -0.6164
  O  O1213  1  0.704020  0.796620  0.370640  1.0  -0.4139
  O  O1214  1  0.693550  0.857850  0.142650  1.0  -0.4706
  O  O1215  1  0.728960  0.963360  0.515120  1.0  -0.6485
  O  O1216  1  0.553090  0.454090  0.879430  1.0  -0.4753
  O  O1217  1  0.871820  0.444520  0.630140  1.0  -0.3972
  O  O1218  1  0.344650  0.437150  0.339350  1.0  -0.4346
  O  O1219  1  0.580700  0.677100  0.130200  1.0  -0.6483
  O  O1220  1  0.004780  0.826080  0.458660  1.0  -0.617
  O  O1221  1  0.388000  0.419300  0.869800  1.0  -0.6558
  O  O1222  1  0.053520  0.871820  0.630140  1.0  -0.3984
  O  O1223  1  0.201010  0.126710  0.376970  1.0  -0.4868
  O  O1224  1  0.063810  0.101610  0.507470  1.0  -0.6211
  O  O1225  1  0.562850  0.121150  0.660650  1.0  -0.4257
  O  O1226  1  0.873290  0.704690  0.623030  1.0  -0.4834
  O  O1227  1  0.801390  0.888490  0.412130  1.0  -0.5631
  O  O1228  1  0.388490  0.301390  0.912130  1.0  -0.5641
  O  O1229  1  0.340780  0.047980  0.928360  1.0  -0.3982
  O  O1230  1  0.906260  0.318360  0.296420  1.0  -0.5924
  O  O1231  1  0.628180  0.446480  0.869860  1.0  -0.3982
  O  O1232  1  0.888490  0.897990  0.412130  1.0  -0.5639
  O  O1233  1  0.630770  0.033270  0.703490  1.0  -0.5131
  O  O1234  1  0.327110  0.063810  0.507470  1.0  -0.6182
  O  O1235  1  0.631170  0.034070  0.504590  1.0  -0.5819
  O  O1236  1  0.206100  0.105000  0.494600  1.0  -0.595
  O  O1237  1  0.827110  0.601610  0.007470  1.0  -0.6178
  O  O1238  1  0.045910  0.946910  0.620570  1.0  -0.4737
  O  O1239  1  0.322560  0.482460  0.046020  1.0  -0.528
  O  O1240  1  0.033270  0.632470  0.703490  1.0  -0.5142
  O  O1241  1  0.012220  0.296220  0.281840  1.0  -0.4693
  O  O1242  1  0.888000  0.822900  0.369800  1.0  -0.646
  O  O1243  1  0.741150  0.882150  0.473150  1.0  -0.6046
  O  O1244  1  0.648960  0.982460  0.546020  1.0  -0.528
  O  O1245  1  0.182880  0.547980  0.428360  1.0  -0.4008
  O  O1246  1  0.792560  0.728960  0.515120  1.0  -0.6502
  O  O1247  1  0.126710  0.295310  0.376970  1.0  -0.4841
  O  O1248  1  0.177440  0.351040  0.453980  1.0  -0.5271
  O  O1249  1  0.173920  0.289520  0.541340  1.0  -0.6206
  O  O1250  1  0.632470  0.630770  0.703490  1.0  -0.5119
  O  O1251  1  0.596450  0.617850  0.026850  1.0  -0.6074
  O  O1252  1  0.682690  0.550390  0.051930  1.0  -0.6039
  O  O1253  1  0.789520  0.673920  0.041340  1.0  -0.616
  O  O1254  1  0.504780  0.210480  0.958660  1.0  -0.6193
  O  O1255  1  0.357850  0.193550  0.642650  1.0  -0.4705
  O  O1256  1  0.706100  0.694300  0.994600  1.0  -0.5895
  O  O1257  1  0.121150  0.655350  0.660650  1.0  -0.4241
  O  O1258  1  0.113390  0.553090  0.879430  1.0  -0.4743
  O  O1259  1  0.677440  0.517540  0.953980  1.0  -0.5269
  O  O1260  1  0.987780  0.703780  0.718160  1.0  -0.4671
  O  O1261  1  0.605000  0.706100  0.994600  1.0  -0.5946
  O  O1262  1  0.704320  0.786820  0.668840  1.0  -0.4352
  O  O1263  1  0.105000  0.194300  0.494600  1.0  -0.5848
  O  O1264  1  0.626740  0.546540  0.751180  1.0  -0.5969
  O  O1265  1  0.590280  0.987780  0.718160  1.0  -0.4685
  O  O1266  1  0.795310  0.626710  0.876970  1.0  -0.4815
  O  O1267  1  0.541130  0.111430  0.273710  1.0  -0.4933
  O  O1268  1  0.155350  0.621150  0.160650  1.0  -0.4321
  O  O1269  1  0.080700  0.112000  0.630200  1.0  -0.6511
  O  O1270  1  0.169830  0.368830  0.495410  1.0  -0.58
  O  O1271  1  0.241150  0.403550  0.973150  1.0  -0.6041
  O  O1272  1  0.785010  0.949610  0.448070  1.0  -0.6046
  O  O1273  1  0.132470  0.533270  0.203490  1.0  -0.5154
  O  O1274  1  0.128720  0.704020  0.370640  1.0  -0.4126
  O  O1275  1  0.895000  0.805700  0.505400  1.0  -0.581
  O  O1276  1  0.326080  0.504780  0.958660  1.0  -0.6193
  O  O1277  1  0.305700  0.395000  0.005400  1.0  -0.579
  O  O1278  1  0.369230  0.966730  0.296510  1.0  -0.513
  O  O1279  1  0.258850  0.117850  0.526850  1.0  -0.6035
  O  O1280  1  0.628720  0.296620  0.870640  1.0  -0.4139
  O  O1281  1  0.963360  0.792560  0.515120  1.0  -0.6491
  O  O1282  1  0.805700  0.793900  0.505400  1.0  -0.589
  O  O1283  1  0.090280  0.203780  0.218160  1.0  -0.4711
  O  O1284  1  0.851040  0.677440  0.953980  1.0  -0.5301
  O  O1285  1  0.130770  0.132470  0.203490  1.0  -0.5125
  O  O1286  1  0.131170  0.330170  0.004590  1.0  -0.5833
  O  O1287  1  0.378850  0.937150  0.839350  1.0  -0.437
  O  O1288  1  0.148960  0.322560  0.046020  1.0  -0.5306
  O  O1289  1  0.550390  0.714990  0.051930  1.0  -0.6044
  O  O1290  1  0.533270  0.130770  0.203490  1.0  -0.5147
  O  O1291  1  0.681640  0.521040  0.703580  1.0  -0.5929
  O  O1292  1  0.698610  0.602010  0.087870  1.0  -0.5648
  O  O1293  1  0.075540  0.626740  0.751180  1.0  -0.5954
  O  O1294  1  0.710480  0.004780  0.458660  1.0  -0.6214
  O  O1295  1  0.547980  0.840780  0.428360  1.0  -0.4024
  O  O1296  1  0.426270  0.388570  0.226290  1.0  -0.4913
  O  O1297  1  0.286820  0.204320  0.168840  1.0  -0.4367
  O  O1298  1  0.899370  0.384770  0.048690  1.0  -0.4207
  O  O1299  1  0.903550  0.741150  0.473150  1.0  -0.6032
  O  O1300  1  0.949610  0.817310  0.448070  1.0  -0.6031
  O  O1301  1  0.677100  0.612000  0.130200  1.0  -0.6505
  O  O1302  1  0.642150  0.806450  0.357350  1.0  -0.4701
  O  O1303  1  0.826080  0.710480  0.458660  1.0  -0.6203
  O  O1304  1  0.041130  0.573730  0.773710  1.0  -0.4923
  O  O1305  1  0.036640  0.207440  0.484880  1.0  -0.6484
  O  O1306  1  0.203380  0.871280  0.629360  1.0  -0.4182
  O  O1307  1  0.446910  0.545910  0.120570  1.0  -0.4765
  O  O1308  1  0.878850  0.344650  0.339350  1.0  -0.4243
  O  O1309  1  0.271040  0.036640  0.484880  1.0  -0.6505
  O  O1310  1  0.210480  0.326080  0.958660  1.0  -0.6175
  O  O1311  1  0.694050  0.306450  0.857350  1.0  -0.4713
  O  O1312  1  0.295980  0.203380  0.629360  1.0  -0.416
  O  O1313  1  0.046540  0.126740  0.251180  1.0  -0.5954
  O  O1314  1  0.181640  0.593740  0.203580  1.0  -0.594
  O  O1315  1  0.395000  0.293900  0.005400  1.0  -0.5904
  O  O1316  1  0.403550  0.382150  0.973150  1.0  -0.6047
  O  O1317  1  0.575540  0.046540  0.251180  1.0  -0.5971
  O  O1318  1  0.453460  0.924460  0.248820  1.0  -0.5976
  O  O1319  1  0.869230  0.867530  0.796510  1.0  -0.5119
  O  O1320  1  0.611430  0.041130  0.773710  1.0  -0.4896
  O  O1321  1  0.305950  0.693550  0.142650  1.0  -0.4728
  O  O1322  1  0.204320  0.340020  0.168840  1.0  -0.4318
  O  O1323  1  0.142150  0.694050  0.857350  1.0  -0.4669
  O  O1324  1  0.295680  0.213180  0.331160  1.0  -0.4348
  O  O1325  1  0.798990  0.873290  0.623030  1.0  -0.4858
  O  O1326  1  0.397990  0.388490  0.912130  1.0  -0.5626
  O  O1327  1  0.203780  0.487780  0.218160  1.0  -0.4676
  O  O1328  1  0.978960  0.818360  0.796420  1.0  -0.594
  O  O1329  1  0.694300  0.605000  0.994600  1.0  -0.5839
  O  O1330  1  0.406260  0.978960  0.796420  1.0  -0.5932
  O  O1331  1  0.795980  0.371280  0.129360  1.0  -0.4105
  O  O1332  1  0.822900  0.919300  0.369800  1.0  -0.6527
  O  O1333  1  0.840020  0.704320  0.668840  1.0  -0.4349
  O  O1334  1  0.454090  0.113390  0.879430  1.0  -0.4724
  O  O1335  1  0.382150  0.241150  0.973150  1.0  -0.6034
  O  O1336  1  0.844650  0.378850  0.839350  1.0  -0.4325
  O  O1337  1  0.982460  0.822560  0.546020  1.0  -0.5246
  O  O1338  1  0.292560  0.463360  0.015120  1.0  -0.6501
  O  O1339  1  0.317120  0.659220  0.071640  1.0  -0.402
  O  O1340  1  0.919300  0.888000  0.369800  1.0  -0.6531
  O  O1341  1  0.102010  0.198610  0.587870  1.0  -0.5655
  O  O1342  1  0.332830  0.100630  0.951310  1.0  -0.4144
  O  O1343  1  0.368830  0.965930  0.495410  1.0  -0.5796
  O  O1344  1  0.786820  0.840020  0.668840  1.0  -0.4314
  O  O1345  1  0.446480  0.055480  0.869860  1.0  -0.3969
  O  O1346  1  0.050390  0.182690  0.551930  1.0  -0.6039
  O  O1347  1  0.371280  0.703380  0.129360  1.0  -0.4139
  O  O1348  1  0.444520  0.053520  0.630140  1.0  -0.3989
  O  O1349  1  0.478960  0.906260  0.296420  1.0  -0.5925
  O  O1350  1  0.701010  0.795310  0.876970  1.0  -0.4835
  O  O1351  1  0.512220  0.909720  0.781840  1.0  -0.4685
  O  O1352  1  0.100630  0.615230  0.951310  1.0  -0.4175
  O  O1353  1  0.534070  0.131170  0.004590  1.0  -0.5827
  O  O1354  1  0.367530  0.369230  0.296510  1.0  -0.5138
  O  O1355  1  0.818360  0.406260  0.796420  1.0  -0.5944
  O  O1356  1  0.952020  0.317120  0.071640  1.0  -0.4042
  O  O1357  1  0.398390  0.436190  0.992530  1.0  -0.6201
  O  O1358  1  0.703380  0.795980  0.129360  1.0  -0.4172
  O  O1359  1  0.419300  0.322900  0.869800  1.0  -0.6535
  O  O1360  1  0.340020  0.286820  0.168840  1.0  -0.4328
  O  O1361  1  0.093740  0.681640  0.703580  1.0  -0.5924
  O  O1362  1  0.563810  0.827110  0.007470  1.0  -0.6222
  O  O1363  1  0.034070  0.830170  0.504590  1.0  -0.5834
  O  O1364  1  0.613390  0.954090  0.379430  1.0  -0.474
  O  O1365  1  0.126740  0.575540  0.251180  1.0  -0.5947
  O  O1366  1  0.198610  0.111510  0.587870  1.0  -0.5642
  O  O1367  1  0.182690  0.214990  0.551930  1.0  -0.6045
  O  O1368  1  0.047980  0.682880  0.928360  1.0  -0.4016
  O  O1369  1  0.682880  0.340780  0.928360  1.0  -0.4016
  O  O1370  1  0.714990  0.682690  0.051930  1.0  -0.604
  O  O1371  1  0.318360  0.478960  0.296420  1.0  -0.5952
  O  O1372  1  0.482460  0.148960  0.046020  1.0  -0.5258
  O  O1373  1  0.115230  0.600630  0.451310  1.0  -0.4179
  O  O1374  1  0.669830  0.465930  0.995410  1.0  -0.5816
  O  O1375  1  0.553520  0.944520  0.130140  1.0  -0.3975
  O  O1376  1  0.954090  0.053090  0.379430  1.0  -0.4744
  O  O1377  1  0.289520  0.995220  0.541340  1.0  -0.6185
  O  O1378  1  0.611510  0.698610  0.087870  1.0  -0.5655
  O  O1379  1  0.351040  0.017540  0.453980  1.0  -0.5266
  O  O1380  1  0.017540  0.177440  0.453980  1.0  -0.5253
  O  O1381  1  0.817310  0.785010  0.448070  1.0  -0.6048
  O  O1382  1  0.295310  0.201010  0.376970  1.0  -0.4815
  O  O1383  1  0.371820  0.553520  0.130140  1.0  -0.3988
  O  O1384  1  0.600630  0.832830  0.451310  1.0  -0.4184
  O  O1385  1  0.888570  0.926270  0.726290  1.0  -0.4844
  O  O1386  1  0.317310  0.449610  0.948070  1.0  -0.6036
  O  O1387  1  0.545910  0.886610  0.120570  1.0  -0.4724
  O  O1388  1  0.612000  0.580700  0.130200  1.0  -0.6522
  O  O1389  1  0.330170  0.534070  0.004590  1.0  -0.5823
  O  O1390  1  0.966730  0.367530  0.296510  1.0  -0.5146
  O  O1391  1  0.101610  0.327110  0.507470  1.0  -0.6211
  O  O1392  1  0.458870  0.888570  0.726290  1.0  -0.4927
  O  O1393  1  0.306450  0.142150  0.857350  1.0  -0.472
  O  O1394  1  0.573730  0.611430  0.773710  1.0  -0.4948
  O  O1395  1  0.659980  0.713180  0.831160  1.0  -0.4345
  O  O1396  1  0.159220  0.817120  0.571640  1.0  -0.4035
  O  O1397  1  0.172890  0.398390  0.992530  1.0  -0.6187
  O  O1398  1  0.536640  0.771040  0.984880  1.0  -0.6491
  O  O1399  1  0.626710  0.701010  0.876970  1.0  -0.4855
  O  O1400  1  0.958870  0.426270  0.226290  1.0  -0.4909
  O  O1401  1  0.601610  0.563810  0.007470  1.0  -0.6199
  O  O1402  1  0.517540  0.851040  0.953980  1.0  -0.5264
  O  O1403  1  0.214990  0.050390  0.551930  1.0  -0.6025
  O  O1404  1  0.112000  0.177100  0.630200  1.0  -0.649
  O  O1405  1  0.817120  0.452020  0.571640  1.0  -0.4003
  O  O1406  1  0.840780  0.182880  0.428360  1.0  -0.4013
  O  O1407  1  0.867530  0.466730  0.796510  1.0  -0.5154
  O  O1408  1  0.193550  0.805950  0.642650  1.0  -0.4684
  O  O1409  1  0.898390  0.672890  0.492530  1.0  -0.6203
  O  O1410  1  0.204020  0.628720  0.870640  1.0  -0.4115
  O  O1411  1  0.386610  0.045910  0.620570  1.0  -0.4732
  O  O1412  1  0.672890  0.936190  0.492530  1.0  -0.6208
  O  O1413  1  0.846970  0.846970  0.459090  1.0  -1.0544
  O  O1414  1  0.667170  0.899370  0.048690  1.0  -0.4142
  O  O1415  1  0.388570  0.958870  0.226290  1.0  -0.4901
  O  O1416  1  0.832830  0.115230  0.451310  1.0  -0.4192
  O  O1417  1  0.871280  0.295980  0.629360  1.0  -0.4088
  O  O1418  1  0.796620  0.128720  0.370640  1.0  -0.4166
  O  O1419  1  0.621150  0.062850  0.160650  1.0  -0.4364
  O  O1420  1  0.897990  0.801390  0.412130  1.0  -0.5637
  O  O1421  1  0.946480  0.128180  0.369860  1.0  -0.3992
  O  O1422  1  0.615230  0.332830  0.951310  1.0  -0.421
  O  O1423  1  0.021040  0.181640  0.203580  1.0  -0.5911
  O  O1424  1  0.452020  0.159220  0.571640  1.0  -0.4025
  O  O1425  1  0.926270  0.458870  0.726290  1.0  -0.4895
  O  O1426  1  0.882150  0.903550  0.473150  1.0  -0.6048
  O  O1427  1  0.293900  0.305700  0.005400  1.0  -0.5929
  O  O1428  1  0.659220  0.952020  0.071640  1.0  -0.4003
  O  O1429  1  0.593740  0.021040  0.203580  1.0  -0.5943
  O  O1430  1  0.868830  0.669830  0.995410  1.0  -0.5806
  O  O1431  1  0.936190  0.898390  0.492530  1.0  -0.6209
  O  O1432  1  0.437150  0.878850  0.339350  1.0  -0.4268
  O  O1433  1  0.617850  0.758850  0.026850  1.0  -0.6049
  O  O1434  1  0.424460  0.953460  0.748820  1.0  -0.5967
  O  O1435  1  0.873260  0.424460  0.748820  1.0  -0.596
  O  O1436  1  0.298990  0.204690  0.123030  1.0  -0.4831
  O  O1437  1  0.793900  0.895000  0.505400  1.0  -0.5911
  O  O1438  1  0.713180  0.795680  0.831160  1.0  -0.4341
  O  O1439  1  0.128180  0.555480  0.369860  1.0  -0.3988
  O  O1440  1  0.111510  0.102010  0.587870  1.0  -0.5639
  O  O1441  1  0.555480  0.946480  0.369860  1.0  -0.398
  O  O1442  1  0.117850  0.096450  0.526850  1.0  -0.6081
  O  O1443  1  0.830170  0.631170  0.504590  1.0  -0.5829
  O  O1444  1  0.322900  0.388000  0.869800  1.0  -0.6473
  O  O1445  1  0.703780  0.590280  0.718160  1.0  -0.4699
  O  O1446  1  0.466730  0.869230  0.796510  1.0  -0.5119
  O  O1447  1  0.495220  0.789520  0.041340  1.0  -0.6205
  O  O1448  1  0.111430  0.073730  0.273710  1.0  -0.4856
  O  O1449  1  0.937150  0.844650  0.839350  1.0  -0.4954
  O  O1450  1  0.194300  0.206100  0.494600  1.0  -0.5944
  O  O1451  1  0.653030  0.653030  0.040910  1.0  -1.0537
  O  O1452  1  0.285010  0.317310  0.948070  1.0  -0.6036
  O  O1453  1  0.409720  0.012220  0.281840  1.0  -0.4682
  O  O1454  1  0.399370  0.167170  0.548690  1.0  -0.4186
  O  O1455  1  0.073730  0.541130  0.273710  1.0  -0.4906
  O  O1456  1  0.449610  0.285010  0.948070  1.0  -0.6038
  O  O1457  1  0.204690  0.373290  0.123030  1.0  -0.4801
  O  O1458  1  0.771040  0.707440  0.984880  1.0  -0.6512
  O  O1459  1  0.924460  0.373260  0.248820  1.0  -0.5943
  O  O1460  1  0.062850  0.155350  0.160650  1.0  -0.4944
  O  O1461  1  0.346970  0.346970  0.959090  1.0  -1.0544
  O  O1462  1  0.602010  0.611510  0.087870  1.0  -0.5639
  O  O1463  1  0.487780  0.090280  0.218160  1.0  -0.4701
  O  O1464  1  0.795680  0.659980  0.831160  1.0  -0.4315
  O  O1465  1  0.707440  0.536640  0.984880  1.0  -0.649
  O  O1466  1  0.546540  0.075540  0.751180  1.0  -0.5974
  O  O1467  1  0.213180  0.159980  0.331160  1.0  -0.4313
  O  O1468  1  0.055480  0.628180  0.869860  1.0  -0.3967
  O  O1469  1  0.296620  0.204020  0.870640  1.0  -0.4157
  O  O1470  1  0.167170  0.884770  0.548690  1.0  -0.4207
  O  O1471  1  0.806450  0.194050  0.357350  1.0  -0.47
  O  O1472  1  0.884770  0.399370  0.548690  1.0  -0.4194
  O  O1473  1  0.373290  0.298990  0.123030  1.0  -0.4854
  O  O1474  1  0.194050  0.642150  0.357350  1.0  -0.4694
  O  O1475  1  0.805950  0.357850  0.642650  1.0  -0.4667
  O  O1476  1  0.704690  0.798990  0.623030  1.0  -0.4802
  O  O1477  1  0.909720  0.796220  0.781840  1.0  -0.4703
  O  O1478  1  0.822560  0.648960  0.546020  1.0  -0.5274
  O  O1479  1  0.159980  0.295680  0.331160  1.0  -0.4358
  O  O1480  1  0.096450  0.258850  0.526850  1.0  -0.6042
  O  O1481  1  0.207440  0.271040  0.484880  1.0  -0.6496
  O  O1482  1  0.673920  0.495220  0.041340  1.0  -0.62
  O  O1483  1  0.857850  0.305950  0.142650  1.0  -0.4661
  O  O1484  1  0.177100  0.080700  0.630200  1.0  -0.6476
  O  O1485  1  0.886610  0.446910  0.120570  1.0  -0.4742
  O  O1486  1  0.965930  0.169830  0.495410  1.0  -0.5811
  O  O1487  1  0.946910  0.386610  0.620570  1.0  -0.4753
  O  O1488  1  0.465930  0.868830  0.995410  1.0  -0.5794
