# generated using pymatgen
data_Cd2H24(C11O4)3
_symmetry_space_group_name_H-M   'P 1'
_cell_length_a   37.32200000
_cell_length_b   72.64000000
_cell_length_c   7.07400000
_cell_angle_alpha   90.00000000
_cell_angle_beta   90.00000000
_cell_angle_gamma   90.00000000
_symmetry_Int_Tables_number   1
_chemical_formula_structural   Cd2H24(C11O4)3
_chemical_formula_sum   'Cd32 H384 C528 O192'
_cell_volume   19178.10974592
_cell_formula_units_Z   16
loop_
 _symmetry_equiv_pos_site_id
 _symmetry_equiv_pos_as_xyz
  1  'x, y, z'
loop_
 _atom_site_type_symbol
 _atom_site_label
 _atom_site_symmetry_multiplicity
 _atom_site_fract_x
 _atom_site_fract_y
 _atom_site_fract_z
 _atom_site_occupancy
 _atom_site_charge
  Cd  Cd1  1  0.381440  0.069510  0.493060  1.0  1.1124
  Cd  Cd2  1  0.407440  0.062730  0.034020  1.0  0.9982
  Cd  Cd3  1  0.381440  0.569510  0.993060  1.0  1.1124
  Cd  Cd4  1  0.407440  0.562730  0.534020  1.0  0.9982
  Cd  Cd5  1  0.881440  0.069510  0.993060  1.0  1.1124
  Cd  Cd6  1  0.907440  0.062730  0.534020  1.0  0.9982
  Cd  Cd7  1  0.881440  0.569510  0.493060  1.0  1.1124
  Cd  Cd8  1  0.907440  0.562730  0.034020  1.0  0.9982
  Cd  Cd9  1  0.618560  0.930490  0.493060  1.0  1.1131
  Cd  Cd10  1  0.592560  0.937270  0.034020  1.0  0.9975
  Cd  Cd11  1  0.618560  0.430490  0.993060  1.0  1.1131
  Cd  Cd12  1  0.592560  0.437270  0.534020  1.0  0.9975
  Cd  Cd13  1  0.118560  0.930490  0.993060  1.0  1.1131
  Cd  Cd14  1  0.092560  0.937270  0.534020  1.0  0.9975
  Cd  Cd15  1  0.118560  0.430490  0.493060  1.0  1.1131
  Cd  Cd16  1  0.092560  0.437270  0.034020  1.0  0.9975
  Cd  Cd17  1  0.631440  0.180490  0.743060  1.0  1.1122
  Cd  Cd18  1  0.657440  0.187270  0.284020  1.0  0.9985
  Cd  Cd19  1  0.631440  0.680490  0.243060  1.0  1.1123
  Cd  Cd20  1  0.657440  0.687270  0.784020  1.0  0.9985
  Cd  Cd21  1  0.131440  0.180490  0.243060  1.0  1.1123
  Cd  Cd22  1  0.157440  0.187270  0.784020  1.0  0.9985
  Cd  Cd23  1  0.131440  0.680490  0.743060  1.0  1.1122
  Cd  Cd24  1  0.157440  0.687270  0.284020  1.0  0.9985
  Cd  Cd25  1  0.868560  0.319510  0.743060  1.0  1.1133
  Cd  Cd26  1  0.842560  0.312730  0.284020  1.0  0.9971
  Cd  Cd27  1  0.868560  0.819510  0.243060  1.0  1.1134
  Cd  Cd28  1  0.842560  0.812730  0.784020  1.0  0.9971
  Cd  Cd29  1  0.368560  0.319510  0.243060  1.0  1.1135
  Cd  Cd30  1  0.342560  0.312730  0.784020  1.0  0.9971
  Cd  Cd31  1  0.368560  0.819510  0.743060  1.0  1.1134
  Cd  Cd32  1  0.342560  0.812730  0.284020  1.0  0.9971
  H  H33  1  0.175200  0.053000  0.116200  1.0  0.0906
  H  H34  1  0.172000  0.074700  0.126800  1.0  0.1111
  H  H35  1  0.212100  0.069800  0.896700  1.0  0.1264
  H  H36  1  0.260900  0.072300  0.697000  1.0  0.1214
  H  H37  1  0.327000  0.065900  0.138300  1.0  0.1143
  H  H38  1  0.278000  0.063200  0.338500  1.0  0.1281
  H  H39  1  0.153700  0.032400  0.345400  1.0  0.1016
  H  H40  1  0.188000  0.039100  0.456700  1.0  0.1015
  H  H41  1  0.152800  0.007500  0.410100  1.0  0.1286
  H  H42  1  0.144300  0.977800  0.522500  1.0  0.1236
  H  H43  1  0.117800  0.998200  0.031500  1.0  0.1274
  H  H44  1  0.126300  0.027800  0.919500  1.0  0.1189
  H  H45  1  0.145300  0.071500  0.653800  1.0  0.0962
  H  H46  1  0.186700  0.070900  0.604100  1.0  0.1076
  H  H47  1  0.170300  0.090300  0.875600  1.0  0.145
  H  H48  1  0.158600  0.113300  0.090600  1.0  0.132
  H  H49  1  0.126300  0.146000  0.668700  1.0  0.1211
  H  H50  1  0.137300  0.123000  0.455500  1.0  0.1312
  H  H51  1  0.099500  0.057200  0.404400  1.0  0.0938
  H  H52  1  0.107600  0.077500  0.345500  1.0  0.1027
  H  H53  1  0.049200  0.074000  0.307100  1.0  0.1318
  H  H54  1  0.991400  0.075100  0.196000  1.0  0.1316
  H  H55  1  0.022700  0.050300  0.719300  1.0  0.13
  H  H56  1  0.080400  0.049400  0.829500  1.0  0.1146
  H  H57  1  0.175200  0.553000  0.616200  1.0  0.0906
  H  H58  1  0.172000  0.574700  0.626800  1.0  0.1111
  H  H59  1  0.212100  0.569800  0.396700  1.0  0.1264
  H  H60  1  0.260900  0.572300  0.197000  1.0  0.1214
  H  H61  1  0.327000  0.565900  0.638300  1.0  0.1143
  H  H62  1  0.278000  0.563200  0.838500  1.0  0.1281
  H  H63  1  0.153700  0.532400  0.845400  1.0  0.1016
  H  H64  1  0.188000  0.539100  0.956700  1.0  0.1015
  H  H65  1  0.152800  0.507500  0.910100  1.0  0.1286
  H  H66  1  0.144300  0.477800  0.022500  1.0  0.1236
  H  H67  1  0.117800  0.498200  0.531500  1.0  0.1274
  H  H68  1  0.126300  0.527800  0.419500  1.0  0.1189
  H  H69  1  0.145300  0.571500  0.153800  1.0  0.0962
  H  H70  1  0.186700  0.570900  0.104100  1.0  0.1076
  H  H71  1  0.170300  0.590300  0.375600  1.0  0.145
  H  H72  1  0.158600  0.613300  0.590600  1.0  0.132
  H  H73  1  0.126300  0.646000  0.168700  1.0  0.1211
  H  H74  1  0.137300  0.623000  0.955500  1.0  0.1312
  H  H75  1  0.099500  0.557200  0.904400  1.0  0.0938
  H  H76  1  0.107600  0.577500  0.845500  1.0  0.1027
  H  H77  1  0.049200  0.574000  0.807100  1.0  0.1318
  H  H78  1  0.991400  0.575100  0.696000  1.0  0.1316
  H  H79  1  0.022700  0.550300  0.219300  1.0  0.13
  H  H80  1  0.080400  0.549400  0.329500  1.0  0.1146
  H  H81  1  0.675200  0.053000  0.616200  1.0  0.0906
  H  H82  1  0.672000  0.074700  0.626800  1.0  0.1111
  H  H83  1  0.712100  0.069800  0.396700  1.0  0.1264
  H  H84  1  0.760900  0.072300  0.197000  1.0  0.1214
  H  H85  1  0.827000  0.065900  0.638300  1.0  0.1143
  H  H86  1  0.778000  0.063200  0.838500  1.0  0.1281
  H  H87  1  0.653700  0.032400  0.845400  1.0  0.1016
  H  H88  1  0.688000  0.039100  0.956700  1.0  0.1015
  H  H89  1  0.652800  0.007500  0.910100  1.0  0.1286
  H  H90  1  0.644300  0.977800  0.022500  1.0  0.1236
  H  H91  1  0.617800  0.998200  0.531500  1.0  0.1274
  H  H92  1  0.626300  0.027800  0.419500  1.0  0.1189
  H  H93  1  0.645300  0.071500  0.153800  1.0  0.0962
  H  H94  1  0.686700  0.070900  0.104100  1.0  0.1076
  H  H95  1  0.670300  0.090300  0.375600  1.0  0.145
  H  H96  1  0.658600  0.113300  0.590600  1.0  0.132
  H  H97  1  0.626300  0.146000  0.168700  1.0  0.1211
  H  H98  1  0.637300  0.123000  0.955500  1.0  0.1312
  H  H99  1  0.599500  0.057200  0.904400  1.0  0.0938
  H  H100  1  0.607600  0.077500  0.845500  1.0  0.1027
  H  H101  1  0.549200  0.074000  0.807100  1.0  0.1318
  H  H102  1  0.491400  0.075100  0.696000  1.0  0.1316
  H  H103  1  0.522700  0.050300  0.219300  1.0  0.13
  H  H104  1  0.580400  0.049400  0.329500  1.0  0.1146
  H  H105  1  0.675200  0.553000  0.116200  1.0  0.0906
  H  H106  1  0.672000  0.574700  0.126800  1.0  0.1111
  H  H107  1  0.712100  0.569800  0.896700  1.0  0.1264
  H  H108  1  0.760900  0.572300  0.697000  1.0  0.1214
  H  H109  1  0.827000  0.565900  0.138300  1.0  0.1143
  H  H110  1  0.778000  0.563200  0.338500  1.0  0.1281
  H  H111  1  0.653700  0.532400  0.345400  1.0  0.1016
  H  H112  1  0.688000  0.539100  0.456700  1.0  0.1015
  H  H113  1  0.652800  0.507500  0.410100  1.0  0.1286
  H  H114  1  0.644300  0.477800  0.522500  1.0  0.1236
  H  H115  1  0.617800  0.498200  0.031500  1.0  0.1274
  H  H116  1  0.626300  0.527800  0.919500  1.0  0.1189
  H  H117  1  0.645300  0.571500  0.653800  1.0  0.0962
  H  H118  1  0.686700  0.570900  0.604100  1.0  0.1076
  H  H119  1  0.670300  0.590300  0.875600  1.0  0.145
  H  H120  1  0.658600  0.613300  0.090600  1.0  0.132
  H  H121  1  0.626300  0.646000  0.668700  1.0  0.1211
  H  H122  1  0.637300  0.623000  0.455500  1.0  0.1312
  H  H123  1  0.599500  0.557200  0.404400  1.0  0.0938
  H  H124  1  0.607600  0.577500  0.345500  1.0  0.1027
  H  H125  1  0.549200  0.574000  0.307100  1.0  0.1318
  H  H126  1  0.491400  0.575100  0.196000  1.0  0.1316
  H  H127  1  0.522700  0.550300  0.719300  1.0  0.13
  H  H128  1  0.580400  0.549400  0.829500  1.0  0.1146
  H  H129  1  0.824800  0.947000  0.116200  1.0  0.0901
  H  H130  1  0.828000  0.925300  0.126800  1.0  0.1111
  H  H131  1  0.787900  0.930200  0.896700  1.0  0.1266
  H  H132  1  0.739100  0.927700  0.697000  1.0  0.1218
  H  H133  1  0.673000  0.934100  0.138300  1.0  0.1143
  H  H134  1  0.722000  0.936800  0.338500  1.0  0.1283
  H  H135  1  0.846300  0.967600  0.345400  1.0  0.1001
  H  H136  1  0.812000  0.960900  0.456700  1.0  0.103
  H  H137  1  0.847200  0.992500  0.410100  1.0  0.1291
  H  H138  1  0.855700  0.022200  0.522500  1.0  0.1235
  H  H139  1  0.882200  0.001800  0.031500  1.0  0.1276
  H  H140  1  0.873700  0.972200  0.919500  1.0  0.1188
  H  H141  1  0.854700  0.928500  0.653800  1.0  0.0978
  H  H142  1  0.813300  0.929100  0.604100  1.0  0.1076
  H  H143  1  0.829700  0.909700  0.875600  1.0  0.1447
  H  H144  1  0.841400  0.886700  0.090600  1.0  0.1322
  H  H145  1  0.873700  0.854000  0.668700  1.0  0.1216
  H  H146  1  0.862700  0.877000  0.455500  1.0  0.1312
  H  H147  1  0.900500  0.942800  0.404400  1.0  0.0927
  H  H148  1  0.892400  0.922500  0.345500  1.0  0.1028
  H  H149  1  0.950800  0.926000  0.307100  1.0  0.1316
  H  H150  1  0.008600  0.924900  0.196000  1.0  0.1319
  H  H151  1  0.977300  0.949700  0.719300  1.0  0.1297
  H  H152  1  0.919600  0.950600  0.829500  1.0  0.1158
  H  H153  1  0.824800  0.447000  0.616200  1.0  0.0901
  H  H154  1  0.828000  0.425300  0.626800  1.0  0.1111
  H  H155  1  0.787900  0.430200  0.396700  1.0  0.1266
  H  H156  1  0.739100  0.427700  0.197000  1.0  0.1218
  H  H157  1  0.673000  0.434100  0.638300  1.0  0.1143
  H  H158  1  0.722000  0.436800  0.838500  1.0  0.1283
  H  H159  1  0.846300  0.467600  0.845400  1.0  0.1001
  H  H160  1  0.812000  0.460900  0.956700  1.0  0.103
  H  H161  1  0.847200  0.492500  0.910100  1.0  0.1291
  H  H162  1  0.855700  0.522200  0.022500  1.0  0.1235
  H  H163  1  0.882200  0.501800  0.531500  1.0  0.1276
  H  H164  1  0.873700  0.472200  0.419500  1.0  0.1188
  H  H165  1  0.854700  0.428500  0.153800  1.0  0.0978
  H  H166  1  0.813300  0.429100  0.104100  1.0  0.1076
  H  H167  1  0.829700  0.409700  0.375600  1.0  0.1447
  H  H168  1  0.841400  0.386700  0.590600  1.0  0.1322
  H  H169  1  0.873700  0.354000  0.168700  1.0  0.1216
  H  H170  1  0.862700  0.377000  0.955500  1.0  0.1312
  H  H171  1  0.900500  0.442800  0.904400  1.0  0.0927
  H  H172  1  0.892400  0.422500  0.845500  1.0  0.1028
  H  H173  1  0.950800  0.426000  0.807100  1.0  0.1316
  H  H174  1  0.008600  0.424900  0.696000  1.0  0.1319
  H  H175  1  0.977300  0.449700  0.219300  1.0  0.1297
  H  H176  1  0.919600  0.450600  0.329500  1.0  0.1158
  H  H177  1  0.324800  0.947000  0.616200  1.0  0.0901
  H  H178  1  0.328000  0.925300  0.626800  1.0  0.1111
  H  H179  1  0.287900  0.930200  0.396700  1.0  0.1266
  H  H180  1  0.239100  0.927700  0.197000  1.0  0.1218
  H  H181  1  0.173000  0.934100  0.638300  1.0  0.1143
  H  H182  1  0.222000  0.936800  0.838500  1.0  0.1283
  H  H183  1  0.346300  0.967600  0.845400  1.0  0.1001
  H  H184  1  0.312000  0.960900  0.956700  1.0  0.103
  H  H185  1  0.347200  0.992500  0.910100  1.0  0.1291
  H  H186  1  0.355700  0.022200  0.022500  1.0  0.1235
  H  H187  1  0.382200  0.001800  0.531500  1.0  0.1276
  H  H188  1  0.373700  0.972200  0.419500  1.0  0.1188
  H  H189  1  0.354700  0.928500  0.153800  1.0  0.0978
  H  H190  1  0.313300  0.929100  0.104100  1.0  0.1076
  H  H191  1  0.329700  0.909700  0.375600  1.0  0.1447
  H  H192  1  0.341400  0.886700  0.590600  1.0  0.1322
  H  H193  1  0.373700  0.854000  0.168700  1.0  0.1216
  H  H194  1  0.362700  0.877000  0.955500  1.0  0.1312
  H  H195  1  0.400500  0.942800  0.904400  1.0  0.0927
  H  H196  1  0.392400  0.922500  0.845500  1.0  0.1028
  H  H197  1  0.450800  0.926000  0.807100  1.0  0.1316
  H  H198  1  0.508600  0.924900  0.696000  1.0  0.1319
  H  H199  1  0.477300  0.949700  0.219300  1.0  0.1297
  H  H200  1  0.419600  0.950600  0.329500  1.0  0.1158
  H  H201  1  0.324800  0.447000  0.116200  1.0  0.0901
  H  H202  1  0.328000  0.425300  0.126800  1.0  0.1111
  H  H203  1  0.287900  0.430200  0.896700  1.0  0.1266
  H  H204  1  0.239100  0.427700  0.697000  1.0  0.1218
  H  H205  1  0.173000  0.434100  0.138300  1.0  0.1143
  H  H206  1  0.222000  0.436800  0.338500  1.0  0.1283
  H  H207  1  0.346300  0.467600  0.345400  1.0  0.1001
  H  H208  1  0.312000  0.460900  0.456700  1.0  0.103
  H  H209  1  0.347200  0.492500  0.410100  1.0  0.1291
  H  H210  1  0.355700  0.522200  0.522500  1.0  0.1235
  H  H211  1  0.382200  0.501800  0.031500  1.0  0.1276
  H  H212  1  0.373700  0.472200  0.919500  1.0  0.1188
  H  H213  1  0.354700  0.428500  0.653800  1.0  0.0978
  H  H214  1  0.313300  0.429100  0.604100  1.0  0.1076
  H  H215  1  0.329700  0.409700  0.875600  1.0  0.1447
  H  H216  1  0.341400  0.386700  0.090600  1.0  0.1322
  H  H217  1  0.373700  0.354000  0.668700  1.0  0.1216
  H  H218  1  0.362700  0.377000  0.455500  1.0  0.1312
  H  H219  1  0.400500  0.442800  0.404400  1.0  0.0927
  H  H220  1  0.392400  0.422500  0.345500  1.0  0.1028
  H  H221  1  0.450800  0.426000  0.307100  1.0  0.1316
  H  H222  1  0.508600  0.424900  0.196000  1.0  0.1319
  H  H223  1  0.477300  0.449700  0.719300  1.0  0.1297
  H  H224  1  0.419600  0.450600  0.829500  1.0  0.1158
  H  H225  1  0.425200  0.197000  0.366200  1.0  0.0903
  H  H226  1  0.422000  0.175300  0.376800  1.0  0.1107
  H  H227  1  0.462100  0.180200  0.146700  1.0  0.1263
  H  H228  1  0.510900  0.177700  0.947000  1.0  0.1214
  H  H229  1  0.577000  0.184100  0.388300  1.0  0.1142
  H  H230  1  0.528000  0.186800  0.588500  1.0  0.1282
  H  H231  1  0.403700  0.217600  0.595400  1.0  0.1006
  H  H232  1  0.438000  0.210900  0.706700  1.0  0.1028
  H  H233  1  0.402800  0.242500  0.660100  1.0  0.1282
  H  H234  1  0.394300  0.272200  0.772500  1.0  0.1238
  H  H235  1  0.367800  0.251800  0.281500  1.0  0.1275
  H  H236  1  0.376300  0.222200  0.169500  1.0  0.1188
  H  H237  1  0.395300  0.178500  0.903800  1.0  0.0966
  H  H238  1  0.436700  0.179100  0.854100  1.0  0.1074
  H  H239  1  0.420300  0.159700  0.125600  1.0  0.1453
  H  H240  1  0.408600  0.136700  0.340600  1.0  0.1324
  H  H241  1  0.376300  0.104000  0.918700  1.0  0.1214
  H  H242  1  0.387300  0.127000  0.705500  1.0  0.1312
  H  H243  1  0.349500  0.192800  0.654400  1.0  0.0931
  H  H244  1  0.357600  0.172500  0.595500  1.0  0.1013
  H  H245  1  0.299200  0.176000  0.557100  1.0  0.1322
  H  H246  1  0.241400  0.174900  0.446000  1.0  0.1318
  H  H247  1  0.272700  0.199700  0.969300  1.0  0.1297
  H  H248  1  0.330400  0.200600  0.079500  1.0  0.1146
  H  H249  1  0.425200  0.697000  0.866200  1.0  0.0903
  H  H250  1  0.422000  0.675300  0.876800  1.0  0.1107
  H  H251  1  0.462100  0.680200  0.646700  1.0  0.1263
  H  H252  1  0.510900  0.677700  0.447000  1.0  0.1214
  H  H253  1  0.577000  0.684100  0.888300  1.0  0.1142
  H  H254  1  0.528000  0.686800  0.088500  1.0  0.1282
  H  H255  1  0.403700  0.717600  0.095400  1.0  0.1006
  H  H256  1  0.438000  0.710900  0.206700  1.0  0.1028
  H  H257  1  0.402800  0.742500  0.160100  1.0  0.1282
  H  H258  1  0.394300  0.772200  0.272500  1.0  0.1238
  H  H259  1  0.367800  0.751800  0.781500  1.0  0.1275
  H  H260  1  0.376300  0.722200  0.669500  1.0  0.1188
  H  H261  1  0.395300  0.678500  0.403800  1.0  0.0966
  H  H262  1  0.436700  0.679100  0.354100  1.0  0.1074
  H  H263  1  0.420300  0.659700  0.625600  1.0  0.1453
  H  H264  1  0.408600  0.636700  0.840600  1.0  0.1324
  H  H265  1  0.376300  0.604000  0.418700  1.0  0.1214
  H  H266  1  0.387300  0.627000  0.205500  1.0  0.1312
  H  H267  1  0.349500  0.692800  0.154400  1.0  0.0931
  H  H268  1  0.357600  0.672500  0.095500  1.0  0.1013
  H  H269  1  0.299200  0.676000  0.057100  1.0  0.1322
  H  H270  1  0.241400  0.674900  0.946000  1.0  0.1318
  H  H271  1  0.272700  0.699700  0.469300  1.0  0.1297
  H  H272  1  0.330400  0.700600  0.579500  1.0  0.1146
  H  H273  1  0.925200  0.197000  0.866200  1.0  0.0903
  H  H274  1  0.922000  0.175300  0.876800  1.0  0.1107
  H  H275  1  0.962100  0.180200  0.646700  1.0  0.1263
  H  H276  1  0.010900  0.177700  0.447000  1.0  0.1214
  H  H277  1  0.077000  0.184100  0.888300  1.0  0.1142
  H  H278  1  0.028000  0.186800  0.088500  1.0  0.1282
  H  H279  1  0.903700  0.217600  0.095400  1.0  0.1006
  H  H280  1  0.938000  0.210900  0.206700  1.0  0.1028
  H  H281  1  0.902800  0.242500  0.160100  1.0  0.1282
  H  H282  1  0.894300  0.272200  0.272500  1.0  0.1238
  H  H283  1  0.867800  0.251800  0.781500  1.0  0.1275
  H  H284  1  0.876300  0.222200  0.669500  1.0  0.1188
  H  H285  1  0.895300  0.178500  0.403800  1.0  0.0966
  H  H286  1  0.936700  0.179100  0.354100  1.0  0.1074
  H  H287  1  0.920300  0.159700  0.625600  1.0  0.1453
  H  H288  1  0.908600  0.136700  0.840600  1.0  0.1324
  H  H289  1  0.876300  0.104000  0.418700  1.0  0.1214
  H  H290  1  0.887300  0.127000  0.205500  1.0  0.1312
  H  H291  1  0.849500  0.192800  0.154400  1.0  0.0931
  H  H292  1  0.857600  0.172500  0.095500  1.0  0.1013
  H  H293  1  0.799200  0.176000  0.057100  1.0  0.1322
  H  H294  1  0.741400  0.174900  0.946000  1.0  0.1318
  H  H295  1  0.772700  0.199700  0.469300  1.0  0.1297
  H  H296  1  0.830400  0.200600  0.579500  1.0  0.1146
  H  H297  1  0.925200  0.697000  0.366200  1.0  0.0903
  H  H298  1  0.922000  0.675300  0.376800  1.0  0.1107
  H  H299  1  0.962100  0.680200  0.146700  1.0  0.1263
  H  H300  1  0.010900  0.677700  0.947000  1.0  0.1214
  H  H301  1  0.077000  0.684100  0.388300  1.0  0.1142
  H  H302  1  0.028000  0.686800  0.588500  1.0  0.1282
  H  H303  1  0.903700  0.717600  0.595400  1.0  0.1006
  H  H304  1  0.938000  0.710900  0.706700  1.0  0.1028
  H  H305  1  0.902800  0.742500  0.660100  1.0  0.1282
  H  H306  1  0.894300  0.772200  0.772500  1.0  0.1238
  H  H307  1  0.867800  0.751800  0.281500  1.0  0.1275
  H  H308  1  0.876300  0.722200  0.169500  1.0  0.1188
  H  H309  1  0.895300  0.678500  0.903800  1.0  0.0966
  H  H310  1  0.936700  0.679100  0.854100  1.0  0.1074
  H  H311  1  0.920300  0.659700  0.125600  1.0  0.1453
  H  H312  1  0.908600  0.636700  0.340600  1.0  0.1324
  H  H313  1  0.876300  0.604000  0.918700  1.0  0.1214
  H  H314  1  0.887300  0.627000  0.705500  1.0  0.1312
  H  H315  1  0.849500  0.692800  0.654400  1.0  0.0931
  H  H316  1  0.857600  0.672500  0.595500  1.0  0.1013
  H  H317  1  0.799200  0.676000  0.557100  1.0  0.1322
  H  H318  1  0.741400  0.674900  0.446000  1.0  0.1318
  H  H319  1  0.772700  0.699700  0.969300  1.0  0.1297
  H  H320  1  0.830400  0.700600  0.079500  1.0  0.1146
  H  H321  1  0.074800  0.303000  0.366200  1.0  0.0903
  H  H322  1  0.078000  0.324700  0.376800  1.0  0.1112
  H  H323  1  0.037900  0.319800  0.146700  1.0  0.1268
  H  H324  1  0.989100  0.322300  0.947000  1.0  0.1218
  H  H325  1  0.923000  0.315900  0.388300  1.0  0.1143
  H  H326  1  0.972000  0.313200  0.588500  1.0  0.1283
  H  H327  1  0.096300  0.282400  0.595400  1.0  0.1012
  H  H328  1  0.062000  0.289100  0.706700  1.0  0.1021
  H  H329  1  0.097200  0.257500  0.660100  1.0  0.1295
  H  H330  1  0.105700  0.227800  0.772500  1.0  0.1234
  H  H331  1  0.132200  0.248200  0.281500  1.0  0.1274
  H  H332  1  0.123700  0.277800  0.169500  1.0  0.119
  H  H333  1  0.104700  0.321500  0.903800  1.0  0.0974
  H  H334  1  0.063300  0.320900  0.854100  1.0  0.1076
  H  H335  1  0.079700  0.340300  0.125600  1.0  0.1441
  H  H336  1  0.091400  0.363300  0.340600  1.0  0.1319
  H  H337  1  0.123700  0.396000  0.918700  1.0  0.1213
  H  H338  1  0.112700  0.373000  0.705500  1.0  0.1311
  H  H339  1  0.150500  0.307200  0.654400  1.0  0.0936
  H  H340  1  0.142400  0.327500  0.595500  1.0  0.1017
  H  H341  1  0.200800  0.324000  0.557100  1.0  0.1316
  H  H342  1  0.258600  0.325100  0.446000  1.0  0.1317
  H  H343  1  0.227300  0.300300  0.969300  1.0  0.1299
  H  H344  1  0.169600  0.299400  0.079500  1.0  0.1154
  H  H345  1  0.074800  0.803000  0.866200  1.0  0.0903
  H  H346  1  0.078000  0.824700  0.876800  1.0  0.1112
  H  H347  1  0.037900  0.819800  0.646700  1.0  0.1268
  H  H348  1  0.989100  0.822300  0.447000  1.0  0.1218
  H  H349  1  0.923000  0.815900  0.888300  1.0  0.1143
  H  H350  1  0.972000  0.813200  0.088500  1.0  0.1284
  H  H351  1  0.096300  0.782400  0.095400  1.0  0.1012
  H  H352  1  0.062000  0.789100  0.206700  1.0  0.1021
  H  H353  1  0.097200  0.757500  0.160100  1.0  0.1295
  H  H354  1  0.105700  0.727800  0.272500  1.0  0.1234
  H  H355  1  0.132200  0.748200  0.781500  1.0  0.1274
  H  H356  1  0.123700  0.777800  0.669500  1.0  0.119
  H  H357  1  0.104700  0.821500  0.403800  1.0  0.0974
  H  H358  1  0.063300  0.820900  0.354100  1.0  0.1076
  H  H359  1  0.079700  0.840300  0.625600  1.0  0.1441
  H  H360  1  0.091400  0.863300  0.840600  1.0  0.1319
  H  H361  1  0.123700  0.896000  0.418700  1.0  0.1213
  H  H362  1  0.112700  0.873000  0.205500  1.0  0.1311
  H  H363  1  0.150500  0.807200  0.154400  1.0  0.0936
  H  H364  1  0.142400  0.827500  0.095500  1.0  0.1017
  H  H365  1  0.200800  0.824000  0.057100  1.0  0.1316
  H  H366  1  0.258600  0.825100  0.946000  1.0  0.1317
  H  H367  1  0.227300  0.800300  0.469300  1.0  0.1299
  H  H368  1  0.169600  0.799400  0.579500  1.0  0.1154
  H  H369  1  0.574800  0.303000  0.866200  1.0  0.0903
  H  H370  1  0.578000  0.324700  0.876800  1.0  0.1112
  H  H371  1  0.537900  0.319800  0.646700  1.0  0.1268
  H  H372  1  0.489100  0.322300  0.447000  1.0  0.1218
  H  H373  1  0.423000  0.315900  0.888300  1.0  0.1143
  H  H374  1  0.472000  0.313200  0.088500  1.0  0.1284
  H  H375  1  0.596300  0.282400  0.095400  1.0  0.1012
  H  H376  1  0.562000  0.289100  0.206700  1.0  0.1021
  H  H377  1  0.597200  0.257500  0.160100  1.0  0.1295
  H  H378  1  0.605700  0.227800  0.272500  1.0  0.1234
  H  H379  1  0.632200  0.248200  0.781500  1.0  0.1274
  H  H380  1  0.623700  0.277800  0.669500  1.0  0.119
  H  H381  1  0.604700  0.321500  0.403800  1.0  0.0974
  H  H382  1  0.563300  0.320900  0.354100  1.0  0.1076
  H  H383  1  0.579700  0.340300  0.625600  1.0  0.1441
  H  H384  1  0.591400  0.363300  0.840600  1.0  0.1319
  H  H385  1  0.623700  0.396000  0.418700  1.0  0.1213
  H  H386  1  0.612700  0.373000  0.205500  1.0  0.1311
  H  H387  1  0.650500  0.307200  0.154400  1.0  0.0936
  H  H388  1  0.642400  0.327500  0.095500  1.0  0.1017
  H  H389  1  0.700800  0.324000  0.057100  1.0  0.1316
  H  H390  1  0.758600  0.325100  0.946000  1.0  0.1317
  H  H391  1  0.727300  0.300300  0.469300  1.0  0.1299
  H  H392  1  0.669600  0.299400  0.579500  1.0  0.1154
  H  H393  1  0.574800  0.803000  0.366200  1.0  0.0903
  H  H394  1  0.578000  0.824700  0.376800  1.0  0.1112
  H  H395  1  0.537900  0.819800  0.146700  1.0  0.1268
  H  H396  1  0.489100  0.822300  0.947000  1.0  0.1218
  H  H397  1  0.423000  0.815900  0.388300  1.0  0.1143
  H  H398  1  0.472000  0.813200  0.588500  1.0  0.1283
  H  H399  1  0.596300  0.782400  0.595400  1.0  0.1012
  H  H400  1  0.562000  0.789100  0.706700  1.0  0.1021
  H  H401  1  0.597200  0.757500  0.660100  1.0  0.1295
  H  H402  1  0.605700  0.727800  0.772500  1.0  0.1234
  H  H403  1  0.632200  0.748200  0.281500  1.0  0.1274
  H  H404  1  0.623700  0.777800  0.169500  1.0  0.119
  H  H405  1  0.604700  0.821500  0.903800  1.0  0.0974
  H  H406  1  0.563300  0.820900  0.854100  1.0  0.1076
  H  H407  1  0.579700  0.840300  0.125600  1.0  0.1441
  H  H408  1  0.591400  0.863300  0.340600  1.0  0.1319
  H  H409  1  0.623700  0.896000  0.918700  1.0  0.1213
  H  H410  1  0.612700  0.873000  0.705500  1.0  0.1311
  H  H411  1  0.650500  0.807200  0.654400  1.0  0.0936
  H  H412  1  0.642400  0.827500  0.595500  1.0  0.1017
  H  H413  1  0.700800  0.824000  0.557100  1.0  0.1316
  H  H414  1  0.758600  0.825100  0.446000  1.0  0.1317
  H  H415  1  0.727300  0.800300  0.969300  1.0  0.1299
  H  H416  1  0.669600  0.799400  0.079500  1.0  0.1154
  C  C417  1  0.154600  0.061930  0.375000  1.0  0.0473
  C  C418  1  0.178100  0.063660  0.197600  1.0  0.0892
  C  C419  1  0.240300  0.066330  0.137500  1.0  0.342
  C  C420  1  0.235200  0.069000  0.945000  1.0  -0.2473
  C  C421  1  0.264400  0.070500  0.826000  1.0  -0.0363
  C  C422  1  0.298700  0.069430  0.896800  1.0  -0.1158
  C  C423  1  0.303900  0.066680  0.089700  1.0  -0.0231
  C  C424  1  0.274500  0.065100  0.209700  1.0  -0.1873
  C  C425  1  0.331100  0.067980  0.763800  1.0  0.6408
  C  C426  1  0.162500  0.041000  0.439000  1.0  0.0488
  C  C427  1  0.140400  0.020600  0.654000  1.0  0.2134
  C  C428  1  0.145800  0.005600  0.535000  1.0  -0.2142
  C  C429  1  0.140700  0.987800  0.602000  1.0  -0.055
  C  C430  1  0.130200  0.985040  0.787000  1.0  -0.139
  C  C431  1  0.124800  0.000100  0.907000  1.0  -0.0541
  C  C432  1  0.129900  0.017800  0.840000  1.0  -0.2211
  C  C433  1  0.125300  0.967010  0.869000  1.0  0.7212
  C  C434  1  0.163000  0.073520  0.555000  1.0  0.0306
  C  C435  1  0.155200  0.104300  0.644000  1.0  0.05
  C  C436  1  0.161300  0.101600  0.834000  1.0  -0.1258
  C  C437  1  0.154300  0.115300  0.963000  1.0  -0.0731
  C  C438  1  0.140900  0.132100  0.902000  1.0  -0.1263
  C  C439  1  0.135000  0.134800  0.711000  1.0  -0.0336
  C  C440  1  0.141700  0.121000  0.583000  1.0  -0.1611
  C  C441  1  0.134800  0.148560  0.026000  1.0  0.7013
  C  C442  1  0.114000  0.064800  0.322000  1.0  0.0112
  C  C443  1  0.070700  0.061600  0.081000  1.0  0.2416
  C  C444  1  0.043900  0.069300  0.188000  1.0  -0.249
  C  C445  1  0.009300  0.069900  0.122000  1.0  -0.0801
  C  C446  1  0.001000  0.062800  0.946000  1.0  -0.1328
  C  C447  1  0.028000  0.055100  0.838000  1.0  -0.0423
  C  C448  1  0.062400  0.054500  0.904000  1.0  -0.1544
  C  C449  1  0.963200  0.063100  0.886000  1.0  0.5934
  C  C450  1  0.154600  0.561930  0.875000  1.0  0.0473
  C  C451  1  0.178100  0.563660  0.697600  1.0  0.0892
  C  C452  1  0.240300  0.566330  0.637500  1.0  0.342
  C  C453  1  0.235200  0.569000  0.445000  1.0  -0.2473
  C  C454  1  0.264400  0.570500  0.326000  1.0  -0.0363
  C  C455  1  0.298700  0.569430  0.396800  1.0  -0.1158
  C  C456  1  0.303900  0.566680  0.589700  1.0  -0.0231
  C  C457  1  0.274500  0.565100  0.709700  1.0  -0.1873
  C  C458  1  0.331100  0.567980  0.263800  1.0  0.6408
  C  C459  1  0.162500  0.541000  0.939000  1.0  0.0488
  C  C460  1  0.140400  0.520600  0.154000  1.0  0.2134
  C  C461  1  0.145800  0.505600  0.035000  1.0  -0.2142
  C  C462  1  0.140700  0.487800  0.102000  1.0  -0.055
  C  C463  1  0.130200  0.485040  0.287000  1.0  -0.139
  C  C464  1  0.124800  0.500100  0.407000  1.0  -0.0541
  C  C465  1  0.129900  0.517800  0.340000  1.0  -0.2211
  C  C466  1  0.125300  0.467010  0.369000  1.0  0.7212
  C  C467  1  0.163000  0.573520  0.055000  1.0  0.0306
  C  C468  1  0.155200  0.604300  0.144000  1.0  0.05
  C  C469  1  0.161300  0.601600  0.334000  1.0  -0.1258
  C  C470  1  0.154300  0.615300  0.463000  1.0  -0.0731
  C  C471  1  0.140900  0.632100  0.402000  1.0  -0.1263
  C  C472  1  0.135000  0.634800  0.211000  1.0  -0.0336
  C  C473  1  0.141700  0.621000  0.083000  1.0  -0.1611
  C  C474  1  0.134800  0.648560  0.526000  1.0  0.7013
  C  C475  1  0.114000  0.564800  0.822000  1.0  0.0112
  C  C476  1  0.070700  0.561600  0.581000  1.0  0.2416
  C  C477  1  0.043900  0.569300  0.688000  1.0  -0.249
  C  C478  1  0.009300  0.569900  0.622000  1.0  -0.0801
  C  C479  1  0.001000  0.562800  0.446000  1.0  -0.1328
  C  C480  1  0.028000  0.555100  0.338000  1.0  -0.0423
  C  C481  1  0.062400  0.554500  0.404000  1.0  -0.1544
  C  C482  1  0.963200  0.563100  0.386000  1.0  0.5934
  C  C483  1  0.654600  0.061930  0.875000  1.0  0.0473
  C  C484  1  0.678100  0.063660  0.697600  1.0  0.0892
  C  C485  1  0.740300  0.066330  0.637500  1.0  0.342
  C  C486  1  0.735200  0.069000  0.445000  1.0  -0.2473
  C  C487  1  0.764400  0.070500  0.326000  1.0  -0.0363
  C  C488  1  0.798700  0.069430  0.396800  1.0  -0.1158
  C  C489  1  0.803900  0.066680  0.589700  1.0  -0.0231
  C  C490  1  0.774500  0.065100  0.709700  1.0  -0.1873
  C  C491  1  0.831100  0.067980  0.263800  1.0  0.6408
  C  C492  1  0.662500  0.041000  0.939000  1.0  0.0488
  C  C493  1  0.640400  0.020600  0.154000  1.0  0.2134
  C  C494  1  0.645800  0.005600  0.035000  1.0  -0.2142
  C  C495  1  0.640700  0.987800  0.102000  1.0  -0.055
  C  C496  1  0.630200  0.985040  0.287000  1.0  -0.139
  C  C497  1  0.624800  0.000100  0.407000  1.0  -0.0541
  C  C498  1  0.629900  0.017800  0.340000  1.0  -0.2211
  C  C499  1  0.625300  0.967010  0.369000  1.0  0.7212
  C  C500  1  0.663000  0.073520  0.055000  1.0  0.0306
  C  C501  1  0.655200  0.104300  0.144000  1.0  0.05
  C  C502  1  0.661300  0.101600  0.334000  1.0  -0.1258
  C  C503  1  0.654300  0.115300  0.463000  1.0  -0.0731
  C  C504  1  0.640900  0.132100  0.402000  1.0  -0.1263
  C  C505  1  0.635000  0.134800  0.211000  1.0  -0.0336
  C  C506  1  0.641700  0.121000  0.083000  1.0  -0.1611
  C  C507  1  0.634800  0.148560  0.526000  1.0  0.7013
  C  C508  1  0.614000  0.064800  0.822000  1.0  0.0112
  C  C509  1  0.570700  0.061600  0.581000  1.0  0.2416
  C  C510  1  0.543900  0.069300  0.688000  1.0  -0.249
  C  C511  1  0.509300  0.069900  0.622000  1.0  -0.0801
  C  C512  1  0.501000  0.062800  0.446000  1.0  -0.1328
  C  C513  1  0.528000  0.055100  0.338000  1.0  -0.0423
  C  C514  1  0.562400  0.054500  0.404000  1.0  -0.1544
  C  C515  1  0.463200  0.063100  0.386000  1.0  0.5934
  C  C516  1  0.654600  0.561930  0.375000  1.0  0.0473
  C  C517  1  0.678100  0.563660  0.197600  1.0  0.0892
  C  C518  1  0.740300  0.566330  0.137500  1.0  0.342
  C  C519  1  0.735200  0.569000  0.945000  1.0  -0.2473
  C  C520  1  0.764400  0.570500  0.826000  1.0  -0.0363
  C  C521  1  0.798700  0.569430  0.896800  1.0  -0.1158
  C  C522  1  0.803900  0.566680  0.089700  1.0  -0.0231
  C  C523  1  0.774500  0.565100  0.209700  1.0  -0.1873
  C  C524  1  0.831100  0.567980  0.763800  1.0  0.6408
  C  C525  1  0.662500  0.541000  0.439000  1.0  0.0488
  C  C526  1  0.640400  0.520600  0.654000  1.0  0.2134
  C  C527  1  0.645800  0.505600  0.535000  1.0  -0.2142
  C  C528  1  0.640700  0.487800  0.602000  1.0  -0.055
  C  C529  1  0.630200  0.485040  0.787000  1.0  -0.139
  C  C530  1  0.624800  0.500100  0.907000  1.0  -0.0541
  C  C531  1  0.629900  0.517800  0.840000  1.0  -0.2211
  C  C532  1  0.625300  0.467010  0.869000  1.0  0.7212
  C  C533  1  0.663000  0.573520  0.555000  1.0  0.0306
  C  C534  1  0.655200  0.604300  0.644000  1.0  0.05
  C  C535  1  0.661300  0.601600  0.834000  1.0  -0.1258
  C  C536  1  0.654300  0.615300  0.963000  1.0  -0.0731
  C  C537  1  0.640900  0.632100  0.902000  1.0  -0.1263
  C  C538  1  0.635000  0.634800  0.711000  1.0  -0.0336
  C  C539  1  0.641700  0.621000  0.583000  1.0  -0.1611
  C  C540  1  0.634800  0.648560  0.026000  1.0  0.7013
  C  C541  1  0.614000  0.564800  0.322000  1.0  0.0112
  C  C542  1  0.570700  0.561600  0.081000  1.0  0.2416
  C  C543  1  0.543900  0.569300  0.188000  1.0  -0.249
  C  C544  1  0.509300  0.569900  0.122000  1.0  -0.0801
  C  C545  1  0.501000  0.562800  0.946000  1.0  -0.1328
  C  C546  1  0.528000  0.555100  0.838000  1.0  -0.0423
  C  C547  1  0.562400  0.554500  0.904000  1.0  -0.1544
  C  C548  1  0.463200  0.563100  0.886000  1.0  0.5934
  C  C549  1  0.845400  0.938070  0.375000  1.0  0.0476
  C  C550  1  0.821900  0.936340  0.197600  1.0  0.0899
  C  C551  1  0.759700  0.933670  0.137500  1.0  0.3423
  C  C552  1  0.764800  0.931000  0.945000  1.0  -0.2472
  C  C553  1  0.735600  0.929500  0.826000  1.0  -0.0355
  C  C554  1  0.701300  0.930570  0.896800  1.0  -0.1164
  C  C555  1  0.696100  0.933320  0.089700  1.0  -0.0227
  C  C556  1  0.725500  0.934900  0.209700  1.0  -0.1867
  C  C557  1  0.668900  0.932020  0.763800  1.0  0.6422
  C  C558  1  0.837500  0.959000  0.439000  1.0  0.0487
  C  C559  1  0.859600  0.979400  0.654000  1.0  0.2138
  C  C560  1  0.854200  0.994400  0.535000  1.0  -0.2155
  C  C561  1  0.859300  0.012200  0.602000  1.0  -0.0551
  C  C562  1  0.869800  0.014960  0.787000  1.0  -0.1395
  C  C563  1  0.875200  0.999900  0.907000  1.0  -0.0531
  C  C564  1  0.870100  0.982200  0.840000  1.0  -0.2216
  C  C565  1  0.874700  0.032990  0.869000  1.0  0.7222
  C  C566  1  0.837000  0.926480  0.555000  1.0  0.0295
  C  C567  1  0.844800  0.895700  0.644000  1.0  0.0498
  C  C568  1  0.838700  0.898400  0.834000  1.0  -0.127
  C  C569  1  0.845700  0.884700  0.963000  1.0  -0.0746
  C  C570  1  0.859100  0.867900  0.902000  1.0  -0.1256
  C  C571  1  0.865000  0.865200  0.711000  1.0  -0.0328
  C  C572  1  0.858300  0.879000  0.583000  1.0  -0.1615
  C  C573  1  0.865200  0.851440  0.026000  1.0  0.7018
  C  C574  1  0.886000  0.935200  0.322000  1.0  0.011
  C  C575  1  0.929300  0.938400  0.081000  1.0  0.2414
  C  C576  1  0.956100  0.930700  0.188000  1.0  -0.2531
  C  C577  1  0.990700  0.930100  0.122000  1.0  -0.0809
  C  C578  1  0.999000  0.937200  0.946000  1.0  -0.1324
  C  C579  1  0.972000  0.944900  0.838000  1.0  -0.0425
  C  C580  1  0.937600  0.945500  0.904000  1.0  -0.1539
  C  C581  1  0.036800  0.936900  0.886000  1.0  0.5936
  C  C582  1  0.845400  0.438070  0.875000  1.0  0.0476
  C  C583  1  0.821900  0.436340  0.697600  1.0  0.0899
  C  C584  1  0.759700  0.433670  0.637500  1.0  0.3423
  C  C585  1  0.764800  0.431000  0.445000  1.0  -0.2472
  C  C586  1  0.735600  0.429500  0.326000  1.0  -0.0355
  C  C587  1  0.701300  0.430570  0.396800  1.0  -0.1164
  C  C588  1  0.696100  0.433320  0.589700  1.0  -0.0227
  C  C589  1  0.725500  0.434900  0.709700  1.0  -0.1867
  C  C590  1  0.668900  0.432020  0.263800  1.0  0.6422
  C  C591  1  0.837500  0.459000  0.939000  1.0  0.0487
  C  C592  1  0.859600  0.479400  0.154000  1.0  0.2138
  C  C593  1  0.854200  0.494400  0.035000  1.0  -0.2155
  C  C594  1  0.859300  0.512200  0.102000  1.0  -0.0551
  C  C595  1  0.869800  0.514960  0.287000  1.0  -0.1395
  C  C596  1  0.875200  0.499900  0.407000  1.0  -0.0531
  C  C597  1  0.870100  0.482200  0.340000  1.0  -0.2216
  C  C598  1  0.874700  0.532990  0.369000  1.0  0.7222
  C  C599  1  0.837000  0.426480  0.055000  1.0  0.0295
  C  C600  1  0.844800  0.395700  0.144000  1.0  0.0498
  C  C601  1  0.838700  0.398400  0.334000  1.0  -0.127
  C  C602  1  0.845700  0.384700  0.463000  1.0  -0.0746
  C  C603  1  0.859100  0.367900  0.402000  1.0  -0.1256
  C  C604  1  0.865000  0.365200  0.211000  1.0  -0.0328
  C  C605  1  0.858300  0.379000  0.083000  1.0  -0.1615
  C  C606  1  0.865200  0.351440  0.526000  1.0  0.7018
  C  C607  1  0.886000  0.435200  0.822000  1.0  0.011
  C  C608  1  0.929300  0.438400  0.581000  1.0  0.2414
  C  C609  1  0.956100  0.430700  0.688000  1.0  -0.2531
  C  C610  1  0.990700  0.430100  0.622000  1.0  -0.0809
  C  C611  1  0.999000  0.437200  0.446000  1.0  -0.1324
  C  C612  1  0.972000  0.444900  0.338000  1.0  -0.0425
  C  C613  1  0.937600  0.445500  0.404000  1.0  -0.1539
  C  C614  1  0.036800  0.436900  0.386000  1.0  0.5936
  C  C615  1  0.345400  0.938070  0.875000  1.0  0.0476
  C  C616  1  0.321900  0.936340  0.697600  1.0  0.0899
  C  C617  1  0.259700  0.933670  0.637500  1.0  0.3423
  C  C618  1  0.264800  0.931000  0.445000  1.0  -0.2472
  C  C619  1  0.235600  0.929500  0.326000  1.0  -0.0355
  C  C620  1  0.201300  0.930570  0.396800  1.0  -0.1164
  C  C621  1  0.196100  0.933320  0.589700  1.0  -0.0227
  C  C622  1  0.225500  0.934900  0.709700  1.0  -0.1867
  C  C623  1  0.168900  0.932020  0.263800  1.0  0.6422
  C  C624  1  0.337500  0.959000  0.939000  1.0  0.0487
  C  C625  1  0.359600  0.979400  0.154000  1.0  0.2138
  C  C626  1  0.354200  0.994400  0.035000  1.0  -0.2155
  C  C627  1  0.359300  0.012200  0.102000  1.0  -0.0551
  C  C628  1  0.369800  0.014960  0.287000  1.0  -0.1395
  C  C629  1  0.375200  0.999900  0.407000  1.0  -0.0531
  C  C630  1  0.370100  0.982200  0.340000  1.0  -0.2216
  C  C631  1  0.374700  0.032990  0.369000  1.0  0.7222
  C  C632  1  0.337000  0.926480  0.055000  1.0  0.0295
  C  C633  1  0.344800  0.895700  0.144000  1.0  0.0498
  C  C634  1  0.338700  0.898400  0.334000  1.0  -0.127
  C  C635  1  0.345700  0.884700  0.463000  1.0  -0.0746
  C  C636  1  0.359100  0.867900  0.402000  1.0  -0.1256
  C  C637  1  0.365000  0.865200  0.211000  1.0  -0.0328
  C  C638  1  0.358300  0.879000  0.083000  1.0  -0.1615
  C  C639  1  0.365200  0.851440  0.526000  1.0  0.7018
  C  C640  1  0.386000  0.935200  0.822000  1.0  0.011
  C  C641  1  0.429300  0.938400  0.581000  1.0  0.2414
  C  C642  1  0.456100  0.930700  0.688000  1.0  -0.2531
  C  C643  1  0.490700  0.930100  0.622000  1.0  -0.0809
  C  C644  1  0.499000  0.937200  0.446000  1.0  -0.1324
  C  C645  1  0.472000  0.944900  0.338000  1.0  -0.0425
  C  C646  1  0.437600  0.945500  0.404000  1.0  -0.1539
  C  C647  1  0.536800  0.936900  0.386000  1.0  0.5936
  C  C648  1  0.345400  0.438070  0.375000  1.0  0.0476
  C  C649  1  0.321900  0.436340  0.197600  1.0  0.0899
  C  C650  1  0.259700  0.433670  0.137500  1.0  0.3423
  C  C651  1  0.264800  0.431000  0.945000  1.0  -0.2472
  C  C652  1  0.235600  0.429500  0.826000  1.0  -0.0355
  C  C653  1  0.201300  0.430570  0.896800  1.0  -0.1164
  C  C654  1  0.196100  0.433320  0.089700  1.0  -0.0227
  C  C655  1  0.225500  0.434900  0.209700  1.0  -0.1867
  C  C656  1  0.168900  0.432020  0.763800  1.0  0.6422
  C  C657  1  0.337500  0.459000  0.439000  1.0  0.0487
  C  C658  1  0.359600  0.479400  0.654000  1.0  0.2138
  C  C659  1  0.354200  0.494400  0.535000  1.0  -0.2155
  C  C660  1  0.359300  0.512200  0.602000  1.0  -0.0551
  C  C661  1  0.369800  0.514960  0.787000  1.0  -0.1395
  C  C662  1  0.375200  0.499900  0.907000  1.0  -0.0531
  C  C663  1  0.370100  0.482200  0.840000  1.0  -0.2216
  C  C664  1  0.374700  0.532990  0.869000  1.0  0.7222
  C  C665  1  0.337000  0.426480  0.555000  1.0  0.0295
  C  C666  1  0.344800  0.395700  0.644000  1.0  0.0498
  C  C667  1  0.338700  0.398400  0.834000  1.0  -0.127
  C  C668  1  0.345700  0.384700  0.963000  1.0  -0.0746
  C  C669  1  0.359100  0.367900  0.902000  1.0  -0.1256
  C  C670  1  0.365000  0.365200  0.711000  1.0  -0.0328
  C  C671  1  0.358300  0.379000  0.583000  1.0  -0.1615
  C  C672  1  0.365200  0.351440  0.026000  1.0  0.7018
  C  C673  1  0.386000  0.435200  0.322000  1.0  0.011
  C  C674  1  0.429300  0.438400  0.081000  1.0  0.2414
  C  C675  1  0.456100  0.430700  0.188000  1.0  -0.2531
  C  C676  1  0.490700  0.430100  0.122000  1.0  -0.0809
  C  C677  1  0.499000  0.437200  0.946000  1.0  -0.1324
  C  C678  1  0.472000  0.444900  0.838000  1.0  -0.0425
  C  C679  1  0.437600  0.445500  0.904000  1.0  -0.1539
  C  C680  1  0.536800  0.436900  0.886000  1.0  0.5936
  C  C681  1  0.404600  0.188070  0.625000  1.0  0.0476
  C  C682  1  0.428100  0.186340  0.447600  1.0  0.089
  C  C683  1  0.490300  0.183670  0.387500  1.0  0.3419
  C  C684  1  0.485200  0.181000  0.195000  1.0  -0.2475
  C  C685  1  0.514400  0.179500  0.076000  1.0  -0.0359
  C  C686  1  0.548700  0.180570  0.146800  1.0  -0.1158
  C  C687  1  0.553900  0.183320  0.339700  1.0  -0.0231
  C  C688  1  0.524500  0.184900  0.459700  1.0  -0.1873
  C  C689  1  0.581100  0.182020  0.013800  1.0  0.641
  C  C690  1  0.412500  0.209000  0.689000  1.0  0.0488
  C  C691  1  0.390400  0.229400  0.904000  1.0  0.2138
  C  C692  1  0.395800  0.244400  0.785000  1.0  -0.2138
  C  C693  1  0.390700  0.262200  0.852000  1.0  -0.0548
  C  C694  1  0.380200  0.264960  0.037000  1.0  -0.1389
  C  C695  1  0.374800  0.249900  0.157000  1.0  -0.0538
  C  C696  1  0.379900  0.232200  0.090000  1.0  -0.221
  C  C697  1  0.375300  0.282990  0.119000  1.0  0.7211
  C  C698  1  0.413000  0.176480  0.805000  1.0  0.0297
  C  C699  1  0.405200  0.145700  0.894000  1.0  0.0496
  C  C700  1  0.411300  0.148400  0.084000  1.0  -0.1266
  C  C701  1  0.404300  0.134700  0.213000  1.0  -0.0738
  C  C702  1  0.390900  0.117900  0.152000  1.0  -0.1258
  C  C703  1  0.385000  0.115200  0.961000  1.0  -0.0333
  C  C704  1  0.391700  0.129000  0.833000  1.0  -0.1608
  C  C705  1  0.384800  0.101440  0.276000  1.0  0.7023
  C  C706  1  0.364000  0.185200  0.572000  1.0  0.0115
  C  C707  1  0.320700  0.188400  0.331000  1.0  0.2414
  C  C708  1  0.293900  0.180700  0.438000  1.0  -0.2502
  C  C709  1  0.259300  0.180100  0.372000  1.0  -0.0794
  C  C710  1  0.251000  0.187200  0.196000  1.0  -0.1327
  C  C711  1  0.278000  0.194900  0.088000  1.0  -0.0417
  C  C712  1  0.312400  0.195500  0.154000  1.0  -0.1541
  C  C713  1  0.213200  0.186900  0.136000  1.0  0.5934
  C  C714  1  0.404600  0.688070  0.125000  1.0  0.0476
  C  C715  1  0.428100  0.686340  0.947600  1.0  0.089
  C  C716  1  0.490300  0.683670  0.887500  1.0  0.3419
  C  C717  1  0.485200  0.681000  0.695000  1.0  -0.2475
  C  C718  1  0.514400  0.679500  0.576000  1.0  -0.0359
  C  C719  1  0.548700  0.680570  0.646800  1.0  -0.1158
  C  C720  1  0.553900  0.683320  0.839700  1.0  -0.0231
  C  C721  1  0.524500  0.684900  0.959700  1.0  -0.1873
  C  C722  1  0.581100  0.682020  0.513800  1.0  0.6416
  C  C723  1  0.412500  0.709000  0.189000  1.0  0.0488
  C  C724  1  0.390400  0.729400  0.404000  1.0  0.2138
  C  C725  1  0.395800  0.744400  0.285000  1.0  -0.2138
  C  C726  1  0.390700  0.762200  0.352000  1.0  -0.0548
  C  C727  1  0.380200  0.764960  0.537000  1.0  -0.1389
  C  C728  1  0.374800  0.749900  0.657000  1.0  -0.0538
  C  C729  1  0.379900  0.732200  0.590000  1.0  -0.221
  C  C730  1  0.375300  0.782990  0.619000  1.0  0.7211
  C  C731  1  0.413000  0.676480  0.305000  1.0  0.0297
  C  C732  1  0.405200  0.645700  0.394000  1.0  0.0496
  C  C733  1  0.411300  0.648400  0.584000  1.0  -0.1266
  C  C734  1  0.404300  0.634700  0.713000  1.0  -0.0738
  C  C735  1  0.390900  0.617900  0.652000  1.0  -0.1258
  C  C736  1  0.385000  0.615200  0.461000  1.0  -0.0333
  C  C737  1  0.391700  0.629000  0.333000  1.0  -0.1608
  C  C738  1  0.384800  0.601440  0.776000  1.0  0.7023
  C  C739  1  0.364000  0.685200  0.072000  1.0  0.0115
  C  C740  1  0.320700  0.688400  0.831000  1.0  0.2414
  C  C741  1  0.293900  0.680700  0.938000  1.0  -0.2502
  C  C742  1  0.259300  0.680100  0.872000  1.0  -0.0794
  C  C743  1  0.251000  0.687200  0.696000  1.0  -0.1327
  C  C744  1  0.278000  0.694900  0.588000  1.0  -0.0417
  C  C745  1  0.312400  0.695500  0.654000  1.0  -0.1541
  C  C746  1  0.213200  0.686900  0.636000  1.0  0.5934
  C  C747  1  0.904600  0.188070  0.125000  1.0  0.0476
  C  C748  1  0.928100  0.186340  0.947600  1.0  0.089
  C  C749  1  0.990300  0.183670  0.887500  1.0  0.3419
  C  C750  1  0.985200  0.181000  0.695000  1.0  -0.2475
  C  C751  1  0.014400  0.179500  0.576000  1.0  -0.0359
  C  C752  1  0.048700  0.180570  0.646800  1.0  -0.1158
  C  C753  1  0.053900  0.183320  0.839700  1.0  -0.0231
  C  C754  1  0.024500  0.184900  0.959700  1.0  -0.1873
  C  C755  1  0.081100  0.182020  0.513800  1.0  0.6416
  C  C756  1  0.912500  0.209000  0.189000  1.0  0.0488
  C  C757  1  0.890400  0.229400  0.404000  1.0  0.2138
  C  C758  1  0.895800  0.244400  0.285000  1.0  -0.2138
  C  C759  1  0.890700  0.262200  0.352000  1.0  -0.0548
  C  C760  1  0.880200  0.264960  0.537000  1.0  -0.1389
  C  C761  1  0.874800  0.249900  0.657000  1.0  -0.0538
  C  C762  1  0.879900  0.232200  0.590000  1.0  -0.221
  C  C763  1  0.875300  0.282990  0.619000  1.0  0.7211
  C  C764  1  0.913000  0.176480  0.305000  1.0  0.0297
  C  C765  1  0.905200  0.145700  0.394000  1.0  0.0496
  C  C766  1  0.911300  0.148400  0.584000  1.0  -0.1266
  C  C767  1  0.904300  0.134700  0.713000  1.0  -0.0738
  C  C768  1  0.890900  0.117900  0.652000  1.0  -0.1258
  C  C769  1  0.885000  0.115200  0.461000  1.0  -0.0333
  C  C770  1  0.891700  0.129000  0.333000  1.0  -0.1608
  C  C771  1  0.884800  0.101440  0.776000  1.0  0.7023
  C  C772  1  0.864000  0.185200  0.072000  1.0  0.0115
  C  C773  1  0.820700  0.188400  0.831000  1.0  0.2414
  C  C774  1  0.793900  0.180700  0.938000  1.0  -0.2502
  C  C775  1  0.759300  0.180100  0.872000  1.0  -0.0794
  C  C776  1  0.751000  0.187200  0.696000  1.0  -0.1327
  C  C777  1  0.778000  0.194900  0.588000  1.0  -0.0417
  C  C778  1  0.812400  0.195500  0.654000  1.0  -0.1541
  C  C779  1  0.713200  0.186900  0.636000  1.0  0.5934
  C  C780  1  0.904600  0.688070  0.625000  1.0  0.0476
  C  C781  1  0.928100  0.686340  0.447600  1.0  0.089
  C  C782  1  0.990300  0.683670  0.387500  1.0  0.3419
  C  C783  1  0.985200  0.681000  0.195000  1.0  -0.2475
  C  C784  1  0.014400  0.679500  0.076000  1.0  -0.0359
  C  C785  1  0.048700  0.680570  0.146800  1.0  -0.1158
  C  C786  1  0.053900  0.683320  0.339700  1.0  -0.0231
  C  C787  1  0.024500  0.684900  0.459700  1.0  -0.1873
  C  C788  1  0.081100  0.682020  0.013800  1.0  0.641
  C  C789  1  0.912500  0.709000  0.689000  1.0  0.0488
  C  C790  1  0.890400  0.729400  0.904000  1.0  0.2138
  C  C791  1  0.895800  0.744400  0.785000  1.0  -0.2138
  C  C792  1  0.890700  0.762200  0.852000  1.0  -0.0548
  C  C793  1  0.880200  0.764960  0.037000  1.0  -0.1389
  C  C794  1  0.874800  0.749900  0.157000  1.0  -0.0538
  C  C795  1  0.879900  0.732200  0.090000  1.0  -0.221
  C  C796  1  0.875300  0.782990  0.119000  1.0  0.7211
  C  C797  1  0.913000  0.676480  0.805000  1.0  0.0297
  C  C798  1  0.905200  0.645700  0.894000  1.0  0.0496
  C  C799  1  0.911300  0.648400  0.084000  1.0  -0.1266
  C  C800  1  0.904300  0.634700  0.213000  1.0  -0.0738
  C  C801  1  0.890900  0.617900  0.152000  1.0  -0.1258
  C  C802  1  0.885000  0.615200  0.961000  1.0  -0.0333
  C  C803  1  0.891700  0.629000  0.833000  1.0  -0.1608
  C  C804  1  0.884800  0.601440  0.276000  1.0  0.7023
  C  C805  1  0.864000  0.685200  0.572000  1.0  0.0115
  C  C806  1  0.820700  0.688400  0.331000  1.0  0.2414
  C  C807  1  0.793900  0.680700  0.438000  1.0  -0.2502
  C  C808  1  0.759300  0.680100  0.372000  1.0  -0.0794
  C  C809  1  0.751000  0.687200  0.196000  1.0  -0.1327
  C  C810  1  0.778000  0.694900  0.088000  1.0  -0.0417
  C  C811  1  0.812400  0.695500  0.154000  1.0  -0.1541
  C  C812  1  0.713200  0.686900  0.136000  1.0  0.5934
  C  C813  1  0.095400  0.311930  0.625000  1.0  0.0474
  C  C814  1  0.071900  0.313660  0.447600  1.0  0.0899
  C  C815  1  0.009700  0.316330  0.387500  1.0  0.3423
  C  C816  1  0.014800  0.319000  0.195000  1.0  -0.247
  C  C817  1  0.985600  0.320500  0.076000  1.0  -0.0356
  C  C818  1  0.951300  0.319430  0.146800  1.0  -0.1159
  C  C819  1  0.946100  0.316680  0.339700  1.0  -0.0226
  C  C820  1  0.975500  0.315100  0.459700  1.0  -0.1866
  C  C821  1  0.918900  0.317980  0.013800  1.0  0.642
  C  C822  1  0.087500  0.291000  0.689000  1.0  0.0487
  C  C823  1  0.109600  0.270600  0.904000  1.0  0.2135
  C  C824  1  0.104200  0.255600  0.785000  1.0  -0.2153
  C  C825  1  0.109300  0.237800  0.852000  1.0  -0.0551
  C  C826  1  0.119800  0.235040  0.037000  1.0  -0.1393
  C  C827  1  0.125200  0.250100  0.157000  1.0  -0.0535
  C  C828  1  0.120100  0.267800  0.090000  1.0  -0.2217
  C  C829  1  0.124700  0.217010  0.119000  1.0  0.7222
  C  C830  1  0.087000  0.323520  0.805000  1.0  0.0298
  C  C831  1  0.094800  0.354300  0.894000  1.0  0.0501
  C  C832  1  0.088700  0.351600  0.084000  1.0  -0.1264
  C  C833  1  0.095700  0.365300  0.213000  1.0  -0.0739
  C  C834  1  0.109100  0.382100  0.152000  1.0  -0.1262
  C  C835  1  0.115000  0.384800  0.961000  1.0  -0.0334
  C  C836  1  0.108300  0.371000  0.833000  1.0  -0.1621
  C  C837  1  0.115200  0.398560  0.276000  1.0  0.7009
  C  C838  1  0.136000  0.314800  0.572000  1.0  0.0105
  C  C839  1  0.179300  0.311600  0.331000  1.0  0.2415
  C  C840  1  0.206100  0.319300  0.438000  1.0  -0.253
  C  C841  1  0.240700  0.319900  0.372000  1.0  -0.0809
  C  C842  1  0.249000  0.312800  0.196000  1.0  -0.1324
  C  C843  1  0.222000  0.305100  0.088000  1.0  -0.0429
  C  C844  1  0.187600  0.304500  0.154000  1.0  -0.1543
  C  C845  1  0.286800  0.313100  0.136000  1.0  0.5936
  C  C846  1  0.095400  0.811930  0.125000  1.0  0.0474
  C  C847  1  0.071900  0.813660  0.947600  1.0  0.0899
  C  C848  1  0.009700  0.816330  0.887500  1.0  0.3423
  C  C849  1  0.014800  0.819000  0.695000  1.0  -0.247
  C  C850  1  0.985600  0.820500  0.576000  1.0  -0.0356
  C  C851  1  0.951300  0.819430  0.646800  1.0  -0.1159
  C  C852  1  0.946100  0.816680  0.839700  1.0  -0.0226
  C  C853  1  0.975500  0.815100  0.959700  1.0  -0.1866
  C  C854  1  0.918900  0.817980  0.513800  1.0  0.6424
  C  C855  1  0.087500  0.791000  0.189000  1.0  0.0487
  C  C856  1  0.109600  0.770600  0.404000  1.0  0.2135
  C  C857  1  0.104200  0.755600  0.285000  1.0  -0.2153
  C  C858  1  0.109300  0.737800  0.352000  1.0  -0.0551
  C  C859  1  0.119800  0.735040  0.537000  1.0  -0.1393
  C  C860  1  0.125200  0.750100  0.657000  1.0  -0.0535
  C  C861  1  0.120100  0.767800  0.590000  1.0  -0.2217
  C  C862  1  0.124700  0.717010  0.619000  1.0  0.7222
  C  C863  1  0.087000  0.823520  0.305000  1.0  0.0298
  C  C864  1  0.094800  0.854300  0.394000  1.0  0.0501
  C  C865  1  0.088700  0.851600  0.584000  1.0  -0.1264
  C  C866  1  0.095700  0.865300  0.713000  1.0  -0.0739
  C  C867  1  0.109100  0.882100  0.652000  1.0  -0.1262
  C  C868  1  0.115000  0.884800  0.461000  1.0  -0.0334
  C  C869  1  0.108300  0.871000  0.333000  1.0  -0.1621
  C  C870  1  0.115200  0.898560  0.776000  1.0  0.7009
  C  C871  1  0.136000  0.814800  0.072000  1.0  0.0105
  C  C872  1  0.179300  0.811600  0.831000  1.0  0.2415
  C  C873  1  0.206100  0.819300  0.938000  1.0  -0.253
  C  C874  1  0.240700  0.819900  0.872000  1.0  -0.0809
  C  C875  1  0.249000  0.812800  0.696000  1.0  -0.1324
  C  C876  1  0.222000  0.805100  0.588000  1.0  -0.0429
  C  C877  1  0.187600  0.804500  0.654000  1.0  -0.1543
  C  C878  1  0.286800  0.813100  0.636000  1.0  0.5936
  C  C879  1  0.595400  0.311930  0.125000  1.0  0.0474
  C  C880  1  0.571900  0.313660  0.947600  1.0  0.0899
  C  C881  1  0.509700  0.316330  0.887500  1.0  0.3423
  C  C882  1  0.514800  0.319000  0.695000  1.0  -0.247
  C  C883  1  0.485600  0.320500  0.576000  1.0  -0.0356
  C  C884  1  0.451300  0.319430  0.646800  1.0  -0.1159
  C  C885  1  0.446100  0.316680  0.839700  1.0  -0.0226
  C  C886  1  0.475500  0.315100  0.959700  1.0  -0.1866
  C  C887  1  0.418900  0.317980  0.513800  1.0  0.6424
  C  C888  1  0.587500  0.291000  0.189000  1.0  0.0487
  C  C889  1  0.609600  0.270600  0.404000  1.0  0.2135
  C  C890  1  0.604200  0.255600  0.285000  1.0  -0.2153
  C  C891  1  0.609300  0.237800  0.352000  1.0  -0.0551
  C  C892  1  0.619800  0.235040  0.537000  1.0  -0.1393
  C  C893  1  0.625200  0.250100  0.657000  1.0  -0.0535
  C  C894  1  0.620100  0.267800  0.590000  1.0  -0.2217
  C  C895  1  0.624700  0.217010  0.619000  1.0  0.7222
  C  C896  1  0.587000  0.323520  0.305000  1.0  0.0298
  C  C897  1  0.594800  0.354300  0.394000  1.0  0.0501
  C  C898  1  0.588700  0.351600  0.584000  1.0  -0.1264
  C  C899  1  0.595700  0.365300  0.713000  1.0  -0.0739
  C  C900  1  0.609100  0.382100  0.652000  1.0  -0.1262
  C  C901  1  0.615000  0.384800  0.461000  1.0  -0.0334
  C  C902  1  0.608300  0.371000  0.333000  1.0  -0.1621
  C  C903  1  0.615200  0.398560  0.776000  1.0  0.7009
  C  C904  1  0.636000  0.314800  0.072000  1.0  0.0105
  C  C905  1  0.679300  0.311600  0.831000  1.0  0.2415
  C  C906  1  0.706100  0.319300  0.938000  1.0  -0.253
  C  C907  1  0.740700  0.319900  0.872000  1.0  -0.0809
  C  C908  1  0.749000  0.312800  0.696000  1.0  -0.1324
  C  C909  1  0.722000  0.305100  0.588000  1.0  -0.0429
  C  C910  1  0.687600  0.304500  0.654000  1.0  -0.1543
  C  C911  1  0.786800  0.313100  0.636000  1.0  0.5936
  C  C912  1  0.595400  0.811930  0.625000  1.0  0.0474
  C  C913  1  0.571900  0.813660  0.447600  1.0  0.0899
  C  C914  1  0.509700  0.816330  0.387500  1.0  0.3423
  C  C915  1  0.514800  0.819000  0.195000  1.0  -0.247
  C  C916  1  0.485600  0.820500  0.076000  1.0  -0.0356
  C  C917  1  0.451300  0.819430  0.146800  1.0  -0.1159
  C  C918  1  0.446100  0.816680  0.339700  1.0  -0.0226
  C  C919  1  0.475500  0.815100  0.459700  1.0  -0.1866
  C  C920  1  0.418900  0.817980  0.013800  1.0  0.642
  C  C921  1  0.587500  0.791000  0.689000  1.0  0.0487
  C  C922  1  0.609600  0.770600  0.904000  1.0  0.2135
  C  C923  1  0.604200  0.755600  0.785000  1.0  -0.2153
  C  C924  1  0.609300  0.737800  0.852000  1.0  -0.0551
  C  C925  1  0.619800  0.735040  0.037000  1.0  -0.1393
  C  C926  1  0.625200  0.750100  0.157000  1.0  -0.0535
  C  C927  1  0.620100  0.767800  0.090000  1.0  -0.2217
  C  C928  1  0.624700  0.717010  0.119000  1.0  0.7222
  C  C929  1  0.587000  0.823520  0.805000  1.0  0.0298
  C  C930  1  0.594800  0.854300  0.894000  1.0  0.0501
  C  C931  1  0.588700  0.851600  0.084000  1.0  -0.1264
  C  C932  1  0.595700  0.865300  0.213000  1.0  -0.0739
  C  C933  1  0.609100  0.882100  0.152000  1.0  -0.1262
  C  C934  1  0.615000  0.884800  0.961000  1.0  -0.0334
  C  C935  1  0.608300  0.871000  0.833000  1.0  -0.1621
  C  C936  1  0.615200  0.898560  0.276000  1.0  0.7009
  C  C937  1  0.636000  0.814800  0.572000  1.0  0.0105
  C  C938  1  0.679300  0.811600  0.331000  1.0  0.2415
  C  C939  1  0.706100  0.819300  0.438000  1.0  -0.253
  C  C940  1  0.740700  0.819900  0.372000  1.0  -0.0809
  C  C941  1  0.749000  0.812800  0.196000  1.0  -0.1324
  C  C942  1  0.722000  0.805100  0.088000  1.0  -0.0429
  C  C943  1  0.687600  0.804500  0.154000  1.0  -0.1543
  C  C944  1  0.786800  0.813100  0.136000  1.0  0.5936
  O  O945  1  0.214170  0.064720  0.267200  1.0  -0.2758
  O  O946  1  0.361600  0.067430  0.812600  1.0  -0.5743
  O  O947  1  0.322800  0.069450  0.583300  1.0  -0.5827
  O  O948  1  0.144500  0.039290  0.605000  1.0  -0.2824
  O  O949  1  0.117300  0.965290  0.032900  1.0  -0.5597
  O  O950  1  0.126100  0.953120  0.764500  1.0  -0.6652
  O  O951  1  0.160600  0.091720  0.477800  1.0  -0.3729
  O  O952  1  0.133400  0.146600  0.206000  1.0  -0.6906
  O  O953  1  0.133700  0.164410  0.956200  1.0  -0.6441
  O  O954  1  0.106200  0.060830  0.147400  1.0  -0.2963
  O  O955  1  0.940300  0.067520  0.021100  1.0  -0.5912
  O  O956  1  0.955400  0.061370  0.704500  1.0  -0.6657
  O  O957  1  0.214170  0.564720  0.767200  1.0  -0.2758
  O  O958  1  0.361600  0.567430  0.312600  1.0  -0.5743
  O  O959  1  0.322800  0.569450  0.083300  1.0  -0.5827
  O  O960  1  0.144500  0.539290  0.105000  1.0  -0.2824
  O  O961  1  0.117300  0.465290  0.532900  1.0  -0.5597
  O  O962  1  0.126100  0.453120  0.264500  1.0  -0.6652
  O  O963  1  0.160600  0.591720  0.977800  1.0  -0.3729
  O  O964  1  0.133400  0.646600  0.706000  1.0  -0.6904
  O  O965  1  0.133700  0.664410  0.456200  1.0  -0.6441
  O  O966  1  0.106200  0.560830  0.647400  1.0  -0.2963
  O  O967  1  0.940300  0.567520  0.521100  1.0  -0.5912
  O  O968  1  0.955400  0.561370  0.204500  1.0  -0.6657
  O  O969  1  0.714170  0.064720  0.767200  1.0  -0.2758
  O  O970  1  0.861600  0.067430  0.312600  1.0  -0.5743
  O  O971  1  0.822800  0.069450  0.083300  1.0  -0.5827
  O  O972  1  0.644500  0.039290  0.105000  1.0  -0.2824
  O  O973  1  0.617300  0.965290  0.532900  1.0  -0.5597
  O  O974  1  0.626100  0.953120  0.264500  1.0  -0.6652
  O  O975  1  0.660600  0.091720  0.977800  1.0  -0.3729
  O  O976  1  0.633400  0.146600  0.706000  1.0  -0.6904
  O  O977  1  0.633700  0.164410  0.456200  1.0  -0.6441
  O  O978  1  0.606200  0.060830  0.647400  1.0  -0.2963
  O  O979  1  0.440300  0.067520  0.521100  1.0  -0.5912
  O  O980  1  0.455400  0.061370  0.204500  1.0  -0.6657
  O  O981  1  0.714170  0.564720  0.267200  1.0  -0.2758
  O  O982  1  0.861600  0.567430  0.812600  1.0  -0.5743
  O  O983  1  0.822800  0.569450  0.583300  1.0  -0.5827
  O  O984  1  0.644500  0.539290  0.605000  1.0  -0.2824
  O  O985  1  0.617300  0.465290  0.032900  1.0  -0.5597
  O  O986  1  0.626100  0.453120  0.764500  1.0  -0.6652
  O  O987  1  0.660600  0.591720  0.477800  1.0  -0.3729
  O  O988  1  0.633400  0.646600  0.206000  1.0  -0.6906
  O  O989  1  0.633700  0.664410  0.956200  1.0  -0.6441
  O  O990  1  0.606200  0.560830  0.147400  1.0  -0.2963
  O  O991  1  0.440300  0.567520  0.021100  1.0  -0.5912
  O  O992  1  0.455400  0.561370  0.704500  1.0  -0.6657
  O  O993  1  0.785830  0.935280  0.267200  1.0  -0.2762
  O  O994  1  0.638400  0.932570  0.812600  1.0  -0.5766
  O  O995  1  0.677200  0.930550  0.583300  1.0  -0.5815
  O  O996  1  0.855500  0.960710  0.605000  1.0  -0.2818
  O  O997  1  0.882700  0.034710  0.032900  1.0  -0.5589
  O  O998  1  0.873900  0.046880  0.764500  1.0  -0.6655
  O  O999  1  0.839400  0.908280  0.477800  1.0  -0.3716
  O  O1000  1  0.866600  0.853400  0.206000  1.0  -0.6911
  O  O1001  1  0.866300  0.835590  0.956200  1.0  -0.6446
  O  O1002  1  0.893800  0.939170  0.147400  1.0  -0.2951
  O  O1003  1  0.059700  0.932480  0.021100  1.0  -0.5914
  O  O1004  1  0.044600  0.938630  0.704500  1.0  -0.6651
  O  O1005  1  0.785830  0.435280  0.767200  1.0  -0.2762
  O  O1006  1  0.638400  0.432570  0.312600  1.0  -0.5766
  O  O1007  1  0.677200  0.430550  0.083300  1.0  -0.5815
  O  O1008  1  0.855500  0.460710  0.105000  1.0  -0.2818
  O  O1009  1  0.882700  0.534710  0.532900  1.0  -0.5589
  O  O1010  1  0.873900  0.546880  0.264500  1.0  -0.6655
  O  O1011  1  0.839400  0.408280  0.977800  1.0  -0.3716
  O  O1012  1  0.866600  0.353400  0.706000  1.0  -0.6909
  O  O1013  1  0.866300  0.335590  0.456200  1.0  -0.6446
  O  O1014  1  0.893800  0.439170  0.647400  1.0  -0.2951
  O  O1015  1  0.059700  0.432480  0.521100  1.0  -0.5914
  O  O1016  1  0.044600  0.438630  0.204500  1.0  -0.6651
  O  O1017  1  0.285830  0.935280  0.767200  1.0  -0.2762
  O  O1018  1  0.138400  0.932570  0.312600  1.0  -0.5766
  O  O1019  1  0.177200  0.930550  0.083300  1.0  -0.5815
  O  O1020  1  0.355500  0.960710  0.105000  1.0  -0.2818
  O  O1021  1  0.382700  0.034710  0.532900  1.0  -0.5595
  O  O1022  1  0.373900  0.046880  0.264500  1.0  -0.6655
  O  O1023  1  0.339400  0.908280  0.977800  1.0  -0.3716
  O  O1024  1  0.366600  0.853400  0.706000  1.0  -0.6909
  O  O1025  1  0.366300  0.835590  0.456200  1.0  -0.6446
  O  O1026  1  0.393800  0.939170  0.647400  1.0  -0.2951
  O  O1027  1  0.559700  0.932480  0.521100  1.0  -0.5914
  O  O1028  1  0.544600  0.938630  0.204500  1.0  -0.6651
  O  O1029  1  0.285830  0.435280  0.267200  1.0  -0.2762
  O  O1030  1  0.138400  0.432570  0.812600  1.0  -0.5766
  O  O1031  1  0.177200  0.430550  0.583300  1.0  -0.5815
  O  O1032  1  0.355500  0.460710  0.605000  1.0  -0.2818
  O  O1033  1  0.382700  0.534710  0.032900  1.0  -0.5595
  O  O1034  1  0.373900  0.546880  0.764500  1.0  -0.6655
  O  O1035  1  0.339400  0.408280  0.477800  1.0  -0.3716
  O  O1036  1  0.366600  0.353400  0.206000  1.0  -0.6911
  O  O1037  1  0.366300  0.335590  0.956200  1.0  -0.6446
  O  O1038  1  0.393800  0.439170  0.147400  1.0  -0.2951
  O  O1039  1  0.559700  0.432480  0.021100  1.0  -0.5914
  O  O1040  1  0.544600  0.438630  0.704500  1.0  -0.6651
  O  O1041  1  0.464170  0.185280  0.517200  1.0  -0.276
  O  O1042  1  0.611600  0.182570  0.062600  1.0  -0.5736
  O  O1043  1  0.572800  0.180550  0.833300  1.0  -0.5826
  O  O1044  1  0.394500  0.210710  0.855000  1.0  -0.2825
  O  O1045  1  0.367300  0.284710  0.282900  1.0  -0.5595
  O  O1046  1  0.376100  0.296880  0.014500  1.0  -0.6654
  O  O1047  1  0.410600  0.158280  0.727800  1.0  -0.3717
  O  O1048  1  0.383400  0.103400  0.456000  1.0  -0.6908
  O  O1049  1  0.383700  0.085590  0.206200  1.0  -0.6448
  O  O1050  1  0.356200  0.189170  0.397400  1.0  -0.2956
  O  O1051  1  0.190300  0.182480  0.271100  1.0  -0.5929
  O  O1052  1  0.205400  0.188630  0.954500  1.0  -0.6656
  O  O1053  1  0.464170  0.685280  0.017200  1.0  -0.276
  O  O1054  1  0.611600  0.682570  0.562600  1.0  -0.5736
  O  O1055  1  0.572800  0.680550  0.333333  1.0  -0.5826
  O  O1056  1  0.394500  0.710710  0.355000  1.0  -0.2825
  O  O1057  1  0.367300  0.784710  0.782900  1.0  -0.5595
  O  O1058  1  0.376100  0.796880  0.514500  1.0  -0.6654
  O  O1059  1  0.410600  0.658280  0.227800  1.0  -0.3717
  O  O1060  1  0.383400  0.603400  0.956000  1.0  -0.6908
  O  O1061  1  0.383700  0.585590  0.706200  1.0  -0.6448
  O  O1062  1  0.356200  0.689170  0.897400  1.0  -0.2956
  O  O1063  1  0.190300  0.682480  0.771100  1.0  -0.5929
  O  O1064  1  0.205400  0.688630  0.454500  1.0  -0.6656
  O  O1065  1  0.964170  0.185280  0.017200  1.0  -0.276
  O  O1066  1  0.111600  0.182570  0.562600  1.0  -0.5736
  O  O1067  1  0.072800  0.180550  0.333333  1.0  -0.5826
  O  O1068  1  0.894500  0.210710  0.355000  1.0  -0.2825
  O  O1069  1  0.867300  0.284710  0.782900  1.0  -0.5595
  O  O1070  1  0.876100  0.296880  0.514500  1.0  -0.6654
  O  O1071  1  0.910600  0.158280  0.227800  1.0  -0.3717
  O  O1072  1  0.883400  0.103400  0.956000  1.0  -0.6908
  O  O1073  1  0.883700  0.085590  0.706200  1.0  -0.6448
  O  O1074  1  0.856200  0.189170  0.897400  1.0  -0.2956
  O  O1075  1  0.690300  0.182480  0.771100  1.0  -0.5929
  O  O1076  1  0.705400  0.188630  0.454500  1.0  -0.6656
  O  O1077  1  0.964170  0.685280  0.517200  1.0  -0.276
  O  O1078  1  0.111600  0.682570  0.062600  1.0  -0.5736
  O  O1079  1  0.072800  0.680550  0.833300  1.0  -0.5826
  O  O1080  1  0.894500  0.710710  0.855000  1.0  -0.2825
  O  O1081  1  0.867300  0.784710  0.282900  1.0  -0.5595
  O  O1082  1  0.876100  0.796880  0.014500  1.0  -0.6654
  O  O1083  1  0.910600  0.658280  0.727800  1.0  -0.3717
  O  O1084  1  0.883400  0.603400  0.456000  1.0  -0.6908
  O  O1085  1  0.883700  0.585590  0.206200  1.0  -0.6448
  O  O1086  1  0.856200  0.689170  0.397400  1.0  -0.2956
  O  O1087  1  0.690300  0.682480  0.271100  1.0  -0.5929
  O  O1088  1  0.705400  0.688630  0.954500  1.0  -0.6656
  O  O1089  1  0.035830  0.314720  0.517200  1.0  -0.2761
  O  O1090  1  0.888400  0.317430  0.062600  1.0  -0.5773
  O  O1091  1  0.927200  0.319450  0.833300  1.0  -0.5817
  O  O1092  1  0.105500  0.289290  0.855000  1.0  -0.2802
  O  O1093  1  0.132700  0.215290  0.282900  1.0  -0.5592
  O  O1094  1  0.123900  0.203120  0.014500  1.0  -0.6654
  O  O1095  1  0.089400  0.341720  0.727800  1.0  -0.3727
  O  O1096  1  0.116600  0.396600  0.456000  1.0  -0.6905
  O  O1097  1  0.116300  0.414410  0.206200  1.0  -0.6439
  O  O1098  1  0.143800  0.310830  0.397400  1.0  -0.2952
  O  O1099  1  0.309700  0.317520  0.271100  1.0  -0.5919
  O  O1100  1  0.294600  0.311370  0.954500  1.0  -0.6645
  O  O1101  1  0.035830  0.814720  0.017200  1.0  -0.2761
  O  O1102  1  0.888400  0.817430  0.562600  1.0  -0.5773
  O  O1103  1  0.927200  0.819450  0.333333  1.0  -0.5818
  O  O1104  1  0.105500  0.789290  0.355000  1.0  -0.2802
  O  O1105  1  0.132700  0.715290  0.782900  1.0  -0.5592
  O  O1106  1  0.123900  0.703120  0.514500  1.0  -0.6654
  O  O1107  1  0.089400  0.841720  0.227800  1.0  -0.3727
  O  O1108  1  0.116600  0.896600  0.956000  1.0  -0.6905
  O  O1109  1  0.116300  0.914410  0.706200  1.0  -0.6439
  O  O1110  1  0.143800  0.810830  0.897400  1.0  -0.2952
  O  O1111  1  0.309700  0.817520  0.771100  1.0  -0.5919
  O  O1112  1  0.294600  0.811370  0.454500  1.0  -0.6645
  O  O1113  1  0.535830  0.314720  0.017200  1.0  -0.2761
  O  O1114  1  0.388400  0.317430  0.562600  1.0  -0.5773
  O  O1115  1  0.427200  0.319450  0.333333  1.0  -0.5818
  O  O1116  1  0.605500  0.289290  0.355000  1.0  -0.2802
  O  O1117  1  0.632700  0.215290  0.782900  1.0  -0.56
  O  O1118  1  0.623900  0.203120  0.514500  1.0  -0.6654
  O  O1119  1  0.589400  0.341720  0.227800  1.0  -0.3727
  O  O1120  1  0.616600  0.396600  0.956000  1.0  -0.6905
  O  O1121  1  0.616300  0.414410  0.706200  1.0  -0.6439
  O  O1122  1  0.643800  0.310830  0.897400  1.0  -0.2952
  O  O1123  1  0.809700  0.317520  0.771100  1.0  -0.5919
  O  O1124  1  0.794600  0.311370  0.454500  1.0  -0.6645
  O  O1125  1  0.535830  0.814720  0.517200  1.0  -0.2761
  O  O1126  1  0.388400  0.817430  0.062600  1.0  -0.5773
  O  O1127  1  0.427200  0.819450  0.833300  1.0  -0.5817
  O  O1128  1  0.605500  0.789290  0.855000  1.0  -0.2802
  O  O1129  1  0.632700  0.715290  0.282900  1.0  -0.56
  O  O1130  1  0.623900  0.703120  0.014500  1.0  -0.6654
  O  O1131  1  0.589400  0.841720  0.727800  1.0  -0.3727
  O  O1132  1  0.616600  0.896600  0.456000  1.0  -0.6905
  O  O1133  1  0.616300  0.914410  0.206200  1.0  -0.6439
  O  O1134  1  0.643800  0.810830  0.397400  1.0  -0.2952
  O  O1135  1  0.809700  0.817520  0.271100  1.0  -0.5919
  O  O1136  1  0.794600  0.811370  0.954500  1.0  -0.6645
