# generated using pymatgen
data_CuH16C21N2O5
_symmetry_space_group_name_H-M   'P 1'
_cell_length_a   30.27500000
_cell_length_b   15.28900000
_cell_length_c   22.42100000
_cell_angle_alpha   90.00000000
_cell_angle_beta   90.00000000
_cell_angle_gamma   90.00000000
_symmetry_Int_Tables_number   1
_chemical_formula_structural   CuH16C21N2O5
_chemical_formula_sum   'Cu16 H256 C336 N32 O80'
_cell_volume   10378.10860397
_cell_formula_units_Z   16
loop_
 _symmetry_equiv_pos_site_id
 _symmetry_equiv_pos_as_xyz
  1  'x, y, z'
loop_
 _atom_site_type_symbol
 _atom_site_label
 _atom_site_symmetry_multiplicity
 _atom_site_fract_x
 _atom_site_fract_y
 _atom_site_fract_z
 _atom_site_occupancy
 _atom_site_charge
  Cu  Cu1  1  0.119680  0.700380  0.832430  1.0  0.8448
  Cu  Cu2  1  0.130100  0.696070  0.714610  1.0  0.929
  Cu  Cu3  1  0.380320  0.299620  0.332430  1.0  0.8449
  Cu  Cu4  1  0.369900  0.303930  0.214610  1.0  0.9288
  Cu  Cu5  1  0.880320  0.200380  0.667570  1.0  0.8446
  Cu  Cu6  1  0.869900  0.196070  0.785390  1.0  0.9283
  Cu  Cu7  1  0.619680  0.799620  0.167570  1.0  0.8453
  Cu  Cu8  1  0.630100  0.803930  0.285390  1.0  0.928
  Cu  Cu9  1  0.880320  0.299620  0.167570  1.0  0.8451
  Cu  Cu10  1  0.869900  0.303930  0.285390  1.0  0.9282
  Cu  Cu11  1  0.619680  0.700380  0.667570  1.0  0.8448
  Cu  Cu12  1  0.630100  0.696070  0.785390  1.0  0.9281
  Cu  Cu13  1  0.119680  0.799620  0.332430  1.0  0.8451
  Cu  Cu14  1  0.130100  0.803930  0.214610  1.0  0.9287
  Cu  Cu15  1  0.380320  0.200380  0.832430  1.0  0.8446
  Cu  Cu16  1  0.369900  0.196070  0.714610  1.0  0.9291
  H  H17  1  0.195800  0.830800  0.016000  1.0  0.2703
  H  H18  1  0.148700  0.008700  0.025300  1.0  0.2624
  H  H19  1  0.998300  0.652700  0.834600  1.0  0.1033
  H  H20  1  0.935300  0.662200  0.890500  1.0  0.1076
  H  H21  1  0.878900  0.559700  0.878500  1.0  0.1052
  H  H22  1  0.886500  0.447700  0.812500  1.0  0.0979
  H  H23  1  0.996800  0.357700  0.681100  1.0  0.0995
  H  H24  1  0.050800  0.465000  0.689100  1.0  0.1075
  H  H25  1  0.193900  0.949300  0.827500  1.0  0.1004
  H  H26  1  0.247400  0.057900  0.829600  1.0  0.1023
  H  H27  1  0.369800  0.930600  0.740300  1.0  0.0981
  H  H28  1  0.386400  0.794500  0.705800  1.0  0.1066
  H  H29  1  0.334200  0.684700  0.707000  1.0  0.0881
  H  H30  1  0.263800  0.710800  0.740100  1.0  0.0994
  H  H31  1  0.072300  0.556600  0.026200  1.0  0.1112
  H  H32  1  0.105700  0.653800  0.091000  1.0  0.1067
  H  H33  1  0.144100  0.793900  0.950200  1.0  0.0687
  H  H34  1  0.183800  0.935200  0.114700  1.0  0.0772
  H  H35  1  0.241300  0.839200  0.141400  1.0  0.0743
  H  H36  1  0.268300  0.866800  0.084600  1.0  0.0809
  H  H37  1  0.248300  0.979100  0.181800  1.0  0.079
  H  H38  1  0.295800  0.945100  0.166100  1.0  0.0739
  H  H39  1  0.285700  0.091400  0.134400  1.0  0.0823
  H  H40  1  0.297700  0.030100  0.080500  1.0  0.0727
  H  H41  1  0.238800  0.118700  0.052100  1.0  0.0741
  H  H42  1  0.211400  0.089100  0.108000  1.0  0.0827
  H  H43  1  0.236500  0.975100  0.014100  1.0  0.0759
  H  H44  1  0.096700  0.978600  0.963200  1.0  0.0697
  H  H45  1  0.032800  0.097700  0.837300  1.0  0.0815
  H  H46  1  0.093900  0.177600  0.811800  1.0  0.1149
  H  H47  1  0.158900  0.159300  0.866200  1.0  0.1111
  H  H48  1  0.075700  0.581000  0.925400  1.0  0.0874
  H  H49  1  0.304200  0.169200  0.516000  1.0  0.2714
  H  H50  1  0.351300  0.991300  0.525300  1.0  0.2603
  H  H51  1  0.501700  0.347300  0.334600  1.0  0.1035
  H  H52  1  0.564700  0.337800  0.390500  1.0  0.1079
  H  H53  1  0.621100  0.440300  0.378500  1.0  0.1064
  H  H54  1  0.613500  0.552300  0.312500  1.0  0.0983
  H  H55  1  0.503200  0.642300  0.181100  1.0  0.0998
  H  H56  1  0.449200  0.535000  0.189100  1.0  0.1077
  H  H57  1  0.306100  0.050700  0.327500  1.0  0.1007
  H  H58  1  0.252600  0.942100  0.329600  1.0  0.1022
  H  H59  1  0.130200  0.069400  0.240300  1.0  0.099
  H  H60  1  0.113600  0.205500  0.205800  1.0  0.1065
  H  H61  1  0.165800  0.315300  0.207000  1.0  0.0888
  H  H62  1  0.236200  0.289200  0.240100  1.0  0.0994
  H  H63  1  0.427700  0.443400  0.526200  1.0  0.1112
  H  H64  1  0.394300  0.346200  0.591000  1.0  0.1061
  H  H65  1  0.355900  0.206100  0.450200  1.0  0.0688
  H  H66  1  0.316200  0.064800  0.614700  1.0  0.0779
  H  H67  1  0.258700  0.160800  0.641400  1.0  0.0724
  H  H68  1  0.231700  0.133200  0.584600  1.0  0.0808
  H  H69  1  0.251700  0.020900  0.681800  1.0  0.0786
  H  H70  1  0.204200  0.054900  0.666100  1.0  0.0762
  H  H71  1  0.214300  0.908600  0.634400  1.0  0.0833
  H  H72  1  0.202300  0.969900  0.580500  1.0  0.0733
  H  H73  1  0.261200  0.881300  0.552100  1.0  0.0726
  H  H74  1  0.288600  0.910900  0.608000  1.0  0.0827
  H  H75  1  0.263500  0.024900  0.514100  1.0  0.0761
  H  H76  1  0.403300  0.021400  0.463200  1.0  0.0696
  H  H77  1  0.467200  0.902300  0.337300  1.0  0.081
  H  H78  1  0.406100  0.822400  0.311800  1.0  0.1149
  H  H79  1  0.341100  0.840700  0.366200  1.0  0.1109
  H  H80  1  0.424300  0.419000  0.425400  1.0  0.0879
  H  H81  1  0.804200  0.330800  0.484000  1.0  0.2693
  H  H82  1  0.851300  0.508700  0.474700  1.0  0.2597
  H  H83  1  0.001700  0.152700  0.665400  1.0  0.1037
  H  H84  1  0.064700  0.162200  0.609500  1.0  0.1077
  H  H85  1  0.121100  0.059700  0.621500  1.0  0.1046
  H  H86  1  0.113500  0.947700  0.687500  1.0  0.0985
  H  H87  1  0.003200  0.857700  0.818900  1.0  0.1001
  H  H88  1  0.949200  0.965000  0.810900  1.0  0.1075
  H  H89  1  0.806100  0.449300  0.672500  1.0  0.1003
  H  H90  1  0.752600  0.557900  0.670400  1.0  0.1023
  H  H91  1  0.630200  0.430600  0.759700  1.0  0.0985
  H  H92  1  0.613600  0.294500  0.794200  1.0  0.1067
  H  H93  1  0.665800  0.184700  0.793000  1.0  0.0884
  H  H94  1  0.736200  0.210800  0.759900  1.0  0.0994
  H  H95  1  0.927700  0.056600  0.473800  1.0  0.1119
  H  H96  1  0.894300  0.153800  0.409000  1.0  0.1063
  H  H97  1  0.855900  0.293900  0.549800  1.0  0.0682
  H  H98  1  0.816200  0.435200  0.385300  1.0  0.078
  H  H99  1  0.758700  0.339200  0.358600  1.0  0.0732
  H  H100  1  0.731700  0.366800  0.415400  1.0  0.0815
  H  H101  1  0.751700  0.479100  0.318200  1.0  0.0793
  H  H102  1  0.704200  0.445100  0.333900  1.0  0.0766
  H  H103  1  0.714300  0.591400  0.365600  1.0  0.0829
  H  H104  1  0.702300  0.530100  0.419500  1.0  0.0725
  H  H105  1  0.761200  0.618700  0.447900  1.0  0.0726
  H  H106  1  0.788600  0.589100  0.392000  1.0  0.0828
  H  H107  1  0.763500  0.475100  0.485900  1.0  0.0767
  H  H108  1  0.903300  0.478600  0.536800  1.0  0.0705
  H  H109  1  0.967200  0.597700  0.662700  1.0  0.0815
  H  H110  1  0.906100  0.677600  0.688200  1.0  0.1149
  H  H111  1  0.841100  0.659300  0.633800  1.0  0.111
  H  H112  1  0.924300  0.081000  0.574600  1.0  0.0879
  H  H113  1  0.695800  0.669200  0.984000  1.0  0.2693
  H  H114  1  0.648700  0.491300  0.974700  1.0  0.2633
  H  H115  1  0.498300  0.847300  0.165400  1.0  0.1034
  H  H116  1  0.435300  0.837800  0.109500  1.0  0.1069
  H  H117  1  0.378900  0.940300  0.121500  1.0  0.1044
  H  H118  1  0.386500  0.052300  0.187500  1.0  0.0987
  H  H119  1  0.496800  0.142300  0.318900  1.0  0.0999
  H  H120  1  0.550800  0.035000  0.310900  1.0  0.1074
  H  H121  1  0.693900  0.550700  0.172500  1.0  0.1
  H  H122  1  0.747400  0.442100  0.170400  1.0  0.1023
  H  H123  1  0.869800  0.569400  0.259700  1.0  0.0991
  H  H124  1  0.886400  0.705500  0.294200  1.0  0.1068
  H  H125  1  0.834200  0.815300  0.293000  1.0  0.0882
  H  H126  1  0.763800  0.789200  0.259900  1.0  0.0992
  H  H127  1  0.572300  0.943400  0.973800  1.0  0.1121
  H  H128  1  0.605700  0.846200  0.909000  1.0  0.1066
  H  H129  1  0.644100  0.706100  0.049800  1.0  0.0687
  H  H130  1  0.683800  0.564800  0.885300  1.0  0.0786
  H  H131  1  0.741300  0.660800  0.858600  1.0  0.0734
  H  H132  1  0.768300  0.633200  0.915400  1.0  0.0793
  H  H133  1  0.748300  0.520900  0.818200  1.0  0.0797
  H  H134  1  0.795800  0.554900  0.833900  1.0  0.074
  H  H135  1  0.785700  0.408600  0.865600  1.0  0.083
  H  H136  1  0.797700  0.469900  0.919500  1.0  0.0731
  H  H137  1  0.738800  0.381300  0.947900  1.0  0.0747
  H  H138  1  0.711400  0.410900  0.892000  1.0  0.0842
  H  H139  1  0.736500  0.524900  0.985900  1.0  0.0765
  H  H140  1  0.596700  0.521400  0.036800  1.0  0.0703
  H  H141  1  0.532800  0.402300  0.162700  1.0  0.0815
  H  H142  1  0.593900  0.322400  0.188200  1.0  0.115
  H  H143  1  0.658900  0.340700  0.133800  1.0  0.1107
  H  H144  1  0.575700  0.919000  0.074600  1.0  0.0873
  H  H145  1  0.804200  0.169200  0.984000  1.0  0.2697
  H  H146  1  0.851300  0.991300  0.974700  1.0  0.2604
  H  H147  1  0.001700  0.347300  0.165400  1.0  0.1033
  H  H148  1  0.064700  0.337800  0.109500  1.0  0.1063
  H  H149  1  0.121100  0.440300  0.121500  1.0  0.1049
  H  H150  1  0.113500  0.552300  0.187500  1.0  0.0985
  H  H151  1  0.003200  0.642300  0.318900  1.0  0.0999
  H  H152  1  0.949200  0.535000  0.310900  1.0  0.1073
  H  H153  1  0.806100  0.050700  0.172500  1.0  0.1002
  H  H154  1  0.752600  0.942100  0.170400  1.0  0.1021
  H  H155  1  0.630200  0.069400  0.259700  1.0  0.0989
  H  H156  1  0.613600  0.205500  0.294200  1.0  0.1067
  H  H157  1  0.665800  0.315300  0.293000  1.0  0.0886
  H  H158  1  0.736200  0.289200  0.259900  1.0  0.0993
  H  H159  1  0.927700  0.443400  0.973800  1.0  0.1118
  H  H160  1  0.894300  0.346200  0.909000  1.0  0.1065
  H  H161  1  0.855900  0.206100  0.049800  1.0  0.0685
  H  H162  1  0.816200  0.064800  0.885300  1.0  0.0782
  H  H163  1  0.758700  0.160800  0.858600  1.0  0.0729
  H  H164  1  0.731700  0.133200  0.915400  1.0  0.08
  H  H165  1  0.751700  0.020900  0.818200  1.0  0.0795
  H  H166  1  0.704200  0.054900  0.833900  1.0  0.0766
  H  H167  1  0.714300  0.908600  0.865600  1.0  0.0828
  H  H168  1  0.702300  0.969900  0.919500  1.0  0.0725
  H  H169  1  0.761200  0.881300  0.947900  1.0  0.0742
  H  H170  1  0.788600  0.910900  0.892000  1.0  0.0832
  H  H171  1  0.763500  0.024900  0.985900  1.0  0.0763
  H  H172  1  0.903300  0.021400  0.036800  1.0  0.0708
  H  H173  1  0.967200  0.902300  0.162700  1.0  0.081
  H  H174  1  0.906100  0.822400  0.188200  1.0  0.1148
  H  H175  1  0.841100  0.840700  0.133800  1.0  0.1104
  H  H176  1  0.924300  0.419000  0.074600  1.0  0.0876
  H  H177  1  0.695800  0.830800  0.484000  1.0  0.2687
  H  H178  1  0.648700  0.008700  0.474700  1.0  0.2632
  H  H179  1  0.498300  0.652700  0.665400  1.0  0.1035
  H  H180  1  0.435300  0.662200  0.609500  1.0  0.1071
  H  H181  1  0.378900  0.559700  0.621500  1.0  0.1045
  H  H182  1  0.386500  0.447700  0.687500  1.0  0.0985
  H  H183  1  0.496800  0.357700  0.818900  1.0  0.0999
  H  H184  1  0.550800  0.465000  0.810900  1.0  0.1078
  H  H185  1  0.693900  0.949300  0.672500  1.0  0.1
  H  H186  1  0.747400  0.057900  0.670400  1.0  0.1026
  H  H187  1  0.869800  0.930600  0.759700  1.0  0.0981
  H  H188  1  0.886400  0.794500  0.794200  1.0  0.1067
  H  H189  1  0.834200  0.684700  0.793000  1.0  0.088
  H  H190  1  0.763800  0.710800  0.759900  1.0  0.099
  H  H191  1  0.572300  0.556600  0.473800  1.0  0.1118
  H  H192  1  0.605700  0.653800  0.409000  1.0  0.1065
  H  H193  1  0.644100  0.793900  0.549800  1.0  0.0682
  H  H194  1  0.683800  0.935200  0.385300  1.0  0.0784
  H  H195  1  0.741300  0.839200  0.358600  1.0  0.0735
  H  H196  1  0.768300  0.866800  0.415400  1.0  0.0802
  H  H197  1  0.748300  0.979100  0.318200  1.0  0.0795
  H  H198  1  0.795800  0.945100  0.333900  1.0  0.0741
  H  H199  1  0.785700  0.091400  0.365600  1.0  0.0823
  H  H200  1  0.797700  0.030100  0.419500  1.0  0.0726
  H  H201  1  0.738800  0.118700  0.447900  1.0  0.0727
  H  H202  1  0.711400  0.089100  0.392000  1.0  0.0839
  H  H203  1  0.736500  0.975100  0.485900  1.0  0.0767
  H  H204  1  0.596700  0.978600  0.536800  1.0  0.0699
  H  H205  1  0.532800  0.097700  0.662700  1.0  0.0818
  H  H206  1  0.593900  0.177600  0.688200  1.0  0.1151
  H  H207  1  0.658900  0.159300  0.633800  1.0  0.111
  H  H208  1  0.575700  0.581000  0.574600  1.0  0.0872
  H  H209  1  0.195800  0.669200  0.516000  1.0  0.2707
  H  H210  1  0.148700  0.491300  0.525300  1.0  0.2628
  H  H211  1  0.998300  0.847300  0.334600  1.0  0.1037
  H  H212  1  0.935300  0.837800  0.390500  1.0  0.107
  H  H213  1  0.878900  0.940300  0.378500  1.0  0.1055
  H  H214  1  0.886500  0.052300  0.312500  1.0  0.0983
  H  H215  1  0.996800  0.142300  0.181100  1.0  0.0997
  H  H216  1  0.050800  0.035000  0.189100  1.0  0.1074
  H  H217  1  0.193900  0.550700  0.327500  1.0  0.1003
  H  H218  1  0.247400  0.442100  0.329600  1.0  0.1024
  H  H219  1  0.369800  0.569400  0.240300  1.0  0.0992
  H  H220  1  0.386400  0.705500  0.205800  1.0  0.1066
  H  H221  1  0.334200  0.815300  0.207000  1.0  0.0884
  H  H222  1  0.263800  0.789200  0.240100  1.0  0.0993
  H  H223  1  0.072300  0.943400  0.526200  1.0  0.1115
  H  H224  1  0.105700  0.846200  0.591000  1.0  0.1066
  H  H225  1  0.144100  0.706100  0.450200  1.0  0.069
  H  H226  1  0.183800  0.564800  0.614700  1.0  0.0775
  H  H227  1  0.241300  0.660800  0.641400  1.0  0.0728
  H  H228  1  0.268300  0.633200  0.584600  1.0  0.0815
  H  H229  1  0.248300  0.520900  0.681800  1.0  0.0788
  H  H230  1  0.295800  0.554900  0.666100  1.0  0.0737
  H  H231  1  0.285700  0.408600  0.634400  1.0  0.0836
  H  H232  1  0.297700  0.469900  0.580500  1.0  0.0729
  H  H233  1  0.238800  0.381300  0.552100  1.0  0.0731
  H  H234  1  0.211400  0.410900  0.608000  1.0  0.0836
  H  H235  1  0.236500  0.524900  0.514100  1.0  0.0762
  H  H236  1  0.096700  0.521400  0.463200  1.0  0.0695
  H  H237  1  0.032800  0.402300  0.337300  1.0  0.0816
  H  H238  1  0.093900  0.322400  0.311800  1.0  0.1148
  H  H239  1  0.158900  0.340700  0.366200  1.0  0.1109
  H  H240  1  0.075700  0.919000  0.425400  1.0  0.0879
  H  H241  1  0.304200  0.330800  0.016000  1.0  0.2709
  H  H242  1  0.351300  0.508700  0.025300  1.0  0.2592
  H  H243  1  0.501700  0.152700  0.834600  1.0  0.1034
  H  H244  1  0.564700  0.162200  0.890500  1.0  0.1073
  H  H245  1  0.621100  0.059700  0.878500  1.0  0.1057
  H  H246  1  0.613500  0.947700  0.812500  1.0  0.0982
  H  H247  1  0.503200  0.857700  0.681100  1.0  0.0994
  H  H248  1  0.449200  0.965000  0.689100  1.0  0.1075
  H  H249  1  0.306100  0.449300  0.827500  1.0  0.1007
  H  H250  1  0.252600  0.557900  0.829600  1.0  0.102
  H  H251  1  0.130200  0.430600  0.740300  1.0  0.0987
  H  H252  1  0.113600  0.294500  0.705800  1.0  0.1063
  H  H253  1  0.165800  0.184700  0.707000  1.0  0.0885
  H  H254  1  0.236200  0.210800  0.740100  1.0  0.0996
  H  H255  1  0.427700  0.056600  0.026200  1.0  0.1111
  H  H256  1  0.394300  0.153800  0.091000  1.0  0.106
  H  H257  1  0.355900  0.293900  0.950200  1.0  0.0688
  H  H258  1  0.316200  0.435200  0.114700  1.0  0.0777
  H  H259  1  0.258700  0.339200  0.141400  1.0  0.074
  H  H260  1  0.231700  0.366800  0.084600  1.0  0.0809
  H  H261  1  0.251700  0.479100  0.181800  1.0  0.0786
  H  H262  1  0.204200  0.445100  0.166100  1.0  0.0767
  H  H263  1  0.214300  0.591400  0.134400  1.0  0.0826
  H  H264  1  0.202300  0.530100  0.080500  1.0  0.0733
  H  H265  1  0.261200  0.618700  0.052100  1.0  0.0741
  H  H266  1  0.288600  0.589100  0.108000  1.0  0.0819
  H  H267  1  0.263500  0.475100  0.014100  1.0  0.076
  H  H268  1  0.403300  0.478600  0.963200  1.0  0.0699
  H  H269  1  0.467200  0.597700  0.837300  1.0  0.0811
  H  H270  1  0.406100  0.677600  0.811800  1.0  0.1149
  H  H271  1  0.341100  0.659300  0.866200  1.0  0.1113
  H  H272  1  0.424300  0.081000  0.925400  1.0  0.0879
  C  C273  1  0.059720  0.597100  0.759900  1.0  0.6922
  C  C274  1  0.021850  0.533800  0.754300  1.0  -0.1109
  C  C275  1  0.982990  0.540500  0.790070  1.0  0.0349
  C  C276  1  0.976430  0.610400  0.830400  1.0  -0.1131
  C  C277  1  0.938600  0.616700  0.863300  1.0  -0.0809
  C  C278  1  0.904670  0.554700  0.856300  1.0  -0.1072
  C  C279  1  0.909430  0.487500  0.817200  1.0  -0.1213
  C  C280  1  0.948780  0.476900  0.783420  1.0  0.0492
  C  C281  1  0.955430  0.406600  0.742450  1.0  -0.1502
  C  C282  1  0.923820  0.330100  0.736000  1.0  0.6962
  C  C283  1  0.993070  0.403200  0.708140  1.0  -0.0627
  C  C284  1  0.026010  0.467400  0.713470  1.0  -0.1049
  C  C285  1  0.192000  0.795400  0.781600  1.0  0.71
  C  C286  1  0.229710  0.858900  0.785780  1.0  -0.1039
  C  C287  1  0.221490  0.938400  0.810800  1.0  -0.0902
  C  C288  1  0.253690  0.004300  0.811900  1.0  -0.1262
  C  C289  1  0.294420  0.989700  0.787000  1.0  -0.07
  C  C290  1  0.305370  0.906400  0.763100  1.0  0.034
  C  C291  1  0.348310  0.887100  0.740800  1.0  -0.0989
  C  C292  1  0.358180  0.806000  0.720200  1.0  -0.0925
  C  C293  1  0.326650  0.740100  0.720600  1.0  -0.0817
  C  C294  1  0.284670  0.755500  0.740700  1.0  -0.1105
  C  C295  1  0.272890  0.839200  0.762310  1.0  0.0349
  C  C296  1  0.325880  0.065300  0.783100  1.0  0.6927
  C  C297  1  0.087230  0.605200  0.011500  1.0  -0.1265
  C  C298  1  0.107330  0.662600  0.050000  1.0  0.0174
  C  C299  1  0.129950  0.733500  0.027020  1.0  -0.0619
  C  C300  1  0.129890  0.745000  0.965700  1.0  0.1746
  C  C301  1  0.150350  0.797700  0.069350  1.0  0.5554
  C  C302  1  0.204700  0.916400  0.083850  1.0  0.0936
  C  C303  1  0.247510  0.887200  0.114400  1.0  -0.157
  C  C304  1  0.267770  0.963500  0.149200  1.0  -0.1369
  C  C305  1  0.275220  0.043200  0.110000  1.0  -0.1066
  C  C306  1  0.232880  0.070000  0.078700  1.0  -0.139
  C  C307  1  0.213980  0.993500  0.043000  1.0  0.0884
  C  C308  1  0.176590  0.053200  0.954900  1.0  0.5352
  C  C309  1  0.134590  0.066100  0.921400  1.0  -0.0343
  C  C310  1  0.096340  0.019500  0.932500  1.0  0.1728
  C  C311  1  0.058840  0.088900  0.858400  1.0  0.1618
  C  C312  1  0.095230  0.137800  0.843200  1.0  -0.1677
  C  C313  1  0.133840  0.126700  0.875300  1.0  0.0153
  C  C314  1  0.089410  0.620300  0.951100  1.0  0.1657
  C  C315  1  0.440280  0.402900  0.259900  1.0  0.6917
  C  C316  1  0.478150  0.466200  0.254300  1.0  -0.1128
  C  C317  1  0.517010  0.459500  0.290070  1.0  0.035
  C  C318  1  0.523570  0.389600  0.330400  1.0  -0.1124
  C  C319  1  0.561400  0.383300  0.363300  1.0  -0.0828
  C  C320  1  0.595330  0.445300  0.356300  1.0  -0.1094
  C  C321  1  0.590570  0.512500  0.317200  1.0  -0.1209
  C  C322  1  0.551220  0.523100  0.283420  1.0  0.0495
  C  C323  1  0.544570  0.593400  0.242450  1.0  -0.1491
  C  C324  1  0.576180  0.669900  0.236000  1.0  0.6957
  C  C325  1  0.506930  0.596800  0.208140  1.0  -0.063
  C  C326  1  0.473990  0.532600  0.213470  1.0  -0.1047
  C  C327  1  0.308000  0.204600  0.281600  1.0  0.7112
  C  C328  1  0.270290  0.141100  0.285780  1.0  -0.1038
  C  C329  1  0.278510  0.061600  0.310800  1.0  -0.0877
  C  C330  1  0.246310  0.995700  0.311900  1.0  -0.1253
  C  C331  1  0.205580  0.010300  0.287000  1.0  -0.0711
  C  C332  1  0.194630  0.093600  0.263100  1.0  0.0358
  C  C333  1  0.151690  0.112900  0.240800  1.0  -0.0999
  C  C334  1  0.141820  0.194000  0.220200  1.0  -0.0937
  C  C335  1  0.173350  0.259900  0.220600  1.0  -0.0809
  C  C336  1  0.215330  0.244500  0.240700  1.0  -0.1119
  C  C337  1  0.227110  0.160800  0.262310  1.0  0.0342
  C  C338  1  0.174120  0.934700  0.283100  1.0  0.6917
  C  C339  1  0.412770  0.394800  0.511500  1.0  -0.1248
  C  C340  1  0.392670  0.337400  0.550000  1.0  0.0174
  C  C341  1  0.370050  0.266500  0.527020  1.0  -0.0617
  C  C342  1  0.370110  0.255000  0.465700  1.0  0.1757
  C  C343  1  0.349650  0.202300  0.569350  1.0  0.5579
  C  C344  1  0.295300  0.083600  0.583850  1.0  0.0949
  C  C345  1  0.252490  0.112800  0.614400  1.0  -0.1587
  C  C346  1  0.232230  0.036500  0.649200  1.0  -0.1373
  C  C347  1  0.224780  0.956800  0.610000  1.0  -0.106
  C  C348  1  0.267120  0.930000  0.578700  1.0  -0.1349
  C  C349  1  0.286020  0.006500  0.543000  1.0  0.0879
  C  C350  1  0.323410  0.946800  0.454900  1.0  0.5363
  C  C351  1  0.365410  0.933900  0.421400  1.0  -0.0341
  C  C352  1  0.403660  0.980500  0.432500  1.0  0.1734
  C  C353  1  0.441160  0.911100  0.358400  1.0  0.1624
  C  C354  1  0.404770  0.862200  0.343200  1.0  -0.1688
  C  C355  1  0.366160  0.873300  0.375300  1.0  0.0133
  C  C356  1  0.410590  0.379700  0.451100  1.0  0.1654
  C  C357  1  0.940280  0.097100  0.740100  1.0  0.6918
  C  C358  1  0.978150  0.033800  0.745700  1.0  -0.1127
  C  C359  1  0.017010  0.040500  0.709930  1.0  0.035
  C  C360  1  0.023570  0.110400  0.669600  1.0  -0.1118
  C  C361  1  0.061400  0.116700  0.636700  1.0  -0.0812
  C  C362  1  0.095330  0.054700  0.643700  1.0  -0.1066
  C  C363  1  0.090570  0.987500  0.682800  1.0  -0.1229
  C  C364  1  0.051220  0.976900  0.716580  1.0  0.049
  C  C365  1  0.044570  0.906600  0.757550  1.0  -0.1487
  C  C366  1  0.076180  0.830100  0.764000  1.0  0.6961
  C  C367  1  0.006930  0.903200  0.791860  1.0  -0.0622
  C  C368  1  0.973990  0.967400  0.786530  1.0  -0.1047
  C  C369  1  0.808000  0.295400  0.718400  1.0  0.7105
  C  C370  1  0.770290  0.358900  0.714220  1.0  -0.1061
  C  C371  1  0.778510  0.438400  0.689200  1.0  -0.0881
  C  C372  1  0.746310  0.504300  0.688100  1.0  -0.1237
  C  C373  1  0.705580  0.489700  0.713000  1.0  -0.0727
  C  C374  1  0.694630  0.406400  0.736900  1.0  0.0359
  C  C375  1  0.651690  0.387100  0.759200  1.0  -0.1
  C  C376  1  0.641820  0.306000  0.779800  1.0  -0.094
  C  C377  1  0.673350  0.240100  0.779400  1.0  -0.0818
  C  C378  1  0.715330  0.255500  0.759300  1.0  -0.1119
  C  C379  1  0.727110  0.339200  0.737690  1.0  0.0337
  C  C380  1  0.674120  0.565300  0.716900  1.0  0.6926
  C  C381  1  0.912770  0.105200  0.488500  1.0  -0.1247
  C  C382  1  0.892670  0.162600  0.450000  1.0  0.0157
  C  C383  1  0.870050  0.233500  0.472980  1.0  -0.0614
  C  C384  1  0.870110  0.245000  0.534300  1.0  0.1764
  C  C385  1  0.849650  0.297700  0.430650  1.0  0.5572
  C  C386  1  0.795300  0.416400  0.416150  1.0  0.0944
  C  C387  1  0.752490  0.387200  0.385600  1.0  -0.1554
  C  C388  1  0.732230  0.463500  0.350800  1.0  -0.1368
  C  C389  1  0.724780  0.543200  0.390000  1.0  -0.1065
  C  C390  1  0.767120  0.570000  0.421300  1.0  -0.1389
  C  C391  1  0.786020  0.493500  0.457000  1.0  0.0888
  C  C392  1  0.823410  0.553200  0.545100  1.0  0.5362
  C  C393  1  0.865410  0.566100  0.578600  1.0  -0.0346
  C  C394  1  0.903660  0.519500  0.567500  1.0  0.1728
  C  C395  1  0.941160  0.588900  0.641600  1.0  0.1623
  C  C396  1  0.904770  0.637800  0.656800  1.0  -0.169
  C  C397  1  0.866160  0.626700  0.624700  1.0  0.0123
  C  C398  1  0.910590  0.120300  0.548900  1.0  0.168
  C  C399  1  0.559720  0.902900  0.240100  1.0  0.6911
  C  C400  1  0.521850  0.966200  0.245700  1.0  -0.1117
  C  C401  1  0.482990  0.959500  0.209930  1.0  0.0351
  C  C402  1  0.476430  0.889600  0.169600  1.0  -0.1129
  C  C403  1  0.438600  0.883300  0.136700  1.0  -0.0828
  C  C404  1  0.404670  0.945300  0.143700  1.0  -0.106
  C  C405  1  0.409430  0.012500  0.182800  1.0  -0.1215
  C  C406  1  0.448780  0.023100  0.216580  1.0  0.0493
  C  C407  1  0.455430  0.093400  0.257550  1.0  -0.1492
  C  C408  1  0.423820  0.169900  0.264000  1.0  0.6962
  C  C409  1  0.493070  0.096800  0.291860  1.0  -0.0629
  C  C410  1  0.526010  0.032600  0.286530  1.0  -0.1053
  C  C411  1  0.692000  0.704600  0.218400  1.0  0.7094
  C  C412  1  0.729710  0.641100  0.214220  1.0  -0.1055
  C  C413  1  0.721490  0.561600  0.189200  1.0  -0.09
  C  C414  1  0.753690  0.495700  0.188100  1.0  -0.1258
  C  C415  1  0.794420  0.510300  0.213000  1.0  -0.0721
  C  C416  1  0.805370  0.593600  0.236900  1.0  0.0354
  C  C417  1  0.848310  0.612900  0.259200  1.0  -0.0991
  C  C418  1  0.858180  0.694000  0.279800  1.0  -0.0929
  C  C419  1  0.826650  0.759900  0.279400  1.0  -0.0809
  C  C420  1  0.784670  0.744500  0.259300  1.0  -0.1122
  C  C421  1  0.772890  0.660800  0.237690  1.0  0.0346
  C  C422  1  0.825880  0.434700  0.216900  1.0  0.6923
  C  C423  1  0.587230  0.894800  0.988500  1.0  -0.1251
  C  C424  1  0.607330  0.837400  0.950000  1.0  0.0168
  C  C425  1  0.629950  0.766500  0.972980  1.0  -0.0619
  C  C426  1  0.629890  0.755000  0.034300  1.0  0.1764
  C  C427  1  0.650350  0.702300  0.930650  1.0  0.554
  C  C428  1  0.704700  0.583600  0.916150  1.0  0.0958
  C  C429  1  0.747510  0.612800  0.885600  1.0  -0.1597
  C  C430  1  0.767770  0.536500  0.850800  1.0  -0.1372
  C  C431  1  0.775220  0.456800  0.890000  1.0  -0.1063
  C  C432  1  0.732880  0.430000  0.921300  1.0  -0.1337
  C  C433  1  0.713980  0.506500  0.957000  1.0  0.0891
  C  C434  1  0.676590  0.446800  0.045100  1.0  0.5352
  C  C435  1  0.634590  0.433900  0.078600  1.0  -0.035
  C  C436  1  0.596340  0.480500  0.067500  1.0  0.1722
  C  C437  1  0.558840  0.411100  0.141600  1.0  0.1628
  C  C438  1  0.595230  0.362200  0.156800  1.0  -0.168
  C  C439  1  0.633840  0.373300  0.124700  1.0  0.0148
  C  C440  1  0.589410  0.879700  0.048900  1.0  0.1668
  C  C441  1  0.940280  0.402900  0.240100  1.0  0.6913
  C  C442  1  0.978150  0.466200  0.245700  1.0  -0.1134
  C  C443  1  0.017010  0.459500  0.209930  1.0  0.0351
  C  C444  1  0.023570  0.389600  0.169600  1.0  -0.112
  C  C445  1  0.061400  0.383300  0.136700  1.0  -0.0829
  C  C446  1  0.095330  0.445300  0.143700  1.0  -0.1071
  C  C447  1  0.090570  0.512500  0.182800  1.0  -0.1219
  C  C448  1  0.051220  0.523100  0.216580  1.0  0.0495
  C  C449  1  0.044570  0.593400  0.257550  1.0  -0.1489
  C  C450  1  0.076180  0.669900  0.264000  1.0  0.6959
  C  C451  1  0.006930  0.596800  0.291860  1.0  -0.0636
  C  C452  1  0.973990  0.532600  0.286530  1.0  -0.1051
  C  C453  1  0.808000  0.204600  0.218400  1.0  0.7106
  C  C454  1  0.770290  0.141100  0.214220  1.0  -0.1049
  C  C455  1  0.778510  0.061600  0.189200  1.0  -0.088
  C  C456  1  0.746310  0.995700  0.188100  1.0  -0.1248
  C  C457  1  0.705580  0.010300  0.213000  1.0  -0.0722
  C  C458  1  0.694630  0.093600  0.236900  1.0  0.0361
  C  C459  1  0.651690  0.112900  0.259200  1.0  -0.1001
  C  C460  1  0.641820  0.194000  0.279800  1.0  -0.0942
  C  C461  1  0.673350  0.259900  0.279400  1.0  -0.0805
  C  C462  1  0.715330  0.244500  0.259300  1.0  -0.1129
  C  C463  1  0.727110  0.160800  0.237690  1.0  0.0343
  C  C464  1  0.674120  0.934700  0.216900  1.0  0.6925
  C  C465  1  0.912770  0.394800  0.988500  1.0  -0.1241
  C  C466  1  0.892670  0.337400  0.950000  1.0  0.0161
  C  C467  1  0.870050  0.266500  0.972980  1.0  -0.0614
  C  C468  1  0.870110  0.255000  0.034300  1.0  0.1764
  C  C469  1  0.849650  0.202300  0.930650  1.0  0.5568
  C  C470  1  0.795300  0.083600  0.916150  1.0  0.0961
  C  C471  1  0.752490  0.112800  0.885600  1.0  -0.1583
  C  C472  1  0.732230  0.036500  0.850800  1.0  -0.1371
  C  C473  1  0.724780  0.956800  0.890000  1.0  -0.106
  C  C474  1  0.767120  0.930000  0.921300  1.0  -0.1339
  C  C475  1  0.786020  0.006500  0.957000  1.0  0.0889
  C  C476  1  0.823410  0.946800  0.045100  1.0  0.5364
  C  C477  1  0.865410  0.933900  0.078600  1.0  -0.0348
  C  C478  1  0.903660  0.980500  0.067500  1.0  0.173
  C  C479  1  0.941160  0.911100  0.141600  1.0  0.1626
  C  C480  1  0.904770  0.862200  0.156800  1.0  -0.1687
  C  C481  1  0.866160  0.873300  0.124700  1.0  0.0139
  C  C482  1  0.910590  0.379700  0.048900  1.0  0.1666
  C  C483  1  0.559720  0.597100  0.740100  1.0  0.6921
  C  C484  1  0.521850  0.533800  0.745700  1.0  -0.111
  C  C485  1  0.482990  0.540500  0.709930  1.0  0.035
  C  C486  1  0.476430  0.610400  0.669600  1.0  -0.1126
  C  C487  1  0.438600  0.616700  0.636700  1.0  -0.081
  C  C488  1  0.404670  0.554700  0.643700  1.0  -0.1057
  C  C489  1  0.409430  0.487500  0.682800  1.0  -0.1219
  C  C490  1  0.448780  0.476900  0.716580  1.0  0.0491
  C  C491  1  0.455430  0.406600  0.757550  1.0  -0.1502
  C  C492  1  0.423820  0.330100  0.764000  1.0  0.6963
  C  C493  1  0.493070  0.403200  0.791860  1.0  -0.0622
  C  C494  1  0.526010  0.467400  0.786530  1.0  -0.1049
  C  C495  1  0.692000  0.795400  0.718400  1.0  0.7097
  C  C496  1  0.729710  0.858900  0.714220  1.0  -0.1068
  C  C497  1  0.721490  0.938400  0.689200  1.0  -0.0901
  C  C498  1  0.753690  0.004300  0.688100  1.0  -0.1246
  C  C499  1  0.794420  0.989700  0.713000  1.0  -0.072
  C  C500  1  0.805370  0.906400  0.736900  1.0  0.0351
  C  C501  1  0.848310  0.887100  0.759200  1.0  -0.0982
  C  C502  1  0.858180  0.806000  0.779800  1.0  -0.0927
  C  C503  1  0.826650  0.740100  0.779400  1.0  -0.0817
  C  C504  1  0.784670  0.755500  0.759300  1.0  -0.1113
  C  C505  1  0.772890  0.839200  0.737690  1.0  0.0341
  C  C506  1  0.825880  0.065300  0.716900  1.0  0.6926
  C  C507  1  0.587230  0.605200  0.488500  1.0  -0.1255
  C  C508  1  0.607330  0.662600  0.450000  1.0  0.0164
  C  C509  1  0.629950  0.733500  0.472980  1.0  -0.0619
  C  C510  1  0.629890  0.745000  0.534300  1.0  0.1761
  C  C511  1  0.650350  0.797700  0.430650  1.0  0.5539
  C  C512  1  0.704700  0.916400  0.416150  1.0  0.0944
  C  C513  1  0.747510  0.887200  0.385600  1.0  -0.1569
  C  C514  1  0.767770  0.963500  0.350800  1.0  -0.1367
  C  C515  1  0.775220  0.043200  0.390000  1.0  -0.1058
  C  C516  1  0.732880  0.070000  0.421300  1.0  -0.139
  C  C517  1  0.713980  0.993500  0.457000  1.0  0.0892
  C  C518  1  0.676590  0.053200  0.545100  1.0  0.5351
  C  C519  1  0.634590  0.066100  0.578600  1.0  -0.0348
  C  C520  1  0.596340  0.019500  0.567500  1.0  0.1726
  C  C521  1  0.558840  0.088900  0.641600  1.0  0.1624
  C  C522  1  0.595230  0.137800  0.656800  1.0  -0.1686
  C  C523  1  0.633840  0.126700  0.624700  1.0  0.0146
  C  C524  1  0.589410  0.620300  0.548900  1.0  0.1681
  C  C525  1  0.059720  0.902900  0.259900  1.0  0.6914
  C  C526  1  0.021850  0.966200  0.254300  1.0  -0.1115
  C  C527  1  0.982990  0.959500  0.290070  1.0  0.0347
  C  C528  1  0.976430  0.889600  0.330400  1.0  -0.1133
  C  C529  1  0.938600  0.883300  0.363300  1.0  -0.0829
  C  C530  1  0.904670  0.945300  0.356300  1.0  -0.1073
  C  C531  1  0.909430  0.012500  0.317200  1.0  -0.1207
  C  C532  1  0.948780  0.023100  0.283420  1.0  0.0492
  C  C533  1  0.955430  0.093400  0.242450  1.0  -0.1495
  C  C534  1  0.923820  0.169900  0.236000  1.0  0.696
  C  C535  1  0.993070  0.096800  0.208140  1.0  -0.0631
  C  C536  1  0.026010  0.032600  0.213470  1.0  -0.1047
  C  C537  1  0.192000  0.704600  0.281600  1.0  0.7098
  C  C538  1  0.229710  0.641100  0.285780  1.0  -0.1043
  C  C539  1  0.221490  0.561600  0.310800  1.0  -0.0903
  C  C540  1  0.253690  0.495700  0.311900  1.0  -0.1268
  C  C541  1  0.294420  0.510300  0.287000  1.0  -0.0699
  C  C542  1  0.305370  0.593600  0.263100  1.0  0.0342
  C  C543  1  0.348310  0.612900  0.240800  1.0  -0.0993
  C  C544  1  0.358180  0.694000  0.220200  1.0  -0.0927
  C  C545  1  0.326650  0.759900  0.220600  1.0  -0.0813
  C  C546  1  0.284670  0.744500  0.240700  1.0  -0.1113
  C  C547  1  0.272890  0.660800  0.262310  1.0  0.0352
  C  C548  1  0.325880  0.434700  0.283100  1.0  0.6926
  C  C549  1  0.087230  0.894800  0.511500  1.0  -0.1262
  C  C550  1  0.107330  0.837400  0.550000  1.0  0.0176
  C  C551  1  0.129950  0.766500  0.527020  1.0  -0.0618
  C  C552  1  0.129890  0.755000  0.465700  1.0  0.1756
  C  C553  1  0.150350  0.702300  0.569350  1.0  0.555
  C  C554  1  0.204700  0.583600  0.583850  1.0  0.0952
  C  C555  1  0.247510  0.612800  0.614400  1.0  -0.1602
  C  C556  1  0.267770  0.536500  0.649200  1.0  -0.1376
  C  C557  1  0.275220  0.456800  0.610000  1.0  -0.1072
  C  C558  1  0.232880  0.430000  0.578700  1.0  -0.1344
  C  C559  1  0.213980  0.506500  0.543000  1.0  0.0877
  C  C560  1  0.176590  0.446800  0.454900  1.0  0.5354
  C  C561  1  0.134590  0.433900  0.421400  1.0  -0.0345
  C  C562  1  0.096340  0.480500  0.432500  1.0  0.1722
  C  C563  1  0.058840  0.411100  0.358400  1.0  0.1623
  C  C564  1  0.095230  0.362200  0.343200  1.0  -0.1682
  C  C565  1  0.133840  0.373300  0.375300  1.0  0.0142
  C  C566  1  0.089410  0.879700  0.451100  1.0  0.1659
  C  C567  1  0.440280  0.097100  0.759900  1.0  0.6919
  C  C568  1  0.478150  0.033800  0.754300  1.0  -0.1122
  C  C569  1  0.517010  0.040500  0.790070  1.0  0.0351
  C  C570  1  0.523570  0.110400  0.830400  1.0  -0.1124
  C  C571  1  0.561400  0.116700  0.863300  1.0  -0.0813
  C  C572  1  0.595330  0.054700  0.856300  1.0  -0.1093
  C  C573  1  0.590570  0.987500  0.817200  1.0  -0.1219
  C  C574  1  0.551220  0.976900  0.783420  1.0  0.0491
  C  C575  1  0.544570  0.906600  0.742450  1.0  -0.1487
  C  C576  1  0.576180  0.830100  0.736000  1.0  0.6959
  C  C577  1  0.506930  0.903200  0.708140  1.0  -0.0623
  C  C578  1  0.473990  0.967400  0.713470  1.0  -0.1048
  C  C579  1  0.308000  0.295400  0.781600  1.0  0.711
  C  C580  1  0.270290  0.358900  0.785780  1.0  -0.1033
  C  C581  1  0.278510  0.438400  0.810800  1.0  -0.0878
  C  C582  1  0.246310  0.504300  0.811900  1.0  -0.1248
  C  C583  1  0.205580  0.489700  0.787000  1.0  -0.0717
  C  C584  1  0.194630  0.406400  0.763100  1.0  0.0359
  C  C585  1  0.151690  0.387100  0.740800  1.0  -0.1
  C  C586  1  0.141820  0.306000  0.720200  1.0  -0.0938
  C  C587  1  0.173350  0.240100  0.720600  1.0  -0.0817
  C  C588  1  0.215330  0.255500  0.740700  1.0  -0.1113
  C  C589  1  0.227110  0.339200  0.762310  1.0  0.034
  C  C590  1  0.174120  0.565300  0.783100  1.0  0.6916
  C  C591  1  0.412770  0.105200  0.011500  1.0  -0.1254
  C  C592  1  0.392670  0.162600  0.050000  1.0  0.0172
  C  C593  1  0.370050  0.233500  0.027020  1.0  -0.0617
  C  C594  1  0.370110  0.245000  0.965700  1.0  0.175
  C  C595  1  0.349650  0.297700  0.069350  1.0  0.5588
  C  C596  1  0.295300  0.416400  0.083850  1.0  0.0927
  C  C597  1  0.252490  0.387200  0.114400  1.0  -0.1557
  C  C598  1  0.232230  0.463500  0.149200  1.0  -0.1369
  C  C599  1  0.224780  0.543200  0.110000  1.0  -0.1065
  C  C600  1  0.267120  0.570000  0.078700  1.0  -0.1389
  C  C601  1  0.286020  0.493500  0.043000  1.0  0.0885
  C  C602  1  0.323410  0.553200  0.954900  1.0  0.5359
  C  C603  1  0.365410  0.566100  0.921400  1.0  -0.0338
  C  C604  1  0.403660  0.519500  0.932500  1.0  0.1732
  C  C605  1  0.441160  0.588900  0.858400  1.0  0.1621
  C  C606  1  0.404770  0.637800  0.843200  1.0  -0.1681
  C  C607  1  0.366160  0.626700  0.875300  1.0  0.0127
  C  C608  1  0.410590  0.120300  0.951100  1.0  0.1654
  N  N609  1  0.110650  0.689800  0.927650  1.0  -0.3441
  N  N610  1  0.184690  0.843900  0.050090  1.0  -0.4158
  N  N611  1  0.174230  0.017600  0.009500  1.0  -0.4001
  N  N612  1  0.058990  0.029800  0.901820  1.0  -0.4463
  N  N613  1  0.389350  0.310200  0.427650  1.0  -0.3441
  N  N614  1  0.315310  0.156100  0.550090  1.0  -0.4176
  N  N615  1  0.325770  0.982400  0.509500  1.0  -0.4001
  N  N616  1  0.441010  0.970200  0.401820  1.0  -0.4496
  N  N617  1  0.889350  0.189800  0.572350  1.0  -0.3449
  N  N618  1  0.815310  0.343900  0.449910  1.0  -0.416
  N  N619  1  0.825770  0.517600  0.490500  1.0  -0.4
  N  N620  1  0.941010  0.529800  0.598180  1.0  -0.4483
  N  N621  1  0.610650  0.810200  0.072350  1.0  -0.3458
  N  N622  1  0.684690  0.656100  0.949910  1.0  -0.4157
  N  N623  1  0.674230  0.482400  0.990500  1.0  -0.3992
  N  N624  1  0.558990  0.470200  0.098180  1.0  -0.4458
  N  N625  1  0.889350  0.310200  0.072350  1.0  -0.3457
  N  N626  1  0.815310  0.156100  0.949910  1.0  -0.417
  N  N627  1  0.825770  0.982400  0.990500  1.0  -0.4001
  N  N628  1  0.941010  0.970200  0.098180  1.0  -0.4498
  N  N629  1  0.610650  0.689800  0.572350  1.0  -0.3449
  N  N630  1  0.684690  0.843900  0.449910  1.0  -0.4151
  N  N631  1  0.674230  0.017600  0.490500  1.0  -0.3998
  N  N632  1  0.558990  0.029800  0.598180  1.0  -0.4468
  N  N633  1  0.110650  0.810200  0.427650  1.0  -0.3447
  N  N634  1  0.184690  0.656100  0.550090  1.0  -0.4163
  N  N635  1  0.174230  0.482400  0.509500  1.0  -0.4001
  N  N636  1  0.058990  0.470200  0.401820  1.0  -0.4477
  N  N637  1  0.389350  0.189800  0.927650  1.0  -0.3437
  N  N638  1  0.315310  0.343900  0.050090  1.0  -0.4168
  N  N639  1  0.325770  0.517600  0.009500  1.0  -0.3995
  N  N640  1  0.441010  0.529800  0.901820  1.0  -0.4463
  O  O641  1  0.073170  0.614100  0.811800  1.0  -0.5836
  O  O642  1  0.075340  0.627500  0.711850  1.0  -0.5711
  O  O643  1  0.170170  0.782890  0.828810  1.0  -0.5733
  O  O644  1  0.184100  0.762200  0.731470  1.0  -0.5752
  O  O645  1  0.336540  0.103090  0.831020  1.0  -0.5691
  O  O646  1  0.337820  0.087040  0.731260  1.0  -0.5816
  O  O647  1  0.904440  0.304560  0.782470  1.0  -0.5831
  O  O648  1  0.920680  0.296600  0.685130  1.0  -0.574
  O  O649  1  0.133750  0.807200  0.119510  1.0  -0.6421
  O  O650  1  0.212200  0.073300  0.931660  1.0  -0.5553
  O  O651  1  0.426830  0.385900  0.311800  1.0  -0.5835
  O  O652  1  0.424660  0.372500  0.211850  1.0  -0.5715
  O  O653  1  0.329830  0.217110  0.328810  1.0  -0.5735
  O  O654  1  0.315900  0.237800  0.231470  1.0  -0.5749
  O  O655  1  0.163460  0.896910  0.331020  1.0  -0.5697
  O  O656  1  0.162180  0.912960  0.231260  1.0  -0.5812
  O  O657  1  0.595560  0.695440  0.282470  1.0  -0.5831
  O  O658  1  0.579320  0.703400  0.185130  1.0  -0.5744
  O  O659  1  0.366250  0.192800  0.619510  1.0  -0.6396
  O  O660  1  0.287800  0.926700  0.431660  1.0  -0.5572
  O  O661  1  0.926830  0.114100  0.688200  1.0  -0.5844
  O  O662  1  0.924660  0.127500  0.788150  1.0  -0.5708
  O  O663  1  0.829830  0.282890  0.671190  1.0  -0.5751
  O  O664  1  0.815900  0.262200  0.768530  1.0  -0.5745
  O  O665  1  0.663460  0.603090  0.668980  1.0  -0.5695
  O  O666  1  0.662180  0.587040  0.768740  1.0  -0.5823
  O  O667  1  0.095560  0.804560  0.717530  1.0  -0.584
  O  O668  1  0.079320  0.796600  0.814870  1.0  -0.5755
  O  O669  1  0.866250  0.307200  0.380490  1.0  -0.6395
  O  O670  1  0.787800  0.573300  0.568340  1.0  -0.5563
  O  O671  1  0.573170  0.885900  0.188200  1.0  -0.5841
  O  O672  1  0.575340  0.872500  0.288150  1.0  -0.5717
  O  O673  1  0.670170  0.717110  0.171190  1.0  -0.5753
  O  O674  1  0.684100  0.737800  0.268530  1.0  -0.5758
  O  O675  1  0.836540  0.396910  0.168980  1.0  -0.5703
  O  O676  1  0.837820  0.412960  0.268740  1.0  -0.5818
  O  O677  1  0.404440  0.195440  0.217530  1.0  -0.5832
  O  O678  1  0.420680  0.203400  0.314870  1.0  -0.5752
  O  O679  1  0.633750  0.692800  0.880490  1.0  -0.6419
  O  O680  1  0.712200  0.426700  0.068340  1.0  -0.5564
  O  O681  1  0.926830  0.385900  0.188200  1.0  -0.5836
  O  O682  1  0.924660  0.372500  0.288150  1.0  -0.5707
  O  O683  1  0.829830  0.217110  0.171190  1.0  -0.5739
  O  O684  1  0.815900  0.237800  0.268530  1.0  -0.5753
  O  O685  1  0.663460  0.896910  0.168980  1.0  -0.5703
  O  O686  1  0.662180  0.912960  0.268740  1.0  -0.5818
  O  O687  1  0.095560  0.695440  0.217530  1.0  -0.5836
  O  O688  1  0.079320  0.703400  0.314870  1.0  -0.5758
  O  O689  1  0.866250  0.192800  0.880490  1.0  -0.6401
  O  O690  1  0.787800  0.926700  0.068340  1.0  -0.5568
  O  O691  1  0.573170  0.614100  0.688200  1.0  -0.5832
  O  O692  1  0.575340  0.627500  0.788150  1.0  -0.5717
  O  O693  1  0.670170  0.782890  0.671190  1.0  -0.5739
  O  O694  1  0.684100  0.762200  0.768530  1.0  -0.575
  O  O695  1  0.836540  0.103090  0.668980  1.0  -0.5692
  O  O696  1  0.837820  0.087040  0.768740  1.0  -0.5822
  O  O697  1  0.404440  0.304560  0.717530  1.0  -0.5836
  O  O698  1  0.420680  0.296600  0.814870  1.0  -0.575
  O  O699  1  0.633750  0.807200  0.380490  1.0  -0.6417
  O  O700  1  0.712200  0.073300  0.568340  1.0  -0.556
  O  O701  1  0.073170  0.885900  0.311800  1.0  -0.5835
  O  O702  1  0.075340  0.872500  0.211850  1.0  -0.5716
  O  O703  1  0.170170  0.717110  0.328810  1.0  -0.5743
  O  O704  1  0.184100  0.737800  0.231470  1.0  -0.5754
  O  O705  1  0.336540  0.396910  0.331020  1.0  -0.5697
  O  O706  1  0.337820  0.412960  0.231260  1.0  -0.5817
  O  O707  1  0.904440  0.195440  0.282470  1.0  -0.5829
  O  O708  1  0.920680  0.203400  0.185130  1.0  -0.5741
  O  O709  1  0.133750  0.692800  0.619510  1.0  -0.6418
  O  O710  1  0.212200  0.426700  0.431660  1.0  -0.5566
  O  O711  1  0.426830  0.114100  0.811800  1.0  -0.5837
  O  O712  1  0.424660  0.127500  0.711850  1.0  -0.571
  O  O713  1  0.329830  0.282890  0.828810  1.0  -0.5743
  O  O714  1  0.315900  0.262200  0.731470  1.0  -0.5748
  O  O715  1  0.163460  0.603090  0.831020  1.0  -0.569
  O  O716  1  0.162180  0.587040  0.731260  1.0  -0.5813
  O  O717  1  0.595560  0.804560  0.782470  1.0  -0.5833
  O  O718  1  0.579320  0.796600  0.685130  1.0  -0.5743
  O  O719  1  0.366250  0.307200  0.119510  1.0  -0.6394
  O  O720  1  0.287800  0.573300  0.931660  1.0  -0.5556
