# generated using pymatgen
data_Mn2H16C29N16
_symmetry_space_group_name_H-M   'P 1'
_cell_length_a   30.70180000
_cell_length_b   30.70180000
_cell_length_c   30.70180000
_cell_angle_alpha   109.47100000
_cell_angle_beta   109.47100000
_cell_angle_gamma   109.47100000
_symmetry_Int_Tables_number   1
_chemical_formula_structural   Mn2H16C29N16
_chemical_formula_sum   'Mn24 H192 C348 N192'
_cell_volume   22277.84467300
_cell_formula_units_Z   12
loop_
 _symmetry_equiv_pos_site_id
 _symmetry_equiv_pos_as_xyz
  1  'x, y, z'
loop_
 _atom_site_type_symbol
 _atom_site_label
 _atom_site_symmetry_multiplicity
 _atom_site_fract_x
 _atom_site_fract_y
 _atom_site_fract_z
 _atom_site_occupancy
 _atom_site_charge
  Mn  Mn1  1  0.500000  0.000000  0.500000  1.0  0.7383
  Mn  Mn2  1  0.000000  0.000000  0.000000  1.0  0.7383
  Mn  Mn3  1  0.500000  0.500000  0.000000  1.0  0.7383
  Mn  Mn4  1  0.000000  0.500000  0.500000  1.0  0.7383
  Mn  Mn5  1  0.500000  0.000000  0.000000  1.0  0.7383
  Mn  Mn6  1  0.500000  0.500000  0.500000  1.0  0.7383
  Mn  Mn7  1  0.000000  0.000000  0.500000  1.0  0.7383
  Mn  Mn8  1  0.000000  0.500000  0.000000  1.0  0.7383
  Mn  Mn9  1  0.500000  0.131960  0.500000  1.0  0.9773
  Mn  Mn10  1  0.131960  0.000000  0.000000  1.0  0.9726
  Mn  Mn11  1  0.368040  0.368040  0.868040  1.0  0.9766
  Mn  Mn12  1  0.000000  0.500000  0.631960  1.0  0.9725
  Mn  Mn13  1  0.368040  0.000000  0.000000  1.0  0.9739
  Mn  Mn14  1  0.500000  0.368040  0.500000  1.0  0.9757
  Mn  Mn15  1  0.131960  0.131960  0.631960  1.0  0.9768
  Mn  Mn16  1  0.000000  0.500000  0.868040  1.0  0.9704
  Mn  Mn17  1  0.500000  0.868040  0.500000  1.0  0.9757
  Mn  Mn18  1  0.868040  0.000000  0.000000  1.0  0.9739
  Mn  Mn19  1  0.631960  0.631960  0.131960  1.0  0.9768
  Mn  Mn20  1  0.000000  0.500000  0.368040  1.0  0.9704
  Mn  Mn21  1  0.631960  0.000000  0.000000  1.0  0.9726
  Mn  Mn22  1  0.500000  0.631960  0.500000  1.0  0.9773
  Mn  Mn23  1  0.868040  0.868040  0.368040  1.0  0.9766
  Mn  Mn24  1  0.000000  0.500000  0.131960  1.0  0.9726
  H  H25  1  0.690500  0.164000  0.387500  1.0  0.0825
  H  H26  1  0.633800  0.156300  0.421500  1.0  0.1217
  H  H27  1  0.724900  0.062400  0.419500  1.0  0.1191
  H  H28  1  0.667200  0.050600  0.451200  1.0  0.1074
  H  H29  1  0.276500  0.303000  0.112500  1.0  0.0799
  H  H30  1  0.234800  0.212300  0.078500  1.0  0.1172
  H  H31  1  0.142900  0.305400  0.080500  1.0  0.1189
  H  H32  1  0.099400  0.216000  0.048800  1.0  0.1078
  H  H33  1  0.223500  0.336000  0.026500  1.0  0.0826
  H  H34  1  0.265200  0.343700  0.977500  1.0  0.1209
  H  H35  1  0.357100  0.437600  0.162500  1.0  0.1197
  H  H36  1  0.400600  0.449400  0.116600  1.0  0.1074
  H  H37  1  0.809500  0.197000  0.473500  1.0  0.0794
  H  H38  1  0.866200  0.287700  0.522500  1.0  0.1203
  H  H39  1  0.775100  0.194600  0.337500  1.0  0.1171
  H  H40  1  0.832800  0.284000  0.383400  1.0  0.1058
  H  H41  1  0.526500  0.223500  0.836000  1.0  0.0817
  H  H42  1  0.477500  0.265200  0.843700  1.0  0.1213
  H  H43  1  0.662500  0.357100  0.937600  1.0  0.1188
  H  H44  1  0.616600  0.400600  0.949400  1.0  0.1061
  H  H45  1  0.973500  0.809500  0.697000  1.0  0.0809
  H  H46  1  0.022500  0.866200  0.787700  1.0  0.1212
  H  H47  1  0.837500  0.775100  0.694600  1.0  0.1194
  H  H48  1  0.883400  0.832800  0.784000  1.0  0.1077
  H  H49  1  0.887500  0.690500  0.664000  1.0  0.0814
  H  H50  1  0.921500  0.633800  0.656300  1.0  0.1163
  H  H51  1  0.919500  0.724900  0.562400  1.0  0.1168
  H  H52  1  0.951200  0.667200  0.550600  1.0  0.1065
  H  H53  1  0.612500  0.276500  0.803000  1.0  0.0811
  H  H54  1  0.578500  0.234800  0.712300  1.0  0.1206
  H  H55  1  0.580500  0.142900  0.805400  1.0  0.1191
  H  H56  1  0.548800  0.099400  0.716000  1.0  0.1068
  H  H57  1  0.303000  0.612500  0.776500  1.0  0.0825
  H  H58  1  0.212300  0.578500  0.734800  1.0  0.12
  H  H59  1  0.305400  0.580500  0.642900  1.0  0.1169
  H  H60  1  0.216000  0.548800  0.599400  1.0  0.1062
  H  H61  1  0.164000  0.887500  0.190500  1.0  0.0837
  H  H62  1  0.156300  0.921500  0.133800  1.0  0.1178
  H  H63  1  0.062400  0.919500  0.224900  1.0  0.1179
  H  H64  1  0.050600  0.951200  0.167200  1.0  0.1065
  H  H65  1  0.197000  0.973500  0.309500  1.0  0.0809
  H  H66  1  0.287700  0.022500  0.366200  1.0  0.1216
  H  H67  1  0.194600  0.837500  0.275100  1.0  0.1207
  H  H68  1  0.284000  0.883400  0.332800  1.0  0.1068
  H  H69  1  0.336000  0.526500  0.723500  1.0  0.0822
  H  H70  1  0.343700  0.477500  0.765200  1.0  0.1249
  H  H71  1  0.437600  0.662500  0.857100  1.0  0.1189
  H  H72  1  0.449400  0.616600  0.900600  1.0  0.1074
  H  H73  1  0.336000  0.809500  0.112500  1.0  0.0797
  H  H74  1  0.343700  0.866200  0.078500  1.0  0.1212
  H  H75  1  0.437600  0.775100  0.080500  1.0  0.1208
  H  H76  1  0.449400  0.832800  0.048800  1.0  0.1067
  H  H77  1  0.197000  0.223500  0.387500  1.0  0.082
  H  H78  1  0.287700  0.265200  0.421500  1.0  0.1219
  H  H79  1  0.194600  0.357100  0.419500  1.0  0.1188
  H  H80  1  0.284000  0.400600  0.451200  1.0  0.106
  H  H81  1  0.164000  0.276500  0.473500  1.0  0.0815
  H  H82  1  0.156300  0.234800  0.522500  1.0  0.1208
  H  H83  1  0.062400  0.142900  0.337500  1.0  0.1184
  H  H84  1  0.050600  0.099400  0.383400  1.0  0.1067
  H  H85  1  0.303000  0.690500  0.026500  1.0  0.0834
  H  H86  1  0.212300  0.633800  0.977500  1.0  0.1206
  H  H87  1  0.305400  0.724900  0.162500  1.0  0.1166
  H  H88  1  0.216000  0.667200  0.116600  1.0  0.1066
  H  H89  1  0.276500  0.973500  0.664000  1.0  0.0807
  H  H90  1  0.234800  0.022500  0.656300  1.0  0.122
  H  H91  1  0.142900  0.837500  0.562400  1.0  0.118
  H  H92  1  0.099400  0.883400  0.550600  1.0  0.1074
  H  H93  1  0.690500  0.526500  0.803000  1.0  0.0815
  H  H94  1  0.633800  0.477500  0.712300  1.0  0.125
  H  H95  1  0.724900  0.662500  0.805400  1.0  0.119
  H  H96  1  0.667200  0.616600  0.716000  1.0  0.1067
  H  H97  1  0.809500  0.612500  0.836000  1.0  0.0832
  H  H98  1  0.866200  0.578500  0.843700  1.0  0.1208
  H  H99  1  0.775100  0.580500  0.937600  1.0  0.117
  H  H100  1  0.832800  0.548800  0.949400  1.0  0.1064
  H  H101  1  0.223500  0.887500  0.697000  1.0  0.0838
  H  H102  1  0.265200  0.921500  0.787700  1.0  0.1177
  H  H103  1  0.357100  0.919500  0.694600  1.0  0.1189
  H  H104  1  0.400600  0.951200  0.784000  1.0  0.107
  H  H105  1  0.887500  0.197000  0.723500  1.0  0.0809
  H  H106  1  0.921500  0.287700  0.765200  1.0  0.1167
  H  H107  1  0.919500  0.194600  0.857100  1.0  0.1172
  H  H108  1  0.951200  0.284000  0.900600  1.0  0.1064
  H  H109  1  0.612500  0.336000  0.309500  1.0  0.0822
  H  H110  1  0.578500  0.343700  0.366200  1.0  0.1212
  H  H111  1  0.580500  0.437600  0.275100  1.0  0.1187
  H  H112  1  0.548800  0.449400  0.332800  1.0  0.1076
  H  H113  1  0.526500  0.303000  0.190500  1.0  0.08
  H  H114  1  0.477500  0.212300  0.133800  1.0  0.1223
  H  H115  1  0.662500  0.305400  0.224900  1.0  0.1196
  H  H116  1  0.616600  0.216000  0.167200  1.0  0.1071
  H  H117  1  0.973500  0.164000  0.776500  1.0  0.0822
  H  H118  1  0.022500  0.156300  0.734800  1.0  0.122
  H  H119  1  0.837500  0.062400  0.642900  1.0  0.1191
  H  H120  1  0.883400  0.050600  0.599400  1.0  0.1065
  H  H121  1  0.309500  0.836000  0.612500  1.0  0.0821
  H  H122  1  0.366200  0.843700  0.578500  1.0  0.122
  H  H123  1  0.275100  0.937600  0.580500  1.0  0.1196
  H  H124  1  0.332800  0.949400  0.548800  1.0  0.1069
  H  H125  1  0.723500  0.697000  0.887500  1.0  0.0795
  H  H126  1  0.765200  0.787700  0.921500  1.0  0.1222
  H  H127  1  0.857100  0.694600  0.919500  1.0  0.12
  H  H128  1  0.900600  0.784000  0.951200  1.0  0.1074
  H  H129  1  0.776500  0.664000  0.973500  1.0  0.0823
  H  H130  1  0.734800  0.656300  0.022500  1.0  0.1213
  H  H131  1  0.642900  0.562400  0.837500  1.0  0.1183
  H  H132  1  0.599400  0.550600  0.883400  1.0  0.1072
  H  H133  1  0.190500  0.803000  0.526500  1.0  0.0815
  H  H134  1  0.133800  0.712300  0.477500  1.0  0.1206
  H  H135  1  0.224900  0.805400  0.662500  1.0  0.117
  H  H136  1  0.167200  0.716000  0.616600  1.0  0.1065
  H  H137  1  0.473500  0.776500  0.164000  1.0  0.0811
  H  H138  1  0.522500  0.734800  0.156300  1.0  0.1218
  H  H139  1  0.337500  0.642900  0.062400  1.0  0.1189
  H  H140  1  0.383400  0.599400  0.050600  1.0  0.1065
  H  H141  1  0.026500  0.190500  0.303000  1.0  0.0799
  H  H142  1  0.977500  0.133800  0.212300  1.0  0.1213
  H  H143  1  0.162500  0.224900  0.305400  1.0  0.1204
  H  H144  1  0.116600  0.167200  0.216000  1.0  0.1067
  H  H145  1  0.112500  0.309500  0.336000  1.0  0.0832
  H  H146  1  0.078500  0.366200  0.343700  1.0  0.1168
  H  H147  1  0.080500  0.275100  0.437600  1.0  0.1168
  H  H148  1  0.048800  0.332800  0.449400  1.0  0.1067
  H  H149  1  0.387500  0.723500  0.197000  1.0  0.0815
  H  H150  1  0.421500  0.765200  0.287700  1.0  0.1208
  H  H151  1  0.419500  0.857100  0.194600  1.0  0.119
  H  H152  1  0.451200  0.900600  0.284000  1.0  0.1061
  H  H153  1  0.697000  0.387500  0.223500  1.0  0.0836
  H  H154  1  0.787700  0.421500  0.265200  1.0  0.1208
  H  H155  1  0.694600  0.419500  0.357100  1.0  0.1169
  H  H156  1  0.784000  0.451200  0.400600  1.0  0.1062
  H  H157  1  0.836000  0.112500  0.809500  1.0  0.0832
  H  H158  1  0.843700  0.078500  0.866200  1.0  0.1176
  H  H159  1  0.937600  0.080500  0.775100  1.0  0.1188
  H  H160  1  0.949400  0.048800  0.832800  1.0  0.1065
  H  H161  1  0.803000  0.026500  0.690500  1.0  0.0817
  H  H162  1  0.712300  0.977500  0.633800  1.0  0.125
  H  H163  1  0.805400  0.162500  0.724900  1.0  0.119
  H  H164  1  0.716000  0.116600  0.667200  1.0  0.1076
  H  H165  1  0.664000  0.473500  0.276500  1.0  0.0805
  H  H166  1  0.656300  0.522500  0.234800  1.0  0.1219
  H  H167  1  0.562400  0.337500  0.142900  1.0  0.1179
  H  H168  1  0.550600  0.383400  0.099400  1.0  0.1062
  H  H169  1  0.664000  0.190500  0.887500  1.0  0.0806
  H  H170  1  0.656300  0.133800  0.921500  1.0  0.1169
  H  H171  1  0.562400  0.224900  0.919500  1.0  0.1192
  H  H172  1  0.550600  0.167200  0.951200  1.0  0.1077
  H  H173  1  0.803000  0.776500  0.612500  1.0  0.0806
  H  H174  1  0.712300  0.734800  0.578500  1.0  0.1215
  H  H175  1  0.805400  0.642900  0.580500  1.0  0.119
  H  H176  1  0.716000  0.599400  0.548800  1.0  0.1066
  H  H177  1  0.836000  0.723500  0.526500  1.0  0.0812
  H  H178  1  0.843700  0.765200  0.477500  1.0  0.1208
  H  H179  1  0.937600  0.857100  0.662500  1.0  0.1186
  H  H180  1  0.949400  0.900600  0.616600  1.0  0.1063
  H  H181  1  0.697000  0.309500  0.973500  1.0  0.0813
  H  H182  1  0.787700  0.366200  0.022500  1.0  0.1202
  H  H183  1  0.694600  0.275100  0.837500  1.0  0.1169
  H  H184  1  0.784000  0.332800  0.883400  1.0  0.1066
  H  H185  1  0.723500  0.026500  0.336000  1.0  0.0812
  H  H186  1  0.765200  0.977500  0.343700  1.0  0.1246
  H  H187  1  0.857100  0.162500  0.437600  1.0  0.121
  H  H188  1  0.900600  0.116600  0.449400  1.0  0.1076
  H  H189  1  0.309500  0.473500  0.197000  1.0  0.0826
  H  H190  1  0.366200  0.522500  0.287700  1.0  0.1215
  H  H191  1  0.275100  0.337500  0.194600  1.0  0.1183
  H  H192  1  0.332800  0.383400  0.284000  1.0  0.1072
  H  H193  1  0.190500  0.387500  0.164000  1.0  0.0829
  H  H194  1  0.133800  0.421500  0.156300  1.0  0.1199
  H  H195  1  0.224900  0.419500  0.062400  1.0  0.1171
  H  H196  1  0.167200  0.451200  0.050600  1.0  0.1062
  H  H197  1  0.776500  0.112500  0.303000  1.0  0.0834
  H  H198  1  0.734800  0.078500  0.212300  1.0  0.1177
  H  H199  1  0.642900  0.080500  0.305400  1.0  0.1181
  H  H200  1  0.599400  0.048800  0.216000  1.0  0.1071
  H  H201  1  0.112500  0.803000  0.276500  1.0  0.0798
  H  H202  1  0.078500  0.712300  0.234800  1.0  0.1165
  H  H203  1  0.080500  0.805400  0.142900  1.0  0.1171
  H  H204  1  0.048800  0.716000  0.099400  1.0  0.1061
  H  H205  1  0.387500  0.664000  0.690500  1.0  0.0828
  H  H206  1  0.421500  0.656300  0.633800  1.0  0.121
  H  H207  1  0.419500  0.562400  0.724900  1.0  0.1198
  H  H208  1  0.451200  0.550600  0.667200  1.0  0.1069
  H  H209  1  0.473500  0.697000  0.809500  1.0  0.0798
  H  H210  1  0.522500  0.787700  0.866200  1.0  0.1216
  H  H211  1  0.337500  0.694600  0.775100  1.0  0.1196
  H  H212  1  0.383400  0.784000  0.832800  1.0  0.1068
  H  H213  1  0.026500  0.836000  0.223500  1.0  0.0823
  H  H214  1  0.977500  0.843700  0.265200  1.0  0.1217
  H  H215  1  0.162500  0.937600  0.357100  1.0  0.1191
  H  H216  1  0.116600  0.949400  0.400600  1.0  0.1075
  C  C217  1  0.605200  0.089500  0.456100  1.0  0.2225
  C  C218  1  0.642100  0.099600  0.437500  1.0  -0.0034
  C  C219  1  0.686200  0.141200  0.401400  1.0  -0.0708
  C  C220  1  0.714500  0.117000  0.400900  1.0  0.0985
  C  C221  1  0.650700  0.136100  0.420400  1.0  -0.1532
  C  C222  1  0.706500  0.081200  0.419500  1.0  -0.2268
  C  C223  1  0.671500  0.073900  0.437800  1.0  -0.0556
  C  C224  1  0.133400  0.149100  0.043900  1.0  0.2225
  C  C225  1  0.162100  0.204600  0.062500  1.0  0.0013
  C  C226  1  0.239800  0.284800  0.098600  1.0  -0.0661
  C  C227  1  0.216100  0.313600  0.099100  1.0  0.102
  C  C228  1  0.215700  0.230300  0.079600  1.0  -0.1494
  C  C229  1  0.161700  0.287000  0.080500  1.0  -0.2226
  C  C230  1  0.136100  0.233700  0.062200  1.0  -0.0486
  C  C231  1  0.366600  0.410500  0.015700  1.0  0.2241
  C  C232  1  0.337900  0.400400  0.042500  1.0  0.0019
  C  C233  1  0.260200  0.358800  0.045000  1.0  -0.0717
  C  C234  1  0.283900  0.383000  0.097500  1.0  0.1026
  C  C235  1  0.284300  0.363900  0.014600  1.0  -0.1499
  C  C236  1  0.338300  0.418800  0.125300  1.0  -0.2259
  C  C237  1  0.363900  0.426100  0.097600  1.0  -0.0507
  C  C238  1  0.894800  0.350900  0.484300  1.0  0.2232
  C  C239  1  0.857900  0.295400  0.457500  1.0  0.0033
  C  C240  1  0.813800  0.215200  0.455000  1.0  -0.0691
  C  C241  1  0.785500  0.186400  0.402500  1.0  0.1031
  C  C242  1  0.849300  0.269700  0.485400  1.0  -0.1537
  C  C243  1  0.793500  0.213000  0.374700  1.0  -0.225
  C  C244  1  0.828500  0.266300  0.402400  1.0  -0.058
  C  C245  1  0.515700  0.366600  0.910500  1.0  0.2229
  C  C246  1  0.542500  0.337900  0.900400  1.0  0.0018
  C  C247  1  0.545000  0.260200  0.858800  1.0  -0.069
  C  C248  1  0.597500  0.283900  0.883000  1.0  0.1002
  C  C249  1  0.514600  0.284300  0.863900  1.0  -0.1535
  C  C250  1  0.625300  0.338300  0.918800  1.0  -0.2259
  C  C251  1  0.597600  0.363900  0.926100  1.0  -0.0501
  C  C252  1  0.984300  0.894800  0.850900  1.0  0.2232
  C  C253  1  0.957500  0.857900  0.795400  1.0  -0.0022
  C  C254  1  0.955000  0.813800  0.715200  1.0  -0.0644
  C  C255  1  0.902500  0.785500  0.686400  1.0  0.103
  C  C256  1  0.985400  0.849300  0.769700  1.0  -0.1483
  C  C257  1  0.874700  0.793500  0.713000  1.0  -0.2264
  C  C258  1  0.902400  0.828500  0.766300  1.0  -0.0518
  C  C259  1  0.956100  0.605200  0.589500  1.0  0.2223
  C  C260  1  0.937500  0.642100  0.599600  1.0  -0.001
  C  C261  1  0.901400  0.686200  0.641200  1.0  -0.0638
  C  C262  1  0.900900  0.714500  0.617000  1.0  0.1014
  C  C263  1  0.920400  0.650700  0.636100  1.0  -0.1526
  C  C264  1  0.919500  0.706500  0.581200  1.0  -0.2201
  C  C265  1  0.937800  0.671500  0.573900  1.0  -0.0528
  C  C266  1  0.543900  0.133400  0.649100  1.0  0.2231
  C  C267  1  0.562500  0.162100  0.704600  1.0  -0.0024
  C  C268  1  0.598600  0.239800  0.784800  1.0  -0.0698
  C  C269  1  0.599100  0.216100  0.813600  1.0  0.1031
  C  C270  1  0.579600  0.215700  0.730300  1.0  -0.1503
  C  C271  1  0.580500  0.161700  0.787000  1.0  -0.2236
  C  C272  1  0.562200  0.136100  0.733700  1.0  -0.0536
  C  C273  1  0.149100  0.543900  0.633400  1.0  0.2228
  C  C274  1  0.204600  0.562500  0.662100  1.0  -0.0018
  C  C275  1  0.284800  0.598600  0.739800  1.0  -0.0658
  C  C276  1  0.313600  0.599100  0.716100  1.0  0.0991
  C  C277  1  0.230300  0.579600  0.715700  1.0  -0.1529
  C  C278  1  0.287000  0.580500  0.661700  1.0  -0.224
  C  C279  1  0.233700  0.562200  0.636100  1.0  -0.0548
  C  C280  1  0.089500  0.956100  0.105200  1.0  0.2233
  C  C281  1  0.099600  0.937500  0.142100  1.0  -0.0014
  C  C282  1  0.141200  0.901400  0.186200  1.0  -0.0693
  C  C283  1  0.117000  0.900900  0.214500  1.0  0.103
  C  C284  1  0.136100  0.920400  0.150700  1.0  -0.1502
  C  C285  1  0.081200  0.919500  0.206500  1.0  -0.2241
  C  C286  1  0.073900  0.937800  0.171500  1.0  -0.0472
  C  C287  1  0.350900  0.984300  0.394800  1.0  0.2237
  C  C288  1  0.295400  0.957500  0.357900  1.0  -0.0006
  C  C289  1  0.215200  0.955000  0.313800  1.0  -0.0692
  C  C290  1  0.186400  0.902500  0.285500  1.0  0.103
  C  C291  1  0.269700  0.985400  0.349300  1.0  -0.1462
  C  C292  1  0.213000  0.874700  0.293500  1.0  -0.2249
  C  C293  1  0.266300  0.902400  0.328500  1.0  -0.0505
  C  C294  1  0.410500  0.515700  0.866600  1.0  0.2226
  C  C295  1  0.400400  0.542500  0.837900  1.0  -0.0015
  C  C296  1  0.358800  0.545000  0.760200  1.0  -0.0676
  C  C297  1  0.383000  0.597500  0.783900  1.0  0.1006
  C  C298  1  0.363900  0.514600  0.784300  1.0  -0.1467
  C  C299  1  0.418800  0.625300  0.838300  1.0  -0.2269
  C  C300  1  0.426100  0.597600  0.863900  1.0  -0.0554
  C  C301  1  0.410500  0.894800  0.043900  1.0  0.2246
  C  C302  1  0.400400  0.857900  0.062500  1.0  -0.0029
  C  C303  1  0.358800  0.813800  0.098600  1.0  -0.0665
  C  C304  1  0.383000  0.785500  0.099100  1.0  0.1032
  C  C305  1  0.363900  0.849300  0.079600  1.0  -0.1514
  C  C306  1  0.418800  0.793500  0.080500  1.0  -0.2251
  C  C307  1  0.426100  0.828500  0.062200  1.0  -0.0523
  C  C308  1  0.350900  0.366600  0.456100  1.0  0.2246
  C  C309  1  0.295400  0.337900  0.437500  1.0  -0.0003
  C  C310  1  0.215200  0.260200  0.401400  1.0  -0.069
  C  C311  1  0.186400  0.283900  0.400900  1.0  0.0977
  C  C312  1  0.269700  0.284300  0.420400  1.0  -0.149
  C  C313  1  0.213000  0.338300  0.419500  1.0  -0.2244
  C  C314  1  0.266300  0.363900  0.437800  1.0  -0.0512
  C  C315  1  0.089500  0.133400  0.484300  1.0  0.2228
  C  C316  1  0.099600  0.162100  0.457500  1.0  0.0011
  C  C317  1  0.141200  0.239800  0.455000  1.0  -0.0701
  C  C318  1  0.117000  0.216100  0.402500  1.0  0.1045
  C  C319  1  0.136100  0.215700  0.485400  1.0  -0.153
  C  C320  1  0.081200  0.161700  0.374700  1.0  -0.2236
  C  C321  1  0.073900  0.136100  0.402400  1.0  -0.0537
  C  C322  1  0.149100  0.605200  0.015700  1.0  0.2228
  C  C323  1  0.204600  0.642100  0.042500  1.0  -0.0034
  C  C324  1  0.284800  0.686200  0.045000  1.0  -0.0653
  C  C325  1  0.313600  0.714500  0.097500  1.0  0.1005
  C  C326  1  0.230300  0.650700  0.014600  1.0  -0.1509
  C  C327  1  0.287000  0.706500  0.125300  1.0  -0.2201
  C  C328  1  0.233700  0.671500  0.097600  1.0  -0.0523
  C  C329  1  0.133400  0.984300  0.589500  1.0  0.2242
  C  C330  1  0.162100  0.957500  0.599600  1.0  0.001
  C  C331  1  0.239800  0.955000  0.641200  1.0  -0.0689
  C  C332  1  0.216100  0.902500  0.617000  1.0  0.1009
  C  C333  1  0.215700  0.985400  0.636100  1.0  -0.1459
  C  C334  1  0.161700  0.874700  0.581200  1.0  -0.2255
  C  C335  1  0.136100  0.902400  0.573900  1.0  -0.0488
  C  C336  1  0.605200  0.515700  0.649100  1.0  0.2249
  C  C337  1  0.642100  0.542500  0.704600  1.0  -0.0041
  C  C338  1  0.686200  0.545000  0.784800  1.0  -0.0679
  C  C339  1  0.714500  0.597500  0.813600  1.0  0.1026
  C  C340  1  0.650700  0.514600  0.730300  1.0  -0.1472
  C  C341  1  0.706500  0.625300  0.787000  1.0  -0.2267
  C  C342  1  0.671500  0.597600  0.733700  1.0  -0.0543
  C  C343  1  0.894800  0.543900  0.910500  1.0  0.2243
  C  C344  1  0.857900  0.562500  0.900400  1.0  -0.0007
  C  C345  1  0.813800  0.598600  0.858800  1.0  -0.0645
  C  C346  1  0.785500  0.599100  0.883000  1.0  0.0973
  C  C347  1  0.849300  0.579600  0.863900  1.0  -0.1485
  C  C348  1  0.793500  0.580500  0.918800  1.0  -0.2208
  C  C349  1  0.828500  0.562200  0.926100  1.0  -0.0565
  C  C350  1  0.366600  0.956100  0.850900  1.0  0.2223
  C  C351  1  0.337900  0.937500  0.795400  1.0  -0.0016
  C  C352  1  0.260200  0.901400  0.715200  1.0  -0.0705
  C  C353  1  0.283900  0.900900  0.686400  1.0  0.1039
  C  C354  1  0.284300  0.920400  0.769700  1.0  -0.1543
  C  C355  1  0.338300  0.919500  0.713000  1.0  -0.223
  C  C356  1  0.363900  0.937800  0.766300  1.0  -0.0464
  C  C357  1  0.956100  0.350900  0.866600  1.0  0.2236
  C  C358  1  0.937500  0.295400  0.837900  1.0  0.0024
  C  C359  1  0.901400  0.215200  0.760200  1.0  -0.0683
  C  C360  1  0.900900  0.186400  0.783900  1.0  0.1026
  C  C361  1  0.920400  0.269700  0.784300  1.0  -0.152
  C  C362  1  0.919500  0.213000  0.838300  1.0  -0.2233
  C  C363  1  0.937800  0.266300  0.863900  1.0  -0.0564
  C  C364  1  0.543900  0.410500  0.394800  1.0  0.2235
  C  C365  1  0.562500  0.400400  0.357900  1.0  -0.0025
  C  C366  1  0.598600  0.358800  0.313800  1.0  -0.0712
  C  C367  1  0.599100  0.383000  0.285500  1.0  0.1023
  C  C368  1  0.579600  0.363900  0.349300  1.0  -0.1508
  C  C369  1  0.580500  0.418800  0.293500  1.0  -0.2265
  C  C370  1  0.562200  0.426100  0.328500  1.0  -0.0506
  C  C371  1  0.515700  0.149100  0.105200  1.0  0.2227
  C  C372  1  0.542500  0.204600  0.142100  1.0  0.0009
  C  C373  1  0.545000  0.284800  0.186200  1.0  -0.0677
  C  C374  1  0.597500  0.313600  0.214500  1.0  0.1014
  C  C375  1  0.514600  0.230300  0.150700  1.0  -0.1509
  C  C376  1  0.625300  0.287000  0.206500  1.0  -0.2206
  C  C377  1  0.597600  0.233700  0.171500  1.0  -0.0495
  C  C378  1  0.984300  0.089500  0.633400  1.0  0.2257
  C  C379  1  0.957500  0.099600  0.662100  1.0  0.0006
  C  C380  1  0.955000  0.141200  0.739800  1.0  -0.0704
  C  C381  1  0.902500  0.117000  0.716100  1.0  0.098
  C  C382  1  0.985400  0.136100  0.715700  1.0  -0.1496
  C  C383  1  0.874700  0.081200  0.661700  1.0  -0.2274
  C  C384  1  0.902400  0.073900  0.636100  1.0  -0.0545
  C  C385  1  0.394800  0.910500  0.543900  1.0  0.2255
  C  C386  1  0.357900  0.900400  0.562500  1.0  -0.0016
  C  C387  1  0.313800  0.858800  0.598600  1.0  -0.0692
  C  C388  1  0.285500  0.883000  0.599100  1.0  0.0979
  C  C389  1  0.349300  0.863900  0.579600  1.0  -0.1496
  C  C390  1  0.293500  0.918800  0.580500  1.0  -0.2274
  C  C391  1  0.328500  0.926100  0.562200  1.0  -0.0548
  C  C392  1  0.866600  0.850900  0.956100  1.0  0.2231
  C  C393  1  0.837900  0.795400  0.937500  1.0  0.0026
  C  C394  1  0.760200  0.715200  0.901400  1.0  -0.0698
  C  C395  1  0.783900  0.686400  0.900900  1.0  0.1023
  C  C396  1  0.784300  0.769700  0.920400  1.0  -0.1516
  C  C397  1  0.838300  0.713000  0.919500  1.0  -0.2222
  C  C398  1  0.863900  0.766300  0.937800  1.0  -0.0491
  C  C399  1  0.633400  0.589500  0.984300  1.0  0.2235
  C  C400  1  0.662100  0.599600  0.957500  1.0  -0.0002
  C  C401  1  0.739800  0.641200  0.955000  1.0  -0.0728
  C  C402  1  0.716100  0.617000  0.902500  1.0  0.1023
  C  C403  1  0.715700  0.636100  0.985400  1.0  -0.1521
  C  C404  1  0.661700  0.581200  0.874700  1.0  -0.2265
  C  C405  1  0.636100  0.573900  0.902400  1.0  -0.0503
  C  C406  1  0.105200  0.649100  0.515700  1.0  0.2231
  C  C407  1  0.142100  0.704600  0.542500  1.0  0.0008
  C  C408  1  0.186200  0.784800  0.545000  1.0  -0.0668
  C  C409  1  0.214500  0.813600  0.597500  1.0  0.1017
  C  C410  1  0.150700  0.730300  0.514600  1.0  -0.1514
  C  C411  1  0.206500  0.787000  0.625300  1.0  -0.2226
  C  C412  1  0.171500  0.733700  0.597600  1.0  -0.0583
  C  C413  1  0.484300  0.633400  0.089500  1.0  0.2245
  C  C414  1  0.457500  0.662100  0.099600  1.0  0.0021
  C  C415  1  0.455000  0.739800  0.141200  1.0  -0.0693
  C  C416  1  0.402500  0.716100  0.117000  1.0  0.0973
  C  C417  1  0.485400  0.715700  0.136100  1.0  -0.149
  C  C418  1  0.374700  0.661700  0.081200  1.0  -0.2253
  C  C419  1  0.402400  0.636100  0.073900  1.0  -0.054
  C  C420  1  0.015700  0.105200  0.149100  1.0  0.2239
  C  C421  1  0.042500  0.142100  0.204600  1.0  -0.0048
  C  C422  1  0.045000  0.186200  0.284800  1.0  -0.0652
  C  C423  1  0.097500  0.214500  0.313600  1.0  0.103
  C  C424  1  0.014600  0.150700  0.230300  1.0  -0.1513
  C  C425  1  0.125300  0.206500  0.287000  1.0  -0.2258
  C  C426  1  0.097600  0.171500  0.233700  1.0  -0.0518
  C  C427  1  0.043900  0.394800  0.410500  1.0  0.2235
  C  C428  1  0.062500  0.357900  0.400400  1.0  -0.0015
  C  C429  1  0.098600  0.313800  0.358800  1.0  -0.0655
  C  C430  1  0.099100  0.285500  0.383000  1.0  0.101
  C  C431  1  0.079600  0.349300  0.363900  1.0  -0.1506
  C  C432  1  0.080500  0.293500  0.418800  1.0  -0.22
  C  C433  1  0.062200  0.328500  0.426100  1.0  -0.0526
  C  C434  1  0.456100  0.866600  0.350900  1.0  0.2231
  C  C435  1  0.437500  0.837900  0.295400  1.0  -0.001
  C  C436  1  0.401400  0.760200  0.215200  1.0  -0.0687
  C  C437  1  0.400900  0.783900  0.186400  1.0  0.1041
  C  C438  1  0.420400  0.784300  0.269700  1.0  -0.1525
  C  C439  1  0.419500  0.838300  0.213000  1.0  -0.2226
  C  C440  1  0.437800  0.863900  0.266300  1.0  -0.051
  C  C441  1  0.850900  0.456100  0.366600  1.0  0.2242
  C  C442  1  0.795400  0.437500  0.337900  1.0  -0.0007
  C  C443  1  0.715200  0.401400  0.260200  1.0  -0.0643
  C  C444  1  0.686400  0.400900  0.283900  1.0  0.0975
  C  C445  1  0.769700  0.420400  0.284300  1.0  -0.148
  C  C446  1  0.713000  0.419500  0.338300  1.0  -0.2211
  C  C447  1  0.766300  0.437800  0.363900  1.0  -0.0564
  C  C448  1  0.910500  0.043900  0.894800  1.0  0.2224
  C  C449  1  0.900400  0.062500  0.857900  1.0  -0.0021
  C  C450  1  0.858800  0.098600  0.813800  1.0  -0.0691
  C  C451  1  0.883000  0.099100  0.785500  1.0  0.1041
  C  C452  1  0.863900  0.079600  0.849300  1.0  -0.1542
  C  C453  1  0.918800  0.080500  0.793500  1.0  -0.2215
  C  C454  1  0.926100  0.062200  0.828500  1.0  -0.047
  C  C455  1  0.649100  0.015700  0.605200  1.0  0.2238
  C  C456  1  0.704600  0.042500  0.642100  1.0  -0.0033
  C  C457  1  0.784800  0.045000  0.686200  1.0  -0.0686
  C  C458  1  0.813600  0.097500  0.714500  1.0  0.1005
  C  C459  1  0.730300  0.014600  0.650700  1.0  -0.1474
  C  C460  1  0.787000  0.125300  0.706500  1.0  -0.2263
  C  C461  1  0.733700  0.097600  0.671500  1.0  -0.0499
  C  C462  1  0.589500  0.484300  0.133400  1.0  0.2253
  C  C463  1  0.599600  0.457500  0.162100  1.0  -0.0003
  C  C464  1  0.641200  0.455000  0.239800  1.0  -0.0696
  C  C465  1  0.617000  0.402500  0.216100  1.0  0.1028
  C  C466  1  0.636100  0.485400  0.215700  1.0  -0.1458
  C  C467  1  0.581200  0.374700  0.161700  1.0  -0.2258
  C  C468  1  0.573900  0.402400  0.136100  1.0  -0.0536
  C  C469  1  0.589500  0.105200  0.956100  1.0  0.2221
  C  C470  1  0.599600  0.142100  0.937500  1.0  -0.0031
  C  C471  1  0.641200  0.186200  0.901400  1.0  -0.0633
  C  C472  1  0.617000  0.214500  0.900900  1.0  0.1015
  C  C473  1  0.636100  0.150700  0.920400  1.0  -0.1486
  C  C474  1  0.581200  0.206500  0.919500  1.0  -0.2265
  C  C475  1  0.573900  0.171500  0.937800  1.0  -0.0514
  C  C476  1  0.649100  0.633400  0.543900  1.0  0.2225
  C  C477  1  0.704600  0.662100  0.562500  1.0  -0.0017
  C  C478  1  0.784800  0.739800  0.598600  1.0  -0.0699
  C  C479  1  0.813600  0.716100  0.599100  1.0  0.0998
  C  C480  1  0.730300  0.715700  0.579600  1.0  -0.1528
  C  C481  1  0.787000  0.661700  0.580500  1.0  -0.2276
  C  C482  1  0.733700  0.636100  0.562200  1.0  -0.0528
  C  C483  1  0.910500  0.866600  0.515700  1.0  0.2234
  C  C484  1  0.900400  0.837900  0.542500  1.0  0.0009
  C  C485  1  0.858800  0.760200  0.545000  1.0  -0.0698
  C  C486  1  0.883000  0.783900  0.597500  1.0  0.1034
  C  C487  1  0.863900  0.784300  0.514600  1.0  -0.1503
  C  C488  1  0.918800  0.838300  0.625300  1.0  -0.2224
  C  C489  1  0.926100  0.863900  0.597600  1.0  -0.0507
  C  C490  1  0.850900  0.394800  0.984300  1.0  0.2233
  C  C491  1  0.795400  0.357900  0.957500  1.0  -0.0002
  C  C492  1  0.715200  0.313800  0.955000  1.0  -0.065
  C  C493  1  0.686400  0.285500  0.902500  1.0  0.1018
  C  C494  1  0.769700  0.349300  0.985400  1.0  -0.1533
  C  C495  1  0.713000  0.293500  0.874700  1.0  -0.2206
  C  C496  1  0.766300  0.328500  0.902400  1.0  -0.0536
  C  C497  1  0.866600  0.015700  0.410500  1.0  0.2232
  C  C498  1  0.837900  0.042500  0.400400  1.0  0.001
  C  C499  1  0.760200  0.045000  0.358800  1.0  -0.0674
  C  C500  1  0.783900  0.097500  0.383000  1.0  0.1027
  C  C501  1  0.784300  0.014600  0.363900  1.0  -0.1468
  C  C502  1  0.838300  0.125300  0.418800  1.0  -0.226
  C  C503  1  0.863900  0.097600  0.426100  1.0  -0.0504
  C  C504  1  0.394800  0.484300  0.350900  1.0  0.2231
  C  C505  1  0.357900  0.457500  0.295400  1.0  -0.0025
  C  C506  1  0.313800  0.455000  0.215200  1.0  -0.0685
  C  C507  1  0.285500  0.402500  0.186400  1.0  0.1021
  C  C508  1  0.349300  0.485400  0.269700  1.0  -0.1458
  C  C509  1  0.293500  0.374700  0.213000  1.0  -0.2261
  C  C510  1  0.328500  0.402400  0.266300  1.0  -0.0549
  C  C511  1  0.105200  0.456100  0.089500  1.0  0.2225
  C  C512  1  0.142100  0.437500  0.099600  1.0  -0.0012
  C  C513  1  0.186200  0.401400  0.141200  1.0  -0.0669
  C  C514  1  0.214500  0.400900  0.117000  1.0  0.0995
  C  C515  1  0.150700  0.420400  0.136100  1.0  -0.1535
  C  C516  1  0.206500  0.419500  0.081200  1.0  -0.2245
  C  C517  1  0.171500  0.437800  0.073900  1.0  -0.0563
  C  C518  1  0.633400  0.043900  0.149100  1.0  0.2234
  C  C519  1  0.662100  0.062500  0.204600  1.0  -0.0016
  C  C520  1  0.739800  0.098600  0.284800  1.0  -0.0694
  C  C521  1  0.716100  0.099100  0.313600  1.0  0.1027
  C  C522  1  0.715700  0.079600  0.230300  1.0  -0.1501
  C  C523  1  0.661700  0.080500  0.287000  1.0  -0.2245
  C  C524  1  0.636100  0.062200  0.233700  1.0  -0.0459
  C  C525  1  0.043900  0.649100  0.133400  1.0  0.2226
  C  C526  1  0.062500  0.704600  0.162100  1.0  0.0016
  C  C527  1  0.098600  0.784800  0.239800  1.0  -0.0666
  C  C528  1  0.099100  0.813600  0.216100  1.0  0.1021
  C  C529  1  0.079600  0.730300  0.215700  1.0  -0.1531
  C  C530  1  0.080500  0.787000  0.161700  1.0  -0.2231
  C  C531  1  0.062200  0.733700  0.136100  1.0  -0.057
  C  C532  1  0.456100  0.589500  0.605200  1.0  0.2243
  C  C533  1  0.437500  0.599600  0.642100  1.0  -0.0008
  C  C534  1  0.401400  0.641200  0.686200  1.0  -0.072
  C  C535  1  0.400900  0.617000  0.714500  1.0  0.1026
  C  C536  1  0.420400  0.636100  0.650700  1.0  -0.1501
  C  C537  1  0.419500  0.581200  0.706500  1.0  -0.2247
  C  C538  1  0.437800  0.573900  0.671500  1.0  -0.0517
  C  C539  1  0.484300  0.850900  0.894800  1.0  0.2229
  C  C540  1  0.457500  0.795400  0.857900  1.0  0.0027
  C  C541  1  0.455000  0.715200  0.813800  1.0  -0.0681
  C  C542  1  0.402500  0.686400  0.785500  1.0  0.1028
  C  C543  1  0.485400  0.769700  0.849300  1.0  -0.149
  C  C544  1  0.374700  0.713000  0.793500  1.0  -0.2229
  C  C545  1  0.402400  0.766300  0.828500  1.0  -0.0491
  C  C546  1  0.015700  0.910500  0.366600  1.0  0.2226
  C  C547  1  0.042500  0.900400  0.337900  1.0  -0.0011
  C  C548  1  0.045000  0.858800  0.260200  1.0  -0.0702
  C  C549  1  0.097500  0.883000  0.283900  1.0  0.0986
  C  C550  1  0.014600  0.863900  0.284300  1.0  -0.1524
  C  C551  1  0.125300  0.918800  0.338300  1.0  -0.226
  C  C552  1  0.097600  0.926100  0.363900  1.0  -0.0549
  C  C553  1  0.750000  0.125000  0.375000  1.0  -0.0495
  C  C554  1  0.250000  0.375000  0.125000  1.0  -0.0495
  C  C555  1  0.625000  0.250000  0.875000  1.0  -0.0496
  C  C556  1  0.875000  0.750000  0.625000  1.0  -0.0495
  C  C557  1  0.375000  0.625000  0.750000  1.0  -0.0495
  C  C558  1  0.125000  0.875000  0.250000  1.0  -0.0495
  C  C559  1  0.375000  0.750000  0.125000  1.0  -0.0494
  C  C560  1  0.125000  0.250000  0.375000  1.0  -0.0497
  C  C561  1  0.250000  0.875000  0.625000  1.0  -0.0495
  C  C562  1  0.750000  0.625000  0.875000  1.0  -0.0495
  C  C563  1  0.875000  0.125000  0.750000  1.0  -0.0495
  C  C564  1  0.625000  0.375000  0.250000  1.0  -0.0497
  N  N565  1  0.584000  0.048200  0.465800  1.0  -0.3219
  N  N566  1  0.551600  0.058100  0.481100  1.0  -0.0169
  N  N567  1  0.550900  0.099600  0.480900  1.0  -0.1206
  N  N568  1  0.583300  0.120100  0.466400  1.0  -0.2199
  N  N569  1  0.082400  0.118200  0.034200  1.0  -0.3235
  N  N570  1  0.077000  0.070500  0.018900  1.0  -0.0148
  N  N571  1  0.118700  0.070000  0.019100  1.0  -0.1393
  N  N572  1  0.153700  0.116900  0.033600  1.0  -0.2223
  N  N573  1  0.417600  0.451800  0.035800  1.0  -0.3228
  N  N574  1  0.423000  0.441900  0.993500  1.0  -0.0199
  N  N575  1  0.381300  0.400400  0.951300  1.0  -0.1463
  N  N576  1  0.346300  0.379900  0.963200  1.0  -0.2169
  N  N577  1  0.916000  0.381800  0.464200  1.0  -0.3201
  N  N578  1  0.948400  0.429500  0.506500  1.0  -0.0238
  N  N579  1  0.949100  0.430000  0.548700  1.0  -0.1272
  N  N580  1  0.916700  0.383100  0.536800  1.0  -0.2161
  N  N581  1  0.535800  0.417600  0.951800  1.0  -0.3246
  N  N582  1  0.493500  0.423000  0.941900  1.0  -0.0206
  N  N583  1  0.451300  0.381300  0.900400  1.0  -0.1409
  N  N584  1  0.463200  0.346300  0.879900  1.0  -0.2197
  N  N585  1  0.964200  0.916000  0.881800  1.0  -0.3224
  N  N586  1  0.006500  0.948400  0.929500  1.0  -0.0235
  N  N587  1  0.048700  0.949100  0.930000  1.0  -0.1254
  N  N588  1  0.036800  0.916700  0.883100  1.0  -0.2182
  N  N589  1  0.965800  0.584000  0.548200  1.0  -0.3217
  N  N590  1  0.981100  0.551600  0.558100  1.0  -0.0153
  N  N591  1  0.980900  0.550900  0.599600  1.0  -0.1218
  N  N592  1  0.966400  0.583300  0.620100  1.0  -0.2221
  N  N593  1  0.534200  0.082400  0.618200  1.0  -0.3224
  N  N594  1  0.518900  0.077000  0.570500  1.0  -0.0157
  N  N595  1  0.519100  0.118700  0.570000  1.0  -0.1398
  N  N596  1  0.533600  0.153700  0.616900  1.0  -0.2171
  N  N597  1  0.118200  0.534200  0.582400  1.0  -0.3208
  N  N598  1  0.070500  0.518900  0.577000  1.0  -0.014
  N  N599  1  0.070000  0.519100  0.618700  1.0  -0.1401
  N  N600  1  0.116900  0.533600  0.653700  1.0  -0.2166
  N  N601  1  0.048200  0.965800  0.084000  1.0  -0.3228
  N  N602  1  0.058100  0.981100  0.051600  1.0  -0.0135
  N  N603  1  0.099600  0.980900  0.050900  1.0  -0.1219
  N  N604  1  0.120100  0.966400  0.083300  1.0  -0.221
  N  N605  1  0.381800  0.964200  0.416000  1.0  -0.3223
  N  N606  1  0.429500  0.006500  0.448400  1.0  -0.0242
  N  N607  1  0.430000  0.048700  0.449100  1.0  -0.1267
  N  N608  1  0.383100  0.036800  0.416700  1.0  -0.218
  N  N609  1  0.451800  0.535800  0.917600  1.0  -0.3223
  N  N610  1  0.441900  0.493500  0.923000  1.0  -0.0193
  N  N611  1  0.400400  0.451300  0.881300  1.0  -0.1445
  N  N612  1  0.379900  0.463200  0.846300  1.0  -0.2204
  N  N613  1  0.451800  0.916000  0.034200  1.0  -0.3213
  N  N614  1  0.441900  0.948400  0.018900  1.0  -0.0146
  N  N615  1  0.400400  0.949100  0.019100  1.0  -0.1198
  N  N616  1  0.379900  0.916700  0.033600  1.0  -0.2193
  N  N617  1  0.381800  0.417600  0.465800  1.0  -0.3244
  N  N618  1  0.429500  0.423000  0.481100  1.0  -0.014
  N  N619  1  0.430000  0.381300  0.480900  1.0  -0.1387
  N  N620  1  0.383100  0.346300  0.466400  1.0  -0.218
  N  N621  1  0.048200  0.082400  0.464200  1.0  -0.3253
  N  N622  1  0.058100  0.077000  0.506500  1.0  -0.0211
  N  N623  1  0.099600  0.118700  0.548700  1.0  -0.1446
  N  N624  1  0.120100  0.153700  0.536800  1.0  -0.2167
  N  N625  1  0.118200  0.584000  0.035800  1.0  -0.3213
  N  N626  1  0.070500  0.551600  0.993500  1.0  -0.0248
  N  N627  1  0.070000  0.550900  0.951300  1.0  -0.1283
  N  N628  1  0.116900  0.583300  0.963200  1.0  -0.2175
  N  N629  1  0.082400  0.964200  0.548200  1.0  -0.3238
  N  N630  1  0.077000  0.006500  0.558100  1.0  -0.0202
  N  N631  1  0.118700  0.048700  0.599600  1.0  -0.1408
  N  N632  1  0.153700  0.036800  0.620100  1.0  -0.2163
  N  N633  1  0.584000  0.535800  0.618200  1.0  -0.3234
  N  N634  1  0.551600  0.493500  0.570500  1.0  -0.0219
  N  N635  1  0.550900  0.451300  0.570000  1.0  -0.1265
  N  N636  1  0.583300  0.463200  0.616900  1.0  -0.2186
  N  N637  1  0.916000  0.534200  0.951800  1.0  -0.3212
  N  N638  1  0.948400  0.518900  0.941900  1.0  -0.0137
  N  N639  1  0.949100  0.519100  0.900400  1.0  -0.1224
  N  N640  1  0.916700  0.533600  0.879900  1.0  -0.2163
  N  N641  1  0.417600  0.965800  0.881800  1.0  -0.3236
  N  N642  1  0.423000  0.981100  0.929500  1.0  -0.0138
  N  N643  1  0.381300  0.980900  0.930000  1.0  -0.1404
  N  N644  1  0.346300  0.966400  0.883100  1.0  -0.2188
  N  N645  1  0.965800  0.381800  0.917600  1.0  -0.3198
  N  N646  1  0.981100  0.429500  0.923000  1.0  -0.016
  N  N647  1  0.980900  0.430000  0.881300  1.0  -0.1405
  N  N648  1  0.966400  0.383100  0.846300  1.0  -0.2215
  N  N649  1  0.534200  0.451800  0.416000  1.0  -0.3239
  N  N650  1  0.518900  0.441900  0.448400  1.0  -0.0143
  N  N651  1  0.519100  0.400400  0.449100  1.0  -0.1239
  N  N652  1  0.533600  0.379900  0.416700  1.0  -0.2164
  N  N653  1  0.535800  0.118200  0.084000  1.0  -0.3243
  N  N654  1  0.493500  0.070500  0.051600  1.0  -0.0231
  N  N655  1  0.451300  0.070000  0.050900  1.0  -0.1233
  N  N656  1  0.463200  0.116900  0.083300  1.0  -0.2151
  N  N657  1  0.964200  0.048200  0.582400  1.0  -0.325
  N  N658  1  0.006500  0.058100  0.577000  1.0  -0.0217
  N  N659  1  0.048700  0.099600  0.618700  1.0  -0.143
  N  N660  1  0.036800  0.120100  0.653700  1.0  -0.2175
  N  N661  1  0.416000  0.951800  0.534200  1.0  -0.3245
  N  N662  1  0.448400  0.941900  0.518900  1.0  -0.0157
  N  N663  1  0.449100  0.900400  0.519100  1.0  -0.1207
  N  N664  1  0.416700  0.879900  0.533600  1.0  -0.218
  N  N665  1  0.917600  0.881800  0.965800  1.0  -0.3239
  N  N666  1  0.923000  0.929500  0.981100  1.0  -0.0149
  N  N667  1  0.881300  0.930000  0.980900  1.0  -0.1377
  N  N668  1  0.846300  0.883100  0.966400  1.0  -0.2192
  N  N669  1  0.582400  0.548200  0.964200  1.0  -0.3234
  N  N670  1  0.577000  0.558100  0.006500  1.0  -0.0199
  N  N671  1  0.618700  0.599600  0.048700  1.0  -0.1443
  N  N672  1  0.653700  0.620100  0.036800  1.0  -0.2161
  N  N673  1  0.084000  0.618200  0.535800  1.0  -0.32
  N  N674  1  0.051600  0.570500  0.493500  1.0  -0.0242
  N  N675  1  0.050900  0.570000  0.451300  1.0  -0.1278
  N  N676  1  0.083300  0.616900  0.463200  1.0  -0.216
  N  N677  1  0.464200  0.582400  0.048200  1.0  -0.3247
  N  N678  1  0.506500  0.577000  0.058100  1.0  -0.0195
  N  N679  1  0.548700  0.618700  0.099600  1.0  -0.1431
  N  N680  1  0.536800  0.653700  0.120100  1.0  -0.2177
  N  N681  1  0.035800  0.084000  0.118200  1.0  -0.3214
  N  N682  1  0.993500  0.051600  0.070500  1.0  -0.0234
  N  N683  1  0.951300  0.050900  0.070000  1.0  -0.1245
  N  N684  1  0.963200  0.083300  0.116900  1.0  -0.2151
  N  N685  1  0.034200  0.416000  0.451800  1.0  -0.321
  N  N686  1  0.018900  0.448400  0.441900  1.0  -0.0154
  N  N687  1  0.019100  0.449100  0.400400  1.0  -0.1202
  N  N688  1  0.033600  0.416700  0.379900  1.0  -0.2227
  N  N689  1  0.465800  0.917600  0.381800  1.0  -0.3256
  N  N690  1  0.481100  0.923000  0.429500  1.0  -0.0158
  N  N691  1  0.480900  0.881300  0.430000  1.0  -0.141
  N  N692  1  0.466400  0.846300  0.383100  1.0  -0.2173
  N  N693  1  0.881800  0.465800  0.417600  1.0  -0.3212
  N  N694  1  0.929500  0.481100  0.423000  1.0  -0.0143
  N  N695  1  0.930000  0.480900  0.381300  1.0  -0.1397
  N  N696  1  0.883100  0.466400  0.346300  1.0  -0.2166
  N  N697  1  0.951800  0.034200  0.916000  1.0  -0.3238
  N  N698  1  0.941900  0.018900  0.948400  1.0  -0.0134
  N  N699  1  0.900400  0.019100  0.949100  1.0  -0.1233
  N  N700  1  0.879900  0.033600  0.916700  1.0  -0.2187
  N  N701  1  0.618200  0.035800  0.584000  1.0  -0.323
  N  N702  1  0.570500  0.993500  0.551600  1.0  -0.0225
  N  N703  1  0.570000  0.951300  0.550900  1.0  -0.1251
  N  N704  1  0.616900  0.963200  0.583300  1.0  -0.2176
  N  N705  1  0.548200  0.464200  0.082400  1.0  -0.3238
  N  N706  1  0.558100  0.506500  0.077000  1.0  -0.0198
  N  N707  1  0.599600  0.548700  0.118700  1.0  -0.142
  N  N708  1  0.620100  0.536800  0.153700  1.0  -0.2171
  N  N709  1  0.548200  0.084000  0.965800  1.0  -0.3227
  N  N710  1  0.558100  0.051600  0.981100  1.0  -0.0164
  N  N711  1  0.599600  0.050900  0.980900  1.0  -0.1216
  N  N712  1  0.620100  0.083300  0.966400  1.0  -0.2234
  N  N713  1  0.618200  0.582400  0.534200  1.0  -0.3231
  N  N714  1  0.570500  0.577000  0.518900  1.0  -0.0155
  N  N715  1  0.570000  0.618700  0.519100  1.0  -0.136
  N  N716  1  0.616900  0.653700  0.533600  1.0  -0.2188
  N  N717  1  0.951800  0.917600  0.535800  1.0  -0.3239
  N  N718  1  0.941900  0.923000  0.493500  1.0  -0.0207
  N  N719  1  0.900400  0.881300  0.451300  1.0  -0.145
  N  N720  1  0.879900  0.846300  0.463200  1.0  -0.2171
  N  N721  1  0.881800  0.416000  0.964200  1.0  -0.3217
  N  N722  1  0.929500  0.448400  0.006500  1.0  -0.0237
  N  N723  1  0.930000  0.449100  0.048700  1.0  -0.1265
  N  N724  1  0.883100  0.416700  0.036800  1.0  -0.2157
  N  N725  1  0.917600  0.035800  0.451800  1.0  -0.3237
  N  N726  1  0.923000  0.993500  0.441900  1.0  -0.0211
  N  N727  1  0.881300  0.951300  0.400400  1.0  -0.1432
  N  N728  1  0.846300  0.963200  0.379900  1.0  -0.2192
  N  N729  1  0.416000  0.464200  0.381800  1.0  -0.3217
  N  N730  1  0.448400  0.506500  0.429500  1.0  -0.023
  N  N731  1  0.449100  0.548700  0.430000  1.0  -0.1286
  N  N732  1  0.416700  0.536800  0.383100  1.0  -0.2199
  N  N733  1  0.084000  0.465800  0.048200  1.0  -0.3206
  N  N734  1  0.051600  0.481100  0.058100  1.0  -0.0138
  N  N735  1  0.050900  0.480900  0.099600  1.0  -0.1213
  N  N736  1  0.083300  0.466400  0.120100  1.0  -0.2166
  N  N737  1  0.582400  0.034200  0.118200  1.0  -0.3229
  N  N738  1  0.577000  0.018900  0.070500  1.0  -0.0136
  N  N739  1  0.618700  0.019100  0.070000  1.0  -0.1401
  N  N740  1  0.653700  0.033600  0.116900  1.0  -0.221
  N  N741  1  0.034200  0.618200  0.082400  1.0  -0.3204
  N  N742  1  0.018900  0.570500  0.077000  1.0  -0.0163
  N  N743  1  0.019100  0.570000  0.118700  1.0  -0.1404
  N  N744  1  0.033600  0.616900  0.153700  1.0  -0.2214
  N  N745  1  0.465800  0.548200  0.584000  1.0  -0.3214
  N  N746  1  0.481100  0.558100  0.551600  1.0  -0.0146
  N  N747  1  0.480900  0.599600  0.550900  1.0  -0.1242
  N  N748  1  0.466400  0.620100  0.583300  1.0  -0.2169
  N  N749  1  0.464200  0.881800  0.916000  1.0  -0.3229
  N  N750  1  0.506500  0.929500  0.948400  1.0  -0.0221
  N  N751  1  0.548700  0.930000  0.949100  1.0  -0.1251
  N  N752  1  0.536800  0.883100  0.916700  1.0  -0.2174
  N  N753  1  0.035800  0.951800  0.417600  1.0  -0.3232
  N  N754  1  0.993500  0.941900  0.423000  1.0  -0.0216
  N  N755  1  0.951300  0.900400  0.381300  1.0  -0.1435
  N  N756  1  0.963200  0.879900  0.346300  1.0  -0.2204
