# generated using pymatgen
data_Zn2H9C19(NO4)2
_symmetry_space_group_name_H-M   'P 1'
_cell_length_a   25.55520000
_cell_length_b   25.55520000
_cell_length_c   51.40300000
_cell_angle_alpha   90.00000000
_cell_angle_beta   90.00000000
_cell_angle_gamma   90.00000000
_symmetry_Int_Tables_number   1
_chemical_formula_structural   Zn2H9C19(NO4)2
_chemical_formula_sum   'Zn64 H288 C608 N64 O256'
_cell_volume   33569.66710260
_cell_formula_units_Z   32
loop_
 _symmetry_equiv_pos_site_id
 _symmetry_equiv_pos_as_xyz
  1  'x, y, z'
loop_
 _atom_site_type_symbol
 _atom_site_label
 _atom_site_symmetry_multiplicity
 _atom_site_fract_x
 _atom_site_fract_y
 _atom_site_fract_z
 _atom_site_occupancy
 _atom_site_charge
  Zn  Zn1  1  0.227120  0.439270  0.126640  1.0  1.0731
  Zn  Zn2  1  0.727120  0.939270  0.626640  1.0  1.0731
  Zn  Zn3  1  0.272880  0.560730  0.626640  1.0  1.0702
  Zn  Zn4  1  0.772880  0.060730  0.126640  1.0  1.0702
  Zn  Zn5  1  0.810730  0.977120  0.376640  1.0  1.0723
  Zn  Zn6  1  0.310730  0.477120  0.876640  1.0  1.0723
  Zn  Zn7  1  0.689270  0.022880  0.876640  1.0  1.0709
  Zn  Zn8  1  0.189270  0.522880  0.376640  1.0  1.0709
  Zn  Zn9  1  0.272880  0.439270  0.373360  1.0  1.0729
  Zn  Zn10  1  0.772880  0.939270  0.873360  1.0  1.0729
  Zn  Zn11  1  0.227120  0.560730  0.873360  1.0  1.0704
  Zn  Zn12  1  0.727120  0.060730  0.373360  1.0  1.0704
  Zn  Zn13  1  0.689270  0.977120  0.123360  1.0  1.0729
  Zn  Zn14  1  0.189270  0.477120  0.623360  1.0  1.0729
  Zn  Zn15  1  0.810730  0.022880  0.623360  1.0  1.0704
  Zn  Zn16  1  0.310730  0.522880  0.123360  1.0  1.0704
  Zn  Zn17  1  0.772880  0.560730  0.873360  1.0  1.0702
  Zn  Zn18  1  0.272880  0.060730  0.373360  1.0  1.0702
  Zn  Zn19  1  0.727120  0.439270  0.373360  1.0  1.0728
  Zn  Zn20  1  0.227120  0.939270  0.873360  1.0  1.0728
  Zn  Zn21  1  0.189270  0.022880  0.623360  1.0  1.0706
  Zn  Zn22  1  0.689270  0.522880  0.123360  1.0  1.0706
  Zn  Zn23  1  0.310730  0.977120  0.123360  1.0  1.0722
  Zn  Zn24  1  0.810730  0.477120  0.623360  1.0  1.0722
  Zn  Zn25  1  0.727120  0.560730  0.626640  1.0  1.0706
  Zn  Zn26  1  0.227120  0.060730  0.126640  1.0  1.0706
  Zn  Zn27  1  0.772880  0.439270  0.126640  1.0  1.0729
  Zn  Zn28  1  0.272880  0.939270  0.626640  1.0  1.0729
  Zn  Zn29  1  0.310730  0.022880  0.876640  1.0  1.0706
  Zn  Zn30  1  0.810730  0.522880  0.376640  1.0  1.0706
  Zn  Zn31  1  0.189270  0.977120  0.376640  1.0  1.0732
  Zn  Zn32  1  0.689270  0.477120  0.876640  1.0  1.0732
  Zn  Zn33  1  0.279000  0.750000  0.033250  1.0  1.1303
  Zn  Zn34  1  0.197840  0.750000  0.990770  1.0  1.1497
  Zn  Zn35  1  0.221000  0.250000  0.533250  1.0  1.1291
  Zn  Zn36  1  0.302160  0.250000  0.490770  1.0  1.1491
  Zn  Zn37  1  0.500000  0.029000  0.283250  1.0  1.1309
  Zn  Zn38  1  0.500000  0.947840  0.240770  1.0  1.1477
  Zn  Zn39  1  0.000000  0.529000  0.783250  1.0  1.1309
  Zn  Zn40  1  0.000000  0.447840  0.740770  1.0  1.1477
  Zn  Zn41  1  0.000000  0.971000  0.783250  1.0  1.1296
  Zn  Zn42  1  0.000000  0.052160  0.740770  1.0  1.1454
  Zn  Zn43  1  0.500000  0.471000  0.283250  1.0  1.1296
  Zn  Zn44  1  0.500000  0.552160  0.240770  1.0  1.1454
  Zn  Zn45  1  0.221000  0.750000  0.466750  1.0  1.1286
  Zn  Zn46  1  0.302160  0.750000  0.509230  1.0  1.1499
  Zn  Zn47  1  0.279000  0.250000  0.966750  1.0  1.1285
  Zn  Zn48  1  0.197840  0.250000  0.009230  1.0  1.1498
  Zn  Zn49  1  0.000000  0.029000  0.216750  1.0  1.1293
  Zn  Zn50  1  0.000000  0.947840  0.259230  1.0  1.1457
  Zn  Zn51  1  0.500000  0.529000  0.716750  1.0  1.1293
  Zn  Zn52  1  0.500000  0.447840  0.759230  1.0  1.1457
  Zn  Zn53  1  0.500000  0.971000  0.716750  1.0  1.1304
  Zn  Zn54  1  0.500000  0.052160  0.759230  1.0  1.1464
  Zn  Zn55  1  0.000000  0.471000  0.216750  1.0  1.1304
  Zn  Zn56  1  0.000000  0.552160  0.259230  1.0  1.1464
  Zn  Zn57  1  0.721000  0.250000  0.966750  1.0  1.1286
  Zn  Zn58  1  0.802160  0.250000  0.009230  1.0  1.1499
  Zn  Zn59  1  0.779000  0.750000  0.466750  1.0  1.1285
  Zn  Zn60  1  0.697840  0.750000  0.509230  1.0  1.1498
  Zn  Zn61  1  0.779000  0.250000  0.533250  1.0  1.1303
  Zn  Zn62  1  0.697840  0.250000  0.490770  1.0  1.1497
  Zn  Zn63  1  0.721000  0.750000  0.033250  1.0  1.1291
  Zn  Zn64  1  0.802160  0.750000  0.990770  1.0  1.1491
  H  H65  1  0.228600  0.610200  0.066400  1.0  0.0923
  H  H66  1  0.383100  0.474500  0.193300  1.0  0.0849
  H  H67  1  0.094100  0.632500  0.027000  1.0  0.1061
  H  H68  1  0.110500  0.505700  0.074200  1.0  0.113
  H  H69  1  0.309900  0.297200  0.265400  1.0  0.1024
  H  H70  1  0.394000  0.361800  0.248300  1.0  0.1045
  H  H71  1  0.048500  0.475500  0.030400  1.0  0.1058
  H  H72  1  0.300400  0.342000  0.185600  1.0  0.1045
  H  H73  1  0.728600  0.110200  0.566400  1.0  0.0923
  H  H74  1  0.883100  0.974500  0.693300  1.0  0.0849
  H  H75  1  0.594100  0.132500  0.527000  1.0  0.1061
  H  H76  1  0.610500  0.005700  0.574200  1.0  0.1121
  H  H77  1  0.809900  0.797200  0.765400  1.0  0.1024
  H  H78  1  0.894000  0.861800  0.748300  1.0  0.1045
  H  H79  1  0.548500  0.975500  0.530400  1.0  0.1058
  H  H80  1  0.800400  0.842000  0.685600  1.0  0.1045
  H  H81  1  0.271400  0.389800  0.566400  1.0  0.0929
  H  H82  1  0.116900  0.525500  0.693300  1.0  0.0847
  H  H83  1  0.405900  0.367500  0.527000  1.0  0.106
  H  H84  1  0.389500  0.494300  0.574200  1.0  0.1132
  H  H85  1  0.190100  0.702800  0.765400  1.0  0.1031
  H  H86  1  0.106000  0.638200  0.748300  1.0  0.1049
  H  H87  1  0.451500  0.524500  0.530400  1.0  0.107
  H  H88  1  0.199600  0.658000  0.685600  1.0  0.1051
  H  H89  1  0.771400  0.889800  0.066400  1.0  0.0929
  H  H90  1  0.616900  0.025500  0.193300  1.0  0.0847
  H  H91  1  0.905900  0.867500  0.027000  1.0  0.106
  H  H92  1  0.889500  0.994300  0.074200  1.0  0.1121
  H  H93  1  0.690100  0.202800  0.265400  1.0  0.1031
  H  H94  1  0.606000  0.138200  0.248300  1.0  0.1049
  H  H95  1  0.951500  0.024500  0.030400  1.0  0.107
  H  H96  1  0.699600  0.158000  0.185600  1.0  0.1051
  H  H97  1  0.639800  0.978600  0.316400  1.0  0.0934
  H  H98  1  0.775500  0.133100  0.443300  1.0  0.0849
  H  H99  1  0.617500  0.844100  0.277000  1.0  0.1057
  H  H100  1  0.744300  0.860500  0.324200  1.0  0.1127
  H  H101  1  0.952800  0.059900  0.515400  1.0  0.1029
  H  H102  1  0.888200  0.144000  0.498300  1.0  0.1047
  H  H103  1  0.774500  0.798500  0.280400  1.0  0.1051
  H  H104  1  0.908000  0.050400  0.435600  1.0  0.1052
  H  H105  1  0.139800  0.478600  0.816400  1.0  0.0934
  H  H106  1  0.275500  0.633100  0.943300  1.0  0.0849
  H  H107  1  0.117500  0.344100  0.777000  1.0  0.1057
  H  H108  1  0.244300  0.360500  0.824200  1.0  0.1127
  H  H109  1  0.452800  0.559900  0.015400  1.0  0.1029
  H  H110  1  0.388200  0.644000  0.998300  1.0  0.1047
  H  H111  1  0.274500  0.298500  0.780400  1.0  0.1051
  H  H112  1  0.408000  0.550400  0.935600  1.0  0.1052
  H  H113  1  0.860200  0.021400  0.816400  1.0  0.0937
  H  H114  1  0.724500  0.866900  0.943300  1.0  0.085
  H  H115  1  0.882500  0.155900  0.777000  1.0  0.1054
  H  H116  1  0.755700  0.139500  0.824200  1.0  0.1131
  H  H117  1  0.547200  0.940100  0.015400  1.0  0.1022
  H  H118  1  0.611800  0.856000  0.998300  1.0  0.1048
  H  H119  1  0.725500  0.201500  0.780400  1.0  0.1048
  H  H120  1  0.592000  0.949600  0.935600  1.0  0.1054
  H  H121  1  0.360200  0.521400  0.316400  1.0  0.0937
  H  H122  1  0.224500  0.366900  0.443300  1.0  0.085
  H  H123  1  0.382500  0.655900  0.277000  1.0  0.1054
  H  H124  1  0.255700  0.639500  0.324200  1.0  0.1131
  H  H125  1  0.047200  0.440100  0.515400  1.0  0.1022
  H  H126  1  0.111800  0.356000  0.498300  1.0  0.1048
  H  H127  1  0.225500  0.701500  0.280400  1.0  0.1048
  H  H128  1  0.092000  0.449600  0.435600  1.0  0.1054
  H  H129  1  0.271400  0.610200  0.433600  1.0  0.0926
  H  H130  1  0.116900  0.474500  0.306700  1.0  0.0851
  H  H131  1  0.405900  0.632500  0.473000  1.0  0.1062
  H  H132  1  0.389500  0.505700  0.425800  1.0  0.1128
  H  H133  1  0.190100  0.297200  0.234600  1.0  0.1023
  H  H134  1  0.106000  0.361800  0.251700  1.0  0.1048
  H  H135  1  0.451500  0.475500  0.469600  1.0  0.1061
  H  H136  1  0.199600  0.342000  0.314400  1.0  0.1047
  H  H137  1  0.771400  0.110200  0.933600  1.0  0.0926
  H  H138  1  0.616900  0.974500  0.806700  1.0  0.0851
  H  H139  1  0.905900  0.132500  0.973000  1.0  0.1062
  H  H140  1  0.889500  0.005700  0.925800  1.0  0.1119
  H  H141  1  0.690100  0.797200  0.734600  1.0  0.1023
  H  H142  1  0.606000  0.861800  0.751700  1.0  0.1048
  H  H143  1  0.951500  0.975500  0.969600  1.0  0.1061
  H  H144  1  0.699600  0.842000  0.814400  1.0  0.1047
  H  H145  1  0.228600  0.389800  0.933600  1.0  0.0926
  H  H146  1  0.383100  0.525500  0.806700  1.0  0.0853
  H  H147  1  0.094100  0.367500  0.973000  1.0  0.1067
  H  H148  1  0.110500  0.494300  0.925800  1.0  0.1131
  H  H149  1  0.309900  0.702800  0.734600  1.0  0.1024
  H  H150  1  0.394000  0.638200  0.751700  1.0  0.1046
  H  H151  1  0.048500  0.524500  0.969600  1.0  0.1057
  H  H152  1  0.300400  0.658000  0.814400  1.0  0.1045
  H  H153  1  0.728600  0.889800  0.433600  1.0  0.0926
  H  H154  1  0.883100  0.025500  0.306700  1.0  0.0853
  H  H155  1  0.594100  0.867500  0.473000  1.0  0.1067
  H  H156  1  0.610500  0.994300  0.425800  1.0  0.1122
  H  H157  1  0.809900  0.202800  0.234600  1.0  0.1024
  H  H158  1  0.894000  0.138200  0.251700  1.0  0.1046
  H  H159  1  0.548500  0.024500  0.469600  1.0  0.1057
  H  H160  1  0.800400  0.158000  0.314400  1.0  0.1045
  H  H161  1  0.860200  0.978600  0.183600  1.0  0.0936
  H  H162  1  0.724500  0.133100  0.056700  1.0  0.0854
  H  H163  1  0.882500  0.844100  0.223000  1.0  0.1057
  H  H164  1  0.755700  0.860500  0.175800  1.0  0.1128
  H  H165  1  0.547200  0.059900  0.984600  1.0  0.1022
  H  H166  1  0.611800  0.144000  0.001700  1.0  0.1046
  H  H167  1  0.725500  0.798500  0.219600  1.0  0.1051
  H  H168  1  0.592000  0.050400  0.064400  1.0  0.105
  H  H169  1  0.360200  0.478600  0.683600  1.0  0.0936
  H  H170  1  0.224500  0.633100  0.556700  1.0  0.0854
  H  H171  1  0.382500  0.344100  0.723000  1.0  0.1057
  H  H172  1  0.255700  0.360500  0.675800  1.0  0.1128
  H  H173  1  0.047200  0.559900  0.484600  1.0  0.1022
  H  H174  1  0.111800  0.644000  0.501700  1.0  0.1046
  H  H175  1  0.225500  0.298500  0.719600  1.0  0.1051
  H  H176  1  0.092000  0.550400  0.564400  1.0  0.105
  H  H177  1  0.639800  0.021400  0.683600  1.0  0.0937
  H  H178  1  0.775500  0.866900  0.556700  1.0  0.0851
  H  H179  1  0.617500  0.155900  0.723000  1.0  0.1059
  H  H180  1  0.744300  0.139500  0.675800  1.0  0.1129
  H  H181  1  0.952800  0.940100  0.484600  1.0  0.1026
  H  H182  1  0.888200  0.856000  0.501700  1.0  0.1047
  H  H183  1  0.774500  0.201500  0.719600  1.0  0.1049
  H  H184  1  0.908000  0.949600  0.564400  1.0  0.1051
  H  H185  1  0.139800  0.521400  0.183600  1.0  0.0937
  H  H186  1  0.275500  0.366900  0.056700  1.0  0.0851
  H  H187  1  0.117500  0.655900  0.223000  1.0  0.1059
  H  H188  1  0.244300  0.639500  0.175800  1.0  0.1129
  H  H189  1  0.452800  0.440100  0.984600  1.0  0.1026
  H  H190  1  0.388200  0.356000  0.001700  1.0  0.1047
  H  H191  1  0.274500  0.701500  0.219600  1.0  0.1049
  H  H192  1  0.408000  0.449600  0.064400  1.0  0.1051
  H  H193  1  0.771400  0.389800  0.933600  1.0  0.0929
  H  H194  1  0.616900  0.525500  0.806700  1.0  0.085
  H  H195  1  0.905900  0.367500  0.973000  1.0  0.1066
  H  H196  1  0.889500  0.494300  0.925800  1.0  0.1127
  H  H197  1  0.690100  0.702800  0.734600  1.0  0.1028
  H  H198  1  0.606000  0.638200  0.751700  1.0  0.1048
  H  H199  1  0.951500  0.524500  0.969600  1.0  0.1064
  H  H200  1  0.699600  0.658000  0.814400  1.0  0.1046
  H  H201  1  0.271400  0.889800  0.433600  1.0  0.0929
  H  H202  1  0.116900  0.025500  0.306700  1.0  0.085
  H  H203  1  0.405900  0.867500  0.473000  1.0  0.1066
  H  H204  1  0.389500  0.994300  0.425800  1.0  0.1118
  H  H205  1  0.190100  0.202800  0.234600  1.0  0.1028
  H  H206  1  0.106000  0.138200  0.251700  1.0  0.1048
  H  H207  1  0.451500  0.024500  0.469600  1.0  0.1064
  H  H208  1  0.199600  0.158000  0.314400  1.0  0.1046
  H  H209  1  0.728600  0.610200  0.433600  1.0  0.093
  H  H210  1  0.883100  0.474500  0.306700  1.0  0.0853
  H  H211  1  0.594100  0.632500  0.473000  1.0  0.1065
  H  H212  1  0.610500  0.505700  0.425800  1.0  0.1128
  H  H213  1  0.809900  0.297200  0.234600  1.0  0.102
  H  H214  1  0.894000  0.361800  0.251700  1.0  0.1047
  H  H215  1  0.548500  0.475500  0.469600  1.0  0.1061
  H  H216  1  0.800400  0.342000  0.314400  1.0  0.1047
  H  H217  1  0.228600  0.110200  0.933600  1.0  0.093
  H  H218  1  0.383100  0.974500  0.806700  1.0  0.0853
  H  H219  1  0.094100  0.132500  0.973000  1.0  0.1065
  H  H220  1  0.110500  0.005700  0.925800  1.0  0.1119
  H  H221  1  0.309900  0.797200  0.734600  1.0  0.102
  H  H222  1  0.394000  0.861800  0.751700  1.0  0.1047
  H  H223  1  0.048500  0.975500  0.969600  1.0  0.1061
  H  H224  1  0.300400  0.842000  0.814400  1.0  0.1047
  H  H225  1  0.360200  0.021400  0.683600  1.0  0.0939
  H  H226  1  0.224500  0.866900  0.556700  1.0  0.0851
  H  H227  1  0.382500  0.155900  0.723000  1.0  0.1056
  H  H228  1  0.255700  0.139500  0.675800  1.0  0.113
  H  H229  1  0.047200  0.940100  0.484600  1.0  0.1022
  H  H230  1  0.111800  0.856000  0.501700  1.0  0.1047
  H  H231  1  0.225500  0.201500  0.719600  1.0  0.105
  H  H232  1  0.092000  0.949600  0.564400  1.0  0.1053
  H  H233  1  0.860200  0.521400  0.183600  1.0  0.0939
  H  H234  1  0.724500  0.366900  0.056700  1.0  0.0851
  H  H235  1  0.882500  0.655900  0.223000  1.0  0.1056
  H  H236  1  0.755700  0.639500  0.175800  1.0  0.113
  H  H237  1  0.547200  0.440100  0.984600  1.0  0.1022
  H  H238  1  0.611800  0.356000  0.001700  1.0  0.1047
  H  H239  1  0.725500  0.701500  0.219600  1.0  0.105
  H  H240  1  0.592000  0.449600  0.064400  1.0  0.1053
  H  H241  1  0.139800  0.978600  0.183600  1.0  0.0937
  H  H242  1  0.275500  0.133100  0.056700  1.0  0.0849
  H  H243  1  0.117500  0.844100  0.223000  1.0  0.1063
  H  H244  1  0.244300  0.860500  0.175800  1.0  0.1126
  H  H245  1  0.452800  0.059900  0.984600  1.0  0.1025
  H  H246  1  0.388200  0.144000  0.001700  1.0  0.1046
  H  H247  1  0.274500  0.798500  0.219600  1.0  0.1049
  H  H248  1  0.408000  0.050400  0.064400  1.0  0.1053
  H  H249  1  0.639800  0.478600  0.683600  1.0  0.0937
  H  H250  1  0.775500  0.633100  0.556700  1.0  0.0849
  H  H251  1  0.617500  0.344100  0.723000  1.0  0.1063
  H  H252  1  0.744300  0.360500  0.675800  1.0  0.1126
  H  H253  1  0.952800  0.559900  0.484600  1.0  0.1025
  H  H254  1  0.888200  0.644000  0.501700  1.0  0.1046
  H  H255  1  0.774500  0.298500  0.719600  1.0  0.1049
  H  H256  1  0.908000  0.550400  0.564400  1.0  0.1053
  H  H257  1  0.728600  0.389800  0.566400  1.0  0.0923
  H  H258  1  0.883100  0.525500  0.693300  1.0  0.085
  H  H259  1  0.594100  0.367500  0.527000  1.0  0.1062
  H  H260  1  0.610500  0.494300  0.574200  1.0  0.1134
  H  H261  1  0.809900  0.702800  0.765400  1.0  0.1027
  H  H262  1  0.894000  0.638200  0.748300  1.0  0.1046
  H  H263  1  0.548500  0.524500  0.530400  1.0  0.1061
  H  H264  1  0.800400  0.658000  0.685600  1.0  0.1045
  H  H265  1  0.228600  0.889800  0.066400  1.0  0.0923
  H  H266  1  0.383100  0.025500  0.193300  1.0  0.085
  H  H267  1  0.094100  0.867500  0.027000  1.0  0.1062
  H  H268  1  0.110500  0.994300  0.074200  1.0  0.1125
  H  H269  1  0.309900  0.202800  0.265400  1.0  0.1027
  H  H270  1  0.394000  0.138200  0.248300  1.0  0.1046
  H  H271  1  0.048500  0.024500  0.030400  1.0  0.1061
  H  H272  1  0.300400  0.158000  0.185600  1.0  0.1045
  H  H273  1  0.771400  0.610200  0.066400  1.0  0.0923
  H  H274  1  0.616900  0.474500  0.193300  1.0  0.0849
  H  H275  1  0.905900  0.632500  0.027000  1.0  0.1057
  H  H276  1  0.889500  0.505700  0.074200  1.0  0.1128
  H  H277  1  0.690100  0.297200  0.265400  1.0  0.1028
  H  H278  1  0.606000  0.361800  0.248300  1.0  0.1049
  H  H279  1  0.951500  0.475500  0.030400  1.0  0.1058
  H  H280  1  0.699600  0.342000  0.185600  1.0  0.1052
  H  H281  1  0.271400  0.110200  0.566400  1.0  0.0923
  H  H282  1  0.116900  0.974500  0.693300  1.0  0.0849
  H  H283  1  0.405900  0.132500  0.527000  1.0  0.1057
  H  H284  1  0.389500  0.005700  0.574200  1.0  0.112
  H  H285  1  0.190100  0.797200  0.765400  1.0  0.1028
  H  H286  1  0.106000  0.861800  0.748300  1.0  0.1049
  H  H287  1  0.451500  0.975500  0.530400  1.0  0.1058
  H  H288  1  0.199600  0.842000  0.685600  1.0  0.1052
  H  H289  1  0.139800  0.021400  0.816400  1.0  0.0936
  H  H290  1  0.275500  0.866900  0.943300  1.0  0.085
  H  H291  1  0.117500  0.155900  0.777000  1.0  0.1055
  H  H292  1  0.244300  0.139500  0.824200  1.0  0.1129
  H  H293  1  0.452800  0.940100  0.015400  1.0  0.1031
  H  H294  1  0.388200  0.856000  0.998300  1.0  0.1045
  H  H295  1  0.274500  0.201500  0.780400  1.0  0.1047
  H  H296  1  0.408000  0.949600  0.935600  1.0  0.1053
  H  H297  1  0.639800  0.521400  0.316400  1.0  0.0936
  H  H298  1  0.775500  0.366900  0.443300  1.0  0.085
  H  H299  1  0.617500  0.655900  0.277000  1.0  0.1055
  H  H300  1  0.744300  0.639500  0.324200  1.0  0.1129
  H  H301  1  0.952800  0.440100  0.515400  1.0  0.1031
  H  H302  1  0.888200  0.356000  0.498300  1.0  0.1045
  H  H303  1  0.774500  0.701500  0.280400  1.0  0.1047
  H  H304  1  0.908000  0.449600  0.435600  1.0  0.1053
  H  H305  1  0.360200  0.978600  0.316400  1.0  0.0932
  H  H306  1  0.224500  0.133100  0.443300  1.0  0.0855
  H  H307  1  0.382500  0.844100  0.277000  1.0  0.1054
  H  H308  1  0.255700  0.860500  0.324200  1.0  0.1132
  H  H309  1  0.047200  0.059900  0.515400  1.0  0.1021
  H  H310  1  0.111800  0.144000  0.498300  1.0  0.105
  H  H311  1  0.225500  0.798500  0.280400  1.0  0.1054
  H  H312  1  0.092000  0.050400  0.435600  1.0  0.1047
  H  H313  1  0.860200  0.478600  0.816400  1.0  0.0932
  H  H314  1  0.724500  0.633100  0.943300  1.0  0.0855
  H  H315  1  0.882500  0.344100  0.777000  1.0  0.1054
  H  H316  1  0.755700  0.360500  0.824200  1.0  0.1132
  H  H317  1  0.547200  0.559900  0.015400  1.0  0.1021
  H  H318  1  0.611800  0.644000  0.998300  1.0  0.105
  H  H319  1  0.725500  0.298500  0.780400  1.0  0.1054
  H  H320  1  0.592000  0.550400  0.935600  1.0  0.1047
  H  H321  1  0.356100  0.250000  0.194000  1.0  0.1051
  H  H322  1  0.143900  0.750000  0.694000  1.0  0.1054
  H  H323  1  0.000000  0.106100  0.444000  1.0  0.1047
  H  H324  1  0.500000  0.606100  0.944000  1.0  0.1047
  H  H325  1  0.500000  0.893900  0.944000  1.0  0.1046
  H  H326  1  0.000000  0.393900  0.444000  1.0  0.1046
  H  H327  1  0.143900  0.250000  0.306000  1.0  0.1062
  H  H328  1  0.356100  0.750000  0.806000  1.0  0.1054
  H  H329  1  0.856100  0.250000  0.306000  1.0  0.1054
  H  H330  1  0.500000  0.106100  0.056000  1.0  0.1054
  H  H331  1  0.000000  0.606100  0.556000  1.0  0.1054
  H  H332  1  0.000000  0.893900  0.556000  1.0  0.1055
  H  H333  1  0.500000  0.393900  0.056000  1.0  0.1055
  H  H334  1  0.643900  0.750000  0.806000  1.0  0.1062
  H  H335  1  0.856100  0.750000  0.694000  1.0  0.1051
  H  H336  1  0.643900  0.250000  0.194000  1.0  0.1054
  H  H337  1  0.000000  0.613700  0.057500  1.0  0.1157
  H  H338  1  0.500000  0.113700  0.557500  1.0  0.1157
  H  H339  1  0.500000  0.386300  0.557500  1.0  0.1163
  H  H340  1  0.000000  0.886300  0.057500  1.0  0.1163
  H  H341  1  0.636300  0.750000  0.307500  1.0  0.1147
  H  H342  1  0.863700  0.250000  0.807500  1.0  0.1142
  H  H343  1  0.500000  0.613700  0.442500  1.0  0.1153
  H  H344  1  0.000000  0.113700  0.942500  1.0  0.1153
  H  H345  1  0.000000  0.386300  0.942500  1.0  0.1157
  H  H346  1  0.500000  0.886300  0.442500  1.0  0.1157
  H  H347  1  0.863700  0.750000  0.192500  1.0  0.114
  H  H348  1  0.636300  0.250000  0.692500  1.0  0.1137
  H  H349  1  0.363700  0.250000  0.692500  1.0  0.114
  H  H350  1  0.136300  0.750000  0.192500  1.0  0.1137
  H  H351  1  0.136300  0.250000  0.807500  1.0  0.1147
  H  H352  1  0.363700  0.750000  0.307500  1.0  0.1142
  C  C353  1  0.188200  0.676600  0.033230  1.0  0.7082
  C  C354  1  0.164400  0.628600  0.045390  1.0  -0.1657
  C  C355  1  0.194100  0.599100  0.062310  1.0  0.0057
  C  C356  1  0.338400  0.412700  0.186220  1.0  -0.1277
  C  C357  1  0.314400  0.433700  0.162150  1.0  0.7214
  C  C358  1  0.207900  0.522400  0.091720  1.0  0.6938
  C  C359  1  0.372700  0.441400  0.199910  1.0  -0.0291
  C  C360  1  0.114600  0.612800  0.038930  1.0  -0.1079
  C  C361  1  0.174700  0.553900  0.073340  1.0  -0.1445
  C  C362  1  0.094800  0.567300  0.050250  1.0  0.1197
  C  C363  1  0.124200  0.537100  0.067100  1.0  -0.1882
  C  C364  1  0.318900  0.275200  0.251200  1.0  -0.0749
  C  C365  1  0.380200  0.374700  0.232370  1.0  -0.1151
  C  C366  1  0.026200  0.503400  0.035660  1.0  -0.0971
  C  C367  1  0.393600  0.424300  0.223590  1.0  -0.1858
  C  C368  1  0.324700  0.362600  0.195130  1.0  -0.1081
  C  C369  1  0.346000  0.343700  0.217390  1.0  0.1883
  C  C370  1  0.430900  0.457900  0.238200  1.0  0.6678
  C  C371  1  0.688200  0.176600  0.533230  1.0  0.7082
  C  C372  1  0.664400  0.128600  0.545390  1.0  -0.1657
  C  C373  1  0.694100  0.099100  0.562310  1.0  0.0057
  C  C374  1  0.838400  0.912700  0.686220  1.0  -0.1277
  C  C375  1  0.814400  0.933700  0.662150  1.0  0.7214
  C  C376  1  0.707900  0.022400  0.591720  1.0  0.6938
  C  C377  1  0.872700  0.941400  0.699910  1.0  -0.0291
  C  C378  1  0.614600  0.112800  0.538930  1.0  -0.1079
  C  C379  1  0.674700  0.053900  0.573340  1.0  -0.1445
  C  C380  1  0.594800  0.067300  0.550250  1.0  0.1197
  C  C381  1  0.624200  0.037100  0.567100  1.0  -0.1882
  C  C382  1  0.818900  0.775200  0.751200  1.0  -0.0749
  C  C383  1  0.880200  0.874700  0.732370  1.0  -0.1151
  C  C384  1  0.526200  0.003400  0.535660  1.0  -0.0971
  C  C385  1  0.893600  0.924300  0.723590  1.0  -0.1858
  C  C386  1  0.824700  0.862600  0.695130  1.0  -0.1081
  C  C387  1  0.846000  0.843700  0.717390  1.0  0.1883
  C  C388  1  0.930900  0.957900  0.738200  1.0  0.6678
  C  C389  1  0.311800  0.323400  0.533230  1.0  0.7078
  C  C390  1  0.335600  0.371400  0.545390  1.0  -0.1663
  C  C391  1  0.305900  0.400900  0.562310  1.0  0.0062
  C  C392  1  0.161600  0.587300  0.686220  1.0  -0.1267
  C  C393  1  0.185600  0.566300  0.662150  1.0  0.7199
  C  C394  1  0.292100  0.477600  0.591720  1.0  0.6933
  C  C395  1  0.127300  0.558600  0.699910  1.0  -0.0292
  C  C396  1  0.385400  0.387200  0.538930  1.0  -0.1082
  C  C397  1  0.325300  0.446100  0.573340  1.0  -0.1441
  C  C398  1  0.405200  0.432700  0.550250  1.0  0.1194
  C  C399  1  0.375800  0.462900  0.567100  1.0  -0.1876
  C  C400  1  0.181100  0.724800  0.751200  1.0  -0.0724
  C  C401  1  0.119800  0.625300  0.732370  1.0  -0.1166
  C  C402  1  0.473800  0.496600  0.535660  1.0  -0.0963
  C  C403  1  0.106400  0.575700  0.723590  1.0  -0.1861
  C  C404  1  0.175300  0.637400  0.695130  1.0  -0.1082
  C  C405  1  0.154000  0.656300  0.717390  1.0  0.1891
  C  C406  1  0.069100  0.542100  0.738200  1.0  0.6677
  C  C407  1  0.811800  0.823400  0.033230  1.0  0.7078
  C  C408  1  0.835600  0.871400  0.045390  1.0  -0.1663
  C  C409  1  0.805900  0.900900  0.062310  1.0  0.0062
  C  C410  1  0.661600  0.087300  0.186220  1.0  -0.1267
  C  C411  1  0.685600  0.066300  0.162150  1.0  0.7199
  C  C412  1  0.792100  0.977600  0.091720  1.0  0.6933
  C  C413  1  0.627300  0.058600  0.199910  1.0  -0.0292
  C  C414  1  0.885400  0.887200  0.038930  1.0  -0.1082
  C  C415  1  0.825300  0.946100  0.073340  1.0  -0.1441
  C  C416  1  0.905200  0.932700  0.050250  1.0  0.1194
  C  C417  1  0.875800  0.962900  0.067100  1.0  -0.1876
  C  C418  1  0.681100  0.224800  0.251200  1.0  -0.0724
  C  C419  1  0.619800  0.125300  0.232370  1.0  -0.1166
  C  C420  1  0.973800  0.996600  0.035660  1.0  -0.0963
  C  C421  1  0.606400  0.075700  0.223590  1.0  -0.1861
  C  C422  1  0.675300  0.137400  0.195130  1.0  -0.1082
  C  C423  1  0.654000  0.156300  0.217390  1.0  0.1891
  C  C424  1  0.569100  0.042100  0.238200  1.0  0.6677
  C  C425  1  0.573400  0.938200  0.283230  1.0  0.7099
  C  C426  1  0.621400  0.914400  0.295390  1.0  -0.1665
  C  C427  1  0.650900  0.944100  0.312310  1.0  0.0063
  C  C428  1  0.837300  0.088400  0.436220  1.0  -0.1283
  C  C429  1  0.816300  0.064400  0.412150  1.0  0.7209
  C  C430  1  0.727600  0.957900  0.341720  1.0  0.6955
  C  C431  1  0.808600  0.122700  0.449910  1.0  -0.0302
  C  C432  1  0.637200  0.864600  0.288930  1.0  -0.1091
  C  C433  1  0.696100  0.924700  0.323340  1.0  -0.1439
  C  C434  1  0.682700  0.844800  0.300250  1.0  0.12
  C  C435  1  0.712900  0.874200  0.317100  1.0  -0.1882
  C  C436  1  0.974800  0.068900  0.501200  1.0  -0.0715
  C  C437  1  0.875300  0.130200  0.482370  1.0  -0.1161
  C  C438  1  0.746600  0.776200  0.285660  1.0  -0.0945
  C  C439  1  0.825700  0.143600  0.473590  1.0  -0.1863
  C  C440  1  0.887400  0.074700  0.445130  1.0  -0.1078
  C  C441  1  0.906300  0.096000  0.467390  1.0  0.1893
  C  C442  1  0.792100  0.180900  0.488200  1.0  0.6676
  C  C443  1  0.073400  0.438200  0.783230  1.0  0.7099
  C  C444  1  0.121400  0.414400  0.795390  1.0  -0.1665
  C  C445  1  0.150900  0.444100  0.812310  1.0  0.0063
  C  C446  1  0.337300  0.588400  0.936220  1.0  -0.1283
  C  C447  1  0.316300  0.564400  0.912150  1.0  0.7209
  C  C448  1  0.227600  0.457900  0.841720  1.0  0.6955
  C  C449  1  0.308600  0.622700  0.949910  1.0  -0.0302
  C  C450  1  0.137200  0.364600  0.788930  1.0  -0.1091
  C  C451  1  0.196100  0.424700  0.823340  1.0  -0.1439
  C  C452  1  0.182700  0.344800  0.800250  1.0  0.12
  C  C453  1  0.212900  0.374200  0.817100  1.0  -0.1882
  C  C454  1  0.474800  0.568900  0.001200  1.0  -0.0715
  C  C455  1  0.375300  0.630200  0.982370  1.0  -0.1161
  C  C456  1  0.246600  0.276200  0.785660  1.0  -0.0945
  C  C457  1  0.325700  0.643600  0.973590  1.0  -0.1863
  C  C458  1  0.387400  0.574700  0.945130  1.0  -0.1078
  C  C459  1  0.406300  0.596000  0.967390  1.0  0.1893
  C  C460  1  0.292100  0.680900  0.988200  1.0  0.6676
  C  C461  1  0.926600  0.061800  0.783230  1.0  0.709
  C  C462  1  0.878600  0.085600  0.795390  1.0  -0.166
  C  C463  1  0.849100  0.055900  0.812310  1.0  0.0064
  C  C464  1  0.662700  0.911600  0.936220  1.0  -0.1278
  C  C465  1  0.683700  0.935600  0.912150  1.0  0.7207
  C  C466  1  0.772400  0.042100  0.841720  1.0  0.6956
  C  C467  1  0.691400  0.877300  0.949910  1.0  -0.0294
  C  C468  1  0.862800  0.135400  0.788930  1.0  -0.1082
  C  C469  1  0.803900  0.075300  0.823340  1.0  -0.1443
  C  C470  1  0.817300  0.155200  0.800250  1.0  0.12
  C  C471  1  0.787100  0.125800  0.817100  1.0  -0.1893
  C  C472  1  0.525200  0.931100  0.001200  1.0  -0.071
  C  C473  1  0.624700  0.869800  0.982370  1.0  -0.1167
  C  C474  1  0.753400  0.223800  0.785660  1.0  -0.0977
  C  C475  1  0.674300  0.856400  0.973590  1.0  -0.1867
  C  C476  1  0.612600  0.925300  0.945130  1.0  -0.108
  C  C477  1  0.593700  0.904000  0.967390  1.0  0.1894
  C  C478  1  0.707900  0.819100  0.988200  1.0  0.6672
  C  C479  1  0.426600  0.561800  0.283230  1.0  0.709
  C  C480  1  0.378600  0.585600  0.295390  1.0  -0.166
  C  C481  1  0.349100  0.555900  0.312310  1.0  0.0064
  C  C482  1  0.162700  0.411600  0.436220  1.0  -0.1278
  C  C483  1  0.183700  0.435600  0.412150  1.0  0.7207
  C  C484  1  0.272400  0.542100  0.341720  1.0  0.6956
  C  C485  1  0.191400  0.377300  0.449910  1.0  -0.0294
  C  C486  1  0.362800  0.635400  0.288930  1.0  -0.1082
  C  C487  1  0.303900  0.575300  0.323340  1.0  -0.1443
  C  C488  1  0.317300  0.655200  0.300250  1.0  0.12
  C  C489  1  0.287100  0.625800  0.317100  1.0  -0.1893
  C  C490  1  0.025200  0.431100  0.501200  1.0  -0.071
  C  C491  1  0.124700  0.369800  0.482370  1.0  -0.1167
  C  C492  1  0.253400  0.723800  0.285660  1.0  -0.0977
  C  C493  1  0.174300  0.356400  0.473590  1.0  -0.1867
  C  C494  1  0.112600  0.425300  0.445130  1.0  -0.108
  C  C495  1  0.093700  0.404000  0.467390  1.0  0.1894
  C  C496  1  0.207900  0.319100  0.488200  1.0  0.6672
  C  C497  1  0.311800  0.676600  0.466770  1.0  0.7084
  C  C498  1  0.335600  0.628600  0.454610  1.0  -0.1658
  C  C499  1  0.305900  0.599100  0.437690  1.0  0.0064
  C  C500  1  0.161600  0.412700  0.313780  1.0  -0.1263
  C  C501  1  0.185600  0.433700  0.337850  1.0  0.7201
  C  C502  1  0.292100  0.522400  0.408280  1.0  0.6928
  C  C503  1  0.127300  0.441400  0.300090  1.0  -0.0306
  C  C504  1  0.385400  0.612800  0.461070  1.0  -0.1093
  C  C505  1  0.325300  0.553900  0.426660  1.0  -0.1446
  C  C506  1  0.405200  0.567300  0.449750  1.0  0.1194
  C  C507  1  0.375800  0.537100  0.432900  1.0  -0.1867
  C  C508  1  0.181100  0.275200  0.248800  1.0  -0.0731
  C  C509  1  0.119800  0.374700  0.267630  1.0  -0.1162
  C  C510  1  0.473800  0.503400  0.464340  1.0  -0.0974
  C  C511  1  0.106400  0.424300  0.276410  1.0  -0.1855
  C  C512  1  0.175300  0.362600  0.304870  1.0  -0.1085
  C  C513  1  0.154000  0.343700  0.282610  1.0  0.1896
  C  C514  1  0.069100  0.457900  0.261800  1.0  0.6677
  C  C515  1  0.811800  0.176600  0.966770  1.0  0.7084
  C  C516  1  0.835600  0.128600  0.954610  1.0  -0.1658
  C  C517  1  0.805900  0.099100  0.937690  1.0  0.0064
  C  C518  1  0.661600  0.912700  0.813780  1.0  -0.1263
  C  C519  1  0.685600  0.933700  0.837850  1.0  0.7201
  C  C520  1  0.792100  0.022400  0.908280  1.0  0.6928
  C  C521  1  0.627300  0.941400  0.800090  1.0  -0.0306
  C  C522  1  0.885400  0.112800  0.961070  1.0  -0.1093
  C  C523  1  0.825300  0.053900  0.926660  1.0  -0.1446
  C  C524  1  0.905200  0.067300  0.949750  1.0  0.1194
  C  C525  1  0.875800  0.037100  0.932900  1.0  -0.1867
  C  C526  1  0.681100  0.775200  0.748800  1.0  -0.0731
  C  C527  1  0.619800  0.874700  0.767630  1.0  -0.1162
  C  C528  1  0.973800  0.003400  0.964340  1.0  -0.0974
  C  C529  1  0.606400  0.924300  0.776410  1.0  -0.1855
  C  C530  1  0.675300  0.862600  0.804870  1.0  -0.1085
  C  C531  1  0.654000  0.843700  0.782610  1.0  0.1896
  C  C532  1  0.569100  0.957900  0.761800  1.0  0.6677
  C  C533  1  0.188200  0.323400  0.966770  1.0  0.708
  C  C534  1  0.164400  0.371400  0.954610  1.0  -0.1662
  C  C535  1  0.194100  0.400900  0.937690  1.0  0.0058
  C  C536  1  0.338400  0.587300  0.813780  1.0  -0.1273
  C  C537  1  0.314400  0.566300  0.837850  1.0  0.7203
  C  C538  1  0.207900  0.477600  0.908280  1.0  0.6936
  C  C539  1  0.372700  0.558600  0.800090  1.0  -0.0287
  C  C540  1  0.114600  0.387200  0.961070  1.0  -0.1086
  C  C541  1  0.174700  0.446100  0.926660  1.0  -0.1449
  C  C542  1  0.094800  0.432700  0.949750  1.0  0.1199
  C  C543  1  0.124200  0.462900  0.932900  1.0  -0.1888
  C  C544  1  0.318900  0.724800  0.748800  1.0  -0.0733
  C  C545  1  0.380200  0.625300  0.767630  1.0  -0.1158
  C  C546  1  0.026200  0.496600  0.964340  1.0  -0.0966
  C  C547  1  0.393600  0.575700  0.776410  1.0  -0.1856
  C  C548  1  0.324700  0.637400  0.804870  1.0  -0.1089
  C  C549  1  0.346000  0.656300  0.782610  1.0  0.1886
  C  C550  1  0.430900  0.542100  0.761800  1.0  0.6677
  C  C551  1  0.688200  0.823400  0.466770  1.0  0.708
  C  C552  1  0.664400  0.871400  0.454610  1.0  -0.1662
  C  C553  1  0.694100  0.900900  0.437690  1.0  0.0058
  C  C554  1  0.838400  0.087300  0.313780  1.0  -0.1273
  C  C555  1  0.814400  0.066300  0.337850  1.0  0.7203
  C  C556  1  0.707900  0.977600  0.408280  1.0  0.6936
  C  C557  1  0.872700  0.058600  0.300090  1.0  -0.0287
  C  C558  1  0.614600  0.887200  0.461070  1.0  -0.1086
  C  C559  1  0.674700  0.946100  0.426660  1.0  -0.1449
  C  C560  1  0.594800  0.932700  0.449750  1.0  0.1199
  C  C561  1  0.624200  0.962900  0.432900  1.0  -0.1888
  C  C562  1  0.818900  0.224800  0.248800  1.0  -0.0733
  C  C563  1  0.880200  0.125300  0.267630  1.0  -0.1158
  C  C564  1  0.526200  0.996600  0.464340  1.0  -0.0966
  C  C565  1  0.893600  0.075700  0.276410  1.0  -0.1856
  C  C566  1  0.824700  0.137400  0.304870  1.0  -0.1089
  C  C567  1  0.846000  0.156300  0.282610  1.0  0.1886
  C  C568  1  0.930900  0.042100  0.261800  1.0  0.6677
  C  C569  1  0.926600  0.938200  0.216770  1.0  0.7096
  C  C570  1  0.878600  0.914400  0.204610  1.0  -0.1662
  C  C571  1  0.849100  0.944100  0.187690  1.0  0.0059
  C  C572  1  0.662700  0.088400  0.063780  1.0  -0.1274
  C  C573  1  0.683700  0.064400  0.087850  1.0  0.7204
  C  C574  1  0.772400  0.957900  0.158280  1.0  0.6955
  C  C575  1  0.691400  0.122700  0.050090  1.0  -0.03
  C  C576  1  0.862800  0.864600  0.211070  1.0  -0.109
  C  C577  1  0.803900  0.924700  0.176660  1.0  -0.1444
  C  C578  1  0.817300  0.844800  0.199750  1.0  0.1204
  C  C579  1  0.787100  0.874200  0.182900  1.0  -0.1891
  C  C580  1  0.525200  0.068900  0.998800  1.0  -0.0735
  C  C581  1  0.624700  0.130200  0.017630  1.0  -0.117
  C  C582  1  0.753400  0.776200  0.214340  1.0  -0.0977
  C  C583  1  0.674300  0.143600  0.026410  1.0  -0.186
  C  C584  1  0.612600  0.074700  0.054870  1.0  -0.1088
  C  C585  1  0.593700  0.096000  0.032610  1.0  0.1895
  C  C586  1  0.707900  0.180900  0.011800  1.0  0.6674
  C  C587  1  0.426600  0.438200  0.716770  1.0  0.7096
  C  C588  1  0.378600  0.414400  0.704610  1.0  -0.1662
  C  C589  1  0.349100  0.444100  0.687690  1.0  0.0059
  C  C590  1  0.162700  0.588400  0.563780  1.0  -0.1274
  C  C591  1  0.183700  0.564400  0.587850  1.0  0.7204
  C  C592  1  0.272400  0.457900  0.658280  1.0  0.6955
  C  C593  1  0.191400  0.622700  0.550090  1.0  -0.03
  C  C594  1  0.362800  0.364600  0.711070  1.0  -0.109
  C  C595  1  0.303900  0.424700  0.676660  1.0  -0.1444
  C  C596  1  0.317300  0.344800  0.699750  1.0  0.1204
  C  C597  1  0.287100  0.374200  0.682900  1.0  -0.1891
  C  C598  1  0.025200  0.568900  0.498800  1.0  -0.0735
  C  C599  1  0.124700  0.630200  0.517630  1.0  -0.117
  C  C600  1  0.253400  0.276200  0.714340  1.0  -0.0977
  C  C601  1  0.174300  0.643600  0.526410  1.0  -0.186
  C  C602  1  0.112600  0.574700  0.554870  1.0  -0.1088
  C  C603  1  0.093700  0.596000  0.532610  1.0  0.1895
  C  C604  1  0.207900  0.680900  0.511800  1.0  0.6674
  C  C605  1  0.573400  0.061800  0.716770  1.0  0.71
  C  C606  1  0.621400  0.085600  0.704610  1.0  -0.1666
  C  C607  1  0.650900  0.055900  0.687690  1.0  0.0073
  C  C608  1  0.837300  0.911600  0.563780  1.0  -0.1277
  C  C609  1  0.816300  0.935600  0.587850  1.0  0.7205
  C  C610  1  0.727600  0.042100  0.658280  1.0  0.6952
  C  C611  1  0.808600  0.877300  0.550090  1.0  -0.0305
  C  C612  1  0.637200  0.135400  0.711070  1.0  -0.1103
  C  C613  1  0.696100  0.075300  0.676660  1.0  -0.1441
  C  C614  1  0.682700  0.155200  0.699750  1.0  0.1197
  C  C615  1  0.712900  0.125800  0.682900  1.0  -0.189
  C  C616  1  0.974800  0.931100  0.498800  1.0  -0.0719
  C  C617  1  0.875300  0.869800  0.517630  1.0  -0.116
  C  C618  1  0.746600  0.223800  0.714340  1.0  -0.0957
  C  C619  1  0.825700  0.856400  0.526410  1.0  -0.1865
  C  C620  1  0.887400  0.925300  0.554870  1.0  -0.1081
  C  C621  1  0.906300  0.904000  0.532610  1.0  0.1899
  C  C622  1  0.792100  0.819100  0.511800  1.0  0.6673
  C  C623  1  0.073400  0.561800  0.216770  1.0  0.71
  C  C624  1  0.121400  0.585600  0.204610  1.0  -0.1666
  C  C625  1  0.150900  0.555900  0.187690  1.0  0.0073
  C  C626  1  0.337300  0.411600  0.063780  1.0  -0.1277
  C  C627  1  0.316300  0.435600  0.087850  1.0  0.7205
  C  C628  1  0.227600  0.542100  0.158280  1.0  0.6952
  C  C629  1  0.308600  0.377300  0.050090  1.0  -0.0305
  C  C630  1  0.137200  0.635400  0.211070  1.0  -0.1103
  C  C631  1  0.196100  0.575300  0.176660  1.0  -0.1441
  C  C632  1  0.182700  0.655200  0.199750  1.0  0.1197
  C  C633  1  0.212900  0.625800  0.182900  1.0  -0.189
  C  C634  1  0.474800  0.431100  0.998800  1.0  -0.0719
  C  C635  1  0.375300  0.369800  0.017630  1.0  -0.116
  C  C636  1  0.246600  0.723800  0.214340  1.0  -0.0957
  C  C637  1  0.325700  0.356400  0.026410  1.0  -0.1865
  C  C638  1  0.387400  0.425300  0.054870  1.0  -0.1081
  C  C639  1  0.406300  0.404000  0.032610  1.0  0.1899
  C  C640  1  0.292100  0.319100  0.011800  1.0  0.6673
  C  C641  1  0.811800  0.323400  0.966770  1.0  0.7082
  C  C642  1  0.835600  0.371400  0.954610  1.0  -0.1663
  C  C643  1  0.805900  0.400900  0.937690  1.0  0.006
  C  C644  1  0.661600  0.587300  0.813780  1.0  -0.1265
  C  C645  1  0.685600  0.566300  0.837850  1.0  0.7195
  C  C646  1  0.792100  0.477600  0.908280  1.0  0.6929
  C  C647  1  0.627300  0.558600  0.800090  1.0  -0.0294
  C  C648  1  0.885400  0.387200  0.961070  1.0  -0.1088
  C  C649  1  0.825300  0.446100  0.926660  1.0  -0.1445
  C  C650  1  0.905200  0.432700  0.949750  1.0  0.1195
  C  C651  1  0.875800  0.462900  0.932900  1.0  -0.1879
  C  C652  1  0.681100  0.724800  0.748800  1.0  -0.0714
  C  C653  1  0.619800  0.625300  0.767630  1.0  -0.1164
  C  C654  1  0.973800  0.496600  0.964340  1.0  -0.0947
  C  C655  1  0.606400  0.575700  0.776410  1.0  -0.186
  C  C656  1  0.675300  0.637400  0.804870  1.0  -0.1085
  C  C657  1  0.654000  0.656300  0.782610  1.0  0.1895
  C  C658  1  0.569100  0.542100  0.761800  1.0  0.6676
  C  C659  1  0.311800  0.823400  0.466770  1.0  0.7082
  C  C660  1  0.335600  0.871400  0.454610  1.0  -0.1663
  C  C661  1  0.305900  0.900900  0.437690  1.0  0.006
  C  C662  1  0.161600  0.087300  0.313780  1.0  -0.1265
  C  C663  1  0.185600  0.066300  0.337850  1.0  0.7195
  C  C664  1  0.292100  0.977600  0.408280  1.0  0.6929
  C  C665  1  0.127300  0.058600  0.300090  1.0  -0.0294
  C  C666  1  0.385400  0.887200  0.461070  1.0  -0.1088
  C  C667  1  0.325300  0.946100  0.426660  1.0  -0.1445
  C  C668  1  0.405200  0.932700  0.449750  1.0  0.1195
  C  C669  1  0.375800  0.962900  0.432900  1.0  -0.1879
  C  C670  1  0.181100  0.224800  0.248800  1.0  -0.0714
  C  C671  1  0.119800  0.125300  0.267630  1.0  -0.1164
  C  C672  1  0.473800  0.996600  0.464340  1.0  -0.0947
  C  C673  1  0.106400  0.075700  0.276410  1.0  -0.186
  C  C674  1  0.175300  0.137400  0.304870  1.0  -0.1085
  C  C675  1  0.154000  0.156300  0.282610  1.0  0.1895
  C  C676  1  0.069100  0.042100  0.261800  1.0  0.6676
  C  C677  1  0.688200  0.676600  0.466770  1.0  0.7084
  C  C678  1  0.664400  0.628600  0.454610  1.0  -0.1658
  C  C679  1  0.694100  0.599100  0.437690  1.0  0.0059
  C  C680  1  0.838400  0.412700  0.313780  1.0  -0.1272
  C  C681  1  0.814400  0.433700  0.337850  1.0  0.721
  C  C682  1  0.707900  0.522400  0.408280  1.0  0.6934
  C  C683  1  0.872700  0.441400  0.300090  1.0  -0.0298
  C  C684  1  0.614600  0.612800  0.461070  1.0  -0.1093
  C  C685  1  0.674700  0.553900  0.426660  1.0  -0.1447
  C  C686  1  0.594800  0.567300  0.449750  1.0  0.1198
  C  C687  1  0.624200  0.537100  0.432900  1.0  -0.1876
  C  C688  1  0.818900  0.275200  0.248800  1.0  -0.073
  C  C689  1  0.880200  0.374700  0.267630  1.0  -0.1156
  C  C690  1  0.526200  0.503400  0.464340  1.0  -0.0952
  C  C691  1  0.893600  0.424300  0.276410  1.0  -0.1854
  C  C692  1  0.824700  0.362600  0.304870  1.0  -0.1089
  C  C693  1  0.846000  0.343700  0.282610  1.0  0.1887
  C  C694  1  0.930900  0.457900  0.261800  1.0  0.6678
  C  C695  1  0.188200  0.176600  0.966770  1.0  0.7084
  C  C696  1  0.164400  0.128600  0.954610  1.0  -0.1658
  C  C697  1  0.194100  0.099100  0.937690  1.0  0.0059
  C  C698  1  0.338400  0.912700  0.813780  1.0  -0.1272
  C  C699  1  0.314400  0.933700  0.837850  1.0  0.721
  C  C700  1  0.207900  0.022400  0.908280  1.0  0.6934
  C  C701  1  0.372700  0.941400  0.800090  1.0  -0.0298
  C  C702  1  0.114600  0.112800  0.961070  1.0  -0.1093
  C  C703  1  0.174700  0.053900  0.926660  1.0  -0.1447
  C  C704  1  0.094800  0.067300  0.949750  1.0  0.1198
  C  C705  1  0.124200  0.037100  0.932900  1.0  -0.1876
  C  C706  1  0.318900  0.775200  0.748800  1.0  -0.073
  C  C707  1  0.380200  0.874700  0.767630  1.0  -0.1156
  C  C708  1  0.026200  0.003400  0.964340  1.0  -0.0952
  C  C709  1  0.393600  0.924300  0.776410  1.0  -0.1854
  C  C710  1  0.324700  0.862600  0.804870  1.0  -0.1089
  C  C711  1  0.346000  0.843700  0.782610  1.0  0.1887
  C  C712  1  0.430900  0.957900  0.761800  1.0  0.6678
  C  C713  1  0.426600  0.061800  0.716770  1.0  0.7093
  C  C714  1  0.378600  0.085600  0.704610  1.0  -0.1661
  C  C715  1  0.349100  0.055900  0.687690  1.0  0.0063
  C  C716  1  0.162700  0.911600  0.563780  1.0  -0.1277
  C  C717  1  0.183700  0.935600  0.587850  1.0  0.7206
  C  C718  1  0.272400  0.042100  0.658280  1.0  0.6954
  C  C719  1  0.191400  0.877300  0.550090  1.0  -0.0299
  C  C720  1  0.362800  0.135400  0.711070  1.0  -0.1094
  C  C721  1  0.303900  0.075300  0.676660  1.0  -0.1447
  C  C722  1  0.317300  0.155200  0.699750  1.0  0.1201
  C  C723  1  0.287100  0.125800  0.682900  1.0  -0.1893
  C  C724  1  0.025200  0.931100  0.498800  1.0  -0.0715
  C  C725  1  0.124700  0.869800  0.517630  1.0  -0.1167
  C  C726  1  0.253400  0.223800  0.714340  1.0  -0.0959
  C  C727  1  0.174300  0.856400  0.526410  1.0  -0.1861
  C  C728  1  0.112600  0.925300  0.554870  1.0  -0.1086
  C  C729  1  0.093700  0.904000  0.532610  1.0  0.1898
  C  C730  1  0.207900  0.819100  0.511800  1.0  0.6672
  C  C731  1  0.926600  0.561800  0.216770  1.0  0.7093
  C  C732  1  0.878600  0.585600  0.204610  1.0  -0.1661
  C  C733  1  0.849100  0.555900  0.187690  1.0  0.0063
  C  C734  1  0.662700  0.411600  0.063780  1.0  -0.1277
  C  C735  1  0.683700  0.435600  0.087850  1.0  0.7206
  C  C736  1  0.772400  0.542100  0.158280  1.0  0.6954
  C  C737  1  0.691400  0.377300  0.050090  1.0  -0.0299
  C  C738  1  0.862800  0.635400  0.211070  1.0  -0.1094
  C  C739  1  0.803900  0.575300  0.176660  1.0  -0.1447
  C  C740  1  0.817300  0.655200  0.199750  1.0  0.1201
  C  C741  1  0.787100  0.625800  0.182900  1.0  -0.1893
  C  C742  1  0.525200  0.431100  0.998800  1.0  -0.0715
  C  C743  1  0.624700  0.369800  0.017630  1.0  -0.1167
  C  C744  1  0.753400  0.723800  0.214340  1.0  -0.0959
  C  C745  1  0.674300  0.356400  0.026410  1.0  -0.1861
  C  C746  1  0.612600  0.425300  0.054870  1.0  -0.1086
  C  C747  1  0.593700  0.404000  0.032610  1.0  0.1898
  C  C748  1  0.707900  0.319100  0.011800  1.0  0.6672
  C  C749  1  0.073400  0.938200  0.216770  1.0  0.7103
  C  C750  1  0.121400  0.914400  0.204610  1.0  -0.1666
  C  C751  1  0.150900  0.944100  0.187690  1.0  0.0065
  C  C752  1  0.337300  0.088400  0.063780  1.0  -0.1274
  C  C753  1  0.316300  0.064400  0.087850  1.0  0.7203
  C  C754  1  0.227600  0.957900  0.158280  1.0  0.6952
  C  C755  1  0.308600  0.122700  0.050090  1.0  -0.0305
  C  C756  1  0.137200  0.864600  0.211070  1.0  -0.11
  C  C757  1  0.196100  0.924700  0.176660  1.0  -0.1442
  C  C758  1  0.182700  0.844800  0.199750  1.0  0.1201
  C  C759  1  0.212900  0.874200  0.182900  1.0  -0.1887
  C  C760  1  0.474800  0.068900  0.998800  1.0  -0.0718
  C  C761  1  0.375300  0.130200  0.017630  1.0  -0.1163
  C  C762  1  0.246600  0.776200  0.214340  1.0  -0.0926
  C  C763  1  0.325700  0.143600  0.026410  1.0  -0.1861
  C  C764  1  0.387400  0.074700  0.054870  1.0  -0.1084
  C  C765  1  0.406300  0.096000  0.032610  1.0  0.1896
  C  C766  1  0.292100  0.180900  0.011800  1.0  0.6675
  C  C767  1  0.573400  0.438200  0.716770  1.0  0.7103
  C  C768  1  0.621400  0.414400  0.704610  1.0  -0.1666
  C  C769  1  0.650900  0.444100  0.687690  1.0  0.0065
  C  C770  1  0.837300  0.588400  0.563780  1.0  -0.1274
  C  C771  1  0.816300  0.564400  0.587850  1.0  0.7203
  C  C772  1  0.727600  0.457900  0.658280  1.0  0.6952
  C  C773  1  0.808600  0.622700  0.550090  1.0  -0.0305
  C  C774  1  0.637200  0.364600  0.711070  1.0  -0.11
  C  C775  1  0.696100  0.424700  0.676660  1.0  -0.1442
  C  C776  1  0.682700  0.344800  0.699750  1.0  0.1201
  C  C777  1  0.712900  0.374200  0.682900  1.0  -0.1887
  C  C778  1  0.974800  0.568900  0.498800  1.0  -0.0718
  C  C779  1  0.875300  0.630200  0.517630  1.0  -0.1163
  C  C780  1  0.746600  0.276200  0.714340  1.0  -0.0926
  C  C781  1  0.825700  0.643600  0.526410  1.0  -0.1861
  C  C782  1  0.887400  0.574700  0.554870  1.0  -0.1084
  C  C783  1  0.906300  0.596000  0.532610  1.0  0.1896
  C  C784  1  0.792100  0.680900  0.511800  1.0  0.6675
  C  C785  1  0.688200  0.323400  0.533230  1.0  0.7077
  C  C786  1  0.664400  0.371400  0.545390  1.0  -0.1662
  C  C787  1  0.694100  0.400900  0.562310  1.0  0.0056
  C  C788  1  0.838400  0.587300  0.686220  1.0  -0.1279
  C  C789  1  0.814400  0.566300  0.662150  1.0  0.7212
  C  C790  1  0.707900  0.477600  0.591720  1.0  0.694
  C  C791  1  0.872700  0.558600  0.699910  1.0  -0.0282
  C  C792  1  0.614600  0.387200  0.538930  1.0  -0.1079
  C  C793  1  0.674700  0.446100  0.573340  1.0  -0.1446
  C  C794  1  0.594800  0.432700  0.550250  1.0  0.1198
  C  C795  1  0.624200  0.462900  0.567100  1.0  -0.1887
  C  C796  1  0.818900  0.724800  0.751200  1.0  -0.0727
  C  C797  1  0.880200  0.625300  0.732370  1.0  -0.1154
  C  C798  1  0.526200  0.496600  0.535660  1.0  -0.0939
  C  C799  1  0.893600  0.575700  0.723590  1.0  -0.1858
  C  C800  1  0.824700  0.637400  0.695130  1.0  -0.1086
  C  C801  1  0.846000  0.656300  0.717390  1.0  0.1882
  C  C802  1  0.930900  0.542100  0.738200  1.0  0.6678
  C  C803  1  0.188200  0.823400  0.033230  1.0  0.7077
  C  C804  1  0.164400  0.871400  0.045390  1.0  -0.1662
  C  C805  1  0.194100  0.900900  0.062310  1.0  0.0056
  C  C806  1  0.338400  0.087300  0.186220  1.0  -0.1279
  C  C807  1  0.314400  0.066300  0.162150  1.0  0.7212
  C  C808  1  0.207900  0.977600  0.091720  1.0  0.694
  C  C809  1  0.372700  0.058600  0.199910  1.0  -0.0282
  C  C810  1  0.114600  0.887200  0.038930  1.0  -0.1079
  C  C811  1  0.174700  0.946100  0.073340  1.0  -0.1446
  C  C812  1  0.094800  0.932700  0.050250  1.0  0.1198
  C  C813  1  0.124200  0.962900  0.067100  1.0  -0.1887
  C  C814  1  0.318900  0.224800  0.251200  1.0  -0.0727
  C  C815  1  0.380200  0.125300  0.232370  1.0  -0.1154
  C  C816  1  0.026200  0.996600  0.035660  1.0  -0.0939
  C  C817  1  0.393600  0.075700  0.223590  1.0  -0.1858
  C  C818  1  0.324700  0.137400  0.195130  1.0  -0.1086
  C  C819  1  0.346000  0.156300  0.217390  1.0  0.1882
  C  C820  1  0.430900  0.042100  0.238200  1.0  0.6678
  C  C821  1  0.811800  0.676600  0.033230  1.0  0.7081
  C  C822  1  0.835600  0.628600  0.045390  1.0  -0.1657
  C  C823  1  0.805900  0.599100  0.062310  1.0  0.0065
  C  C824  1  0.661600  0.412700  0.186220  1.0  -0.1266
  C  C825  1  0.685600  0.433700  0.162150  1.0  0.7199
  C  C826  1  0.792100  0.522400  0.091720  1.0  0.6932
  C  C827  1  0.627300  0.441400  0.199910  1.0  -0.0299
  C  C828  1  0.885400  0.612800  0.038930  1.0  -0.108
  C  C829  1  0.825300  0.553900  0.073340  1.0  -0.1442
  C  C830  1  0.905200  0.567300  0.050250  1.0  0.1193
  C  C831  1  0.875800  0.537100  0.067100  1.0  -0.1868
  C  C832  1  0.681100  0.275200  0.251200  1.0  -0.0719
  C  C833  1  0.619800  0.374700  0.232370  1.0  -0.1163
  C  C834  1  0.973800  0.503400  0.035660  1.0  -0.0946
  C  C835  1  0.606400  0.424300  0.223590  1.0  -0.1858
  C  C836  1  0.675300  0.362600  0.195130  1.0  -0.1078
  C  C837  1  0.654000  0.343700  0.217390  1.0  0.1891
  C  C838  1  0.569100  0.457900  0.238200  1.0  0.6677
  C  C839  1  0.311800  0.176600  0.533230  1.0  0.7081
  C  C840  1  0.335600  0.128600  0.545390  1.0  -0.1657
  C  C841  1  0.305900  0.099100  0.562310  1.0  0.0065
  C  C842  1  0.161600  0.912700  0.686220  1.0  -0.1266
  C  C843  1  0.185600  0.933700  0.662150  1.0  0.7199
  C  C844  1  0.292100  0.022400  0.591720  1.0  0.6932
  C  C845  1  0.127300  0.941400  0.699910  1.0  -0.0299
  C  C846  1  0.385400  0.112800  0.538930  1.0  -0.108
  C  C847  1  0.325300  0.053900  0.573340  1.0  -0.1442
  C  C848  1  0.405200  0.067300  0.550250  1.0  0.1193
  C  C849  1  0.375800  0.037100  0.567100  1.0  -0.1868
  C  C850  1  0.181100  0.775200  0.751200  1.0  -0.0719
  C  C851  1  0.119800  0.874700  0.732370  1.0  -0.1163
  C  C852  1  0.473800  0.003400  0.535660  1.0  -0.0946
  C  C853  1  0.106400  0.924300  0.723590  1.0  -0.1858
  C  C854  1  0.175300  0.862600  0.695130  1.0  -0.1078
  C  C855  1  0.154000  0.843700  0.717390  1.0  0.1891
  C  C856  1  0.069100  0.957900  0.738200  1.0  0.6677
  C  C857  1  0.073400  0.061800  0.783230  1.0  0.7096
  C  C858  1  0.121400  0.085600  0.795390  1.0  -0.1666
  C  C859  1  0.150900  0.055900  0.812310  1.0  0.0073
  C  C860  1  0.337300  0.911600  0.936220  1.0  -0.1281
  C  C861  1  0.316300  0.935600  0.912150  1.0  0.7208
  C  C862  1  0.227600  0.042100  0.841720  1.0  0.6955
  C  C863  1  0.308600  0.877300  0.949910  1.0  -0.0301
  C  C864  1  0.137200  0.135400  0.788930  1.0  -0.1092
  C  C865  1  0.196100  0.075300  0.823340  1.0  -0.1438
  C  C866  1  0.182700  0.155200  0.800250  1.0  0.1197
  C  C867  1  0.212900  0.125800  0.817100  1.0  -0.1882
  C  C868  1  0.474800  0.931100  0.001200  1.0  -0.0694
  C  C869  1  0.375300  0.869800  0.982370  1.0  -0.1156
  C  C870  1  0.246600  0.223800  0.785660  1.0  -0.0932
  C  C871  1  0.325700  0.856400  0.973590  1.0  -0.1867
  C  C872  1  0.387400  0.925300  0.945130  1.0  -0.1076
  C  C873  1  0.406300  0.904000  0.967390  1.0  0.1894
  C  C874  1  0.292100  0.819100  0.988200  1.0  0.6674
  C  C875  1  0.573400  0.561800  0.283230  1.0  0.7096
  C  C876  1  0.621400  0.585600  0.295390  1.0  -0.1666
  C  C877  1  0.650900  0.555900  0.312310  1.0  0.0073
  C  C878  1  0.837300  0.411600  0.436220  1.0  -0.1281
  C  C879  1  0.816300  0.435600  0.412150  1.0  0.7208
  C  C880  1  0.727600  0.542100  0.341720  1.0  0.6955
  C  C881  1  0.808600  0.377300  0.449910  1.0  -0.0301
  C  C882  1  0.637200  0.635400  0.288930  1.0  -0.1092
  C  C883  1  0.696100  0.575300  0.323340  1.0  -0.1438
  C  C884  1  0.682700  0.655200  0.300250  1.0  0.1197
  C  C885  1  0.712900  0.625800  0.317100  1.0  -0.1882
  C  C886  1  0.974800  0.431100  0.501200  1.0  -0.0694
  C  C887  1  0.875300  0.369800  0.482370  1.0  -0.1156
  C  C888  1  0.746600  0.723800  0.285660  1.0  -0.0932
  C  C889  1  0.825700  0.356400  0.473590  1.0  -0.1867
  C  C890  1  0.887400  0.425300  0.445130  1.0  -0.1076
  C  C891  1  0.906300  0.404000  0.467390  1.0  0.1894
  C  C892  1  0.792100  0.319100  0.488200  1.0  0.6674
  C  C893  1  0.426600  0.938200  0.283230  1.0  0.7093
  C  C894  1  0.378600  0.914400  0.295390  1.0  -0.166
  C  C895  1  0.349100  0.944100  0.312310  1.0  0.0057
  C  C896  1  0.162700  0.088400  0.436220  1.0  -0.128
  C  C897  1  0.183700  0.064400  0.412150  1.0  0.7208
  C  C898  1  0.272400  0.957900  0.341720  1.0  0.6958
  C  C899  1  0.191400  0.122700  0.449910  1.0  -0.0295
  C  C900  1  0.362800  0.864600  0.288930  1.0  -0.108
  C  C901  1  0.303900  0.924700  0.323340  1.0  -0.144
  C  C902  1  0.317300  0.844800  0.300250  1.0  0.1204
  C  C903  1  0.287100  0.874200  0.317100  1.0  -0.1894
  C  C904  1  0.025200  0.068900  0.501200  1.0  -0.0702
  C  C905  1  0.124700  0.130200  0.482370  1.0  -0.1172
  C  C906  1  0.253400  0.776200  0.285660  1.0  -0.0949
  C  C907  1  0.174300  0.143600  0.473590  1.0  -0.1867
  C  C908  1  0.112600  0.074700  0.445130  1.0  -0.108
  C  C909  1  0.093700  0.096000  0.467390  1.0  0.1892
  C  C910  1  0.207900  0.180900  0.488200  1.0  0.6674
  C  C911  1  0.926600  0.438200  0.783230  1.0  0.7093
  C  C912  1  0.878600  0.414400  0.795390  1.0  -0.166
  C  C913  1  0.849100  0.444100  0.812310  1.0  0.0057
  C  C914  1  0.662700  0.588400  0.936220  1.0  -0.128
  C  C915  1  0.683700  0.564400  0.912150  1.0  0.7208
  C  C916  1  0.772400  0.457900  0.841720  1.0  0.6958
  C  C917  1  0.691400  0.622700  0.949910  1.0  -0.0295
  C  C918  1  0.862800  0.364600  0.788930  1.0  -0.108
  C  C919  1  0.803900  0.424700  0.823340  1.0  -0.144
  C  C920  1  0.817300  0.344800  0.800250  1.0  0.1204
  C  C921  1  0.787100  0.374200  0.817100  1.0  -0.1894
  C  C922  1  0.525200  0.568900  0.001200  1.0  -0.0702
  C  C923  1  0.624700  0.630200  0.982370  1.0  -0.1172
  C  C924  1  0.753400  0.276200  0.785660  1.0  -0.0949
  C  C925  1  0.674300  0.643600  0.973590  1.0  -0.1867
  C  C926  1  0.612600  0.574700  0.945130  1.0  -0.108
  C  C927  1  0.593700  0.596000  0.967390  1.0  0.1892
  C  C928  1  0.707900  0.680900  0.988200  1.0  0.6674
  C  C929  1  0.344500  0.250000  0.211500  1.0  0.0597
  C  C930  1  0.155500  0.750000  0.711500  1.0  0.0586
  C  C931  1  0.000000  0.094500  0.461500  1.0  0.058
  C  C932  1  0.500000  0.594500  0.961500  1.0  0.058
  C  C933  1  0.500000  0.905500  0.961500  1.0  0.058
  C  C934  1  0.000000  0.405500  0.461500  1.0  0.058
  C  C935  1  0.155500  0.250000  0.288500  1.0  0.0568
  C  C936  1  0.344500  0.750000  0.788500  1.0  0.0589
  C  C937  1  0.844500  0.250000  0.288500  1.0  0.0589
  C  C938  1  0.500000  0.094500  0.038500  1.0  0.0575
  C  C939  1  0.000000  0.594500  0.538500  1.0  0.0575
  C  C940  1  0.000000  0.905500  0.538500  1.0  0.0573
  C  C941  1  0.500000  0.405500  0.038500  1.0  0.0573
  C  C942  1  0.655500  0.750000  0.788500  1.0  0.0568
  C  C943  1  0.844500  0.750000  0.711500  1.0  0.0597
  C  C944  1  0.655500  0.250000  0.211500  1.0  0.0586
  C  C945  1  0.000000  0.579400  0.050400  1.0  0.0485
  C  C946  1  0.500000  0.079400  0.550400  1.0  0.0485
  C  C947  1  0.500000  0.420600  0.550400  1.0  0.0475
  C  C948  1  0.000000  0.920600  0.050400  1.0  0.0475
  C  C949  1  0.670600  0.750000  0.300400  1.0  0.0451
  C  C950  1  0.829400  0.250000  0.800400  1.0  0.0473
  C  C951  1  0.500000  0.579400  0.449600  1.0  0.0499
  C  C952  1  0.000000  0.079400  0.949600  1.0  0.0499
  C  C953  1  0.000000  0.420600  0.949600  1.0  0.0485
  C  C954  1  0.500000  0.920600  0.449600  1.0  0.0485
  C  C955  1  0.829400  0.750000  0.199600  1.0  0.0483
  C  C956  1  0.670600  0.250000  0.699600  1.0  0.046
  C  C957  1  0.329400  0.250000  0.699600  1.0  0.0483
  C  C958  1  0.170600  0.750000  0.199600  1.0  0.046
  C  C959  1  0.170600  0.250000  0.800400  1.0  0.0451
  C  C960  1  0.329400  0.750000  0.300400  1.0  0.0473
  N  N961  1  0.041400  0.551500  0.044700  1.0  0.0085
  N  N962  1  0.335000  0.291900  0.225880  1.0  -0.0156
  N  N963  1  0.541400  0.051500  0.544700  1.0  0.0085
  N  N964  1  0.835000  0.791900  0.725880  1.0  -0.0156
  N  N965  1  0.458600  0.448500  0.544700  1.0  0.0117
  N  N966  1  0.165000  0.708100  0.725880  1.0  -0.0162
  N  N967  1  0.958600  0.948500  0.044700  1.0  0.0117
  N  N968  1  0.665000  0.208100  0.225880  1.0  -0.0162
  N  N969  1  0.698500  0.791400  0.294700  1.0  0.0134
  N  N970  1  0.958100  0.085000  0.475880  1.0  -0.0167
  N  N971  1  0.198500  0.291400  0.794700  1.0  0.0134
  N  N972  1  0.458100  0.585000  0.975880  1.0  -0.0167
  N  N973  1  0.801500  0.208600  0.794700  1.0  0.0136
  N  N974  1  0.541900  0.915000  0.975880  1.0  -0.0151
  N  N975  1  0.301500  0.708600  0.294700  1.0  0.0136
  N  N976  1  0.041900  0.415000  0.475880  1.0  -0.0151
  N  N977  1  0.458600  0.551500  0.455300  1.0  0.0115
  N  N978  1  0.165000  0.291900  0.274120  1.0  -0.0161
  N  N979  1  0.958600  0.051500  0.955300  1.0  0.0115
  N  N980  1  0.665000  0.791900  0.774120  1.0  -0.0161
  N  N981  1  0.041400  0.448500  0.955300  1.0  0.0089
  N  N982  1  0.335000  0.708100  0.774120  1.0  -0.0164
  N  N983  1  0.541400  0.948500  0.455300  1.0  0.0089
  N  N984  1  0.835000  0.208100  0.274120  1.0  -0.0164
  N  N985  1  0.801500  0.791400  0.205300  1.0  0.0133
  N  N986  1  0.541900  0.085000  0.024120  1.0  -0.0156
  N  N987  1  0.301500  0.291400  0.705300  1.0  0.0133
  N  N988  1  0.041900  0.585000  0.524120  1.0  -0.0156
  N  N989  1  0.698500  0.208600  0.705300  1.0  0.0136
  N  N990  1  0.958100  0.915000  0.524120  1.0  -0.0173
  N  N991  1  0.198500  0.708600  0.205300  1.0  0.0136
  N  N992  1  0.458100  0.415000  0.024120  1.0  -0.0173
  N  N993  1  0.958600  0.448500  0.955300  1.0  0.0116
  N  N994  1  0.665000  0.708100  0.774120  1.0  -0.0166
  N  N995  1  0.458600  0.948500  0.455300  1.0  0.0116
  N  N996  1  0.165000  0.208100  0.274120  1.0  -0.0166
  N  N997  1  0.541400  0.551500  0.455300  1.0  0.0088
  N  N998  1  0.835000  0.291900  0.274120  1.0  -0.0159
  N  N999  1  0.041400  0.051500  0.955300  1.0  0.0088
  N  N1000  1  0.335000  0.791900  0.774120  1.0  -0.0159
  N  N1001  1  0.301500  0.208600  0.705300  1.0  0.0134
  N  N1002  1  0.041900  0.915000  0.524120  1.0  -0.0153
  N  N1003  1  0.801500  0.708600  0.205300  1.0  0.0134
  N  N1004  1  0.541900  0.415000  0.024120  1.0  -0.0153
  N  N1005  1  0.198500  0.791400  0.205300  1.0  0.0134
  N  N1006  1  0.458100  0.085000  0.024120  1.0  -0.017
  N  N1007  1  0.698500  0.291400  0.705300  1.0  0.0134
  N  N1008  1  0.958100  0.585000  0.524120  1.0  -0.017
  N  N1009  1  0.541400  0.448500  0.544700  1.0  0.0086
  N  N1010  1  0.835000  0.708100  0.725880  1.0  -0.016
  N  N1011  1  0.041400  0.948500  0.044700  1.0  0.0086
  N  N1012  1  0.335000  0.208100  0.225880  1.0  -0.016
  N  N1013  1  0.958600  0.551500  0.044700  1.0  0.0116
  N  N1014  1  0.665000  0.291900  0.225880  1.0  -0.0159
  N  N1015  1  0.458600  0.051500  0.544700  1.0  0.0116
  N  N1016  1  0.165000  0.791900  0.725880  1.0  -0.0159
  N  N1017  1  0.198500  0.208600  0.794700  1.0  0.0137
  N  N1018  1  0.458100  0.915000  0.975880  1.0  -0.0169
  N  N1019  1  0.698500  0.708600  0.294700  1.0  0.0137
  N  N1020  1  0.958100  0.415000  0.475880  1.0  -0.0169
  N  N1021  1  0.301500  0.791400  0.294700  1.0  0.0133
  N  N1022  1  0.041900  0.085000  0.475880  1.0  -0.0154
  N  N1023  1  0.801500  0.291400  0.794700  1.0  0.0133
  N  N1024  1  0.541900  0.585000  0.975880  1.0  -0.0154
  O  O1025  1  0.276900  0.407900  0.152290  1.0  -0.6129
  O  O1026  1  0.186400  0.482200  0.101500  1.0  -0.5996
  O  O1027  1  0.332900  0.475800  0.153310  1.0  -0.6422
  O  O1028  1  0.165900  0.695000  0.013700  1.0  -0.6148
  O  O1029  1  0.227600  0.694100  0.044060  1.0  -0.6354
  O  O1030  1  0.444700  0.499500  0.228990  1.0  -0.6094
  O  O1031  1  0.252300  0.537500  0.095640  1.0  -0.6158
  O  O1032  1  0.447000  0.437900  0.260180  1.0  -0.6151
  O  O1033  1  0.776900  0.907900  0.652290  1.0  -0.6129
  O  O1034  1  0.686400  0.982200  0.601500  1.0  -0.5996
  O  O1035  1  0.832900  0.975800  0.653310  1.0  -0.6422
  O  O1036  1  0.665900  0.195000  0.513700  1.0  -0.6148
  O  O1037  1  0.727600  0.194100  0.544060  1.0  -0.6354
  O  O1038  1  0.944700  0.999500  0.728990  1.0  -0.6094
  O  O1039  1  0.752300  0.037500  0.595640  1.0  -0.6158
  O  O1040  1  0.947000  0.937900  0.760180  1.0  -0.6151
  O  O1041  1  0.223100  0.592100  0.652290  1.0  -0.6128
  O  O1042  1  0.313600  0.517800  0.601500  1.0  -0.601
  O  O1043  1  0.167100  0.524200  0.653310  1.0  -0.6432
  O  O1044  1  0.334100  0.305000  0.513700  1.0  -0.615
  O  O1045  1  0.272400  0.305900  0.544060  1.0  -0.6348
  O  O1046  1  0.055300  0.500500  0.728990  1.0  -0.6087
  O  O1047  1  0.247700  0.462500  0.595640  1.0  -0.6167
  O  O1048  1  0.053000  0.562100  0.760180  1.0  -0.615
  O  O1049  1  0.723100  0.092100  0.152290  1.0  -0.6128
  O  O1050  1  0.813600  0.017800  0.101500  1.0  -0.601
  O  O1051  1  0.667100  0.024200  0.153310  1.0  -0.6432
  O  O1052  1  0.834100  0.805000  0.013700  1.0  -0.615
  O  O1053  1  0.772400  0.805900  0.044060  1.0  -0.6348
  O  O1054  1  0.555300  0.000500  0.228990  1.0  -0.6087
  O  O1055  1  0.747700  0.962500  0.095640  1.0  -0.6167
  O  O1056  1  0.553000  0.062100  0.260180  1.0  -0.615
  O  O1057  1  0.842100  0.026900  0.402290  1.0  -0.6129
  O  O1058  1  0.767800  0.936400  0.351500  1.0  -0.6008
  O  O1059  1  0.774200  0.082900  0.403310  1.0  -0.6419
  O  O1060  1  0.555000  0.915900  0.263700  1.0  -0.6157
  O  O1061  1  0.555900  0.977600  0.294060  1.0  -0.635
  O  O1062  1  0.750500  0.194700  0.478990  1.0  -0.6076
  O  O1063  1  0.712500  0.002300  0.345640  1.0  -0.6162
  O  O1064  1  0.812100  0.197000  0.510180  1.0  -0.6139
  O  O1065  1  0.342100  0.526900  0.902290  1.0  -0.6129
  O  O1066  1  0.267800  0.436400  0.851500  1.0  -0.6008
  O  O1067  1  0.274200  0.582900  0.903310  1.0  -0.6419
  O  O1068  1  0.055000  0.415900  0.763700  1.0  -0.6157
  O  O1069  1  0.055900  0.477600  0.794060  1.0  -0.635
  O  O1070  1  0.250500  0.694700  0.978990  1.0  -0.6076
  O  O1071  1  0.212500  0.502300  0.845640  1.0  -0.6162
  O  O1072  1  0.312100  0.697000  0.010180  1.0  -0.6139
  O  O1073  1  0.657900  0.973100  0.902290  1.0  -0.6129
  O  O1074  1  0.732200  0.063600  0.851500  1.0  -0.6017
  O  O1075  1  0.725800  0.917100  0.903310  1.0  -0.6413
  O  O1076  1  0.945000  0.084100  0.763700  1.0  -0.6157
  O  O1077  1  0.944100  0.022400  0.794060  1.0  -0.6336
  O  O1078  1  0.749500  0.805300  0.978990  1.0  -0.6097
  O  O1079  1  0.787500  0.997700  0.845640  1.0  -0.6178
  O  O1080  1  0.687900  0.803000  0.010180  1.0  -0.6154
  O  O1081  1  0.157900  0.473100  0.402290  1.0  -0.6129
  O  O1082  1  0.232200  0.563600  0.351500  1.0  -0.6017
  O  O1083  1  0.225800  0.417100  0.403310  1.0  -0.6413
  O  O1084  1  0.445000  0.584100  0.263700  1.0  -0.6157
  O  O1085  1  0.444100  0.522400  0.294060  1.0  -0.6336
  O  O1086  1  0.249500  0.305300  0.478990  1.0  -0.6097
  O  O1087  1  0.287500  0.497700  0.345640  1.0  -0.6178
  O  O1088  1  0.187900  0.303000  0.510180  1.0  -0.6154
  O  O1089  1  0.223100  0.407900  0.347710  1.0  -0.6124
  O  O1090  1  0.313600  0.482200  0.398500  1.0  -0.601
  O  O1091  1  0.167100  0.475800  0.346690  1.0  -0.6431
  O  O1092  1  0.334100  0.695000  0.486300  1.0  -0.615
  O  O1093  1  0.272400  0.694100  0.455940  1.0  -0.6351
  O  O1094  1  0.055300  0.499500  0.271010  1.0  -0.6099
  O  O1095  1  0.247700  0.537500  0.404360  1.0  -0.6159
  O  O1096  1  0.053000  0.437900  0.239820  1.0  -0.6141
  O  O1097  1  0.723100  0.907900  0.847710  1.0  -0.6124
  O  O1098  1  0.813600  0.982200  0.898500  1.0  -0.601
  O  O1099  1  0.667100  0.975800  0.846690  1.0  -0.6431
  O  O1100  1  0.834100  0.195000  0.986300  1.0  -0.615
  O  O1101  1  0.772400  0.194100  0.955940  1.0  -0.6351
  O  O1102  1  0.555300  0.999500  0.771010  1.0  -0.6099
  O  O1103  1  0.747700  0.037500  0.904360  1.0  -0.6159
  O  O1104  1  0.553000  0.937900  0.739820  1.0  -0.6141
  O  O1105  1  0.276900  0.592100  0.847710  1.0  -0.6128
  O  O1106  1  0.186400  0.517800  0.898500  1.0  -0.6011
  O  O1107  1  0.332900  0.524200  0.846690  1.0  -0.6415
  O  O1108  1  0.165900  0.305000  0.986300  1.0  -0.6148
  O  O1109  1  0.227600  0.305900  0.955940  1.0  -0.6354
  O  O1110  1  0.444700  0.500500  0.771010  1.0  -0.6095
  O  O1111  1  0.252300  0.462500  0.904360  1.0  -0.6166
  O  O1112  1  0.447000  0.562100  0.739820  1.0  -0.6152
  O  O1113  1  0.776900  0.092100  0.347710  1.0  -0.6128
  O  O1114  1  0.686400  0.017800  0.398500  1.0  -0.6011
  O  O1115  1  0.832900  0.024200  0.346690  1.0  -0.6415
  O  O1116  1  0.665900  0.805000  0.486300  1.0  -0.6148
  O  O1117  1  0.727600  0.805900  0.455940  1.0  -0.6354
  O  O1118  1  0.944700  0.000500  0.271010  1.0  -0.6095
  O  O1119  1  0.752300  0.962500  0.404360  1.0  -0.6166
  O  O1120  1  0.947000  0.062100  0.239820  1.0  -0.6152
  O  O1121  1  0.657900  0.026900  0.097710  1.0  -0.6125
  O  O1122  1  0.732200  0.936400  0.148500  1.0  -0.6009
  O  O1123  1  0.725800  0.082900  0.096690  1.0  -0.6418
  O  O1124  1  0.945000  0.915900  0.236300  1.0  -0.6153
  O  O1125  1  0.944100  0.977600  0.205940  1.0  -0.6347
  O  O1126  1  0.749500  0.194700  0.021010  1.0  -0.6108
  O  O1127  1  0.787500  0.002300  0.154360  1.0  -0.6166
  O  O1128  1  0.687900  0.197000  0.989820  1.0  -0.6158
  O  O1129  1  0.157900  0.526900  0.597710  1.0  -0.6125
  O  O1130  1  0.232200  0.436400  0.648500  1.0  -0.6009
  O  O1131  1  0.225800  0.582900  0.596690  1.0  -0.6418
  O  O1132  1  0.445000  0.415900  0.736300  1.0  -0.6153
  O  O1133  1  0.444100  0.477600  0.705940  1.0  -0.6347
  O  O1134  1  0.249500  0.694700  0.521010  1.0  -0.6108
  O  O1135  1  0.287500  0.502300  0.654360  1.0  -0.6166
  O  O1136  1  0.187900  0.697000  0.489820  1.0  -0.6158
  O  O1137  1  0.842100  0.973100  0.597710  1.0  -0.6132
  O  O1138  1  0.767800  0.063600  0.648500  1.0  -0.6014
  O  O1139  1  0.774200  0.917100  0.596690  1.0  -0.641
  O  O1140  1  0.555000  0.084100  0.736300  1.0  -0.6166
  O  O1141  1  0.555900  0.022400  0.705940  1.0  -0.6337
  O  O1142  1  0.750500  0.805300  0.521010  1.0  -0.6082
  O  O1143  1  0.712500  0.997700  0.654360  1.0  -0.6175
  O  O1144  1  0.812100  0.803000  0.489820  1.0  -0.614
  O  O1145  1  0.342100  0.473100  0.097710  1.0  -0.6132
  O  O1146  1  0.267800  0.563600  0.148500  1.0  -0.6014
  O  O1147  1  0.274200  0.417100  0.096690  1.0  -0.641
  O  O1148  1  0.055000  0.584100  0.236300  1.0  -0.6166
  O  O1149  1  0.055900  0.522400  0.205940  1.0  -0.6337
  O  O1150  1  0.250500  0.305300  0.021010  1.0  -0.6082
  O  O1151  1  0.212500  0.497700  0.154360  1.0  -0.6175
  O  O1152  1  0.312100  0.303000  0.989820  1.0  -0.614
  O  O1153  1  0.723100  0.592100  0.847710  1.0  -0.6126
  O  O1154  1  0.813600  0.517800  0.898500  1.0  -0.6013
  O  O1155  1  0.667100  0.524200  0.846690  1.0  -0.6433
  O  O1156  1  0.834100  0.305000  0.986300  1.0  -0.6152
  O  O1157  1  0.772400  0.305900  0.955940  1.0  -0.6361
  O  O1158  1  0.555300  0.500500  0.771010  1.0  -0.6097
  O  O1159  1  0.747700  0.462500  0.904360  1.0  -0.6167
  O  O1160  1  0.553000  0.562100  0.739820  1.0  -0.6145
  O  O1161  1  0.223100  0.092100  0.347710  1.0  -0.6126
  O  O1162  1  0.313600  0.017800  0.398500  1.0  -0.6013
  O  O1163  1  0.167100  0.024200  0.346690  1.0  -0.6433
  O  O1164  1  0.334100  0.805000  0.486300  1.0  -0.6152
  O  O1165  1  0.272400  0.805900  0.455940  1.0  -0.6361
  O  O1166  1  0.055300  0.000500  0.271010  1.0  -0.6097
  O  O1167  1  0.247700  0.962500  0.404360  1.0  -0.6167
  O  O1168  1  0.053000  0.062100  0.239820  1.0  -0.6145
  O  O1169  1  0.776900  0.407900  0.347710  1.0  -0.6127
  O  O1170  1  0.686400  0.482200  0.398500  1.0  -0.5994
  O  O1171  1  0.832900  0.475800  0.346690  1.0  -0.6428
  O  O1172  1  0.665900  0.695000  0.486300  1.0  -0.6146
  O  O1173  1  0.727600  0.694100  0.455940  1.0  -0.6369
  O  O1174  1  0.944700  0.499500  0.271010  1.0  -0.6101
  O  O1175  1  0.752300  0.537500  0.404360  1.0  -0.616
  O  O1176  1  0.947000  0.437900  0.239820  1.0  -0.6149
  O  O1177  1  0.276900  0.907900  0.847710  1.0  -0.6127
  O  O1178  1  0.186400  0.982200  0.898500  1.0  -0.5994
  O  O1179  1  0.332900  0.975800  0.846690  1.0  -0.6428
  O  O1180  1  0.165900  0.195000  0.986300  1.0  -0.6146
  O  O1181  1  0.227600  0.194100  0.955940  1.0  -0.6369
  O  O1182  1  0.444700  0.999500  0.771010  1.0  -0.6101
  O  O1183  1  0.252300  0.037500  0.904360  1.0  -0.616
  O  O1184  1  0.447000  0.937900  0.739820  1.0  -0.6149
  O  O1185  1  0.157900  0.973100  0.597710  1.0  -0.6129
  O  O1186  1  0.232200  0.063600  0.648500  1.0  -0.6016
  O  O1187  1  0.225800  0.917100  0.596690  1.0  -0.6416
  O  O1188  1  0.445000  0.084100  0.736300  1.0  -0.6155
  O  O1189  1  0.444100  0.022400  0.705940  1.0  -0.6351
  O  O1190  1  0.249500  0.805300  0.521010  1.0  -0.6106
  O  O1191  1  0.287500  0.997700  0.654360  1.0  -0.6179
  O  O1192  1  0.187900  0.803000  0.489820  1.0  -0.6159
  O  O1193  1  0.657900  0.473100  0.097710  1.0  -0.6129
  O  O1194  1  0.732200  0.563600  0.148500  1.0  -0.6016
  O  O1195  1  0.725800  0.417100  0.096690  1.0  -0.6416
  O  O1196  1  0.945000  0.584100  0.236300  1.0  -0.6155
  O  O1197  1  0.944100  0.522400  0.205940  1.0  -0.6351
  O  O1198  1  0.749500  0.305300  0.021010  1.0  -0.6106
  O  O1199  1  0.787500  0.497700  0.154360  1.0  -0.6179
  O  O1200  1  0.687900  0.303000  0.989820  1.0  -0.6159
  O  O1201  1  0.342100  0.026900  0.097710  1.0  -0.6129
  O  O1202  1  0.267800  0.936400  0.148500  1.0  -0.6012
  O  O1203  1  0.274200  0.082900  0.096690  1.0  -0.642
  O  O1204  1  0.055000  0.915900  0.236300  1.0  -0.6157
  O  O1205  1  0.055900  0.977600  0.205940  1.0  -0.6375
  O  O1206  1  0.250500  0.194700  0.021010  1.0  -0.6085
  O  O1207  1  0.212500  0.002300  0.154360  1.0  -0.6164
  O  O1208  1  0.312100  0.197000  0.989820  1.0  -0.6137
  O  O1209  1  0.842100  0.526900  0.597710  1.0  -0.6129
  O  O1210  1  0.767800  0.436400  0.648500  1.0  -0.6012
  O  O1211  1  0.774200  0.582900  0.596690  1.0  -0.642
  O  O1212  1  0.555000  0.415900  0.736300  1.0  -0.6157
  O  O1213  1  0.555900  0.477600  0.705940  1.0  -0.6375
  O  O1214  1  0.750500  0.694700  0.521010  1.0  -0.6085
  O  O1215  1  0.712500  0.502300  0.654360  1.0  -0.6164
  O  O1216  1  0.812100  0.697000  0.489820  1.0  -0.6137
  O  O1217  1  0.776900  0.592100  0.652290  1.0  -0.6131
  O  O1218  1  0.686400  0.517800  0.601500  1.0  -0.6011
  O  O1219  1  0.832900  0.524200  0.653310  1.0  -0.6414
  O  O1220  1  0.665900  0.305000  0.513700  1.0  -0.6149
  O  O1221  1  0.727600  0.305900  0.544060  1.0  -0.6368
  O  O1222  1  0.944700  0.500500  0.728990  1.0  -0.6089
  O  O1223  1  0.752300  0.462500  0.595640  1.0  -0.6165
  O  O1224  1  0.947000  0.562100  0.760180  1.0  -0.6153
  O  O1225  1  0.276900  0.092100  0.152290  1.0  -0.6131
  O  O1226  1  0.186400  0.017800  0.101500  1.0  -0.6011
  O  O1227  1  0.332900  0.024200  0.153310  1.0  -0.6414
  O  O1228  1  0.165900  0.805000  0.013700  1.0  -0.6149
  O  O1229  1  0.227600  0.805900  0.044060  1.0  -0.6368
  O  O1230  1  0.444700  0.000500  0.228990  1.0  -0.6089
  O  O1231  1  0.252300  0.962500  0.095640  1.0  -0.6165
  O  O1232  1  0.447000  0.062100  0.260180  1.0  -0.6153
  O  O1233  1  0.723100  0.407900  0.152290  1.0  -0.6125
  O  O1234  1  0.813600  0.482200  0.101500  1.0  -0.6007
  O  O1235  1  0.667100  0.475800  0.153310  1.0  -0.6429
  O  O1236  1  0.834100  0.695000  0.013700  1.0  -0.6147
  O  O1237  1  0.772400  0.694100  0.044060  1.0  -0.636
  O  O1238  1  0.555300  0.499500  0.228990  1.0  -0.6092
  O  O1239  1  0.747700  0.537500  0.095640  1.0  -0.6157
  O  O1240  1  0.553000  0.437900  0.260180  1.0  -0.6145
  O  O1241  1  0.223100  0.907900  0.652290  1.0  -0.6125
  O  O1242  1  0.313600  0.982200  0.601500  1.0  -0.6007
  O  O1243  1  0.167100  0.975800  0.653310  1.0  -0.6429
  O  O1244  1  0.334100  0.195000  0.513700  1.0  -0.6147
  O  O1245  1  0.272400  0.194100  0.544060  1.0  -0.636
  O  O1246  1  0.055300  0.999500  0.728990  1.0  -0.6092
  O  O1247  1  0.247700  0.037500  0.595640  1.0  -0.6157
  O  O1248  1  0.053000  0.937900  0.760180  1.0  -0.6145
  O  O1249  1  0.342100  0.973100  0.902290  1.0  -0.6126
  O  O1250  1  0.267800  0.063600  0.851500  1.0  -0.6011
  O  O1251  1  0.274200  0.917100  0.903310  1.0  -0.6407
  O  O1252  1  0.055000  0.084100  0.763700  1.0  -0.6166
  O  O1253  1  0.055900  0.022400  0.794060  1.0  -0.6364
  O  O1254  1  0.250500  0.805300  0.978990  1.0  -0.6076
  O  O1255  1  0.212500  0.997700  0.845640  1.0  -0.6176
  O  O1256  1  0.312100  0.803000  0.010180  1.0  -0.6139
  O  O1257  1  0.842100  0.473100  0.402290  1.0  -0.6126
  O  O1258  1  0.767800  0.563600  0.351500  1.0  -0.6011
  O  O1259  1  0.774200  0.417100  0.403310  1.0  -0.6407
  O  O1260  1  0.555000  0.584100  0.263700  1.0  -0.6166
  O  O1261  1  0.555900  0.522400  0.294060  1.0  -0.6364
  O  O1262  1  0.750500  0.305300  0.478990  1.0  -0.6076
  O  O1263  1  0.712500  0.497700  0.345640  1.0  -0.6176
  O  O1264  1  0.812100  0.303000  0.510180  1.0  -0.6139
  O  O1265  1  0.157900  0.026900  0.402290  1.0  -0.6128
  O  O1266  1  0.232200  0.936400  0.351500  1.0  -0.6008
  O  O1267  1  0.225800  0.082900  0.403310  1.0  -0.6417
  O  O1268  1  0.445000  0.915900  0.263700  1.0  -0.6148
  O  O1269  1  0.444100  0.977600  0.294060  1.0  -0.6371
  O  O1270  1  0.249500  0.194700  0.478990  1.0  -0.6096
  O  O1271  1  0.287500  0.002300  0.345640  1.0  -0.6166
  O  O1272  1  0.187900  0.197000  0.510180  1.0  -0.6154
  O  O1273  1  0.657900  0.526900  0.902290  1.0  -0.6128
  O  O1274  1  0.732200  0.436400  0.851500  1.0  -0.6008
  O  O1275  1  0.725800  0.582900  0.903310  1.0  -0.6417
  O  O1276  1  0.945000  0.415900  0.763700  1.0  -0.6148
  O  O1277  1  0.944100  0.477600  0.794060  1.0  -0.6371
  O  O1278  1  0.749500  0.694700  0.978990  1.0  -0.6096
  O  O1279  1  0.787500  0.502300  0.845640  1.0  -0.6166
  O  O1280  1  0.687900  0.697000  0.010180  1.0  -0.6154
