# generated using pymatgen
data_Cu2H9C19(NO4)2
_symmetry_space_group_name_H-M   'P 1'
_cell_length_a   25.41170000
_cell_length_b   25.41170000
_cell_length_c   52.16200000
_cell_angle_alpha   90.00000000
_cell_angle_beta   90.00000000
_cell_angle_gamma   90.00000000
_symmetry_Int_Tables_number   1
_chemical_formula_structural   Cu2H9C19(NO4)2
_chemical_formula_sum   'Cu64 H288 C608 N64 O256'
_cell_volume   33683.84606678
_cell_formula_units_Z   32
loop_
 _symmetry_equiv_pos_site_id
 _symmetry_equiv_pos_as_xyz
  1  'x, y, z'
loop_
 _atom_site_type_symbol
 _atom_site_label
 _atom_site_symmetry_multiplicity
 _atom_site_fract_x
 _atom_site_fract_y
 _atom_site_fract_z
 _atom_site_occupancy
 _atom_site_charge
  Cu  Cu1  1  0.223380  0.451680  0.126140  1.0  0.9339
  Cu  Cu2  1  0.723380  0.951680  0.626140  1.0  0.9339
  Cu  Cu3  1  0.276620  0.548320  0.626140  1.0  0.932
  Cu  Cu4  1  0.776620  0.048320  0.126140  1.0  0.932
  Cu  Cu5  1  0.798320  0.973380  0.376140  1.0  0.9322
  Cu  Cu6  1  0.298320  0.473380  0.876140  1.0  0.9322
  Cu  Cu7  1  0.701680  0.026620  0.876140  1.0  0.9334
  Cu  Cu8  1  0.201680  0.526620  0.376140  1.0  0.9334
  Cu  Cu9  1  0.276620  0.451680  0.373860  1.0  0.9322
  Cu  Cu10  1  0.776620  0.951680  0.873860  1.0  0.9322
  Cu  Cu11  1  0.223380  0.548320  0.873860  1.0  0.933
  Cu  Cu12  1  0.723380  0.048320  0.373860  1.0  0.933
  Cu  Cu13  1  0.701680  0.973380  0.123860  1.0  0.9343
  Cu  Cu14  1  0.201680  0.473380  0.623860  1.0  0.9343
  Cu  Cu15  1  0.798320  0.026620  0.623860  1.0  0.9323
  Cu  Cu16  1  0.298320  0.526620  0.123860  1.0  0.9323
  Cu  Cu17  1  0.776620  0.548320  0.873860  1.0  0.9322
  Cu  Cu18  1  0.276620  0.048320  0.373860  1.0  0.9322
  Cu  Cu19  1  0.723380  0.451680  0.373860  1.0  0.9338
  Cu  Cu20  1  0.223380  0.951680  0.873860  1.0  0.9338
  Cu  Cu21  1  0.201680  0.026620  0.623860  1.0  0.9333
  Cu  Cu22  1  0.701680  0.526620  0.123860  1.0  0.9333
  Cu  Cu23  1  0.298320  0.973380  0.123860  1.0  0.9324
  Cu  Cu24  1  0.798320  0.473380  0.623860  1.0  0.9324
  Cu  Cu25  1  0.723380  0.548320  0.626140  1.0  0.9331
  Cu  Cu26  1  0.223380  0.048320  0.126140  1.0  0.9331
  Cu  Cu27  1  0.776620  0.451680  0.126140  1.0  0.9319
  Cu  Cu28  1  0.276620  0.951680  0.626140  1.0  0.9319
  Cu  Cu29  1  0.298320  0.026620  0.876140  1.0  0.9322
  Cu  Cu30  1  0.798320  0.526620  0.376140  1.0  0.9322
  Cu  Cu31  1  0.201680  0.973380  0.376140  1.0  0.9344
  Cu  Cu32  1  0.701680  0.473380  0.876140  1.0  0.9344
  Cu  Cu33  1  0.000000  0.544790  0.261830  1.0  0.8872
  Cu  Cu34  1  0.000000  0.471530  0.225360  1.0  0.8971
  Cu  Cu35  1  0.500000  0.044790  0.761830  1.0  0.8872
  Cu  Cu36  1  0.500000  0.971530  0.725360  1.0  0.8971
  Cu  Cu37  1  0.500000  0.455210  0.761830  1.0  0.8862
  Cu  Cu38  1  0.500000  0.528470  0.725360  1.0  0.8959
  Cu  Cu39  1  0.000000  0.955210  0.261830  1.0  0.8862
  Cu  Cu40  1  0.000000  0.028470  0.225360  1.0  0.8959
  Cu  Cu41  1  0.705210  0.750000  0.511830  1.0  0.8875
  Cu  Cu42  1  0.778470  0.750000  0.475360  1.0  0.897
  Cu  Cu43  1  0.794790  0.250000  0.011830  1.0  0.8876
  Cu  Cu44  1  0.721530  0.250000  0.975360  1.0  0.8983
  Cu  Cu45  1  0.500000  0.544790  0.238170  1.0  0.8861
  Cu  Cu46  1  0.500000  0.471530  0.274640  1.0  0.8963
  Cu  Cu47  1  0.000000  0.044790  0.738170  1.0  0.8861
  Cu  Cu48  1  0.000000  0.971530  0.774640  1.0  0.8963
  Cu  Cu49  1  0.000000  0.455210  0.738170  1.0  0.8865
  Cu  Cu50  1  0.000000  0.528470  0.774640  1.0  0.8967
  Cu  Cu51  1  0.500000  0.955210  0.238170  1.0  0.8865
  Cu  Cu52  1  0.500000  0.028470  0.274640  1.0  0.8967
  Cu  Cu53  1  0.794790  0.750000  0.988170  1.0  0.8868
  Cu  Cu54  1  0.721530  0.750000  0.024640  1.0  0.8972
  Cu  Cu55  1  0.705210  0.250000  0.488170  1.0  0.8878
  Cu  Cu56  1  0.778470  0.250000  0.524640  1.0  0.8974
  Cu  Cu57  1  0.294790  0.250000  0.488170  1.0  0.8868
  Cu  Cu58  1  0.221530  0.250000  0.524640  1.0  0.8972
  Cu  Cu59  1  0.205210  0.750000  0.988170  1.0  0.8878
  Cu  Cu60  1  0.278470  0.750000  0.024640  1.0  0.8974
  Cu  Cu61  1  0.205210  0.250000  0.011830  1.0  0.8875
  Cu  Cu62  1  0.278470  0.250000  0.975360  1.0  0.897
  Cu  Cu63  1  0.294790  0.750000  0.511830  1.0  0.8876
  Cu  Cu64  1  0.221530  0.750000  0.475360  1.0  0.8983
  H  H65  1  0.130800  0.522600  0.184900  1.0  0.0967
  H  H66  1  0.104600  0.360200  0.259100  1.0  0.1174
  H  H67  1  0.203800  0.345700  0.319000  1.0  0.1124
  H  H68  1  0.121100  0.478500  0.309100  1.0  0.108
  H  H69  1  0.188700  0.298500  0.241300  1.0  0.1129
  H  H70  1  0.116100  0.653800  0.227500  1.0  0.1177
  H  H71  1  0.233900  0.641700  0.175900  1.0  0.1221
  H  H72  1  0.270700  0.701100  0.219200  1.0  0.1167
  H  H73  1  0.630800  0.022600  0.684900  1.0  0.0967
  H  H74  1  0.604600  0.860200  0.759100  1.0  0.1174
  H  H75  1  0.703800  0.845700  0.819000  1.0  0.1124
  H  H76  1  0.621100  0.978500  0.809100  1.0  0.108
  H  H77  1  0.688700  0.798500  0.741300  1.0  0.1129
  H  H78  1  0.616100  0.153800  0.727500  1.0  0.1177
  H  H79  1  0.733900  0.141700  0.675900  1.0  0.1221
  H  H80  1  0.770700  0.201100  0.719200  1.0  0.1167
  H  H81  1  0.369200  0.477400  0.684900  1.0  0.0966
  H  H82  1  0.395400  0.639800  0.759100  1.0  0.1173
  H  H83  1  0.296200  0.654300  0.819000  1.0  0.1132
  H  H84  1  0.378900  0.521500  0.809100  1.0  0.1076
  H  H85  1  0.311300  0.701500  0.741300  1.0  0.1121
  H  H86  1  0.383900  0.346200  0.727500  1.0  0.1176
  H  H87  1  0.266100  0.358300  0.675900  1.0  0.1223
  H  H88  1  0.229300  0.298900  0.719200  1.0  0.1166
  H  H89  1  0.869200  0.977400  0.184900  1.0  0.0966
  H  H90  1  0.895400  0.139800  0.259100  1.0  0.1173
  H  H91  1  0.796200  0.154300  0.319000  1.0  0.1132
  H  H92  1  0.878900  0.021500  0.309100  1.0  0.1076
  H  H93  1  0.811300  0.201500  0.241300  1.0  0.1121
  H  H94  1  0.883900  0.846200  0.227500  1.0  0.1176
  H  H95  1  0.766100  0.858300  0.175900  1.0  0.1223
  H  H96  1  0.729300  0.798900  0.219200  1.0  0.1166
  H  H97  1  0.727400  0.880800  0.434900  1.0  0.096
  H  H98  1  0.889800  0.854600  0.509100  1.0  0.1174
  H  H99  1  0.904300  0.953800  0.569000  1.0  0.1131
  H  H100  1  0.771500  0.871100  0.559100  1.0  0.1074
  H  H101  1  0.951500  0.938700  0.491300  1.0  0.1128
  H  H102  1  0.596200  0.866100  0.477500  1.0  0.1187
  H  H103  1  0.608300  0.983900  0.425900  1.0  0.1218
  H  H104  1  0.548900  0.020700  0.469200  1.0  0.1171
  H  H105  1  0.227400  0.380800  0.934900  1.0  0.096
  H  H106  1  0.389800  0.354600  0.009100  1.0  0.1174
  H  H107  1  0.404300  0.453800  0.069000  1.0  0.1131
  H  H108  1  0.271500  0.371100  0.059100  1.0  0.1074
  H  H109  1  0.451500  0.438700  0.991300  1.0  0.1128
  H  H110  1  0.096200  0.366100  0.977500  1.0  0.1187
  H  H111  1  0.108300  0.483900  0.925900  1.0  0.1218
  H  H112  1  0.048900  0.520700  0.969200  1.0  0.1171
  H  H113  1  0.772600  0.119200  0.934900  1.0  0.0965
  H  H114  1  0.610200  0.145400  0.009100  1.0  0.1174
  H  H115  1  0.595700  0.046200  0.069000  1.0  0.1129
  H  H116  1  0.728500  0.128900  0.059100  1.0  0.1064
  H  H117  1  0.548500  0.061300  0.991300  1.0  0.1131
  H  H118  1  0.903800  0.133900  0.977500  1.0  0.118
  H  H119  1  0.891700  0.016100  0.925900  1.0  0.1215
  H  H120  1  0.951100  0.979300  0.969200  1.0  0.1175
  H  H121  1  0.272600  0.619200  0.434900  1.0  0.0965
  H  H122  1  0.110200  0.645400  0.509100  1.0  0.1174
  H  H123  1  0.095700  0.546200  0.569000  1.0  0.1129
  H  H124  1  0.228500  0.628900  0.559100  1.0  0.1064
  H  H125  1  0.048500  0.561300  0.491300  1.0  0.1131
  H  H126  1  0.403800  0.633900  0.477500  1.0  0.118
  H  H127  1  0.391700  0.516100  0.425900  1.0  0.1215
  H  H128  1  0.451100  0.479300  0.469200  1.0  0.1175
  H  H129  1  0.369200  0.522600  0.315100  1.0  0.0971
  H  H130  1  0.395400  0.360200  0.240900  1.0  0.1177
  H  H131  1  0.296200  0.345700  0.181000  1.0  0.1127
  H  H132  1  0.378900  0.478500  0.190900  1.0  0.1073
  H  H133  1  0.311300  0.298500  0.258700  1.0  0.1127
  H  H134  1  0.383900  0.653800  0.272500  1.0  0.117
  H  H135  1  0.266100  0.641700  0.324100  1.0  0.1219
  H  H136  1  0.229300  0.701100  0.280800  1.0  0.1165
  H  H137  1  0.869200  0.022600  0.815100  1.0  0.0971
  H  H138  1  0.895400  0.860200  0.740900  1.0  0.1177
  H  H139  1  0.796200  0.845700  0.681000  1.0  0.1127
  H  H140  1  0.878900  0.978500  0.690900  1.0  0.1073
  H  H141  1  0.811300  0.798500  0.758700  1.0  0.1127
  H  H142  1  0.883900  0.153800  0.772500  1.0  0.117
  H  H143  1  0.766100  0.141700  0.824100  1.0  0.1219
  H  H144  1  0.729300  0.201100  0.780800  1.0  0.1165
  H  H145  1  0.130800  0.477400  0.815100  1.0  0.0966
  H  H146  1  0.104600  0.639800  0.740900  1.0  0.1179
  H  H147  1  0.203800  0.654300  0.681000  1.0  0.1126
  H  H148  1  0.121100  0.521500  0.690900  1.0  0.1076
  H  H149  1  0.188700  0.701500  0.758700  1.0  0.1129
  H  H150  1  0.116100  0.346200  0.772500  1.0  0.1172
  H  H151  1  0.233900  0.358300  0.824100  1.0  0.1218
  H  H152  1  0.270700  0.298900  0.780800  1.0  0.1174
  H  H153  1  0.630800  0.977400  0.315100  1.0  0.0966
  H  H154  1  0.604600  0.139800  0.240900  1.0  0.1179
  H  H155  1  0.703800  0.154300  0.181000  1.0  0.1126
  H  H156  1  0.621100  0.021500  0.190900  1.0  0.1076
  H  H157  1  0.688700  0.201500  0.258700  1.0  0.1129
  H  H158  1  0.616100  0.846200  0.272500  1.0  0.1172
  H  H159  1  0.733900  0.858300  0.324100  1.0  0.1218
  H  H160  1  0.770700  0.798900  0.280800  1.0  0.1174
  H  H161  1  0.772600  0.880800  0.065100  1.0  0.0967
  H  H162  1  0.610200  0.854600  0.990900  1.0  0.1181
  H  H163  1  0.595700  0.953800  0.931000  1.0  0.1134
  H  H164  1  0.728500  0.871100  0.940900  1.0  0.1062
  H  H165  1  0.548500  0.938700  0.008700  1.0  0.113
  H  H166  1  0.903800  0.866100  0.022500  1.0  0.1179
  H  H167  1  0.891700  0.983900  0.074100  1.0  0.1215
  H  H168  1  0.951100  0.020700  0.030800  1.0  0.1181
  H  H169  1  0.272600  0.380800  0.565100  1.0  0.0967
  H  H170  1  0.110200  0.354600  0.490900  1.0  0.1181
  H  H171  1  0.095700  0.453800  0.431000  1.0  0.1134
  H  H172  1  0.228500  0.371100  0.440900  1.0  0.1062
  H  H173  1  0.048500  0.438700  0.508700  1.0  0.113
  H  H174  1  0.403800  0.366100  0.522500  1.0  0.1179
  H  H175  1  0.391700  0.483900  0.574100  1.0  0.1215
  H  H176  1  0.451100  0.520700  0.530800  1.0  0.1181
  H  H177  1  0.727400  0.119200  0.565100  1.0  0.0962
  H  H178  1  0.889800  0.145400  0.490900  1.0  0.1179
  H  H179  1  0.904300  0.046200  0.431000  1.0  0.1128
  H  H180  1  0.771500  0.128900  0.440900  1.0  0.1073
  H  H181  1  0.951500  0.061300  0.508700  1.0  0.1134
  H  H182  1  0.596200  0.133900  0.522500  1.0  0.1177
  H  H183  1  0.608300  0.016100  0.574100  1.0  0.1213
  H  H184  1  0.548900  0.979300  0.530800  1.0  0.1174
  H  H185  1  0.227400  0.619200  0.065100  1.0  0.0962
  H  H186  1  0.389800  0.645400  0.990900  1.0  0.1179
  H  H187  1  0.404300  0.546200  0.931000  1.0  0.1128
  H  H188  1  0.271500  0.628900  0.940900  1.0  0.1073
  H  H189  1  0.451500  0.561300  0.008700  1.0  0.1134
  H  H190  1  0.096200  0.633900  0.022500  1.0  0.1177
  H  H191  1  0.108300  0.516100  0.074100  1.0  0.1213
  H  H192  1  0.048900  0.479300  0.030800  1.0  0.1174
  H  H193  1  0.869200  0.477400  0.815100  1.0  0.0966
  H  H194  1  0.895400  0.639800  0.740900  1.0  0.1176
  H  H195  1  0.796200  0.654300  0.681000  1.0  0.113
  H  H196  1  0.878900  0.521500  0.690900  1.0  0.1077
  H  H197  1  0.811300  0.701500  0.758700  1.0  0.1124
  H  H198  1  0.883900  0.346200  0.772500  1.0  0.1172
  H  H199  1  0.766100  0.358300  0.824100  1.0  0.1223
  H  H200  1  0.729300  0.298900  0.780800  1.0  0.1167
  H  H201  1  0.369200  0.977400  0.315100  1.0  0.0966
  H  H202  1  0.395400  0.139800  0.240900  1.0  0.1176
  H  H203  1  0.296200  0.154300  0.181000  1.0  0.113
  H  H204  1  0.378900  0.021500  0.190900  1.0  0.1077
  H  H205  1  0.311300  0.201500  0.258700  1.0  0.1124
  H  H206  1  0.383900  0.846200  0.272500  1.0  0.1172
  H  H207  1  0.266100  0.858300  0.324100  1.0  0.1223
  H  H208  1  0.229300  0.798900  0.280800  1.0  0.1167
  H  H209  1  0.630800  0.522600  0.315100  1.0  0.0967
  H  H210  1  0.604600  0.360200  0.240900  1.0  0.1183
  H  H211  1  0.703800  0.345700  0.181000  1.0  0.1125
  H  H212  1  0.621100  0.478500  0.190900  1.0  0.1079
  H  H213  1  0.688700  0.298500  0.258700  1.0  0.1132
  H  H214  1  0.616100  0.653800  0.272500  1.0  0.1171
  H  H215  1  0.733900  0.641700  0.324100  1.0  0.1218
  H  H216  1  0.770700  0.701100  0.280800  1.0  0.1171
  H  H217  1  0.130800  0.022600  0.815100  1.0  0.0967
  H  H218  1  0.104600  0.860200  0.740900  1.0  0.1183
  H  H219  1  0.203800  0.845700  0.681000  1.0  0.1125
  H  H220  1  0.121100  0.978500  0.690900  1.0  0.1079
  H  H221  1  0.188700  0.798500  0.758700  1.0  0.1132
  H  H222  1  0.116100  0.153800  0.772500  1.0  0.1171
  H  H223  1  0.233900  0.141700  0.824100  1.0  0.1218
  H  H224  1  0.270700  0.201100  0.780800  1.0  0.1171
  H  H225  1  0.272600  0.119200  0.565100  1.0  0.0964
  H  H226  1  0.110200  0.145400  0.490900  1.0  0.118
  H  H227  1  0.095700  0.046200  0.431000  1.0  0.1126
  H  H228  1  0.228500  0.128900  0.440900  1.0  0.1065
  H  H229  1  0.048500  0.061300  0.508700  1.0  0.1131
  H  H230  1  0.403800  0.133900  0.522500  1.0  0.1173
  H  H231  1  0.391700  0.016100  0.574100  1.0  0.1213
  H  H232  1  0.451100  0.979300  0.530800  1.0  0.1173
  H  H233  1  0.772600  0.619200  0.065100  1.0  0.0964
  H  H234  1  0.610200  0.645400  0.990900  1.0  0.118
  H  H235  1  0.595700  0.546200  0.931000  1.0  0.1126
  H  H236  1  0.728500  0.628900  0.940900  1.0  0.1065
  H  H237  1  0.548500  0.561300  0.008700  1.0  0.1131
  H  H238  1  0.903800  0.633900  0.022500  1.0  0.1173
  H  H239  1  0.891700  0.516100  0.074100  1.0  0.1213
  H  H240  1  0.951100  0.479300  0.030800  1.0  0.1173
  H  H241  1  0.227400  0.880800  0.065100  1.0  0.0959
  H  H242  1  0.389800  0.854600  0.990900  1.0  0.1179
  H  H243  1  0.404300  0.953800  0.931000  1.0  0.1129
  H  H244  1  0.271500  0.871100  0.940900  1.0  0.1072
  H  H245  1  0.451500  0.938700  0.008700  1.0  0.1133
  H  H246  1  0.096200  0.866100  0.022500  1.0  0.118
  H  H247  1  0.108300  0.983900  0.074100  1.0  0.1217
  H  H248  1  0.048900  0.020700  0.030800  1.0  0.1174
  H  H249  1  0.727400  0.380800  0.565100  1.0  0.0959
  H  H250  1  0.889800  0.354600  0.490900  1.0  0.1179
  H  H251  1  0.904300  0.453800  0.431000  1.0  0.1129
  H  H252  1  0.771500  0.371100  0.440900  1.0  0.1072
  H  H253  1  0.951500  0.438700  0.508700  1.0  0.1133
  H  H254  1  0.596200  0.366100  0.522500  1.0  0.118
  H  H255  1  0.608300  0.483900  0.574100  1.0  0.1217
  H  H256  1  0.548900  0.520700  0.530800  1.0  0.1174
  H  H257  1  0.630800  0.477400  0.684900  1.0  0.0967
  H  H258  1  0.604600  0.639800  0.759100  1.0  0.1172
  H  H259  1  0.703800  0.654300  0.819000  1.0  0.1125
  H  H260  1  0.621100  0.521500  0.809100  1.0  0.1078
  H  H261  1  0.688700  0.701500  0.741300  1.0  0.1124
  H  H262  1  0.616100  0.346200  0.727500  1.0  0.1179
  H  H263  1  0.733900  0.358300  0.675900  1.0  0.1218
  H  H264  1  0.770700  0.298900  0.719200  1.0  0.1168
  H  H265  1  0.130800  0.977400  0.184900  1.0  0.0967
  H  H266  1  0.104600  0.139800  0.259100  1.0  0.1172
  H  H267  1  0.203800  0.154300  0.319000  1.0  0.1125
  H  H268  1  0.121100  0.021500  0.309100  1.0  0.1078
  H  H269  1  0.188700  0.201500  0.241300  1.0  0.1124
  H  H270  1  0.116100  0.846200  0.227500  1.0  0.1179
  H  H271  1  0.233900  0.858300  0.175900  1.0  0.1218
  H  H272  1  0.270700  0.798900  0.219200  1.0  0.1168
  H  H273  1  0.869200  0.522600  0.184900  1.0  0.0971
  H  H274  1  0.895400  0.360200  0.259100  1.0  0.1172
  H  H275  1  0.796200  0.345700  0.319000  1.0  0.113
  H  H276  1  0.878900  0.478500  0.309100  1.0  0.1076
  H  H277  1  0.811300  0.298500  0.241300  1.0  0.1125
  H  H278  1  0.883900  0.653800  0.227500  1.0  0.1174
  H  H279  1  0.766100  0.641700  0.175900  1.0  0.1221
  H  H280  1  0.729300  0.701100  0.219200  1.0  0.1165
  H  H281  1  0.369200  0.022600  0.684900  1.0  0.0971
  H  H282  1  0.395400  0.860200  0.759100  1.0  0.1172
  H  H283  1  0.296200  0.845700  0.819000  1.0  0.113
  H  H284  1  0.378900  0.978500  0.809100  1.0  0.1076
  H  H285  1  0.311300  0.798500  0.741300  1.0  0.1125
  H  H286  1  0.383900  0.153800  0.727500  1.0  0.1174
  H  H287  1  0.266100  0.141700  0.675900  1.0  0.1221
  H  H288  1  0.229300  0.201100  0.719200  1.0  0.1165
  H  H289  1  0.227400  0.119200  0.934900  1.0  0.0965
  H  H290  1  0.389800  0.145400  0.009100  1.0  0.1175
  H  H291  1  0.404300  0.046200  0.069000  1.0  0.1129
  H  H292  1  0.271500  0.128900  0.059100  1.0  0.1071
  H  H293  1  0.451500  0.061300  0.991300  1.0  0.1132
  H  H294  1  0.096200  0.133900  0.977500  1.0  0.1183
  H  H295  1  0.108300  0.016100  0.925900  1.0  0.1214
  H  H296  1  0.048900  0.979300  0.969200  1.0  0.1174
  H  H297  1  0.727400  0.619200  0.434900  1.0  0.0965
  H  H298  1  0.889800  0.645400  0.509100  1.0  0.1175
  H  H299  1  0.904300  0.546200  0.569000  1.0  0.1129
  H  H300  1  0.771500  0.628900  0.559100  1.0  0.1071
  H  H301  1  0.951500  0.561300  0.491300  1.0  0.1132
  H  H302  1  0.596200  0.633900  0.477500  1.0  0.1183
  H  H303  1  0.608300  0.516100  0.425900  1.0  0.1214
  H  H304  1  0.548900  0.479300  0.469200  1.0  0.1174
  H  H305  1  0.272600  0.880800  0.434900  1.0  0.0966
  H  H306  1  0.110200  0.854600  0.509100  1.0  0.1174
  H  H307  1  0.095700  0.953800  0.569000  1.0  0.1135
  H  H308  1  0.228500  0.871100  0.559100  1.0  0.1064
  H  H309  1  0.048500  0.938700  0.491300  1.0  0.1127
  H  H310  1  0.403800  0.866100  0.477500  1.0  0.1184
  H  H311  1  0.391700  0.983900  0.425900  1.0  0.1215
  H  H312  1  0.451100  0.020700  0.469200  1.0  0.1177
  H  H313  1  0.772600  0.380800  0.934900  1.0  0.0966
  H  H314  1  0.610200  0.354600  0.009100  1.0  0.1174
  H  H315  1  0.595700  0.453800  0.069000  1.0  0.1135
  H  H316  1  0.728500  0.371100  0.059100  1.0  0.1064
  H  H317  1  0.548500  0.438700  0.991300  1.0  0.1127
  H  H318  1  0.903800  0.366100  0.977500  1.0  0.1184
  H  H319  1  0.891700  0.483900  0.925900  1.0  0.1215
  H  H320  1  0.951100  0.520700  0.969200  1.0  0.1177
  H  H321  1  0.143800  0.250000  0.312700  1.0  0.1339
  H  H322  1  0.356200  0.750000  0.812700  1.0  0.1329
  H  H323  1  0.000000  0.893800  0.562700  1.0  0.1327
  H  H324  1  0.500000  0.393800  0.062700  1.0  0.1327
  H  H325  1  0.500000  0.106200  0.062700  1.0  0.1328
  H  H326  1  0.000000  0.606200  0.562700  1.0  0.1328
  H  H327  1  0.356200  0.250000  0.187300  1.0  0.1324
  H  H328  1  0.143800  0.750000  0.687300  1.0  0.1329
  H  H329  1  0.643800  0.250000  0.187300  1.0  0.1329
  H  H330  1  0.500000  0.893800  0.937300  1.0  0.1317
  H  H331  1  0.000000  0.393800  0.437300  1.0  0.1317
  H  H332  1  0.000000  0.106200  0.437300  1.0  0.132
  H  H333  1  0.500000  0.606200  0.937300  1.0  0.132
  H  H334  1  0.856200  0.750000  0.687300  1.0  0.1324
  H  H335  1  0.643800  0.750000  0.812700  1.0  0.1339
  H  H336  1  0.856200  0.250000  0.312700  1.0  0.1329
  H  H337  1  0.130100  0.750000  0.195200  1.0  0.1198
  H  H338  1  0.369900  0.250000  0.695200  1.0  0.1201
  H  H339  1  0.500000  0.880100  0.445200  1.0  0.1221
  H  H340  1  0.000000  0.380100  0.945200  1.0  0.1221
  H  H341  1  0.000000  0.119900  0.945200  1.0  0.1217
  H  H342  1  0.500000  0.619900  0.445200  1.0  0.1217
  H  H343  1  0.369900  0.750000  0.304800  1.0  0.1197
  H  H344  1  0.130100  0.250000  0.804800  1.0  0.12
  H  H345  1  0.000000  0.880100  0.054800  1.0  0.1221
  H  H346  1  0.500000  0.380100  0.554800  1.0  0.1221
  H  H347  1  0.500000  0.119900  0.554800  1.0  0.1216
  H  H348  1  0.000000  0.619900  0.054800  1.0  0.1216
  H  H349  1  0.869900  0.250000  0.804800  1.0  0.1197
  H  H350  1  0.630100  0.750000  0.304800  1.0  0.12
  H  H351  1  0.630100  0.250000  0.695200  1.0  0.1198
  H  H352  1  0.869900  0.750000  0.195200  1.0  0.1201
  C  C353  1  0.216530  0.544180  0.158770  1.0  0.6977
  C  C354  1  0.166580  0.415100  0.317000  1.0  -0.1173
  C  C355  1  0.188530  0.575930  0.178160  1.0  -0.1777
  C  C356  1  0.143490  0.556200  0.189930  1.0  -0.0172
  C  C357  1  0.117110  0.583010  0.208260  1.0  -0.16
  C  C358  1  0.071280  0.558520  0.221310  1.0  0.6619
  C  C359  1  0.069130  0.455810  0.266630  1.0  0.6845
  C  C360  1  0.108100  0.424410  0.281530  1.0  -0.1021
  C  C361  1  0.120570  0.375070  0.273850  1.0  -0.1199
  C  C362  1  0.157220  0.346390  0.288060  1.0  0.1673
  C  C363  1  0.179410  0.366080  0.309390  1.0  -0.1059
  C  C364  1  0.130540  0.444310  0.303370  1.0  0.0057
  C  C365  1  0.180800  0.276260  0.255380  1.0  -0.0653
  C  C366  1  0.133810  0.633910  0.214700  1.0  -0.1035
  C  C367  1  0.176480  0.654150  0.201970  1.0  0.1381
  C  C368  1  0.204240  0.626470  0.184100  1.0  -0.1542
  C  C369  1  0.242110  0.723470  0.214780  1.0  -0.0968
  C  C370  1  0.193130  0.440370  0.339900  1.0  0.6742
  C  C371  1  0.716530  0.044180  0.658770  1.0  0.6977
  C  C372  1  0.666580  0.915100  0.817000  1.0  -0.1173
  C  C373  1  0.688530  0.075930  0.678160  1.0  -0.1777
  C  C374  1  0.643490  0.056200  0.689930  1.0  -0.0172
  C  C375  1  0.617110  0.083010  0.708260  1.0  -0.16
  C  C376  1  0.571280  0.058520  0.721310  1.0  0.6619
  C  C377  1  0.569130  0.955810  0.766630  1.0  0.6845
  C  C378  1  0.608100  0.924410  0.781530  1.0  -0.1021
  C  C379  1  0.620570  0.875070  0.773850  1.0  -0.1199
  C  C380  1  0.657220  0.846390  0.788060  1.0  0.1673
  C  C381  1  0.679410  0.866080  0.809390  1.0  -0.1059
  C  C382  1  0.630540  0.944310  0.803370  1.0  0.0057
  C  C383  1  0.680800  0.776260  0.755380  1.0  -0.0653
  C  C384  1  0.633810  0.133910  0.714700  1.0  -0.1035
  C  C385  1  0.676480  0.154150  0.701970  1.0  0.1381
  C  C386  1  0.704240  0.126470  0.684100  1.0  -0.1542
  C  C387  1  0.742110  0.223470  0.714780  1.0  -0.0968
  C  C388  1  0.693130  0.940370  0.839900  1.0  0.6742
  C  C389  1  0.283470  0.455820  0.658770  1.0  0.6979
  C  C390  1  0.333420  0.584900  0.817000  1.0  -0.1165
  C  C391  1  0.311470  0.424070  0.678160  1.0  -0.178
  C  C392  1  0.356510  0.443800  0.689930  1.0  -0.0179
  C  C393  1  0.382890  0.416990  0.708260  1.0  -0.1609
  C  C394  1  0.428720  0.441480  0.721310  1.0  0.6618
  C  C395  1  0.430870  0.544190  0.766630  1.0  0.684
  C  C396  1  0.391900  0.575590  0.781530  1.0  -0.1029
  C  C397  1  0.379430  0.624930  0.773850  1.0  -0.1193
  C  C398  1  0.342780  0.653610  0.788060  1.0  0.167
  C  C399  1  0.320590  0.633920  0.809390  1.0  -0.1058
  C  C400  1  0.369460  0.555690  0.803370  1.0  0.0062
  C  C401  1  0.319200  0.723740  0.755380  1.0  -0.0655
  C  C402  1  0.366190  0.366090  0.714700  1.0  -0.1027
  C  C403  1  0.323520  0.345850  0.701970  1.0  0.1381
  C  C404  1  0.295760  0.373530  0.684100  1.0  -0.1541
  C  C405  1  0.257890  0.276530  0.714780  1.0  -0.0999
  C  C406  1  0.306870  0.559630  0.839900  1.0  0.6737
  C  C407  1  0.783470  0.955820  0.158770  1.0  0.6979
  C  C408  1  0.833420  0.084900  0.317000  1.0  -0.1165
  C  C409  1  0.811470  0.924070  0.178160  1.0  -0.178
  C  C410  1  0.856510  0.943800  0.189930  1.0  -0.0179
  C  C411  1  0.882890  0.916990  0.208260  1.0  -0.1609
  C  C412  1  0.928720  0.941480  0.221310  1.0  0.6618
  C  C413  1  0.930870  0.044190  0.266630  1.0  0.684
  C  C414  1  0.891900  0.075590  0.281530  1.0  -0.1029
  C  C415  1  0.879430  0.124930  0.273850  1.0  -0.1193
  C  C416  1  0.842780  0.153610  0.288060  1.0  0.167
  C  C417  1  0.820590  0.133920  0.309390  1.0  -0.1058
  C  C418  1  0.869460  0.055690  0.303370  1.0  0.0062
  C  C419  1  0.819200  0.223740  0.255380  1.0  -0.0655
  C  C420  1  0.866190  0.866090  0.214700  1.0  -0.1027
  C  C421  1  0.823520  0.845850  0.201970  1.0  0.1381
  C  C422  1  0.795760  0.873530  0.184100  1.0  -0.1541
  C  C423  1  0.757890  0.776530  0.214780  1.0  -0.0999
  C  C424  1  0.806870  0.059630  0.339900  1.0  0.6737
  C  C425  1  0.705820  0.966530  0.408770  1.0  0.6976
  C  C426  1  0.834900  0.916580  0.567000  1.0  -0.1166
  C  C427  1  0.674070  0.938530  0.428160  1.0  -0.1776
  C  C428  1  0.693800  0.893490  0.439930  1.0  -0.0167
  C  C429  1  0.666990  0.867110  0.458260  1.0  -0.1593
  C  C430  1  0.691480  0.821280  0.471310  1.0  0.6618
  C  C431  1  0.794190  0.819130  0.516630  1.0  0.6847
  C  C432  1  0.825590  0.858100  0.531530  1.0  -0.1028
  C  C433  1  0.874930  0.870570  0.523850  1.0  -0.1193
  C  C434  1  0.903610  0.907220  0.538060  1.0  0.1675
  C  C435  1  0.883920  0.929410  0.559390  1.0  -0.1069
  C  C436  1  0.805690  0.880540  0.553370  1.0  0.0064
  C  C437  1  0.973740  0.930800  0.505380  1.0  -0.0651
  C  C438  1  0.616090  0.883810  0.464700  1.0  -0.1033
  C  C439  1  0.595850  0.926480  0.451970  1.0  0.1384
  C  C440  1  0.623530  0.954240  0.434100  1.0  -0.1538
  C  C441  1  0.526530  0.992110  0.464780  1.0  -0.0983
  C  C442  1  0.809630  0.943130  0.589900  1.0  0.6733
  C  C443  1  0.205820  0.466530  0.908770  1.0  0.6976
  C  C444  1  0.334900  0.416580  0.067000  1.0  -0.1166
  C  C445  1  0.174070  0.438530  0.928160  1.0  -0.1776
  C  C446  1  0.193800  0.393490  0.939930  1.0  -0.0167
  C  C447  1  0.166990  0.367110  0.958260  1.0  -0.1593
  C  C448  1  0.191480  0.321280  0.971310  1.0  0.6618
  C  C449  1  0.294190  0.319130  0.016630  1.0  0.6847
  C  C450  1  0.325590  0.358100  0.031530  1.0  -0.1028
  C  C451  1  0.374930  0.370570  0.023850  1.0  -0.1193
  C  C452  1  0.403610  0.407220  0.038060  1.0  0.1675
  C  C453  1  0.383920  0.429410  0.059390  1.0  -0.1069
  C  C454  1  0.305690  0.380540  0.053370  1.0  0.0064
  C  C455  1  0.473740  0.430800  0.005380  1.0  -0.0651
  C  C456  1  0.116090  0.383810  0.964700  1.0  -0.1033
  C  C457  1  0.095850  0.426480  0.951970  1.0  0.1384
  C  C458  1  0.123530  0.454240  0.934100  1.0  -0.1538
  C  C459  1  0.026530  0.492110  0.964780  1.0  -0.0983
  C  C460  1  0.309630  0.443130  0.089900  1.0  0.6733
  C  C461  1  0.794180  0.033470  0.908770  1.0  0.6975
  C  C462  1  0.665100  0.083420  0.067000  1.0  -0.117
  C  C463  1  0.825930  0.061470  0.928160  1.0  -0.1781
  C  C464  1  0.806200  0.106510  0.939930  1.0  -0.0175
  C  C465  1  0.833010  0.132890  0.958260  1.0  -0.1594
  C  C466  1  0.808520  0.178720  0.971310  1.0  0.6614
  C  C467  1  0.705810  0.180870  0.016630  1.0  0.6843
  C  C468  1  0.674410  0.141900  0.031530  1.0  -0.1043
  C  C469  1  0.625070  0.129430  0.023850  1.0  -0.1197
  C  C470  1  0.596390  0.092780  0.038060  1.0  0.1674
  C  C471  1  0.616080  0.070590  0.059390  1.0  -0.1068
  C  C472  1  0.694310  0.119460  0.053370  1.0  0.0074
  C  C473  1  0.526260  0.069200  0.005380  1.0  -0.0657
  C  C474  1  0.883910  0.116190  0.964700  1.0  -0.103
  C  C475  1  0.904150  0.073520  0.951970  1.0  0.1385
  C  C476  1  0.876470  0.045760  0.934100  1.0  -0.1527
  C  C477  1  0.973470  0.007890  0.964780  1.0  -0.0992
  C  C478  1  0.690370  0.056870  0.089900  1.0  0.6734
  C  C479  1  0.294180  0.533470  0.408770  1.0  0.6975
  C  C480  1  0.165100  0.583420  0.567000  1.0  -0.117
  C  C481  1  0.325930  0.561470  0.428160  1.0  -0.1781
  C  C482  1  0.306200  0.606510  0.439930  1.0  -0.0175
  C  C483  1  0.333010  0.632890  0.458260  1.0  -0.1594
  C  C484  1  0.308520  0.678720  0.471310  1.0  0.6614
  C  C485  1  0.205810  0.680870  0.516630  1.0  0.6843
  C  C486  1  0.174410  0.641900  0.531530  1.0  -0.1043
  C  C487  1  0.125070  0.629430  0.523850  1.0  -0.1197
  C  C488  1  0.096390  0.592780  0.538060  1.0  0.1674
  C  C489  1  0.116080  0.570590  0.559390  1.0  -0.1068
  C  C490  1  0.194310  0.619460  0.553370  1.0  0.0074
  C  C491  1  0.026260  0.569200  0.505380  1.0  -0.0657
  C  C492  1  0.383910  0.616190  0.464700  1.0  -0.103
  C  C493  1  0.404150  0.573520  0.451970  1.0  0.1385
  C  C494  1  0.376470  0.545760  0.434100  1.0  -0.1527
  C  C495  1  0.473470  0.507890  0.464780  1.0  -0.0992
  C  C496  1  0.190370  0.556870  0.589900  1.0  0.6734
  C  C497  1  0.283470  0.544180  0.341230  1.0  0.6982
  C  C498  1  0.333420  0.415100  0.183000  1.0  -0.1169
  C  C499  1  0.311470  0.575930  0.321840  1.0  -0.1786
  C  C500  1  0.356510  0.556200  0.310070  1.0  -0.0171
  C  C501  1  0.382890  0.583010  0.291740  1.0  -0.1603
  C  C502  1  0.428720  0.558520  0.278690  1.0  0.6615
  C  C503  1  0.430870  0.455810  0.233370  1.0  0.6843
  C  C504  1  0.391900  0.424410  0.218470  1.0  -0.1028
  C  C505  1  0.379430  0.375070  0.226150  1.0  -0.1198
  C  C506  1  0.342780  0.346390  0.211940  1.0  0.1672
  C  C507  1  0.320590  0.366080  0.190610  1.0  -0.1053
  C  C508  1  0.369460  0.444310  0.196630  1.0  0.0067
  C  C509  1  0.319200  0.276260  0.244620  1.0  -0.0668
  C  C510  1  0.366190  0.633910  0.285300  1.0  -0.1021
  C  C511  1  0.323520  0.654150  0.298030  1.0  0.1381
  C  C512  1  0.295760  0.626470  0.315900  1.0  -0.1532
  C  C513  1  0.257890  0.723470  0.285220  1.0  -0.0993
  C  C514  1  0.306870  0.440370  0.160100  1.0  0.6743
  C  C515  1  0.783470  0.044180  0.841230  1.0  0.6982
  C  C516  1  0.833420  0.915100  0.683000  1.0  -0.1169
  C  C517  1  0.811470  0.075930  0.821840  1.0  -0.1786
  C  C518  1  0.856510  0.056200  0.810070  1.0  -0.0171
  C  C519  1  0.882890  0.083010  0.791740  1.0  -0.1603
  C  C520  1  0.928720  0.058520  0.778690  1.0  0.6615
  C  C521  1  0.930870  0.955810  0.733370  1.0  0.6843
  C  C522  1  0.891900  0.924410  0.718470  1.0  -0.1028
  C  C523  1  0.879430  0.875070  0.726150  1.0  -0.1198
  C  C524  1  0.842780  0.846390  0.711940  1.0  0.1672
  C  C525  1  0.820590  0.866080  0.690610  1.0  -0.1053
  C  C526  1  0.869460  0.944310  0.696630  1.0  0.0067
  C  C527  1  0.819200  0.776260  0.744620  1.0  -0.0668
  C  C528  1  0.866190  0.133910  0.785300  1.0  -0.1021
  C  C529  1  0.823520  0.154150  0.798030  1.0  0.1381
  C  C530  1  0.795760  0.126470  0.815900  1.0  -0.1532
  C  C531  1  0.757890  0.223470  0.785220  1.0  -0.0993
  C  C532  1  0.806870  0.940370  0.660100  1.0  0.6743
  C  C533  1  0.216530  0.455820  0.841230  1.0  0.6978
  C  C534  1  0.166580  0.584900  0.683000  1.0  -0.1169
  C  C535  1  0.188530  0.424070  0.821840  1.0  -0.1784
  C  C536  1  0.143490  0.443800  0.810070  1.0  -0.0177
  C  C537  1  0.117110  0.416990  0.791740  1.0  -0.1599
  C  C538  1  0.071280  0.441480  0.778690  1.0  0.6619
  C  C539  1  0.069130  0.544190  0.733370  1.0  0.6846
  C  C540  1  0.108100  0.575590  0.718470  1.0  -0.1024
  C  C541  1  0.120570  0.624930  0.726150  1.0  -0.1198
  C  C542  1  0.157220  0.653610  0.711940  1.0  0.1669
  C  C543  1  0.179410  0.633920  0.690610  1.0  -0.1057
  C  C544  1  0.130540  0.555690  0.696630  1.0  0.0065
  C  C545  1  0.180800  0.723740  0.744620  1.0  -0.0661
  C  C546  1  0.133810  0.366090  0.785300  1.0  -0.1026
  C  C547  1  0.176480  0.345850  0.798030  1.0  0.1379
  C  C548  1  0.204240  0.373530  0.815900  1.0  -0.1532
  C  C549  1  0.242110  0.276530  0.785220  1.0  -0.0957
  C  C550  1  0.193130  0.559630  0.660100  1.0  0.6735
  C  C551  1  0.716530  0.955820  0.341230  1.0  0.6978
  C  C552  1  0.666580  0.084900  0.183000  1.0  -0.1169
  C  C553  1  0.688530  0.924070  0.321840  1.0  -0.1784
  C  C554  1  0.643490  0.943800  0.310070  1.0  -0.0177
  C  C555  1  0.617110  0.916990  0.291740  1.0  -0.1599
  C  C556  1  0.571280  0.941480  0.278690  1.0  0.6619
  C  C557  1  0.569130  0.044190  0.233370  1.0  0.6846
  C  C558  1  0.608100  0.075590  0.218470  1.0  -0.1024
  C  C559  1  0.620570  0.124930  0.226150  1.0  -0.1198
  C  C560  1  0.657220  0.153610  0.211940  1.0  0.1669
  C  C561  1  0.679410  0.133920  0.190610  1.0  -0.1057
  C  C562  1  0.630540  0.055690  0.196630  1.0  0.0065
  C  C563  1  0.680800  0.223740  0.244620  1.0  -0.0661
  C  C564  1  0.633810  0.866090  0.285300  1.0  -0.1026
  C  C565  1  0.676480  0.845850  0.298030  1.0  0.1379
  C  C566  1  0.704240  0.873530  0.315900  1.0  -0.1532
  C  C567  1  0.742110  0.776530  0.285220  1.0  -0.0957
  C  C568  1  0.693130  0.059630  0.160100  1.0  0.6735
  C  C569  1  0.794180  0.966530  0.091230  1.0  0.6979
  C  C570  1  0.665100  0.916580  0.933000  1.0  -0.1165
  C  C571  1  0.825930  0.938530  0.071840  1.0  -0.1785
  C  C572  1  0.806200  0.893490  0.060070  1.0  -0.0173
  C  C573  1  0.833010  0.867110  0.041740  1.0  -0.1592
  C  C574  1  0.808520  0.821280  0.028690  1.0  0.6615
  C  C575  1  0.705810  0.819130  0.983370  1.0  0.6844
  C  C576  1  0.674410  0.858100  0.968470  1.0  -0.1036
  C  C577  1  0.625070  0.870570  0.976150  1.0  -0.1205
  C  C578  1  0.596390  0.907220  0.961940  1.0  0.1673
  C  C579  1  0.616080  0.929410  0.940610  1.0  -0.1073
  C  C580  1  0.694310  0.880540  0.946630  1.0  0.0083
  C  C581  1  0.526260  0.930800  0.994620  1.0  -0.0659
  C  C582  1  0.883910  0.883810  0.035300  1.0  -0.103
  C  C583  1  0.904150  0.926480  0.048030  1.0  0.1385
  C  C584  1  0.876470  0.954240  0.065900  1.0  -0.1515
  C  C585  1  0.973470  0.992110  0.035220  1.0  -0.0983
  C  C586  1  0.690370  0.943130  0.910100  1.0  0.6732
  C  C587  1  0.294180  0.466530  0.591230  1.0  0.6979
  C  C588  1  0.165100  0.416580  0.433000  1.0  -0.1165
  C  C589  1  0.325930  0.438530  0.571840  1.0  -0.1785
  C  C590  1  0.306200  0.393490  0.560070  1.0  -0.0173
  C  C591  1  0.333010  0.367110  0.541740  1.0  -0.1592
  C  C592  1  0.308520  0.321280  0.528690  1.0  0.6615
  C  C593  1  0.205810  0.319130  0.483370  1.0  0.6844
  C  C594  1  0.174410  0.358100  0.468470  1.0  -0.1036
  C  C595  1  0.125070  0.370570  0.476150  1.0  -0.1205
  C  C596  1  0.096390  0.407220  0.461940  1.0  0.1673
  C  C597  1  0.116080  0.429410  0.440610  1.0  -0.1073
  C  C598  1  0.194310  0.380540  0.446630  1.0  0.0083
  C  C599  1  0.026260  0.430800  0.494620  1.0  -0.0659
  C  C600  1  0.383910  0.383810  0.535300  1.0  -0.103
  C  C601  1  0.404150  0.426480  0.548030  1.0  0.1385
  C  C602  1  0.376470  0.454240  0.565900  1.0  -0.1515
  C  C603  1  0.473470  0.492110  0.535220  1.0  -0.0983
  C  C604  1  0.190370  0.443130  0.410100  1.0  0.6732
  C  C605  1  0.705820  0.033470  0.591230  1.0  0.6976
  C  C606  1  0.834900  0.083420  0.433000  1.0  -0.117
  C  C607  1  0.674070  0.061470  0.571840  1.0  -0.1779
  C  C608  1  0.693800  0.106510  0.560070  1.0  -0.0171
  C  C609  1  0.666990  0.132890  0.541740  1.0  -0.159
  C  C610  1  0.691480  0.178720  0.528690  1.0  0.6617
  C  C611  1  0.794190  0.180870  0.483370  1.0  0.6847
  C  C612  1  0.825590  0.141900  0.468470  1.0  -0.103
  C  C613  1  0.874930  0.129430  0.476150  1.0  -0.1188
  C  C614  1  0.903610  0.092780  0.461940  1.0  0.1674
  C  C615  1  0.883920  0.070590  0.440610  1.0  -0.1065
  C  C616  1  0.805690  0.119460  0.446630  1.0  0.006
  C  C617  1  0.973740  0.069200  0.494620  1.0  -0.0669
  C  C618  1  0.616090  0.116190  0.535300  1.0  -0.1021
  C  C619  1  0.595850  0.073520  0.548030  1.0  0.1381
  C  C620  1  0.623530  0.045760  0.565900  1.0  -0.1527
  C  C621  1  0.526530  0.007890  0.535220  1.0  -0.0983
  C  C622  1  0.809630  0.056870  0.410100  1.0  0.6732
  C  C623  1  0.205820  0.533470  0.091230  1.0  0.6976
  C  C624  1  0.334900  0.583420  0.933000  1.0  -0.117
  C  C625  1  0.174070  0.561470  0.071840  1.0  -0.1779
  C  C626  1  0.193800  0.606510  0.060070  1.0  -0.0171
  C  C627  1  0.166990  0.632890  0.041740  1.0  -0.159
  C  C628  1  0.191480  0.678720  0.028690  1.0  0.6617
  C  C629  1  0.294190  0.680870  0.983370  1.0  0.6847
  C  C630  1  0.325590  0.641900  0.968470  1.0  -0.103
  C  C631  1  0.374930  0.629430  0.976150  1.0  -0.1188
  C  C632  1  0.403610  0.592780  0.961940  1.0  0.1674
  C  C633  1  0.383920  0.570590  0.940610  1.0  -0.1065
  C  C634  1  0.305690  0.619460  0.946630  1.0  0.006
  C  C635  1  0.473740  0.569200  0.994620  1.0  -0.0669
  C  C636  1  0.116090  0.616190  0.035300  1.0  -0.1021
  C  C637  1  0.095850  0.573520  0.048030  1.0  0.1381
  C  C638  1  0.123530  0.545760  0.065900  1.0  -0.1527
  C  C639  1  0.026530  0.507890  0.035220  1.0  -0.0983
  C  C640  1  0.309630  0.556870  0.910100  1.0  0.6732
  C  C641  1  0.783470  0.455820  0.841230  1.0  0.6981
  C  C642  1  0.833420  0.584900  0.683000  1.0  -0.1172
  C  C643  1  0.811470  0.424070  0.821840  1.0  -0.1785
  C  C644  1  0.856510  0.443800  0.810070  1.0  -0.0181
  C  C645  1  0.882890  0.416990  0.791740  1.0  -0.1604
  C  C646  1  0.928720  0.441480  0.778690  1.0  0.6617
  C  C647  1  0.930870  0.544190  0.733370  1.0  0.6842
  C  C648  1  0.891900  0.575590  0.718470  1.0  -0.1028
  C  C649  1  0.879430  0.624930  0.726150  1.0  -0.1192
  C  C650  1  0.842780  0.653610  0.711940  1.0  0.1669
  C  C651  1  0.820590  0.633920  0.690610  1.0  -0.1057
  C  C652  1  0.869460  0.555690  0.696630  1.0  0.0063
  C  C653  1  0.819200  0.723740  0.744620  1.0  -0.0655
  C  C654  1  0.866190  0.366090  0.785300  1.0  -0.1022
  C  C655  1  0.823520  0.345850  0.798030  1.0  0.138
  C  C656  1  0.795760  0.373530  0.815900  1.0  -0.1535
  C  C657  1  0.757890  0.276530  0.785220  1.0  -0.0977
  C  C658  1  0.806870  0.559630  0.660100  1.0  0.6737
  C  C659  1  0.283470  0.955820  0.341230  1.0  0.6981
  C  C660  1  0.333420  0.084900  0.183000  1.0  -0.1172
  C  C661  1  0.311470  0.924070  0.321840  1.0  -0.1785
  C  C662  1  0.356510  0.943800  0.310070  1.0  -0.0181
  C  C663  1  0.382890  0.916990  0.291740  1.0  -0.1604
  C  C664  1  0.428720  0.941480  0.278690  1.0  0.6617
  C  C665  1  0.430870  0.044190  0.233370  1.0  0.6842
  C  C666  1  0.391900  0.075590  0.218470  1.0  -0.1028
  C  C667  1  0.379430  0.124930  0.226150  1.0  -0.1192
  C  C668  1  0.342780  0.153610  0.211940  1.0  0.1669
  C  C669  1  0.320590  0.133920  0.190610  1.0  -0.1057
  C  C670  1  0.369460  0.055690  0.196630  1.0  0.0063
  C  C671  1  0.319200  0.223740  0.244620  1.0  -0.0655
  C  C672  1  0.366190  0.866090  0.285300  1.0  -0.1022
  C  C673  1  0.323520  0.845850  0.298030  1.0  0.138
  C  C674  1  0.295760  0.873530  0.315900  1.0  -0.1535
  C  C675  1  0.257890  0.776530  0.285220  1.0  -0.0977
  C  C676  1  0.306870  0.059630  0.160100  1.0  0.6737
  C  C677  1  0.716530  0.544180  0.341230  1.0  0.6978
  C  C678  1  0.666580  0.415100  0.183000  1.0  -0.1167
  C  C679  1  0.688530  0.575930  0.321840  1.0  -0.1782
  C  C680  1  0.643490  0.556200  0.310070  1.0  -0.0171
  C  C681  1  0.617110  0.583010  0.291740  1.0  -0.16
  C  C682  1  0.571280  0.558520  0.278690  1.0  0.6618
  C  C683  1  0.569130  0.455810  0.233370  1.0  0.6845
  C  C684  1  0.608100  0.424410  0.218470  1.0  -0.102
  C  C685  1  0.620570  0.375070  0.226150  1.0  -0.1206
  C  C686  1  0.657220  0.346390  0.211940  1.0  0.1673
  C  C687  1  0.679410  0.366080  0.190610  1.0  -0.1055
  C  C688  1  0.630540  0.444310  0.196630  1.0  0.0063
  C  C689  1  0.680800  0.276260  0.244620  1.0  -0.0646
  C  C690  1  0.633810  0.633910  0.285300  1.0  -0.1025
  C  C691  1  0.676480  0.654150  0.298030  1.0  0.138
  C  C692  1  0.704240  0.626470  0.315900  1.0  -0.153
  C  C693  1  0.742110  0.723470  0.285220  1.0  -0.0945
  C  C694  1  0.693130  0.440370  0.160100  1.0  0.6741
  C  C695  1  0.216530  0.044180  0.841230  1.0  0.6978
  C  C696  1  0.166580  0.915100  0.683000  1.0  -0.1167
  C  C697  1  0.188530  0.075930  0.821840  1.0  -0.1782
  C  C698  1  0.143490  0.056200  0.810070  1.0  -0.0171
  C  C699  1  0.117110  0.083010  0.791740  1.0  -0.16
  C  C700  1  0.071280  0.058520  0.778690  1.0  0.6618
  C  C701  1  0.069130  0.955810  0.733370  1.0  0.6845
  C  C702  1  0.108100  0.924410  0.718470  1.0  -0.102
  C  C703  1  0.120570  0.875070  0.726150  1.0  -0.1206
  C  C704  1  0.157220  0.846390  0.711940  1.0  0.1673
  C  C705  1  0.179410  0.866080  0.690610  1.0  -0.1055
  C  C706  1  0.130540  0.944310  0.696630  1.0  0.0063
  C  C707  1  0.180800  0.776260  0.744620  1.0  -0.0646
  C  C708  1  0.133810  0.133910  0.785300  1.0  -0.1025
  C  C709  1  0.176480  0.154150  0.798030  1.0  0.138
  C  C710  1  0.204240  0.126470  0.815900  1.0  -0.153
  C  C711  1  0.242110  0.223470  0.785220  1.0  -0.0945
  C  C712  1  0.193130  0.940370  0.660100  1.0  0.6741
  C  C713  1  0.294180  0.033470  0.591230  1.0  0.6977
  C  C714  1  0.165100  0.083420  0.433000  1.0  -0.1168
  C  C715  1  0.325930  0.061470  0.571840  1.0  -0.1784
  C  C716  1  0.306200  0.106510  0.560070  1.0  -0.0175
  C  C717  1  0.333010  0.132890  0.541740  1.0  -0.1591
  C  C718  1  0.308520  0.178720  0.528690  1.0  0.6614
  C  C719  1  0.205810  0.180870  0.483370  1.0  0.6843
  C  C720  1  0.174410  0.141900  0.468470  1.0  -0.1044
  C  C721  1  0.125070  0.129430  0.476150  1.0  -0.12
  C  C722  1  0.096390  0.092780  0.461940  1.0  0.1673
  C  C723  1  0.116080  0.070590  0.440610  1.0  -0.1069
  C  C724  1  0.194310  0.119460  0.446630  1.0  0.0077
  C  C725  1  0.026260  0.069200  0.494620  1.0  -0.0648
  C  C726  1  0.383910  0.116190  0.535300  1.0  -0.1023
  C  C727  1  0.404150  0.073520  0.548030  1.0  0.1384
  C  C728  1  0.376470  0.045760  0.565900  1.0  -0.1517
  C  C729  1  0.473470  0.007890  0.535220  1.0  -0.097
  C  C730  1  0.190370  0.056870  0.410100  1.0  0.6733
  C  C731  1  0.794180  0.533470  0.091230  1.0  0.6977
  C  C732  1  0.665100  0.583420  0.933000  1.0  -0.1168
  C  C733  1  0.825930  0.561470  0.071840  1.0  -0.1784
  C  C734  1  0.806200  0.606510  0.060070  1.0  -0.0175
  C  C735  1  0.833010  0.632890  0.041740  1.0  -0.1591
  C  C736  1  0.808520  0.678720  0.028690  1.0  0.6614
  C  C737  1  0.705810  0.680870  0.983370  1.0  0.6843
  C  C738  1  0.674410  0.641900  0.968470  1.0  -0.1044
  C  C739  1  0.625070  0.629430  0.976150  1.0  -0.12
  C  C740  1  0.596390  0.592780  0.961940  1.0  0.1673
  C  C741  1  0.616080  0.570590  0.940610  1.0  -0.1069
  C  C742  1  0.694310  0.619460  0.946630  1.0  0.0077
  C  C743  1  0.526260  0.569200  0.994620  1.0  -0.0648
  C  C744  1  0.883910  0.616190  0.035300  1.0  -0.1023
  C  C745  1  0.904150  0.573520  0.048030  1.0  0.1384
  C  C746  1  0.876470  0.545760  0.065900  1.0  -0.1517
  C  C747  1  0.973470  0.507890  0.035220  1.0  -0.097
  C  C748  1  0.690370  0.556870  0.910100  1.0  0.6733
  C  C749  1  0.205820  0.966530  0.091230  1.0  0.6979
  C  C750  1  0.334900  0.916580  0.933000  1.0  -0.1167
  C  C751  1  0.174070  0.938530  0.071840  1.0  -0.1783
  C  C752  1  0.193800  0.893490  0.060070  1.0  -0.0169
  C  C753  1  0.166990  0.867110  0.041740  1.0  -0.1591
  C  C754  1  0.191480  0.821280  0.028690  1.0  0.6617
  C  C755  1  0.294190  0.819130  0.983370  1.0  0.6847
  C  C756  1  0.325590  0.858100  0.968470  1.0  -0.1027
  C  C757  1  0.374930  0.870570  0.976150  1.0  -0.1192
  C  C758  1  0.403610  0.907220  0.961940  1.0  0.1674
  C  C759  1  0.383920  0.929410  0.940610  1.0  -0.1068
  C  C760  1  0.305690  0.880540  0.946630  1.0  0.0062
  C  C761  1  0.473740  0.930800  0.994620  1.0  -0.0658
  C  C762  1  0.116090  0.883810  0.035300  1.0  -0.1026
  C  C763  1  0.095850  0.926480  0.048030  1.0  0.1383
  C  C764  1  0.123530  0.954240  0.065900  1.0  -0.1526
  C  C765  1  0.026530  0.992110  0.035220  1.0  -0.0959
  C  C766  1  0.309630  0.943130  0.910100  1.0  0.6733
  C  C767  1  0.705820  0.466530  0.591230  1.0  0.6979
  C  C768  1  0.834900  0.416580  0.433000  1.0  -0.1167
  C  C769  1  0.674070  0.438530  0.571840  1.0  -0.1783
  C  C770  1  0.693800  0.393490  0.560070  1.0  -0.0169
  C  C771  1  0.666990  0.367110  0.541740  1.0  -0.1591
  C  C772  1  0.691480  0.321280  0.528690  1.0  0.6617
  C  C773  1  0.794190  0.319130  0.483370  1.0  0.6847
  C  C774  1  0.825590  0.358100  0.468470  1.0  -0.1027
  C  C775  1  0.874930  0.370570  0.476150  1.0  -0.1192
  C  C776  1  0.903610  0.407220  0.461940  1.0  0.1674
  C  C777  1  0.883920  0.429410  0.440610  1.0  -0.1068
  C  C778  1  0.805690  0.380540  0.446630  1.0  0.0062
  C  C779  1  0.973740  0.430800  0.494620  1.0  -0.0658
  C  C780  1  0.616090  0.383810  0.535300  1.0  -0.1026
  C  C781  1  0.595850  0.426480  0.548030  1.0  0.1383
  C  C782  1  0.623530  0.454240  0.565900  1.0  -0.1526
  C  C783  1  0.526530  0.492110  0.535220  1.0  -0.0959
  C  C784  1  0.809630  0.443130  0.410100  1.0  0.6733
  C  C785  1  0.716530  0.455820  0.658770  1.0  0.6976
  C  C786  1  0.666580  0.584900  0.817000  1.0  -0.1167
  C  C787  1  0.688530  0.424070  0.678160  1.0  -0.1778
  C  C788  1  0.643490  0.443800  0.689930  1.0  -0.0174
  C  C789  1  0.617110  0.416990  0.708260  1.0  -0.16
  C  C790  1  0.571280  0.441480  0.721310  1.0  0.6621
  C  C791  1  0.569130  0.544190  0.766630  1.0  0.6845
  C  C792  1  0.608100  0.575590  0.781530  1.0  -0.1025
  C  C793  1  0.620570  0.624930  0.773850  1.0  -0.1194
  C  C794  1  0.657220  0.653610  0.788060  1.0  0.167
  C  C795  1  0.679410  0.633920  0.809390  1.0  -0.1057
  C  C796  1  0.630540  0.555690  0.803370  1.0  0.0063
  C  C797  1  0.680800  0.723740  0.755380  1.0  -0.064
  C  C798  1  0.633810  0.366090  0.714700  1.0  -0.1036
  C  C799  1  0.676480  0.345850  0.701970  1.0  0.138
  C  C800  1  0.704240  0.373530  0.684100  1.0  -0.154
  C  C801  1  0.742110  0.276530  0.714780  1.0  -0.095
  C  C802  1  0.693130  0.559630  0.839900  1.0  0.6736
  C  C803  1  0.216530  0.955820  0.158770  1.0  0.6976
  C  C804  1  0.166580  0.084900  0.317000  1.0  -0.1167
  C  C805  1  0.188530  0.924070  0.178160  1.0  -0.1778
  C  C806  1  0.143490  0.943800  0.189930  1.0  -0.0174
  C  C807  1  0.117110  0.916990  0.208260  1.0  -0.16
  C  C808  1  0.071280  0.941480  0.221310  1.0  0.6621
  C  C809  1  0.069130  0.044190  0.266630  1.0  0.6845
  C  C810  1  0.108100  0.075590  0.281530  1.0  -0.1025
  C  C811  1  0.120570  0.124930  0.273850  1.0  -0.1194
  C  C812  1  0.157220  0.153610  0.288060  1.0  0.167
  C  C813  1  0.179410  0.133920  0.309390  1.0  -0.1057
  C  C814  1  0.130540  0.055690  0.303370  1.0  0.0063
  C  C815  1  0.180800  0.223740  0.255380  1.0  -0.064
  C  C816  1  0.133810  0.866090  0.214700  1.0  -0.1036
  C  C817  1  0.176480  0.845850  0.201970  1.0  0.138
  C  C818  1  0.204240  0.873530  0.184100  1.0  -0.154
  C  C819  1  0.242110  0.776530  0.214780  1.0  -0.095
  C  C820  1  0.193130  0.059630  0.339900  1.0  0.6736
  C  C821  1  0.783470  0.544180  0.158770  1.0  0.6981
  C  C822  1  0.833420  0.415100  0.317000  1.0  -0.1171
  C  C823  1  0.811470  0.575930  0.178160  1.0  -0.1782
  C  C824  1  0.856510  0.556200  0.189930  1.0  -0.0172
  C  C825  1  0.882890  0.583010  0.208260  1.0  -0.1608
  C  C826  1  0.928720  0.558520  0.221310  1.0  0.6616
  C  C827  1  0.930870  0.455810  0.266630  1.0  0.6842
  C  C828  1  0.891900  0.424410  0.281530  1.0  -0.1029
  C  C829  1  0.879430  0.375070  0.273850  1.0  -0.1198
  C  C830  1  0.842780  0.346390  0.288060  1.0  0.1673
  C  C831  1  0.820590  0.366080  0.309390  1.0  -0.1057
  C  C832  1  0.869460  0.444310  0.303370  1.0  0.0064
  C  C833  1  0.819200  0.276260  0.255380  1.0  -0.0644
  C  C834  1  0.866190  0.633910  0.214700  1.0  -0.1027
  C  C835  1  0.823520  0.654150  0.201970  1.0  0.1382
  C  C836  1  0.795760  0.626470  0.184100  1.0  -0.1543
  C  C837  1  0.757890  0.723470  0.214780  1.0  -0.0984
  C  C838  1  0.806870  0.440370  0.339900  1.0  0.6744
  C  C839  1  0.283470  0.044180  0.658770  1.0  0.6981
  C  C840  1  0.333420  0.915100  0.817000  1.0  -0.1171
  C  C841  1  0.311470  0.075930  0.678160  1.0  -0.1782
  C  C842  1  0.356510  0.056200  0.689930  1.0  -0.0172
  C  C843  1  0.382890  0.083010  0.708260  1.0  -0.1608
  C  C844  1  0.428720  0.058520  0.721310  1.0  0.6616
  C  C845  1  0.430870  0.955810  0.766630  1.0  0.6842
  C  C846  1  0.391900  0.924410  0.781530  1.0  -0.1029
  C  C847  1  0.379430  0.875070  0.773850  1.0  -0.1198
  C  C848  1  0.342780  0.846390  0.788060  1.0  0.1673
  C  C849  1  0.320590  0.866080  0.809390  1.0  -0.1057
  C  C850  1  0.369460  0.944310  0.803370  1.0  0.0064
  C  C851  1  0.319200  0.776260  0.755380  1.0  -0.0644
  C  C852  1  0.366190  0.133910  0.714700  1.0  -0.1027
  C  C853  1  0.323520  0.154150  0.701970  1.0  0.1382
  C  C854  1  0.295760  0.126470  0.684100  1.0  -0.1543
  C  C855  1  0.257890  0.223470  0.714780  1.0  -0.0984
  C  C856  1  0.306870  0.940370  0.839900  1.0  0.6744
  C  C857  1  0.205820  0.033470  0.908770  1.0  0.6974
  C  C858  1  0.334900  0.083420  0.067000  1.0  -0.1165
  C  C859  1  0.174070  0.061470  0.928160  1.0  -0.1773
  C  C860  1  0.193800  0.106510  0.939930  1.0  -0.017
  C  C861  1  0.166990  0.132890  0.958260  1.0  -0.1594
  C  C862  1  0.191480  0.178720  0.971310  1.0  0.6617
  C  C863  1  0.294190  0.180870  0.016630  1.0  0.6847
  C  C864  1  0.325590  0.141900  0.031530  1.0  -0.103
  C  C865  1  0.374930  0.129430  0.023850  1.0  -0.119
  C  C866  1  0.403610  0.092780  0.038060  1.0  0.1675
  C  C867  1  0.383920  0.070590  0.059390  1.0  -0.1062
  C  C868  1  0.305690  0.119460  0.053370  1.0  0.006
  C  C869  1  0.473740  0.069200  0.005380  1.0  -0.0641
  C  C870  1  0.116090  0.116190  0.964700  1.0  -0.1035
  C  C871  1  0.095850  0.073520  0.951970  1.0  0.1382
  C  C872  1  0.123530  0.045760  0.934100  1.0  -0.1533
  C  C873  1  0.026530  0.007890  0.964780  1.0  -0.0975
  C  C874  1  0.309630  0.056870  0.089900  1.0  0.6733
  C  C875  1  0.705820  0.533470  0.408770  1.0  0.6974
  C  C876  1  0.834900  0.583420  0.567000  1.0  -0.1165
  C  C877  1  0.674070  0.561470  0.428160  1.0  -0.1773
  C  C878  1  0.693800  0.606510  0.439930  1.0  -0.017
  C  C879  1  0.666990  0.632890  0.458260  1.0  -0.1594
  C  C880  1  0.691480  0.678720  0.471310  1.0  0.6617
  C  C881  1  0.794190  0.680870  0.516630  1.0  0.6847
  C  C882  1  0.825590  0.641900  0.531530  1.0  -0.103
  C  C883  1  0.874930  0.629430  0.523850  1.0  -0.119
  C  C884  1  0.903610  0.592780  0.538060  1.0  0.1675
  C  C885  1  0.883920  0.570590  0.559390  1.0  -0.1062
  C  C886  1  0.805690  0.619460  0.553370  1.0  0.006
  C  C887  1  0.973740  0.569200  0.505380  1.0  -0.0641
  C  C888  1  0.616090  0.616190  0.464700  1.0  -0.1035
  C  C889  1  0.595850  0.573520  0.451970  1.0  0.1382
  C  C890  1  0.623530  0.545760  0.434100  1.0  -0.1533
  C  C891  1  0.526530  0.507890  0.464780  1.0  -0.0975
  C  C892  1  0.809630  0.556870  0.589900  1.0  0.6733
  C  C893  1  0.294180  0.966530  0.408770  1.0  0.6977
  C  C894  1  0.165100  0.916580  0.567000  1.0  -0.117
  C  C895  1  0.325930  0.938530  0.428160  1.0  -0.1781
  C  C896  1  0.306200  0.893490  0.439930  1.0  -0.0173
  C  C897  1  0.333010  0.867110  0.458260  1.0  -0.1593
  C  C898  1  0.308520  0.821280  0.471310  1.0  0.6617
  C  C899  1  0.205810  0.819130  0.516630  1.0  0.6843
  C  C900  1  0.174410  0.858100  0.531530  1.0  -0.1034
  C  C901  1  0.125070  0.870570  0.523850  1.0  -0.1201
  C  C902  1  0.096390  0.907220  0.538060  1.0  0.1674
  C  C903  1  0.116080  0.929410  0.559390  1.0  -0.1077
  C  C904  1  0.194310  0.880540  0.553370  1.0  0.0081
  C  C905  1  0.026260  0.930800  0.505380  1.0  -0.0641
  C  C906  1  0.383910  0.883810  0.464700  1.0  -0.1031
  C  C907  1  0.404150  0.926480  0.451970  1.0  0.1386
  C  C908  1  0.376470  0.954240  0.434100  1.0  -0.1529
  C  C909  1  0.473470  0.992110  0.464780  1.0  -0.0978
  C  C910  1  0.190370  0.943130  0.589900  1.0  0.6733
  C  C911  1  0.794180  0.466530  0.908770  1.0  0.6977
  C  C912  1  0.665100  0.416580  0.067000  1.0  -0.117
  C  C913  1  0.825930  0.438530  0.928160  1.0  -0.1781
  C  C914  1  0.806200  0.393490  0.939930  1.0  -0.0173
  C  C915  1  0.833010  0.367110  0.958260  1.0  -0.1593
  C  C916  1  0.808520  0.321280  0.971310  1.0  0.6617
  C  C917  1  0.705810  0.319130  0.016630  1.0  0.6843
  C  C918  1  0.674410  0.358100  0.031530  1.0  -0.1034
  C  C919  1  0.625070  0.370570  0.023850  1.0  -0.1201
  C  C920  1  0.596390  0.407220  0.038060  1.0  0.1674
  C  C921  1  0.616080  0.429410  0.059390  1.0  -0.1077
  C  C922  1  0.694310  0.380540  0.053370  1.0  0.0081
  C  C923  1  0.526260  0.430800  0.005380  1.0  -0.0641
  C  C924  1  0.883910  0.383810  0.964700  1.0  -0.1031
  C  C925  1  0.904150  0.426480  0.951970  1.0  0.1386
  C  C926  1  0.876470  0.454240  0.934100  1.0  -0.1529
  C  C927  1  0.973470  0.492110  0.964780  1.0  -0.0978
  C  C928  1  0.690370  0.443130  0.089900  1.0  0.6733
  C  C929  1  0.156000  0.250000  0.295510  1.0  0.0616
  C  C930  1  0.344000  0.750000  0.795510  1.0  0.0626
  C  C931  1  0.000000  0.906000  0.545510  1.0  0.063
  C  C932  1  0.500000  0.406000  0.045510  1.0  0.063
  C  C933  1  0.500000  0.094000  0.045510  1.0  0.0631
  C  C934  1  0.000000  0.594000  0.545510  1.0  0.0631
  C  C935  1  0.344000  0.250000  0.204490  1.0  0.0646
  C  C936  1  0.156000  0.750000  0.704490  1.0  0.0648
  C  C937  1  0.656000  0.250000  0.204490  1.0  0.0648
  C  C938  1  0.500000  0.906000  0.954490  1.0  0.0655
  C  C939  1  0.000000  0.406000  0.454490  1.0  0.0655
  C  C940  1  0.000000  0.094000  0.454490  1.0  0.0655
  C  C941  1  0.500000  0.594000  0.954490  1.0  0.0655
  C  C942  1  0.844000  0.750000  0.704490  1.0  0.0646
  C  C943  1  0.656000  0.750000  0.795510  1.0  0.0616
  C  C944  1  0.844000  0.250000  0.295510  1.0  0.0626
  C  C945  1  0.164900  0.750000  0.201840  1.0  0.0557
  C  C946  1  0.335100  0.250000  0.701840  1.0  0.0586
  C  C947  1  0.500000  0.914900  0.451840  1.0  0.0595
  C  C948  1  0.000000  0.414900  0.951840  1.0  0.0595
  C  C949  1  0.000000  0.085100  0.951840  1.0  0.0607
  C  C950  1  0.500000  0.585100  0.451840  1.0  0.0607
  C  C951  1  0.335100  0.750000  0.298160  1.0  0.0582
  C  C952  1  0.164900  0.250000  0.798160  1.0  0.0552
  C  C953  1  0.000000  0.914900  0.048160  1.0  0.059
  C  C954  1  0.500000  0.414900  0.548160  1.0  0.059
  C  C955  1  0.500000  0.085100  0.548160  1.0  0.0593
  C  C956  1  0.000000  0.585100  0.048160  1.0  0.0593
  C  C957  1  0.835100  0.250000  0.798160  1.0  0.0582
  C  C958  1  0.664900  0.750000  0.298160  1.0  0.0552
  C  C959  1  0.664900  0.250000  0.701840  1.0  0.0557
  C  C960  1  0.835100  0.750000  0.201840  1.0  0.0586
  N  N961  1  0.166840  0.292480  0.280250  1.0  -0.0864
  N  N962  1  0.193220  0.708350  0.207250  1.0  0.0319
  N  N963  1  0.666840  0.792480  0.780250  1.0  -0.0864
  N  N964  1  0.693220  0.208350  0.707250  1.0  0.0319
  N  N965  1  0.333160  0.707520  0.780250  1.0  -0.0864
  N  N966  1  0.306780  0.291650  0.707250  1.0  0.0325
  N  N967  1  0.833160  0.207520  0.280250  1.0  -0.0864
  N  N968  1  0.806780  0.791650  0.207250  1.0  0.0325
  N  N969  1  0.957520  0.916840  0.530250  1.0  -0.0858
  N  N970  1  0.541650  0.943220  0.457250  1.0  0.0296
  N  N971  1  0.457520  0.416840  0.030250  1.0  -0.0858
  N  N972  1  0.041650  0.443220  0.957250  1.0  0.0296
  N  N973  1  0.542480  0.083160  0.030250  1.0  -0.0849
  N  N974  1  0.958350  0.056780  0.957250  1.0  0.0312
  N  N975  1  0.042480  0.583160  0.530250  1.0  -0.0849
  N  N976  1  0.458350  0.556780  0.457250  1.0  0.0312
  N  N977  1  0.333160  0.292480  0.219750  1.0  -0.086
  N  N978  1  0.306780  0.708350  0.292750  1.0  0.0323
  N  N979  1  0.833160  0.792480  0.719750  1.0  -0.086
  N  N980  1  0.806780  0.208350  0.792750  1.0  0.0323
  N  N981  1  0.166840  0.707520  0.719750  1.0  -0.0867
  N  N982  1  0.193220  0.291650  0.792750  1.0  0.0323
  N  N983  1  0.666840  0.207520  0.219750  1.0  -0.0867
  N  N984  1  0.693220  0.791650  0.292750  1.0  0.0323
  N  N985  1  0.542480  0.916840  0.969750  1.0  -0.0844
  N  N986  1  0.958350  0.943220  0.042750  1.0  0.0311
  N  N987  1  0.042480  0.416840  0.469750  1.0  -0.0844
  N  N988  1  0.458350  0.443220  0.542750  1.0  0.0311
  N  N989  1  0.957520  0.083160  0.469750  1.0  -0.0861
  N  N990  1  0.541650  0.056780  0.542750  1.0  0.0298
  N  N991  1  0.457520  0.583160  0.969750  1.0  -0.0861
  N  N992  1  0.041650  0.556780  0.042750  1.0  0.0298
  N  N993  1  0.833160  0.707520  0.719750  1.0  -0.0863
  N  N994  1  0.806780  0.291650  0.792750  1.0  0.0325
  N  N995  1  0.333160  0.207520  0.219750  1.0  -0.0863
  N  N996  1  0.306780  0.791650  0.292750  1.0  0.0325
  N  N997  1  0.666840  0.292480  0.219750  1.0  -0.0863
  N  N998  1  0.693220  0.708350  0.292750  1.0  0.0321
  N  N999  1  0.166840  0.792480  0.719750  1.0  -0.0863
  N  N1000  1  0.193220  0.208350  0.792750  1.0  0.0321
  N  N1001  1  0.042480  0.083160  0.469750  1.0  -0.0849
  N  N1002  1  0.458350  0.056780  0.542750  1.0  0.0312
  N  N1003  1  0.542480  0.583160  0.969750  1.0  -0.0849
  N  N1004  1  0.958350  0.556780  0.042750  1.0  0.0312
  N  N1005  1  0.457520  0.916840  0.969750  1.0  -0.0858
  N  N1006  1  0.041650  0.943220  0.042750  1.0  0.0296
  N  N1007  1  0.957520  0.416840  0.469750  1.0  -0.0858
  N  N1008  1  0.541650  0.443220  0.542750  1.0  0.0296
  N  N1009  1  0.666840  0.707520  0.780250  1.0  -0.0869
  N  N1010  1  0.693220  0.291650  0.707250  1.0  0.0323
  N  N1011  1  0.166840  0.207520  0.280250  1.0  -0.0869
  N  N1012  1  0.193220  0.791650  0.207250  1.0  0.0323
  N  N1013  1  0.833160  0.292480  0.280250  1.0  -0.0861
  N  N1014  1  0.806780  0.708350  0.207250  1.0  0.0321
  N  N1015  1  0.333160  0.792480  0.780250  1.0  -0.0861
  N  N1016  1  0.306780  0.208350  0.707250  1.0  0.0321
  N  N1017  1  0.457520  0.083160  0.030250  1.0  -0.0862
  N  N1018  1  0.041650  0.056780  0.957250  1.0  0.0299
  N  N1019  1  0.957520  0.583160  0.530250  1.0  -0.0862
  N  N1020  1  0.541650  0.556780  0.457250  1.0  0.0299
  N  N1021  1  0.042480  0.916840  0.530250  1.0  -0.0844
  N  N1022  1  0.458350  0.943220  0.457250  1.0  0.031
  N  N1023  1  0.542480  0.416840  0.030250  1.0  -0.0844
  N  N1024  1  0.958350  0.443220  0.957250  1.0  0.031
  O  O1025  1  0.200180  0.498790  0.154650  1.0  -0.5933
  O  O1026  1  0.054030  0.580120  0.241140  1.0  -0.5723
  O  O1027  1  0.054020  0.516810  0.211260  1.0  -0.5964
  O  O1028  1  0.053470  0.437080  0.246050  1.0  -0.5746
  O  O1029  1  0.054130  0.498740  0.276330  1.0  -0.5819
  O  O1030  1  0.231260  0.416110  0.349560  1.0  -0.5767
  O  O1031  1  0.175180  0.483850  0.347280  1.0  -0.603
  O  O1032  1  0.255380  0.565880  0.147830  1.0  -0.5764
  O  O1033  1  0.700180  0.998790  0.654650  1.0  -0.5933
  O  O1034  1  0.554030  0.080120  0.741140  1.0  -0.5723
  O  O1035  1  0.554020  0.016810  0.711260  1.0  -0.5964
  O  O1036  1  0.553470  0.937080  0.746050  1.0  -0.5746
  O  O1037  1  0.554130  0.998740  0.776330  1.0  -0.5819
  O  O1038  1  0.731260  0.916110  0.849560  1.0  -0.5767
  O  O1039  1  0.675180  0.983850  0.847280  1.0  -0.603
  O  O1040  1  0.755380  0.065880  0.647830  1.0  -0.5764
  O  O1041  1  0.299820  0.501210  0.654650  1.0  -0.5933
  O  O1042  1  0.445970  0.419880  0.741140  1.0  -0.5723
  O  O1043  1  0.445980  0.483190  0.711260  1.0  -0.5961
  O  O1044  1  0.446530  0.562920  0.746050  1.0  -0.5752
  O  O1045  1  0.445870  0.501260  0.776330  1.0  -0.582
  O  O1046  1  0.268740  0.583890  0.849560  1.0  -0.5757
  O  O1047  1  0.324820  0.516150  0.847280  1.0  -0.602
  O  O1048  1  0.244620  0.434120  0.647830  1.0  -0.5754
  O  O1049  1  0.799820  0.001210  0.154650  1.0  -0.5933
  O  O1050  1  0.945970  0.919880  0.241140  1.0  -0.5723
  O  O1051  1  0.945980  0.983190  0.211260  1.0  -0.5961
  O  O1052  1  0.946530  0.062920  0.246050  1.0  -0.5752
  O  O1053  1  0.945870  0.001260  0.276330  1.0  -0.582
  O  O1054  1  0.768740  0.083890  0.349560  1.0  -0.5757
  O  O1055  1  0.824820  0.016150  0.347280  1.0  -0.602
  O  O1056  1  0.744620  0.934120  0.147830  1.0  -0.5754
  O  O1057  1  0.751210  0.950180  0.404650  1.0  -0.5931
  O  O1058  1  0.669880  0.804030  0.491140  1.0  -0.5725
  O  O1059  1  0.733190  0.804020  0.461260  1.0  -0.5958
  O  O1060  1  0.812920  0.803470  0.496050  1.0  -0.575
  O  O1061  1  0.751260  0.804130  0.526330  1.0  -0.5817
  O  O1062  1  0.833890  0.981260  0.599560  1.0  -0.577
  O  O1063  1  0.766150  0.925180  0.597280  1.0  -0.6017
  O  O1064  1  0.684120  0.005380  0.397830  1.0  -0.5749
  O  O1065  1  0.251210  0.450180  0.904650  1.0  -0.5931
  O  O1066  1  0.169880  0.304030  0.991140  1.0  -0.5725
  O  O1067  1  0.233190  0.304020  0.961260  1.0  -0.5958
  O  O1068  1  0.312920  0.303470  0.996050  1.0  -0.575
  O  O1069  1  0.251260  0.304130  0.026330  1.0  -0.5817
  O  O1070  1  0.333890  0.481260  0.099560  1.0  -0.577
  O  O1071  1  0.266150  0.425180  0.097280  1.0  -0.6017
  O  O1072  1  0.184120  0.505380  0.897830  1.0  -0.5749
  O  O1073  1  0.748790  0.049820  0.904650  1.0  -0.5926
  O  O1074  1  0.830120  0.195970  0.991140  1.0  -0.573
  O  O1075  1  0.766810  0.195980  0.961260  1.0  -0.5945
  O  O1076  1  0.687080  0.196530  0.996050  1.0  -0.5748
  O  O1077  1  0.748740  0.195870  0.026330  1.0  -0.5827
  O  O1078  1  0.666110  0.018740  0.099560  1.0  -0.5755
  O  O1079  1  0.733850  0.074820  0.097280  1.0  -0.6019
  O  O1080  1  0.815880  0.994620  0.897830  1.0  -0.577
  O  O1081  1  0.248790  0.549820  0.404650  1.0  -0.5926
  O  O1082  1  0.330120  0.695970  0.491140  1.0  -0.573
  O  O1083  1  0.266810  0.695980  0.461260  1.0  -0.5945
  O  O1084  1  0.187080  0.696530  0.496050  1.0  -0.5748
  O  O1085  1  0.248740  0.695870  0.526330  1.0  -0.5827
  O  O1086  1  0.166110  0.518740  0.599560  1.0  -0.5755
  O  O1087  1  0.233850  0.574820  0.597280  1.0  -0.6019
  O  O1088  1  0.315880  0.494620  0.397830  1.0  -0.577
  O  O1089  1  0.299820  0.498790  0.345350  1.0  -0.5944
  O  O1090  1  0.445970  0.580120  0.258860  1.0  -0.5725
  O  O1091  1  0.445980  0.516810  0.288740  1.0  -0.5963
  O  O1092  1  0.446530  0.437080  0.253950  1.0  -0.5753
  O  O1093  1  0.445870  0.498740  0.223670  1.0  -0.5813
  O  O1094  1  0.268740  0.416110  0.150440  1.0  -0.5761
  O  O1095  1  0.324820  0.483850  0.152720  1.0  -0.6012
  O  O1096  1  0.244620  0.565880  0.352170  1.0  -0.5747
  O  O1097  1  0.799820  0.998790  0.845350  1.0  -0.5944
  O  O1098  1  0.945970  0.080120  0.758860  1.0  -0.5725
  O  O1099  1  0.945980  0.016810  0.788740  1.0  -0.5963
  O  O1100  1  0.946530  0.937080  0.753950  1.0  -0.5753
  O  O1101  1  0.945870  0.998740  0.723670  1.0  -0.5813
  O  O1102  1  0.768740  0.916110  0.650440  1.0  -0.5761
  O  O1103  1  0.824820  0.983850  0.652720  1.0  -0.6012
  O  O1104  1  0.744620  0.065880  0.852170  1.0  -0.5747
  O  O1105  1  0.200180  0.501210  0.845350  1.0  -0.5932
  O  O1106  1  0.054030  0.419880  0.758860  1.0  -0.5722
  O  O1107  1  0.054020  0.483190  0.788740  1.0  -0.5961
  O  O1108  1  0.053470  0.562920  0.753950  1.0  -0.5754
  O  O1109  1  0.054130  0.501260  0.723670  1.0  -0.5816
  O  O1110  1  0.231260  0.583890  0.650440  1.0  -0.5762
  O  O1111  1  0.175180  0.516150  0.652720  1.0  -0.6026
  O  O1112  1  0.255380  0.434120  0.852170  1.0  -0.5764
  O  O1113  1  0.700180  0.001210  0.345350  1.0  -0.5932
  O  O1114  1  0.554030  0.919880  0.258860  1.0  -0.5722
  O  O1115  1  0.554020  0.983190  0.288740  1.0  -0.5961
  O  O1116  1  0.553470  0.062920  0.253950  1.0  -0.5754
  O  O1117  1  0.554130  0.001260  0.223670  1.0  -0.5816
  O  O1118  1  0.731260  0.083890  0.150440  1.0  -0.5762
  O  O1119  1  0.675180  0.016150  0.152720  1.0  -0.6026
  O  O1120  1  0.755380  0.934120  0.352170  1.0  -0.5764
  O  O1121  1  0.748790  0.950180  0.095350  1.0  -0.5933
  O  O1122  1  0.830120  0.804030  0.008860  1.0  -0.5724
  O  O1123  1  0.766810  0.804020  0.038740  1.0  -0.5952
  O  O1124  1  0.687080  0.803470  0.003950  1.0  -0.5748
  O  O1125  1  0.748740  0.804130  0.973670  1.0  -0.5823
  O  O1126  1  0.666110  0.981260  0.900440  1.0  -0.5753
  O  O1127  1  0.733850  0.925180  0.902720  1.0  -0.6011
  O  O1128  1  0.815880  0.005380  0.102170  1.0  -0.5759
  O  O1129  1  0.248790  0.450180  0.595350  1.0  -0.5933
  O  O1130  1  0.330120  0.304030  0.508860  1.0  -0.5724
  O  O1131  1  0.266810  0.304020  0.538740  1.0  -0.5952
  O  O1132  1  0.187080  0.303470  0.503950  1.0  -0.5748
  O  O1133  1  0.248740  0.304130  0.473670  1.0  -0.5823
  O  O1134  1  0.166110  0.481260  0.400440  1.0  -0.5753
  O  O1135  1  0.233850  0.425180  0.402720  1.0  -0.6011
  O  O1136  1  0.315880  0.505380  0.602170  1.0  -0.5759
  O  O1137  1  0.751210  0.049820  0.595350  1.0  -0.593
  O  O1138  1  0.669880  0.195970  0.508860  1.0  -0.572
  O  O1139  1  0.733190  0.195980  0.538740  1.0  -0.5956
  O  O1140  1  0.812920  0.196530  0.503950  1.0  -0.5753
  O  O1141  1  0.751260  0.195870  0.473670  1.0  -0.5812
  O  O1142  1  0.833890  0.018740  0.400440  1.0  -0.5764
  O  O1143  1  0.766150  0.074820  0.402720  1.0  -0.6014
  O  O1144  1  0.684120  0.994620  0.602170  1.0  -0.5744
  O  O1145  1  0.251210  0.549820  0.095350  1.0  -0.593
  O  O1146  1  0.169880  0.695970  0.008860  1.0  -0.572
  O  O1147  1  0.233190  0.695980  0.038740  1.0  -0.5956
  O  O1148  1  0.312920  0.696530  0.003950  1.0  -0.5753
  O  O1149  1  0.251260  0.695870  0.973670  1.0  -0.5812
  O  O1150  1  0.333890  0.518740  0.900440  1.0  -0.5764
  O  O1151  1  0.266150  0.574820  0.902720  1.0  -0.6014
  O  O1152  1  0.184120  0.494620  0.102170  1.0  -0.5744
  O  O1153  1  0.799820  0.501210  0.845350  1.0  -0.5935
  O  O1154  1  0.945970  0.419880  0.758860  1.0  -0.5723
  O  O1155  1  0.945980  0.483190  0.788740  1.0  -0.5963
  O  O1156  1  0.946530  0.562920  0.753950  1.0  -0.5757
  O  O1157  1  0.945870  0.501260  0.723670  1.0  -0.5813
  O  O1158  1  0.768740  0.583890  0.650440  1.0  -0.5757
  O  O1159  1  0.824820  0.516150  0.652720  1.0  -0.6016
  O  O1160  1  0.744620  0.434120  0.852170  1.0  -0.575
  O  O1161  1  0.299820  0.001210  0.345350  1.0  -0.5935
  O  O1162  1  0.445970  0.919880  0.258860  1.0  -0.5723
  O  O1163  1  0.445980  0.983190  0.288740  1.0  -0.5963
  O  O1164  1  0.446530  0.062920  0.253950  1.0  -0.5757
  O  O1165  1  0.445870  0.001260  0.223670  1.0  -0.5813
  O  O1166  1  0.268740  0.083890  0.150440  1.0  -0.5757
  O  O1167  1  0.324820  0.016150  0.152720  1.0  -0.6016
  O  O1168  1  0.244620  0.934120  0.352170  1.0  -0.575
  O  O1169  1  0.700180  0.498790  0.345350  1.0  -0.5937
  O  O1170  1  0.554030  0.580120  0.258860  1.0  -0.5728
  O  O1171  1  0.554020  0.516810  0.288740  1.0  -0.5964
  O  O1172  1  0.553470  0.437080  0.253950  1.0  -0.5749
  O  O1173  1  0.554130  0.498740  0.223670  1.0  -0.5817
  O  O1174  1  0.731260  0.416110  0.150440  1.0  -0.5766
  O  O1175  1  0.675180  0.483850  0.152720  1.0  -0.6028
  O  O1176  1  0.755380  0.565880  0.352170  1.0  -0.5764
  O  O1177  1  0.200180  0.998790  0.845350  1.0  -0.5937
  O  O1178  1  0.054030  0.080120  0.758860  1.0  -0.5728
  O  O1179  1  0.054020  0.016810  0.788740  1.0  -0.5964
  O  O1180  1  0.053470  0.937080  0.753950  1.0  -0.5749
  O  O1181  1  0.054130  0.998740  0.723670  1.0  -0.5817
  O  O1182  1  0.231260  0.916110  0.650440  1.0  -0.5766
  O  O1183  1  0.175180  0.983850  0.652720  1.0  -0.6028
  O  O1184  1  0.255380  0.065880  0.852170  1.0  -0.5764
  O  O1185  1  0.248790  0.049820  0.595350  1.0  -0.5927
  O  O1186  1  0.330120  0.195970  0.508860  1.0  -0.5722
  O  O1187  1  0.266810  0.195980  0.538740  1.0  -0.5952
  O  O1188  1  0.187080  0.196530  0.503950  1.0  -0.5752
  O  O1189  1  0.248740  0.195870  0.473670  1.0  -0.5824
  O  O1190  1  0.166110  0.018740  0.400440  1.0  -0.5758
  O  O1191  1  0.233850  0.074820  0.402720  1.0  -0.6017
  O  O1192  1  0.315880  0.994620  0.602170  1.0  -0.5769
  O  O1193  1  0.748790  0.549820  0.095350  1.0  -0.5927
  O  O1194  1  0.830120  0.695970  0.008860  1.0  -0.5722
  O  O1195  1  0.766810  0.695980  0.038740  1.0  -0.5952
  O  O1196  1  0.687080  0.696530  0.003950  1.0  -0.5752
  O  O1197  1  0.748740  0.695870  0.973670  1.0  -0.5824
  O  O1198  1  0.666110  0.518740  0.900440  1.0  -0.5758
  O  O1199  1  0.733850  0.574820  0.902720  1.0  -0.6017
  O  O1200  1  0.815880  0.494620  0.102170  1.0  -0.5769
  O  O1201  1  0.251210  0.950180  0.095350  1.0  -0.5936
  O  O1202  1  0.169880  0.804030  0.008860  1.0  -0.5723
  O  O1203  1  0.233190  0.804020  0.038740  1.0  -0.5958
  O  O1204  1  0.312920  0.803470  0.003950  1.0  -0.5751
  O  O1205  1  0.251260  0.804130  0.973670  1.0  -0.5811
  O  O1206  1  0.333890  0.981260  0.900440  1.0  -0.5768
  O  O1207  1  0.266150  0.925180  0.902720  1.0  -0.6015
  O  O1208  1  0.184120  0.005380  0.102170  1.0  -0.5748
  O  O1209  1  0.751210  0.450180  0.595350  1.0  -0.5936
  O  O1210  1  0.669880  0.304030  0.508860  1.0  -0.5723
  O  O1211  1  0.733190  0.304020  0.538740  1.0  -0.5958
  O  O1212  1  0.812920  0.303470  0.503950  1.0  -0.5751
  O  O1213  1  0.751260  0.304130  0.473670  1.0  -0.5811
  O  O1214  1  0.833890  0.481260  0.400440  1.0  -0.5768
  O  O1215  1  0.766150  0.425180  0.402720  1.0  -0.6015
  O  O1216  1  0.684120  0.505380  0.602170  1.0  -0.5748
  O  O1217  1  0.700180  0.501210  0.654650  1.0  -0.5932
  O  O1218  1  0.554030  0.419880  0.741140  1.0  -0.5724
  O  O1219  1  0.554020  0.483190  0.711260  1.0  -0.5963
  O  O1220  1  0.553470  0.562920  0.746050  1.0  -0.5746
  O  O1221  1  0.554130  0.501260  0.776330  1.0  -0.582
  O  O1222  1  0.731260  0.583890  0.849560  1.0  -0.5762
  O  O1223  1  0.675180  0.516150  0.847280  1.0  -0.6027
  O  O1224  1  0.755380  0.434120  0.647830  1.0  -0.5765
  O  O1225  1  0.200180  0.001210  0.154650  1.0  -0.5932
  O  O1226  1  0.054030  0.919880  0.241140  1.0  -0.5724
  O  O1227  1  0.054020  0.983190  0.211260  1.0  -0.5963
  O  O1228  1  0.053470  0.062920  0.246050  1.0  -0.5746
  O  O1229  1  0.054130  0.001260  0.276330  1.0  -0.582
  O  O1230  1  0.231260  0.083890  0.349560  1.0  -0.5762
  O  O1231  1  0.175180  0.016150  0.347280  1.0  -0.6027
  O  O1232  1  0.255380  0.934120  0.147830  1.0  -0.5765
  O  O1233  1  0.799820  0.498790  0.154650  1.0  -0.5939
  O  O1234  1  0.945970  0.580120  0.241140  1.0  -0.5721
  O  O1235  1  0.945980  0.516810  0.211260  1.0  -0.5963
  O  O1236  1  0.946530  0.437080  0.246050  1.0  -0.5751
  O  O1237  1  0.945870  0.498740  0.276330  1.0  -0.582
  O  O1238  1  0.768740  0.416110  0.349560  1.0  -0.5761
  O  O1239  1  0.824820  0.483850  0.347280  1.0  -0.6015
  O  O1240  1  0.744620  0.565880  0.147830  1.0  -0.575
  O  O1241  1  0.299820  0.998790  0.654650  1.0  -0.5939
  O  O1242  1  0.445970  0.080120  0.741140  1.0  -0.5721
  O  O1243  1  0.445980  0.016810  0.711260  1.0  -0.5963
  O  O1244  1  0.446530  0.937080  0.746050  1.0  -0.5751
  O  O1245  1  0.445870  0.998740  0.776330  1.0  -0.582
  O  O1246  1  0.268740  0.916110  0.849560  1.0  -0.5761
  O  O1247  1  0.324820  0.983850  0.847280  1.0  -0.6015
  O  O1248  1  0.244620  0.065880  0.647830  1.0  -0.575
  O  O1249  1  0.251210  0.049820  0.904650  1.0  -0.5927
  O  O1250  1  0.169880  0.195970  0.991140  1.0  -0.5727
  O  O1251  1  0.233190  0.195980  0.961260  1.0  -0.5956
  O  O1252  1  0.312920  0.196530  0.996050  1.0  -0.5749
  O  O1253  1  0.251260  0.195870  0.026330  1.0  -0.5821
  O  O1254  1  0.333890  0.018740  0.099560  1.0  -0.5764
  O  O1255  1  0.266150  0.074820  0.097280  1.0  -0.6015
  O  O1256  1  0.184120  0.994620  0.897830  1.0  -0.5748
  O  O1257  1  0.751210  0.549820  0.404650  1.0  -0.5927
  O  O1258  1  0.669880  0.695970  0.491140  1.0  -0.5727
  O  O1259  1  0.733190  0.695980  0.461260  1.0  -0.5956
  O  O1260  1  0.812920  0.696530  0.496050  1.0  -0.5749
  O  O1261  1  0.751260  0.695870  0.526330  1.0  -0.5821
  O  O1262  1  0.833890  0.518740  0.599560  1.0  -0.5764
  O  O1263  1  0.766150  0.574820  0.597280  1.0  -0.6015
  O  O1264  1  0.684120  0.494620  0.397830  1.0  -0.5748
  O  O1265  1  0.248790  0.950180  0.404650  1.0  -0.593
  O  O1266  1  0.330120  0.804030  0.491140  1.0  -0.5729
  O  O1267  1  0.266810  0.804020  0.461260  1.0  -0.595
  O  O1268  1  0.187080  0.803470  0.496050  1.0  -0.5748
  O  O1269  1  0.248740  0.804130  0.526330  1.0  -0.5825
  O  O1270  1  0.166110  0.981260  0.599560  1.0  -0.5753
  O  O1271  1  0.233850  0.925180  0.597280  1.0  -0.6012
  O  O1272  1  0.315880  0.005380  0.397830  1.0  -0.5757
  O  O1273  1  0.748790  0.450180  0.904650  1.0  -0.593
  O  O1274  1  0.830120  0.304030  0.991140  1.0  -0.5729
  O  O1275  1  0.766810  0.304020  0.961260  1.0  -0.595
  O  O1276  1  0.687080  0.303470  0.996050  1.0  -0.5748
  O  O1277  1  0.748740  0.304130  0.026330  1.0  -0.5825
  O  O1278  1  0.666110  0.481260  0.099560  1.0  -0.5753
  O  O1279  1  0.733850  0.425180  0.097280  1.0  -0.6012
  O  O1280  1  0.815880  0.505380  0.897830  1.0  -0.5757
