# generated using pymatgen
data_Zn2H9C19(NO4)2
_symmetry_space_group_name_H-M   'P 1'
_cell_length_a   25.44400000
_cell_length_b   25.44400000
_cell_length_c   53.61600000
_cell_angle_alpha   90.00000000
_cell_angle_beta   90.00000000
_cell_angle_gamma   90.00000000
_symmetry_Int_Tables_number   1
_chemical_formula_structural   Zn2H9C19(NO4)2
_chemical_formula_sum   'Zn64 H288 C608 N64 O256'
_cell_volume   34710.84484378
_cell_formula_units_Z   32
loop_
 _symmetry_equiv_pos_site_id
 _symmetry_equiv_pos_as_xyz
  1  'x, y, z'
loop_
 _atom_site_type_symbol
 _atom_site_label
 _atom_site_symmetry_multiplicity
 _atom_site_fract_x
 _atom_site_fract_y
 _atom_site_fract_z
 _atom_site_occupancy
 _atom_site_charge
  Zn  Zn1  1  0.223290  0.444600  0.126800  1.0  1.1565
  Zn  Zn2  1  0.723290  0.944600  0.626800  1.0  1.1565
  Zn  Zn3  1  0.276710  0.555400  0.626800  1.0  1.1575
  Zn  Zn4  1  0.776710  0.055400  0.126800  1.0  1.1575
  Zn  Zn5  1  0.805400  0.973290  0.376800  1.0  1.1572
  Zn  Zn6  1  0.305400  0.473290  0.876800  1.0  1.1572
  Zn  Zn7  1  0.694600  0.026710  0.876800  1.0  1.1565
  Zn  Zn8  1  0.194600  0.526710  0.376800  1.0  1.1565
  Zn  Zn9  1  0.276710  0.444600  0.373200  1.0  1.1571
  Zn  Zn10  1  0.776710  0.944600  0.873200  1.0  1.1571
  Zn  Zn11  1  0.223290  0.555400  0.873200  1.0  1.1563
  Zn  Zn12  1  0.723290  0.055400  0.373200  1.0  1.1563
  Zn  Zn13  1  0.694600  0.973290  0.123200  1.0  1.157
  Zn  Zn14  1  0.194600  0.473290  0.623200  1.0  1.157
  Zn  Zn15  1  0.805400  0.026710  0.623200  1.0  1.1585
  Zn  Zn16  1  0.305400  0.526710  0.123200  1.0  1.1585
  Zn  Zn17  1  0.776710  0.555400  0.873200  1.0  1.158
  Zn  Zn18  1  0.276710  0.055400  0.373200  1.0  1.158
  Zn  Zn19  1  0.723290  0.444600  0.373200  1.0  1.1564
  Zn  Zn20  1  0.223290  0.944600  0.873200  1.0  1.1564
  Zn  Zn21  1  0.194600  0.026710  0.623200  1.0  1.1568
  Zn  Zn22  1  0.694600  0.526710  0.123200  1.0  1.1568
  Zn  Zn23  1  0.305400  0.973290  0.123200  1.0  1.1575
  Zn  Zn24  1  0.805400  0.473290  0.623200  1.0  1.1575
  Zn  Zn25  1  0.723290  0.555400  0.626800  1.0  1.1562
  Zn  Zn26  1  0.223290  0.055400  0.126800  1.0  1.1562
  Zn  Zn27  1  0.776710  0.444600  0.126800  1.0  1.1567
  Zn  Zn28  1  0.276710  0.944600  0.626800  1.0  1.1567
  Zn  Zn29  1  0.305400  0.026710  0.876800  1.0  1.1581
  Zn  Zn30  1  0.805400  0.526710  0.376800  1.0  1.1581
  Zn  Zn31  1  0.194600  0.973290  0.376800  1.0  1.1569
  Zn  Zn32  1  0.694600  0.473290  0.876800  1.0  1.1569
  Zn  Zn33  1  0.282150  0.750000  0.027470  1.0  1.1322
  Zn  Zn34  1  0.196800  0.750000  0.989080  1.0  1.1259
  Zn  Zn35  1  0.217850  0.250000  0.527470  1.0  1.1304
  Zn  Zn36  1  0.303200  0.250000  0.489080  1.0  1.1255
  Zn  Zn37  1  0.500000  0.032150  0.277470  1.0  1.1305
  Zn  Zn38  1  0.500000  0.946800  0.239080  1.0  1.1255
  Zn  Zn39  1  0.000000  0.532150  0.777470  1.0  1.1305
  Zn  Zn40  1  0.000000  0.446800  0.739080  1.0  1.1255
  Zn  Zn41  1  0.000000  0.967850  0.777470  1.0  1.1278
  Zn  Zn42  1  0.000000  0.053200  0.739080  1.0  1.122
  Zn  Zn43  1  0.500000  0.467850  0.277470  1.0  1.1278
  Zn  Zn44  1  0.500000  0.553200  0.239080  1.0  1.122
  Zn  Zn45  1  0.217850  0.750000  0.472530  1.0  1.1306
  Zn  Zn46  1  0.303200  0.750000  0.510920  1.0  1.125
  Zn  Zn47  1  0.282150  0.250000  0.972530  1.0  1.1315
  Zn  Zn48  1  0.196800  0.250000  0.010920  1.0  1.1257
  Zn  Zn49  1  0.000000  0.032150  0.222530  1.0  1.1292
  Zn  Zn50  1  0.000000  0.946800  0.260920  1.0  1.1228
  Zn  Zn51  1  0.500000  0.532150  0.722530  1.0  1.1292
  Zn  Zn52  1  0.500000  0.446800  0.760920  1.0  1.1228
  Zn  Zn53  1  0.500000  0.967850  0.722530  1.0  1.1296
  Zn  Zn54  1  0.500000  0.053200  0.760920  1.0  1.1228
  Zn  Zn55  1  0.000000  0.467850  0.222530  1.0  1.1296
  Zn  Zn56  1  0.000000  0.553200  0.260920  1.0  1.1228
  Zn  Zn57  1  0.717850  0.250000  0.972530  1.0  1.1306
  Zn  Zn58  1  0.803200  0.250000  0.010920  1.0  1.125
  Zn  Zn59  1  0.782150  0.750000  0.472530  1.0  1.1315
  Zn  Zn60  1  0.696800  0.750000  0.510920  1.0  1.1257
  Zn  Zn61  1  0.782150  0.250000  0.527470  1.0  1.1322
  Zn  Zn62  1  0.696800  0.250000  0.489080  1.0  1.1259
  Zn  Zn63  1  0.717850  0.750000  0.027470  1.0  1.1304
  Zn  Zn64  1  0.803200  0.750000  0.989080  1.0  1.1255
  H  H65  1  0.378500  0.482400  0.193000  1.0  0.0888
  H  H66  1  0.397700  0.360600  0.240500  1.0  0.1014
  H  H67  1  0.111300  0.513200  0.075300  1.0  0.1067
  H  H68  1  0.095200  0.632200  0.025900  1.0  0.1102
  H  H69  1  0.305800  0.342700  0.179300  1.0  0.1047
  H  H70  1  0.231300  0.614800  0.065900  1.0  0.092
  H  H71  1  0.314600  0.300000  0.256900  1.0  0.1164
  H  H72  1  0.053400  0.479600  0.036100  1.0  0.0988
  H  H73  1  0.878500  0.982400  0.693000  1.0  0.0888
  H  H74  1  0.897700  0.860600  0.740500  1.0  0.1014
  H  H75  1  0.611300  0.013200  0.575300  1.0  0.1067
  H  H76  1  0.595200  0.132200  0.525900  1.0  0.1102
  H  H77  1  0.805800  0.842700  0.679300  1.0  0.1047
  H  H78  1  0.731300  0.114800  0.565900  1.0  0.092
  H  H79  1  0.814600  0.800000  0.756900  1.0  0.1164
  H  H80  1  0.553400  0.979600  0.536100  1.0  0.0988
  H  H81  1  0.121500  0.517600  0.693000  1.0  0.0887
  H  H82  1  0.102300  0.639400  0.740500  1.0  0.1017
  H  H83  1  0.388700  0.486800  0.575300  1.0  0.1067
  H  H84  1  0.404800  0.367800  0.525900  1.0  0.1103
  H  H85  1  0.194200  0.657300  0.679300  1.0  0.1048
  H  H86  1  0.268700  0.385200  0.565900  1.0  0.0921
  H  H87  1  0.185400  0.700000  0.756900  1.0  0.1166
  H  H88  1  0.446600  0.520400  0.536100  1.0  0.0988
  H  H89  1  0.621500  0.017600  0.193000  1.0  0.0887
  H  H90  1  0.602300  0.139400  0.240500  1.0  0.1017
  H  H91  1  0.888700  0.986800  0.075300  1.0  0.1067
  H  H92  1  0.904800  0.867800  0.025900  1.0  0.1103
  H  H93  1  0.694200  0.157300  0.179300  1.0  0.1048
  H  H94  1  0.768700  0.885200  0.065900  1.0  0.0921
  H  H95  1  0.685400  0.200000  0.256900  1.0  0.1166
  H  H96  1  0.946600  0.020400  0.036100  1.0  0.0988
  H  H97  1  0.767600  0.128500  0.443000  1.0  0.088
  H  H98  1  0.889400  0.147700  0.490500  1.0  0.1017
  H  H99  1  0.736800  0.861300  0.325300  1.0  0.1063
  H  H100  1  0.617800  0.845200  0.275900  1.0  0.1097
  H  H101  1  0.907300  0.055800  0.429300  1.0  0.1051
  H  H102  1  0.635200  0.981300  0.315900  1.0  0.0918
  H  H103  1  0.950000  0.064600  0.506900  1.0  0.1163
  H  H104  1  0.770400  0.803400  0.286100  1.0  0.0969
  H  H105  1  0.267600  0.628500  0.943000  1.0  0.0879
  H  H106  1  0.389400  0.647700  0.990500  1.0  0.1017
  H  H107  1  0.236800  0.361300  0.825300  1.0  0.1063
  H  H108  1  0.117800  0.345200  0.775900  1.0  0.1097
  H  H109  1  0.407300  0.555800  0.929300  1.0  0.1051
  H  H110  1  0.135200  0.481300  0.815900  1.0  0.0918
  H  H111  1  0.450000  0.564600  0.006900  1.0  0.1163
  H  H112  1  0.270400  0.303400  0.786100  1.0  0.0969
  H  H113  1  0.732400  0.871500  0.943000  1.0  0.0882
  H  H114  1  0.610600  0.852300  0.990500  1.0  0.1019
  H  H115  1  0.763200  0.138700  0.825300  1.0  0.1072
  H  H116  1  0.882200  0.154800  0.775900  1.0  0.1097
  H  H117  1  0.592700  0.944200  0.929300  1.0  0.1057
  H  H118  1  0.864800  0.018700  0.815900  1.0  0.0923
  H  H119  1  0.550000  0.935400  0.006900  1.0  0.1159
  H  H120  1  0.729600  0.196600  0.786100  1.0  0.0962
  H  H121  1  0.232400  0.371500  0.443000  1.0  0.0882
  H  H122  1  0.110600  0.352300  0.490500  1.0  0.1019
  H  H123  1  0.263200  0.638700  0.325300  1.0  0.1072
  H  H124  1  0.382200  0.654800  0.275900  1.0  0.1097
  H  H125  1  0.092700  0.444200  0.429300  1.0  0.1057
  H  H126  1  0.364800  0.518700  0.315900  1.0  0.0923
  H  H127  1  0.050000  0.435400  0.506900  1.0  0.1159
  H  H128  1  0.229600  0.696600  0.286100  1.0  0.0962
  H  H129  1  0.121500  0.482400  0.307000  1.0  0.089
  H  H130  1  0.102300  0.360600  0.259500  1.0  0.1017
  H  H131  1  0.388700  0.513200  0.424700  1.0  0.1066
  H  H132  1  0.404800  0.632200  0.474100  1.0  0.1104
  H  H133  1  0.194200  0.342700  0.320700  1.0  0.1044
  H  H134  1  0.268700  0.614800  0.434100  1.0  0.0923
  H  H135  1  0.185400  0.300000  0.243100  1.0  0.1162
  H  H136  1  0.446600  0.479600  0.463900  1.0  0.0986
  H  H137  1  0.621500  0.982400  0.807000  1.0  0.089
  H  H138  1  0.602300  0.860600  0.759500  1.0  0.1017
  H  H139  1  0.888700  0.013200  0.924700  1.0  0.1066
  H  H140  1  0.904800  0.132200  0.974100  1.0  0.1104
  H  H141  1  0.694200  0.842700  0.820700  1.0  0.1044
  H  H142  1  0.768700  0.114800  0.934100  1.0  0.0923
  H  H143  1  0.685400  0.800000  0.743100  1.0  0.1162
  H  H144  1  0.946600  0.979600  0.963900  1.0  0.0986
  H  H145  1  0.378500  0.517600  0.807000  1.0  0.0887
  H  H146  1  0.397700  0.639400  0.759500  1.0  0.1014
  H  H147  1  0.111300  0.486800  0.924700  1.0  0.1071
  H  H148  1  0.095200  0.367800  0.974100  1.0  0.1106
  H  H149  1  0.305800  0.657300  0.820700  1.0  0.1048
  H  H150  1  0.231300  0.385200  0.934100  1.0  0.0918
  H  H151  1  0.314600  0.700000  0.743100  1.0  0.116
  H  H152  1  0.053400  0.520400  0.963900  1.0  0.0983
  H  H153  1  0.878500  0.017600  0.307000  1.0  0.0887
  H  H154  1  0.897700  0.139400  0.259500  1.0  0.1014
  H  H155  1  0.611300  0.986800  0.424700  1.0  0.1071
  H  H156  1  0.595200  0.867800  0.474100  1.0  0.1106
  H  H157  1  0.805800  0.157300  0.320700  1.0  0.1048
  H  H158  1  0.731300  0.885200  0.434100  1.0  0.0918
  H  H159  1  0.814600  0.200000  0.243100  1.0  0.116
  H  H160  1  0.553400  0.020400  0.463900  1.0  0.0983
  H  H161  1  0.732400  0.128500  0.057000  1.0  0.0886
  H  H162  1  0.610600  0.147700  0.009500  1.0  0.1015
  H  H163  1  0.763200  0.861300  0.174700  1.0  0.1071
  H  H164  1  0.882200  0.845200  0.224100  1.0  0.1097
  H  H165  1  0.592700  0.055800  0.070700  1.0  0.1053
  H  H166  1  0.864800  0.981300  0.184100  1.0  0.0924
  H  H167  1  0.550000  0.064600  0.993100  1.0  0.116
  H  H168  1  0.729600  0.803400  0.213900  1.0  0.096
  H  H169  1  0.232400  0.628500  0.557000  1.0  0.0886
  H  H170  1  0.110600  0.647700  0.509500  1.0  0.1015
  H  H171  1  0.263200  0.361300  0.674700  1.0  0.1071
  H  H172  1  0.382200  0.345200  0.724100  1.0  0.1097
  H  H173  1  0.092700  0.555800  0.570700  1.0  0.1053
  H  H174  1  0.364800  0.481300  0.684100  1.0  0.0924
  H  H175  1  0.050000  0.564600  0.493100  1.0  0.116
  H  H176  1  0.229600  0.303400  0.713900  1.0  0.096
  H  H177  1  0.767600  0.871500  0.557000  1.0  0.0885
  H  H178  1  0.889400  0.852300  0.509500  1.0  0.1015
  H  H179  1  0.736800  0.138700  0.674700  1.0  0.1068
  H  H180  1  0.617800  0.154800  0.724100  1.0  0.1099
  H  H181  1  0.907300  0.944200  0.570700  1.0  0.1053
  H  H182  1  0.635200  0.018700  0.684100  1.0  0.0922
  H  H183  1  0.950000  0.935400  0.493100  1.0  0.1159
  H  H184  1  0.770400  0.196600  0.713900  1.0  0.0968
  H  H185  1  0.267600  0.371500  0.057000  1.0  0.0884
  H  H186  1  0.389400  0.352300  0.009500  1.0  0.1015
  H  H187  1  0.236800  0.638700  0.174700  1.0  0.1068
  H  H188  1  0.117800  0.654800  0.224100  1.0  0.1099
  H  H189  1  0.407300  0.444200  0.070700  1.0  0.1053
  H  H190  1  0.135200  0.518700  0.184100  1.0  0.0922
  H  H191  1  0.450000  0.435400  0.993100  1.0  0.1159
  H  H192  1  0.270400  0.696600  0.213900  1.0  0.0968
  H  H193  1  0.621500  0.517600  0.807000  1.0  0.089
  H  H194  1  0.602300  0.639400  0.759500  1.0  0.1015
  H  H195  1  0.888700  0.486800  0.924700  1.0  0.1068
  H  H196  1  0.904800  0.367800  0.974100  1.0  0.1107
  H  H197  1  0.694200  0.657300  0.820700  1.0  0.1044
  H  H198  1  0.768700  0.385200  0.934100  1.0  0.0923
  H  H199  1  0.685400  0.700000  0.743100  1.0  0.1161
  H  H200  1  0.946600  0.520400  0.963900  1.0  0.0977
  H  H201  1  0.121500  0.017600  0.307000  1.0  0.089
  H  H202  1  0.102300  0.139400  0.259500  1.0  0.1015
  H  H203  1  0.388700  0.986800  0.424700  1.0  0.1068
  H  H204  1  0.404800  0.867800  0.474100  1.0  0.1107
  H  H205  1  0.194200  0.157300  0.320700  1.0  0.1044
  H  H206  1  0.268700  0.885200  0.434100  1.0  0.0923
  H  H207  1  0.185400  0.200000  0.243100  1.0  0.1161
  H  H208  1  0.446600  0.020400  0.463900  1.0  0.0977
  H  H209  1  0.878500  0.482400  0.307000  1.0  0.0889
  H  H210  1  0.897700  0.360600  0.259500  1.0  0.1014
  H  H211  1  0.611300  0.513200  0.424700  1.0  0.1065
  H  H212  1  0.595200  0.632200  0.474100  1.0  0.1103
  H  H213  1  0.805800  0.342700  0.320700  1.0  0.1049
  H  H214  1  0.731300  0.614800  0.434100  1.0  0.0925
  H  H215  1  0.814600  0.300000  0.243100  1.0  0.1168
  H  H216  1  0.553400  0.479600  0.463900  1.0  0.098
  H  H217  1  0.378500  0.982400  0.807000  1.0  0.0889
  H  H218  1  0.397700  0.860600  0.759500  1.0  0.1014
  H  H219  1  0.111300  0.013200  0.924700  1.0  0.1065
  H  H220  1  0.095200  0.132200  0.974100  1.0  0.1103
  H  H221  1  0.305800  0.842700  0.820700  1.0  0.1049
  H  H222  1  0.231300  0.114800  0.934100  1.0  0.0925
  H  H223  1  0.314600  0.800000  0.743100  1.0  0.1168
  H  H224  1  0.053400  0.979600  0.963900  1.0  0.098
  H  H225  1  0.232400  0.871500  0.557000  1.0  0.0885
  H  H226  1  0.110600  0.852300  0.509500  1.0  0.1017
  H  H227  1  0.263200  0.138700  0.674700  1.0  0.1071
  H  H228  1  0.382200  0.154800  0.724100  1.0  0.1097
  H  H229  1  0.092700  0.944200  0.570700  1.0  0.1055
  H  H230  1  0.364800  0.018700  0.684100  1.0  0.0926
  H  H231  1  0.050000  0.935400  0.493100  1.0  0.1161
  H  H232  1  0.229600  0.196600  0.713900  1.0  0.0957
  H  H233  1  0.732400  0.371500  0.057000  1.0  0.0885
  H  H234  1  0.610600  0.352300  0.009500  1.0  0.1017
  H  H235  1  0.763200  0.638700  0.174700  1.0  0.1071
  H  H236  1  0.882200  0.654800  0.224100  1.0  0.1097
  H  H237  1  0.592700  0.444200  0.070700  1.0  0.1055
  H  H238  1  0.864800  0.518700  0.184100  1.0  0.0926
  H  H239  1  0.550000  0.435400  0.993100  1.0  0.1161
  H  H240  1  0.729600  0.696600  0.213900  1.0  0.0957
  H  H241  1  0.267600  0.128500  0.057000  1.0  0.0879
  H  H242  1  0.389400  0.147700  0.009500  1.0  0.1015
  H  H243  1  0.236800  0.861300  0.174700  1.0  0.1065
  H  H244  1  0.117800  0.845200  0.224100  1.0  0.11
  H  H245  1  0.407300  0.055800  0.070700  1.0  0.1053
  H  H246  1  0.135200  0.981300  0.184100  1.0  0.0923
  H  H247  1  0.450000  0.064600  0.993100  1.0  0.1161
  H  H248  1  0.270400  0.803400  0.213900  1.0  0.0957
  H  H249  1  0.767600  0.628500  0.557000  1.0  0.088
  H  H250  1  0.889400  0.647700  0.509500  1.0  0.1015
  H  H251  1  0.736800  0.361300  0.674700  1.0  0.1065
  H  H252  1  0.617800  0.345200  0.724100  1.0  0.11
  H  H253  1  0.907300  0.555800  0.570700  1.0  0.1053
  H  H254  1  0.635200  0.481300  0.684100  1.0  0.0923
  H  H255  1  0.950000  0.564600  0.493100  1.0  0.1161
  H  H256  1  0.770400  0.303400  0.713900  1.0  0.0957
  H  H257  1  0.878500  0.517600  0.693000  1.0  0.0887
  H  H258  1  0.897700  0.639400  0.740500  1.0  0.1015
  H  H259  1  0.611300  0.486800  0.575300  1.0  0.1073
  H  H260  1  0.595200  0.367800  0.525900  1.0  0.1104
  H  H261  1  0.805800  0.657300  0.679300  1.0  0.105
  H  H262  1  0.731300  0.385200  0.565900  1.0  0.0916
  H  H263  1  0.814600  0.700000  0.756900  1.0  0.1169
  H  H264  1  0.553400  0.520400  0.536100  1.0  0.0978
  H  H265  1  0.378500  0.017600  0.193000  1.0  0.0887
  H  H266  1  0.397700  0.139400  0.240500  1.0  0.1015
  H  H267  1  0.111300  0.986800  0.075300  1.0  0.1073
  H  H268  1  0.095200  0.867800  0.025900  1.0  0.1104
  H  H269  1  0.305800  0.157300  0.179300  1.0  0.105
  H  H270  1  0.231300  0.885200  0.065900  1.0  0.0916
  H  H271  1  0.314600  0.200000  0.256900  1.0  0.1169
  H  H272  1  0.053400  0.020400  0.036100  1.0  0.0978
  H  H273  1  0.621500  0.482400  0.193000  1.0  0.0887
  H  H274  1  0.602300  0.360600  0.240500  1.0  0.1019
  H  H275  1  0.888700  0.513200  0.075300  1.0  0.1065
  H  H276  1  0.904800  0.632200  0.025900  1.0  0.1101
  H  H277  1  0.694200  0.342700  0.179300  1.0  0.1046
  H  H278  1  0.768700  0.614800  0.065900  1.0  0.0919
  H  H279  1  0.685400  0.300000  0.256900  1.0  0.1166
  H  H280  1  0.946600  0.479600  0.036100  1.0  0.0976
  H  H281  1  0.121500  0.982400  0.693000  1.0  0.0887
  H  H282  1  0.102300  0.860600  0.740500  1.0  0.1019
  H  H283  1  0.388700  0.013200  0.575300  1.0  0.1065
  H  H284  1  0.404800  0.132200  0.525900  1.0  0.1101
  H  H285  1  0.194200  0.842700  0.679300  1.0  0.1046
  H  H286  1  0.268700  0.114800  0.565900  1.0  0.0919
  H  H287  1  0.185400  0.800000  0.756900  1.0  0.1166
  H  H288  1  0.446600  0.979600  0.536100  1.0  0.0976
  H  H289  1  0.267600  0.871500  0.943000  1.0  0.0882
  H  H290  1  0.389400  0.852300  0.990500  1.0  0.1015
  H  H291  1  0.236800  0.138700  0.825300  1.0  0.1068
  H  H292  1  0.117800  0.154800  0.775900  1.0  0.1097
  H  H293  1  0.407300  0.944200  0.929300  1.0  0.1055
  H  H294  1  0.135200  0.018700  0.815900  1.0  0.0919
  H  H295  1  0.450000  0.935400  0.006900  1.0  0.1163
  H  H296  1  0.270400  0.196600  0.786100  1.0  0.0961
  H  H297  1  0.767600  0.371500  0.443000  1.0  0.0882
  H  H298  1  0.889400  0.352300  0.490500  1.0  0.1015
  H  H299  1  0.736800  0.638700  0.325300  1.0  0.1068
  H  H300  1  0.617800  0.654800  0.275900  1.0  0.1097
  H  H301  1  0.907300  0.444200  0.429300  1.0  0.1055
  H  H302  1  0.635200  0.518700  0.315900  1.0  0.0919
  H  H303  1  0.950000  0.435400  0.506900  1.0  0.1163
  H  H304  1  0.770400  0.696600  0.286100  1.0  0.0961
  H  H305  1  0.232400  0.128500  0.443000  1.0  0.0888
  H  H306  1  0.110600  0.147700  0.490500  1.0  0.1019
  H  H307  1  0.263200  0.861300  0.325300  1.0  0.1072
  H  H308  1  0.382200  0.845200  0.275900  1.0  0.1097
  H  H309  1  0.092700  0.055800  0.429300  1.0  0.1051
  H  H310  1  0.364800  0.981300  0.315900  1.0  0.0918
  H  H311  1  0.050000  0.064600  0.506900  1.0  0.1165
  H  H312  1  0.229600  0.803400  0.286100  1.0  0.0955
  H  H313  1  0.732400  0.628500  0.943000  1.0  0.0888
  H  H314  1  0.610600  0.647700  0.990500  1.0  0.1019
  H  H315  1  0.763200  0.361300  0.825300  1.0  0.1072
  H  H316  1  0.882200  0.345200  0.775900  1.0  0.1097
  H  H317  1  0.592700  0.555800  0.929300  1.0  0.1051
  H  H318  1  0.864800  0.481300  0.815900  1.0  0.0918
  H  H319  1  0.550000  0.564600  0.006900  1.0  0.1165
  H  H320  1  0.729600  0.303400  0.786100  1.0  0.0955
  H  H321  1  0.360300  0.250000  0.187700  1.0  0.0947
  H  H322  1  0.139700  0.750000  0.687700  1.0  0.0946
  H  H323  1  0.000000  0.110300  0.437700  1.0  0.094
  H  H324  1  0.500000  0.610300  0.937700  1.0  0.094
  H  H325  1  0.500000  0.889700  0.937700  1.0  0.0933
  H  H326  1  0.000000  0.389700  0.437700  1.0  0.0933
  H  H327  1  0.139700  0.250000  0.312300  1.0  0.0955
  H  H328  1  0.360300  0.750000  0.812300  1.0  0.0956
  H  H329  1  0.860300  0.250000  0.312300  1.0  0.0956
  H  H330  1  0.500000  0.110300  0.062300  1.0  0.0946
  H  H331  1  0.000000  0.610300  0.562300  1.0  0.0946
  H  H332  1  0.000000  0.889700  0.562300  1.0  0.0944
  H  H333  1  0.500000  0.389700  0.062300  1.0  0.0944
  H  H334  1  0.639700  0.750000  0.812300  1.0  0.0955
  H  H335  1  0.860300  0.750000  0.687700  1.0  0.0947
  H  H336  1  0.639700  0.250000  0.187700  1.0  0.0946
  H  H337  1  0.000000  0.619800  0.053800  1.0  0.0935
  H  H338  1  0.500000  0.119800  0.553800  1.0  0.0935
  H  H339  1  0.500000  0.380200  0.553800  1.0  0.0938
  H  H340  1  0.000000  0.880200  0.053800  1.0  0.0938
  H  H341  1  0.630200  0.750000  0.303800  1.0  0.0918
  H  H342  1  0.869800  0.250000  0.803800  1.0  0.0926
  H  H343  1  0.500000  0.619800  0.446200  1.0  0.0935
  H  H344  1  0.000000  0.119800  0.946200  1.0  0.0935
  H  H345  1  0.000000  0.380200  0.946200  1.0  0.0936
  H  H346  1  0.500000  0.880200  0.446200  1.0  0.0936
  H  H347  1  0.869800  0.750000  0.196200  1.0  0.0926
  H  H348  1  0.630200  0.250000  0.696200  1.0  0.092
  H  H349  1  0.369800  0.250000  0.696200  1.0  0.0926
  H  H350  1  0.130200  0.750000  0.196200  1.0  0.092
  H  H351  1  0.130200  0.250000  0.803800  1.0  0.0918
  H  H352  1  0.369800  0.750000  0.303800  1.0  0.0926
  C  C353  1  0.312900  0.438700  0.160160  1.0  0.6813
  C  C354  1  0.189100  0.676700  0.030650  1.0  0.6923
  C  C355  1  0.207500  0.532100  0.092010  1.0  0.6838
  C  C356  1  0.371700  0.446970  0.197560  1.0  0.0189
  C  C357  1  0.382700  0.375080  0.225770  1.0  -0.15
  C  C358  1  0.125100  0.543980  0.067780  1.0  -0.1688
  C  C359  1  0.115660  0.614770  0.038180  1.0  -0.1565
  C  C360  1  0.430200  0.460300  0.233590  1.0  0.7012
  C  C361  1  0.327700  0.364470  0.189360  1.0  -0.1523
  C  C362  1  0.166650  0.631510  0.043680  1.0  -0.1604
  C  C363  1  0.338200  0.415680  0.182180  1.0  -0.1666
  C  C364  1  0.196680  0.603650  0.061900  1.0  -0.0619
  C  C365  1  0.349100  0.345250  0.211110  1.0  0.1426
  C  C366  1  0.175730  0.561300  0.073540  1.0  -0.1283
  C  C367  1  0.095820  0.572100  0.051130  1.0  0.1734
  C  C368  1  0.323400  0.277100  0.243540  1.0  -0.0706
  C  C369  1  0.030200  0.507700  0.039890  1.0  -0.0372
  C  C370  1  0.394200  0.427100  0.218650  1.0  -0.167
  C  C371  1  0.812900  0.938700  0.660160  1.0  0.6813
  C  C372  1  0.689100  0.176700  0.530650  1.0  0.6925
  C  C373  1  0.707500  0.032100  0.592010  1.0  0.6838
  C  C374  1  0.871700  0.946970  0.697560  1.0  0.0189
  C  C375  1  0.882700  0.875080  0.725770  1.0  -0.15
  C  C376  1  0.625100  0.043980  0.567780  1.0  -0.1688
  C  C377  1  0.615660  0.114770  0.538180  1.0  -0.1565
  C  C378  1  0.930200  0.960300  0.733590  1.0  0.7012
  C  C379  1  0.827700  0.864470  0.689360  1.0  -0.1523
  C  C380  1  0.666667  0.131510  0.543680  1.0  -0.1711
  C  C381  1  0.838200  0.915680  0.682180  1.0  -0.1666
  C  C382  1  0.696680  0.103650  0.561900  1.0  -0.0621
  C  C383  1  0.849100  0.845250  0.711110  1.0  0.1426
  C  C384  1  0.675730  0.061300  0.573540  1.0  -0.1283
  C  C385  1  0.595820  0.072100  0.551130  1.0  0.1734
  C  C386  1  0.823400  0.777100  0.743540  1.0  -0.0706
  C  C387  1  0.530200  0.007700  0.539890  1.0  -0.0372
  C  C388  1  0.894200  0.927100  0.718650  1.0  -0.167
  C  C389  1  0.187100  0.561300  0.660160  1.0  0.6808
  C  C390  1  0.310900  0.323300  0.530650  1.0  0.6915
  C  C391  1  0.292500  0.467900  0.592010  1.0  0.6843
  C  C392  1  0.128300  0.553030  0.697560  1.0  0.0183
  C  C393  1  0.117300  0.624920  0.725770  1.0  -0.1518
  C  C394  1  0.374900  0.456020  0.567780  1.0  -0.1678
  C  C395  1  0.384340  0.385230  0.538180  1.0  -0.1574
  C  C396  1  0.069800  0.539700  0.733590  1.0  0.7018
  C  C397  1  0.172300  0.635530  0.689360  1.0  -0.1525
  C  C398  1  0.333333  0.368490  0.543680  1.0  -0.1713
  C  C399  1  0.161800  0.584320  0.682180  1.0  -0.1667
  C  C400  1  0.303320  0.396350  0.561900  1.0  -0.0631
  C  C401  1  0.150900  0.654750  0.711110  1.0  0.1424
  C  C402  1  0.324270  0.438700  0.573540  1.0  -0.128
  C  C403  1  0.404180  0.427900  0.551130  1.0  0.1738
  C  C404  1  0.176600  0.722900  0.743540  1.0  -0.0693
  C  C405  1  0.469800  0.492300  0.539890  1.0  -0.0334
  C  C406  1  0.105800  0.572900  0.718650  1.0  -0.1663
  C  C407  1  0.687100  0.061300  0.160160  1.0  0.6808
  C  C408  1  0.810900  0.823300  0.030650  1.0  0.6913
  C  C409  1  0.792500  0.967900  0.092010  1.0  0.6843
  C  C410  1  0.628300  0.053030  0.197560  1.0  0.0183
  C  C411  1  0.617300  0.124920  0.225770  1.0  -0.1518
  C  C412  1  0.874900  0.956020  0.067780  1.0  -0.1678
  C  C413  1  0.884340  0.885230  0.038180  1.0  -0.1575
  C  C414  1  0.569800  0.039700  0.233590  1.0  0.7018
  C  C415  1  0.672300  0.135530  0.189360  1.0  -0.1525
  C  C416  1  0.833350  0.868490  0.043680  1.0  -0.1601
  C  C417  1  0.661800  0.084320  0.182180  1.0  -0.1667
  C  C418  1  0.803320  0.896350  0.061900  1.0  -0.063
  C  C419  1  0.650900  0.154750  0.211110  1.0  0.1424
  C  C420  1  0.824270  0.938700  0.073540  1.0  -0.128
  C  C421  1  0.904180  0.927900  0.051130  1.0  0.1738
  C  C422  1  0.676600  0.222900  0.243540  1.0  -0.0693
  C  C423  1  0.969800  0.992300  0.039890  1.0  -0.0334
  C  C424  1  0.605800  0.072900  0.218650  1.0  -0.1663
  C  C425  1  0.811300  0.062900  0.410160  1.0  0.6812
  C  C426  1  0.573300  0.939100  0.280650  1.0  0.692
  C  C427  1  0.717900  0.957500  0.342010  1.0  0.684
  C  C428  1  0.803030  0.121700  0.447560  1.0  0.0185
  C  C429  1  0.874920  0.132700  0.475770  1.0  -0.1497
  C  C430  1  0.706020  0.875100  0.317780  1.0  -0.1681
  C  C431  1  0.635230  0.865660  0.288180  1.0  -0.1577
  C  C432  1  0.789700  0.180200  0.483590  1.0  0.7018
  C  C433  1  0.885530  0.077700  0.439360  1.0  -0.1527
  C  C434  1  0.618490  0.916650  0.293680  1.0  -0.16
  C  C435  1  0.834320  0.088200  0.432180  1.0  -0.1668
  C  C436  1  0.646350  0.946680  0.311900  1.0  -0.0649
  C  C437  1  0.904750  0.099100  0.461110  1.0  0.1422
  C  C438  1  0.688700  0.925730  0.323540  1.0  -0.1284
  C  C439  1  0.677900  0.845820  0.301130  1.0  0.174
  C  C440  1  0.972900  0.073400  0.493540  1.0  -0.0684
  C  C441  1  0.742300  0.780200  0.289890  1.0  -0.0323
  C  C442  1  0.822900  0.144200  0.468650  1.0  -0.1676
  C  C443  1  0.311300  0.562900  0.910160  1.0  0.6812
  C  C444  1  0.073300  0.439100  0.780650  1.0  0.692
  C  C445  1  0.217900  0.457500  0.842010  1.0  0.684
  C  C446  1  0.303030  0.621700  0.947560  1.0  0.0185
  C  C447  1  0.374920  0.632700  0.975770  1.0  -0.1497
  C  C448  1  0.206020  0.375100  0.817780  1.0  -0.1681
  C  C449  1  0.135230  0.365660  0.788180  1.0  -0.1577
  C  C450  1  0.289700  0.680200  0.983590  1.0  0.7018
  C  C451  1  0.385530  0.577700  0.939360  1.0  -0.1527
  C  C452  1  0.118490  0.416650  0.793680  1.0  -0.16
  C  C453  1  0.334320  0.588200  0.932180  1.0  -0.1668
  C  C454  1  0.146350  0.446680  0.811900  1.0  -0.0649
  C  C455  1  0.404750  0.599100  0.961110  1.0  0.1422
  C  C456  1  0.188700  0.425730  0.823540  1.0  -0.1284
  C  C457  1  0.177900  0.345820  0.801130  1.0  0.174
  C  C458  1  0.472900  0.573400  0.993540  1.0  -0.0684
  C  C459  1  0.242300  0.280200  0.789890  1.0  -0.0323
  C  C460  1  0.322900  0.644200  0.968650  1.0  -0.1676
  C  C461  1  0.688700  0.937100  0.910160  1.0  0.6811
  C  C462  1  0.926700  0.060900  0.780650  1.0  0.6916
  C  C463  1  0.782100  0.042500  0.842010  1.0  0.6847
  C  C464  1  0.696970  0.878300  0.947560  1.0  0.0194
  C  C465  1  0.625080  0.867300  0.975770  1.0  -0.1503
  C  C466  1  0.793980  0.124900  0.817780  1.0  -0.1692
  C  C467  1  0.864770  0.134340  0.788180  1.0  -0.1574
  C  C468  1  0.710300  0.819800  0.983590  1.0  0.702
  C  C469  1  0.614470  0.922300  0.939360  1.0  -0.1539
  C  C470  1  0.881510  0.083350  0.793680  1.0  -0.1609
  C  C471  1  0.665680  0.911800  0.932180  1.0  -0.1668
  C  C472  1  0.853650  0.053320  0.811900  1.0  -0.0633
  C  C473  1  0.595250  0.900900  0.961110  1.0  0.1421
  C  C474  1  0.811300  0.074270  0.823540  1.0  -0.128
  C  C475  1  0.822100  0.154180  0.801130  1.0  0.1738
  C  C476  1  0.527100  0.926600  0.993540  1.0  -0.0675
  C  C477  1  0.757700  0.219800  0.789890  1.0  -0.036
  C  C478  1  0.677100  0.855800  0.968650  1.0  -0.1683
  C  C479  1  0.188700  0.437100  0.410160  1.0  0.6811
  C  C480  1  0.426700  0.560900  0.280650  1.0  0.6916
  C  C481  1  0.282100  0.542500  0.342010  1.0  0.6847
  C  C482  1  0.196970  0.378300  0.447560  1.0  0.0194
  C  C483  1  0.125080  0.367300  0.475770  1.0  -0.1503
  C  C484  1  0.293980  0.624900  0.317780  1.0  -0.1692
  C  C485  1  0.364770  0.634340  0.288180  1.0  -0.1574
  C  C486  1  0.210300  0.319800  0.483590  1.0  0.702
  C  C487  1  0.114470  0.422300  0.439360  1.0  -0.1539
  C  C488  1  0.381510  0.583350  0.293680  1.0  -0.1609
  C  C489  1  0.165680  0.411800  0.432180  1.0  -0.1668
  C  C490  1  0.353650  0.553320  0.311900  1.0  -0.0633
  C  C491  1  0.095250  0.400900  0.461110  1.0  0.1421
  C  C492  1  0.311300  0.574270  0.323540  1.0  -0.128
  C  C493  1  0.322100  0.654180  0.301130  1.0  0.1738
  C  C494  1  0.027100  0.426600  0.493540  1.0  -0.0675
  C  C495  1  0.257700  0.719800  0.289890  1.0  -0.036
  C  C496  1  0.177100  0.355800  0.468650  1.0  -0.1683
  C  C497  1  0.187100  0.438700  0.339840  1.0  0.6805
  C  C498  1  0.310900  0.676700  0.469350  1.0  0.6918
  C  C499  1  0.292500  0.532100  0.407990  1.0  0.684
  C  C500  1  0.128300  0.446970  0.302440  1.0  0.0183
  C  C501  1  0.117300  0.375080  0.274230  1.0  -0.1513
  C  C502  1  0.374900  0.543980  0.432220  1.0  -0.1671
  C  C503  1  0.384340  0.614770  0.461820  1.0  -0.1574
  C  C504  1  0.069800  0.460300  0.266410  1.0  0.7018
  C  C505  1  0.172300  0.364470  0.310640  1.0  -0.1521
  C  C506  1  0.333333  0.631510  0.456320  1.0  -0.1708
  C  C507  1  0.161800  0.415680  0.317820  1.0  -0.1671
  C  C508  1  0.303320  0.603650  0.438100  1.0  -0.0637
  C  C509  1  0.150900  0.345250  0.288890  1.0  0.1424
  C  C510  1  0.324270  0.561300  0.426460  1.0  -0.1282
  C  C511  1  0.404180  0.572100  0.448870  1.0  0.1738
  C  C512  1  0.176600  0.277100  0.256460  1.0  -0.0671
  C  C513  1  0.469800  0.507700  0.460110  1.0  -0.0358
  C  C514  1  0.105800  0.427100  0.281350  1.0  -0.1661
  C  C515  1  0.687100  0.938700  0.839840  1.0  0.6805
  C  C516  1  0.810900  0.176700  0.969350  1.0  0.6917
  C  C517  1  0.792500  0.032100  0.907990  1.0  0.684
  C  C518  1  0.628300  0.946970  0.802440  1.0  0.0183
  C  C519  1  0.617300  0.875080  0.774230  1.0  -0.1513
  C  C520  1  0.874900  0.043980  0.932220  1.0  -0.1671
  C  C521  1  0.884340  0.114770  0.961820  1.0  -0.1575
  C  C522  1  0.569800  0.960300  0.766410  1.0  0.7018
  C  C523  1  0.672300  0.864470  0.810640  1.0  -0.1521
  C  C524  1  0.833350  0.131510  0.956320  1.0  -0.1598
  C  C525  1  0.661800  0.915680  0.817820  1.0  -0.1671
  C  C526  1  0.803320  0.103650  0.938100  1.0  -0.0637
  C  C527  1  0.650900  0.845250  0.788890  1.0  0.1424
  C  C528  1  0.824270  0.061300  0.926460  1.0  -0.1282
  C  C529  1  0.904180  0.072100  0.948870  1.0  0.1738
  C  C530  1  0.676600  0.777100  0.756460  1.0  -0.0671
  C  C531  1  0.969800  0.007700  0.960110  1.0  -0.0358
  C  C532  1  0.605800  0.927100  0.781350  1.0  -0.1661
  C  C533  1  0.312900  0.561300  0.839840  1.0  0.6808
  C  C534  1  0.189100  0.323300  0.969350  1.0  0.6925
  C  C535  1  0.207500  0.467900  0.907990  1.0  0.6838
  C  C536  1  0.371700  0.553030  0.802440  1.0  0.0197
  C  C537  1  0.382700  0.624920  0.774230  1.0  -0.1509
  C  C538  1  0.125100  0.456020  0.932220  1.0  -0.1683
  C  C539  1  0.115660  0.385230  0.961820  1.0  -0.157
  C  C540  1  0.430200  0.539700  0.766410  1.0  0.7017
  C  C541  1  0.327700  0.635530  0.810640  1.0  -0.1525
  C  C542  1  0.166650  0.368490  0.956320  1.0  -0.1604
  C  C543  1  0.338200  0.584320  0.817820  1.0  -0.167
  C  C544  1  0.196680  0.396350  0.938100  1.0  -0.0622
  C  C545  1  0.349100  0.654750  0.788890  1.0  0.1424
  C  C546  1  0.175730  0.438700  0.926460  1.0  -0.1289
  C  C547  1  0.095820  0.427900  0.948870  1.0  0.1732
  C  C548  1  0.323400  0.722900  0.756460  1.0  -0.0681
  C  C549  1  0.030200  0.492300  0.960110  1.0  -0.0331
  C  C550  1  0.394200  0.572900  0.781350  1.0  -0.1664
  C  C551  1  0.812900  0.061300  0.339840  1.0  0.6808
  C  C552  1  0.689100  0.823300  0.469350  1.0  0.6926
  C  C553  1  0.707500  0.967900  0.407990  1.0  0.6838
  C  C554  1  0.871700  0.053030  0.302440  1.0  0.0197
  C  C555  1  0.882700  0.124920  0.274230  1.0  -0.1509
  C  C556  1  0.625100  0.956020  0.432220  1.0  -0.1683
  C  C557  1  0.615660  0.885230  0.461820  1.0  -0.1569
  C  C558  1  0.930200  0.039700  0.266410  1.0  0.7017
  C  C559  1  0.827700  0.135530  0.310640  1.0  -0.1525
  C  C560  1  0.666667  0.868490  0.456320  1.0  -0.1713
  C  C561  1  0.838200  0.084320  0.317820  1.0  -0.167
  C  C562  1  0.696680  0.896350  0.438100  1.0  -0.0622
  C  C563  1  0.849100  0.154750  0.288890  1.0  0.1424
  C  C564  1  0.675730  0.938700  0.426460  1.0  -0.1289
  C  C565  1  0.595820  0.927900  0.448870  1.0  0.1732
  C  C566  1  0.823400  0.222900  0.256460  1.0  -0.0681
  C  C567  1  0.530200  0.992300  0.460110  1.0  -0.0331
  C  C568  1  0.894200  0.072900  0.281350  1.0  -0.1664
  C  C569  1  0.688700  0.062900  0.089840  1.0  0.6804
  C  C570  1  0.926700  0.939100  0.219350  1.0  0.6919
  C  C571  1  0.782100  0.957500  0.157990  1.0  0.6846
  C  C572  1  0.696970  0.121700  0.052440  1.0  0.0194
  C  C573  1  0.625080  0.132700  0.024230  1.0  -0.1507
  C  C574  1  0.793980  0.875100  0.182220  1.0  -0.1683
  C  C575  1  0.864770  0.865660  0.211820  1.0  -0.1573
  C  C576  1  0.710300  0.180200  0.016410  1.0  0.7022
  C  C577  1  0.614470  0.077700  0.060640  1.0  -0.1532
  C  C578  1  0.881510  0.916650  0.206320  1.0  -0.1612
  C  C579  1  0.665680  0.088200  0.067820  1.0  -0.1671
  C  C580  1  0.853650  0.946680  0.188100  1.0  -0.0639
  C  C581  1  0.595250  0.099100  0.038890  1.0  0.142
  C  C582  1  0.811300  0.925730  0.176460  1.0  -0.1283
  C  C583  1  0.822100  0.845820  0.198870  1.0  0.1741
  C  C584  1  0.527100  0.073400  0.006460  1.0  -0.0672
  C  C585  1  0.757700  0.780200  0.210110  1.0  -0.0335
  C  C586  1  0.677100  0.144200  0.031350  1.0  -0.1677
  C  C587  1  0.188700  0.562900  0.589840  1.0  0.6804
  C  C588  1  0.426700  0.439100  0.719350  1.0  0.6919
  C  C589  1  0.282100  0.457500  0.657990  1.0  0.6846
  C  C590  1  0.196970  0.621700  0.552440  1.0  0.0194
  C  C591  1  0.125080  0.632700  0.524230  1.0  -0.1507
  C  C592  1  0.293980  0.375100  0.682220  1.0  -0.1683
  C  C593  1  0.364770  0.365660  0.711820  1.0  -0.1573
  C  C594  1  0.210300  0.680200  0.516410  1.0  0.7022
  C  C595  1  0.114470  0.577700  0.560640  1.0  -0.1532
  C  C596  1  0.381510  0.416650  0.706320  1.0  -0.1612
  C  C597  1  0.165680  0.588200  0.567820  1.0  -0.1671
  C  C598  1  0.353650  0.446680  0.688100  1.0  -0.0639
  C  C599  1  0.095250  0.599100  0.538890  1.0  0.142
  C  C600  1  0.311300  0.425730  0.676460  1.0  -0.1283
  C  C601  1  0.322100  0.345820  0.698870  1.0  0.1741
  C  C602  1  0.027100  0.573400  0.506460  1.0  -0.0672
  C  C603  1  0.257700  0.280200  0.710110  1.0  -0.0335
  C  C604  1  0.177100  0.644200  0.531350  1.0  -0.1677
  C  C605  1  0.811300  0.937100  0.589840  1.0  0.6808
  C  C606  1  0.573300  0.060900  0.719350  1.0  0.6925
  C  C607  1  0.717900  0.042500  0.657990  1.0  0.6836
  C  C608  1  0.803030  0.878300  0.552440  1.0  0.0194
  C  C609  1  0.874920  0.867300  0.524230  1.0  -0.1498
  C  C610  1  0.706020  0.124900  0.682220  1.0  -0.1679
  C  C611  1  0.635230  0.134340  0.711820  1.0  -0.1593
  C  C612  1  0.789700  0.819800  0.516410  1.0  0.7021
  C  C613  1  0.885530  0.922300  0.560640  1.0  -0.1523
  C  C614  1  0.618490  0.083350  0.706320  1.0  -0.1599
  C  C615  1  0.834320  0.911800  0.567820  1.0  -0.1672
  C  C616  1  0.646350  0.053320  0.688100  1.0  -0.0646
  C  C617  1  0.904750  0.900900  0.538890  1.0  0.142
  C  C618  1  0.688700  0.074270  0.676460  1.0  -0.1286
  C  C619  1  0.677900  0.154180  0.698870  1.0  0.1735
  C  C620  1  0.972900  0.926600  0.506460  1.0  -0.067
  C  C621  1  0.742300  0.219800  0.710110  1.0  -0.0349
  C  C622  1  0.822900  0.855800  0.531350  1.0  -0.1676
  C  C623  1  0.311300  0.437100  0.089840  1.0  0.6808
  C  C624  1  0.073300  0.560900  0.219350  1.0  0.6925
  C  C625  1  0.217900  0.542500  0.157990  1.0  0.6836
  C  C626  1  0.303030  0.378300  0.052440  1.0  0.0194
  C  C627  1  0.374920  0.367300  0.024230  1.0  -0.1498
  C  C628  1  0.206020  0.624900  0.182220  1.0  -0.1679
  C  C629  1  0.135230  0.634340  0.211820  1.0  -0.1593
  C  C630  1  0.289700  0.319800  0.016410  1.0  0.7021
  C  C631  1  0.385530  0.422300  0.060640  1.0  -0.1523
  C  C632  1  0.118490  0.583350  0.206320  1.0  -0.1599
  C  C633  1  0.334320  0.411800  0.067820  1.0  -0.1672
  C  C634  1  0.146350  0.553320  0.188100  1.0  -0.0646
  C  C635  1  0.404750  0.400900  0.038890  1.0  0.142
  C  C636  1  0.188700  0.574270  0.176460  1.0  -0.1286
  C  C637  1  0.177900  0.654180  0.198870  1.0  0.1735
  C  C638  1  0.472900  0.426600  0.006460  1.0  -0.067
  C  C639  1  0.242300  0.719800  0.210110  1.0  -0.0349
  C  C640  1  0.322900  0.355800  0.031350  1.0  -0.1676
  C  C641  1  0.687100  0.561300  0.839840  1.0  0.6805
  C  C642  1  0.810900  0.323300  0.969350  1.0  0.6917
  C  C643  1  0.792500  0.467900  0.907990  1.0  0.6842
  C  C644  1  0.628300  0.553030  0.802440  1.0  0.0186
  C  C645  1  0.617300  0.624920  0.774230  1.0  -0.1514
  C  C646  1  0.874900  0.456020  0.932220  1.0  -0.1673
  C  C647  1  0.884340  0.385230  0.961820  1.0  -0.157
  C  C648  1  0.569800  0.539700  0.766410  1.0  0.7019
  C  C649  1  0.672300  0.635530  0.810640  1.0  -0.1522
  C  C650  1  0.833350  0.368490  0.956320  1.0  -0.16
  C  C651  1  0.661800  0.584320  0.817820  1.0  -0.167
  C  C652  1  0.803320  0.396350  0.938100  1.0  -0.0632
  C  C653  1  0.650900  0.654750  0.788890  1.0  0.1423
  C  C654  1  0.824270  0.438700  0.926460  1.0  -0.1282
  C  C655  1  0.904180  0.427900  0.948870  1.0  0.1737
  C  C656  1  0.676600  0.722900  0.756460  1.0  -0.0649
  C  C657  1  0.969800  0.492300  0.960110  1.0  -0.0338
  C  C658  1  0.605800  0.572900  0.781350  1.0  -0.1661
  C  C659  1  0.187100  0.061300  0.339840  1.0  0.6805
  C  C660  1  0.310900  0.823300  0.469350  1.0  0.6918
  C  C661  1  0.292500  0.967900  0.407990  1.0  0.6842
  C  C662  1  0.128300  0.053030  0.302440  1.0  0.0186
  C  C663  1  0.117300  0.124920  0.274230  1.0  -0.1514
  C  C664  1  0.374900  0.956020  0.432220  1.0  -0.1673
  C  C665  1  0.384340  0.885230  0.461820  1.0  -0.1569
  C  C666  1  0.069800  0.039700  0.266410  1.0  0.7019
  C  C667  1  0.172300  0.135530  0.310640  1.0  -0.1522
  C  C668  1  0.333333  0.868490  0.456320  1.0  -0.1712
  C  C669  1  0.161800  0.084320  0.317820  1.0  -0.167
  C  C670  1  0.303320  0.896350  0.438100  1.0  -0.0633
  C  C671  1  0.150900  0.154750  0.288890  1.0  0.1423
  C  C672  1  0.324270  0.938700  0.426460  1.0  -0.1282
  C  C673  1  0.404180  0.927900  0.448870  1.0  0.1737
  C  C674  1  0.176600  0.222900  0.256460  1.0  -0.0649
  C  C675  1  0.469800  0.992300  0.460110  1.0  -0.0338
  C  C676  1  0.105800  0.072900  0.281350  1.0  -0.1661
  C  C677  1  0.812900  0.438700  0.339840  1.0  0.6808
  C  C678  1  0.689100  0.676700  0.469350  1.0  0.6926
  C  C679  1  0.707500  0.532100  0.407990  1.0  0.6835
  C  C680  1  0.871700  0.446970  0.302440  1.0  0.0191
  C  C681  1  0.882700  0.375080  0.274230  1.0  -0.1509
  C  C682  1  0.625100  0.543980  0.432220  1.0  -0.1681
  C  C683  1  0.615660  0.614770  0.461820  1.0  -0.1579
  C  C684  1  0.930200  0.460300  0.266410  1.0  0.7016
  C  C685  1  0.827700  0.364470  0.310640  1.0  -0.1522
  C  C686  1  0.666667  0.631510  0.456320  1.0  -0.1712
  C  C687  1  0.838200  0.415680  0.317820  1.0  -0.167
  C  C688  1  0.696680  0.603650  0.438100  1.0  -0.0622
  C  C689  1  0.849100  0.345250  0.288890  1.0  0.1425
  C  C690  1  0.675730  0.561300  0.426460  1.0  -0.1287
  C  C691  1  0.595820  0.572100  0.448870  1.0  0.1733
  C  C692  1  0.823400  0.277100  0.256460  1.0  -0.0657
  C  C693  1  0.530200  0.507700  0.460110  1.0  -0.0364
  C  C694  1  0.894200  0.427100  0.281350  1.0  -0.1666
  C  C695  1  0.312900  0.938700  0.839840  1.0  0.6808
  C  C696  1  0.189100  0.176700  0.969350  1.0  0.6925
  C  C697  1  0.207500  0.032100  0.907990  1.0  0.6835
  C  C698  1  0.371700  0.946970  0.802440  1.0  0.0191
  C  C699  1  0.382700  0.875080  0.774230  1.0  -0.1509
  C  C700  1  0.125100  0.043980  0.932220  1.0  -0.1681
  C  C701  1  0.115660  0.114770  0.961820  1.0  -0.158
  C  C702  1  0.430200  0.960300  0.766410  1.0  0.7016
  C  C703  1  0.327700  0.864470  0.810640  1.0  -0.1522
  C  C704  1  0.166650  0.131510  0.956320  1.0  -0.1604
  C  C705  1  0.338200  0.915680  0.817820  1.0  -0.167
  C  C706  1  0.196680  0.103650  0.938100  1.0  -0.0621
  C  C707  1  0.349100  0.845250  0.788890  1.0  0.1425
  C  C708  1  0.175730  0.061300  0.926460  1.0  -0.1287
  C  C709  1  0.095820  0.072100  0.948870  1.0  0.1733
  C  C710  1  0.323400  0.777100  0.756460  1.0  -0.0657
  C  C711  1  0.030200  0.007700  0.960110  1.0  -0.0364
  C  C712  1  0.394200  0.927100  0.781350  1.0  -0.1666
  C  C713  1  0.188700  0.937100  0.589840  1.0  0.6805
  C  C714  1  0.426700  0.060900  0.719350  1.0  0.692
  C  C715  1  0.282100  0.042500  0.657990  1.0  0.6844
  C  C716  1  0.196970  0.878300  0.552440  1.0  0.0194
  C  C717  1  0.125080  0.867300  0.524230  1.0  -0.1504
  C  C718  1  0.293980  0.124900  0.682220  1.0  -0.1685
  C  C719  1  0.364770  0.134340  0.711820  1.0  -0.1576
  C  C720  1  0.210300  0.819800  0.516410  1.0  0.7022
  C  C721  1  0.114470  0.922300  0.560640  1.0  -0.1536
  C  C722  1  0.381510  0.083350  0.706320  1.0  -0.1608
  C  C723  1  0.165680  0.911800  0.567820  1.0  -0.1672
  C  C724  1  0.353650  0.053320  0.688100  1.0  -0.0636
  C  C725  1  0.095250  0.900900  0.538890  1.0  0.142
  C  C726  1  0.311300  0.074270  0.676460  1.0  -0.1284
  C  C727  1  0.322100  0.154180  0.698870  1.0  0.1737
  C  C728  1  0.027100  0.926600  0.506460  1.0  -0.0646
  C  C729  1  0.257700  0.219800  0.710110  1.0  -0.0358
  C  C730  1  0.177100  0.855800  0.531350  1.0  -0.1677
  C  C731  1  0.688700  0.437100  0.089840  1.0  0.6805
  C  C732  1  0.926700  0.560900  0.219350  1.0  0.692
  C  C733  1  0.782100  0.542500  0.157990  1.0  0.6844
  C  C734  1  0.696970  0.378300  0.052440  1.0  0.0194
  C  C735  1  0.625080  0.367300  0.024230  1.0  -0.1504
  C  C736  1  0.793980  0.624900  0.182220  1.0  -0.1685
  C  C737  1  0.864770  0.634340  0.211820  1.0  -0.1576
  C  C738  1  0.710300  0.319800  0.016410  1.0  0.7022
  C  C739  1  0.614470  0.422300  0.060640  1.0  -0.1536
  C  C740  1  0.881510  0.583350  0.206320  1.0  -0.1608
  C  C741  1  0.665680  0.411800  0.067820  1.0  -0.1672
  C  C742  1  0.853650  0.553320  0.188100  1.0  -0.0636
  C  C743  1  0.595250  0.400900  0.038890  1.0  0.142
  C  C744  1  0.811300  0.574270  0.176460  1.0  -0.1284
  C  C745  1  0.822100  0.654180  0.198870  1.0  0.1737
  C  C746  1  0.527100  0.426600  0.006460  1.0  -0.0646
  C  C747  1  0.757700  0.719800  0.210110  1.0  -0.0358
  C  C748  1  0.677100  0.355800  0.031350  1.0  -0.1677
  C  C749  1  0.311300  0.062900  0.089840  1.0  0.6807
  C  C750  1  0.073300  0.939100  0.219350  1.0  0.6923
  C  C751  1  0.217900  0.957500  0.157990  1.0  0.6839
  C  C752  1  0.303030  0.121700  0.052440  1.0  0.0187
  C  C753  1  0.374920  0.132700  0.024230  1.0  -0.1501
  C  C754  1  0.206020  0.875100  0.182220  1.0  -0.1676
  C  C755  1  0.135230  0.865660  0.211820  1.0  -0.1591
  C  C756  1  0.289700  0.180200  0.016410  1.0  0.7021
  C  C757  1  0.385530  0.077700  0.060640  1.0  -0.1523
  C  C758  1  0.118490  0.916650  0.206320  1.0  -0.1598
  C  C759  1  0.334320  0.088200  0.067820  1.0  -0.167
  C  C760  1  0.146350  0.946680  0.188100  1.0  -0.065
  C  C761  1  0.404750  0.099100  0.038890  1.0  0.1421
  C  C762  1  0.188700  0.925730  0.176460  1.0  -0.1286
  C  C763  1  0.177900  0.845820  0.198870  1.0  0.1739
  C  C764  1  0.472900  0.073400  0.006460  1.0  -0.0651
  C  C765  1  0.242300  0.780200  0.210110  1.0  -0.0328
  C  C766  1  0.322900  0.144200  0.031350  1.0  -0.1674
  C  C767  1  0.811300  0.562900  0.589840  1.0  0.6807
  C  C768  1  0.573300  0.439100  0.719350  1.0  0.6923
  C  C769  1  0.717900  0.457500  0.657990  1.0  0.6839
  C  C770  1  0.803030  0.621700  0.552440  1.0  0.0187
  C  C771  1  0.874920  0.632700  0.524230  1.0  -0.1501
  C  C772  1  0.706020  0.375100  0.682220  1.0  -0.1676
  C  C773  1  0.635230  0.365660  0.711820  1.0  -0.1591
  C  C774  1  0.789700  0.680200  0.516410  1.0  0.7021
  C  C775  1  0.885530  0.577700  0.560640  1.0  -0.1523
  C  C776  1  0.618490  0.416650  0.706320  1.0  -0.1598
  C  C777  1  0.834320  0.588200  0.567820  1.0  -0.167
  C  C778  1  0.646350  0.446680  0.688100  1.0  -0.065
  C  C779  1  0.904750  0.599100  0.538890  1.0  0.1421
  C  C780  1  0.688700  0.425730  0.676460  1.0  -0.1286
  C  C781  1  0.677900  0.345820  0.698870  1.0  0.1739
  C  C782  1  0.972900  0.573400  0.506460  1.0  -0.0651
  C  C783  1  0.742300  0.280200  0.710110  1.0  -0.0328
  C  C784  1  0.822900  0.644200  0.531350  1.0  -0.1674
  C  C785  1  0.812900  0.561300  0.660160  1.0  0.6813
  C  C786  1  0.689100  0.323300  0.530650  1.0  0.6923
  C  C787  1  0.707500  0.467900  0.592010  1.0  0.684
  C  C788  1  0.871700  0.553030  0.697560  1.0  0.0194
  C  C789  1  0.882700  0.624920  0.725770  1.0  -0.1503
  C  C790  1  0.625100  0.456020  0.567780  1.0  -0.1692
  C  C791  1  0.615660  0.385230  0.538180  1.0  -0.1565
  C  C792  1  0.930200  0.539700  0.733590  1.0  0.7015
  C  C793  1  0.827700  0.635530  0.689360  1.0  -0.1526
  C  C794  1  0.666667  0.368490  0.543680  1.0  -0.1714
  C  C795  1  0.838200  0.584320  0.682180  1.0  -0.1668
  C  C796  1  0.696680  0.396350  0.561900  1.0  -0.0621
  C  C797  1  0.849100  0.654750  0.711110  1.0  0.1425
  C  C798  1  0.675730  0.438700  0.573540  1.0  -0.1286
  C  C799  1  0.595820  0.427900  0.551130  1.0  0.1733
  C  C800  1  0.823400  0.722900  0.743540  1.0  -0.0679
  C  C801  1  0.530200  0.492300  0.539890  1.0  -0.0329
  C  C802  1  0.894200  0.572900  0.718650  1.0  -0.1666
  C  C803  1  0.312900  0.061300  0.160160  1.0  0.6813
  C  C804  1  0.189100  0.823300  0.030650  1.0  0.6921
  C  C805  1  0.207500  0.967900  0.092010  1.0  0.684
  C  C806  1  0.371700  0.053030  0.197560  1.0  0.0194
  C  C807  1  0.382700  0.124920  0.225770  1.0  -0.1503
  C  C808  1  0.125100  0.956020  0.067780  1.0  -0.1692
  C  C809  1  0.115660  0.885230  0.038180  1.0  -0.1566
  C  C810  1  0.430200  0.039700  0.233590  1.0  0.7015
  C  C811  1  0.327700  0.135530  0.189360  1.0  -0.1526
  C  C812  1  0.166650  0.868490  0.043680  1.0  -0.1605
  C  C813  1  0.338200  0.084320  0.182180  1.0  -0.1668
  C  C814  1  0.196680  0.896350  0.061900  1.0  -0.062
  C  C815  1  0.349100  0.154750  0.211110  1.0  0.1425
  C  C816  1  0.175730  0.938700  0.073540  1.0  -0.1286
  C  C817  1  0.095820  0.927900  0.051130  1.0  0.1733
  C  C818  1  0.323400  0.222900  0.243540  1.0  -0.0679
  C  C819  1  0.030200  0.992300  0.039890  1.0  -0.0329
  C  C820  1  0.394200  0.072900  0.218650  1.0  -0.1666
  C  C821  1  0.687100  0.438700  0.160160  1.0  0.6808
  C  C822  1  0.810900  0.676700  0.030650  1.0  0.6916
  C  C823  1  0.792500  0.532100  0.092010  1.0  0.6843
  C  C824  1  0.628300  0.446970  0.197560  1.0  0.018
  C  C825  1  0.617300  0.375080  0.225770  1.0  -0.1516
  C  C826  1  0.874900  0.543980  0.067780  1.0  -0.1674
  C  C827  1  0.884340  0.614770  0.038180  1.0  -0.157
  C  C828  1  0.569800  0.460300  0.233590  1.0  0.7015
  C  C829  1  0.672300  0.364470  0.189360  1.0  -0.1522
  C  C830  1  0.833350  0.631510  0.043680  1.0  -0.1598
  C  C831  1  0.661800  0.415680  0.182180  1.0  -0.1666
  C  C832  1  0.803320  0.603650  0.061900  1.0  -0.0637
  C  C833  1  0.650900  0.345250  0.211110  1.0  0.1425
  C  C834  1  0.824270  0.561300  0.073540  1.0  -0.1278
  C  C835  1  0.904180  0.572100  0.051130  1.0  0.1738
  C  C836  1  0.676600  0.277100  0.243540  1.0  -0.0671
  C  C837  1  0.969800  0.507700  0.039890  1.0  -0.0367
  C  C838  1  0.605800  0.427100  0.218650  1.0  -0.1665
  C  C839  1  0.187100  0.938700  0.660160  1.0  0.6808
  C  C840  1  0.310900  0.176700  0.530650  1.0  0.6917
  C  C841  1  0.292500  0.032100  0.592010  1.0  0.6843
  C  C842  1  0.128300  0.946970  0.697560  1.0  0.018
  C  C843  1  0.117300  0.875080  0.725770  1.0  -0.1516
  C  C844  1  0.374900  0.043980  0.567780  1.0  -0.1674
  C  C845  1  0.384340  0.114770  0.538180  1.0  -0.157
  C  C846  1  0.069800  0.960300  0.733590  1.0  0.7015
  C  C847  1  0.172300  0.864470  0.689360  1.0  -0.1522
  C  C848  1  0.333333  0.131510  0.543680  1.0  -0.1708
  C  C849  1  0.161800  0.915680  0.682180  1.0  -0.1666
  C  C850  1  0.303320  0.103650  0.561900  1.0  -0.0638
  C  C851  1  0.150900  0.845250  0.711110  1.0  0.1425
  C  C852  1  0.324270  0.061300  0.573540  1.0  -0.1278
  C  C853  1  0.404180  0.072100  0.551130  1.0  0.1738
  C  C854  1  0.176600  0.777100  0.743540  1.0  -0.0671
  C  C855  1  0.469800  0.007700  0.539890  1.0  -0.0367
  C  C856  1  0.105800  0.927100  0.718650  1.0  -0.1665
  C  C857  1  0.311300  0.937100  0.910160  1.0  0.6813
  C  C858  1  0.073300  0.060900  0.780650  1.0  0.6922
  C  C859  1  0.217900  0.042500  0.842010  1.0  0.6838
  C  C860  1  0.303030  0.878300  0.947560  1.0  0.0189
  C  C861  1  0.374920  0.867300  0.975770  1.0  -0.1492
  C  C862  1  0.206020  0.124900  0.817780  1.0  -0.1683
  C  C863  1  0.135230  0.134340  0.788180  1.0  -0.158
  C  C864  1  0.289700  0.819800  0.983590  1.0  0.7019
  C  C865  1  0.385530  0.922300  0.939360  1.0  -0.1528
  C  C866  1  0.118490  0.083350  0.793680  1.0  -0.1601
  C  C867  1  0.334320  0.911800  0.932180  1.0  -0.1669
  C  C868  1  0.146350  0.053320  0.811900  1.0  -0.0644
  C  C869  1  0.404750  0.900900  0.961110  1.0  0.1421
  C  C870  1  0.188700  0.074270  0.823540  1.0  -0.1282
  C  C871  1  0.177900  0.154180  0.801130  1.0  0.1737
  C  C872  1  0.472900  0.926600  0.993540  1.0  -0.0665
  C  C873  1  0.242300  0.219800  0.789890  1.0  -0.0359
  C  C874  1  0.322900  0.855800  0.968650  1.0  -0.1678
  C  C875  1  0.811300  0.437100  0.410160  1.0  0.6813
  C  C876  1  0.573300  0.560900  0.280650  1.0  0.6922
  C  C877  1  0.717900  0.542500  0.342010  1.0  0.6838
  C  C878  1  0.803030  0.378300  0.447560  1.0  0.0189
  C  C879  1  0.874920  0.367300  0.475770  1.0  -0.1492
  C  C880  1  0.706020  0.624900  0.317780  1.0  -0.1683
  C  C881  1  0.635230  0.634340  0.288180  1.0  -0.158
  C  C882  1  0.789700  0.319800  0.483590  1.0  0.7019
  C  C883  1  0.885530  0.422300  0.439360  1.0  -0.1528
  C  C884  1  0.618490  0.583350  0.293680  1.0  -0.1601
  C  C885  1  0.834320  0.411800  0.432180  1.0  -0.1669
  C  C886  1  0.646350  0.553320  0.311900  1.0  -0.0644
  C  C887  1  0.904750  0.400900  0.461110  1.0  0.1421
  C  C888  1  0.688700  0.574270  0.323540  1.0  -0.1282
  C  C889  1  0.677900  0.654180  0.301130  1.0  0.1737
  C  C890  1  0.972900  0.426600  0.493540  1.0  -0.0665
  C  C891  1  0.742300  0.719800  0.289890  1.0  -0.0359
  C  C892  1  0.822900  0.355800  0.468650  1.0  -0.1678
  C  C893  1  0.188700  0.062900  0.410160  1.0  0.681
  C  C894  1  0.426700  0.939100  0.280650  1.0  0.6915
  C  C895  1  0.282100  0.957500  0.342010  1.0  0.6848
  C  C896  1  0.196970  0.121700  0.447560  1.0  0.0194
  C  C897  1  0.125080  0.132700  0.475770  1.0  -0.1508
  C  C898  1  0.293980  0.875100  0.317780  1.0  -0.1689
  C  C899  1  0.364770  0.865660  0.288180  1.0  -0.1572
  C  C900  1  0.210300  0.180200  0.483590  1.0  0.7018
  C  C901  1  0.114470  0.077700  0.439360  1.0  -0.1535
  C  C902  1  0.381510  0.916650  0.293680  1.0  -0.1613
  C  C903  1  0.165680  0.088200  0.432180  1.0  -0.1668
  C  C904  1  0.353650  0.946680  0.311900  1.0  -0.0637
  C  C905  1  0.095250  0.099100  0.461110  1.0  0.1421
  C  C906  1  0.311300  0.925730  0.323540  1.0  -0.1281
  C  C907  1  0.322100  0.845820  0.301130  1.0  0.1742
  C  C908  1  0.027100  0.073400  0.493540  1.0  -0.0648
  C  C909  1  0.257700  0.780200  0.289890  1.0  -0.033
  C  C910  1  0.177100  0.144200  0.468650  1.0  -0.1683
  C  C911  1  0.688700  0.562900  0.910160  1.0  0.681
  C  C912  1  0.926700  0.439100  0.780650  1.0  0.6915
  C  C913  1  0.782100  0.457500  0.842010  1.0  0.6848
  C  C914  1  0.696970  0.621700  0.947560  1.0  0.0194
  C  C915  1  0.625080  0.632700  0.975770  1.0  -0.1508
  C  C916  1  0.793980  0.375100  0.817780  1.0  -0.1689
  C  C917  1  0.864770  0.365660  0.788180  1.0  -0.1572
  C  C918  1  0.710300  0.680200  0.983590  1.0  0.7018
  C  C919  1  0.614470  0.577700  0.939360  1.0  -0.1535
  C  C920  1  0.881510  0.416650  0.793680  1.0  -0.1613
  C  C921  1  0.665680  0.588200  0.932180  1.0  -0.1668
  C  C922  1  0.853650  0.446680  0.811900  1.0  -0.0637
  C  C923  1  0.595250  0.599100  0.961110  1.0  0.1421
  C  C924  1  0.811300  0.425730  0.823540  1.0  -0.1281
  C  C925  1  0.822100  0.345820  0.801130  1.0  0.1742
  C  C926  1  0.527100  0.573400  0.993540  1.0  -0.0648
  C  C927  1  0.757700  0.280200  0.789890  1.0  -0.033
  C  C928  1  0.677100  0.644200  0.968650  1.0  -0.1683
  C  C929  1  0.349100  0.250000  0.204620  1.0  0.0693
  C  C930  1  0.150900  0.750000  0.704620  1.0  0.0692
  C  C931  1  0.000000  0.099100  0.454620  1.0  0.0689
  C  C932  1  0.500000  0.599100  0.954620  1.0  0.0689
  C  C933  1  0.500000  0.900900  0.954620  1.0  0.0688
  C  C934  1  0.000000  0.400900  0.454620  1.0  0.0688
  C  C935  1  0.150900  0.250000  0.295380  1.0  0.0669
  C  C936  1  0.349100  0.750000  0.795380  1.0  0.068
  C  C937  1  0.849100  0.250000  0.295380  1.0  0.068
  C  C938  1  0.500000  0.099100  0.045380  1.0  0.0674
  C  C939  1  0.000000  0.599100  0.545380  1.0  0.0674
  C  C940  1  0.000000  0.900900  0.545380  1.0  0.0672
  C  C941  1  0.500000  0.400900  0.045380  1.0  0.0672
  C  C942  1  0.650900  0.750000  0.795380  1.0  0.0669
  C  C943  1  0.849100  0.750000  0.704620  1.0  0.0693
  C  C944  1  0.650900  0.250000  0.204620  1.0  0.0692
  C  C945  1  0.000000  0.583500  0.049570  1.0  0.139
  C  C946  1  0.500000  0.083500  0.549570  1.0  0.139
  C  C947  1  0.500000  0.416500  0.549570  1.0  0.1401
  C  C948  1  0.000000  0.916500  0.049570  1.0  0.1401
  C  C949  1  0.666500  0.750000  0.299570  1.0  0.1391
  C  C950  1  0.833500  0.250000  0.799570  1.0  0.141
  C  C951  1  0.500000  0.583500  0.450430  1.0  0.1401
  C  C952  1  0.000000  0.083500  0.950430  1.0  0.1401
  C  C953  1  0.000000  0.416500  0.950430  1.0  0.1399
  C  C954  1  0.500000  0.916500  0.450430  1.0  0.1399
  C  C955  1  0.833500  0.750000  0.200430  1.0  0.1413
  C  C956  1  0.666500  0.250000  0.700430  1.0  0.1399
  C  C957  1  0.333500  0.250000  0.700430  1.0  0.1413
  C  C958  1  0.166500  0.750000  0.200430  1.0  0.1399
  C  C959  1  0.166500  0.250000  0.799570  1.0  0.1391
  C  C960  1  0.333500  0.750000  0.299570  1.0  0.141
  N  N961  1  0.042200  0.556830  0.046450  1.0  0.1114
  N  N962  1  0.340100  0.291400  0.218260  1.0  -0.0598
  N  N963  1  0.542200  0.056830  0.546450  1.0  0.1114
  N  N964  1  0.840100  0.791400  0.718260  1.0  -0.0598
  N  N965  1  0.457800  0.443170  0.546450  1.0  0.1134
  N  N966  1  0.159900  0.708600  0.718260  1.0  -0.0613
  N  N967  1  0.957800  0.943170  0.046450  1.0  0.1134
  N  N968  1  0.659900  0.208600  0.218260  1.0  -0.0613
  N  N969  1  0.693170  0.792200  0.296450  1.0  0.1151
  N  N970  1  0.958600  0.090100  0.468260  1.0  -0.0599
  N  N971  1  0.193170  0.292200  0.796450  1.0  0.1151
  N  N972  1  0.458600  0.590100  0.968260  1.0  -0.0599
  N  N973  1  0.806830  0.207800  0.796450  1.0  0.1145
  N  N974  1  0.541400  0.909900  0.968260  1.0  -0.0599
  N  N975  1  0.306830  0.707800  0.296450  1.0  0.1145
  N  N976  1  0.041400  0.409900  0.468260  1.0  -0.0599
  N  N977  1  0.457800  0.556830  0.453550  1.0  0.1145
  N  N978  1  0.159900  0.291400  0.281740  1.0  -0.0612
  N  N979  1  0.957800  0.056830  0.953550  1.0  0.1145
  N  N980  1  0.659900  0.791400  0.781740  1.0  -0.0612
  N  N981  1  0.042200  0.443170  0.953550  1.0  0.1119
  N  N982  1  0.340100  0.708600  0.781740  1.0  -0.0605
  N  N983  1  0.542200  0.943170  0.453550  1.0  0.1119
  N  N984  1  0.840100  0.208600  0.281740  1.0  -0.0605
  N  N985  1  0.806830  0.792200  0.203550  1.0  0.1157
  N  N986  1  0.541400  0.090100  0.031740  1.0  -0.0601
  N  N987  1  0.306830  0.292200  0.703550  1.0  0.1157
  N  N988  1  0.041400  0.590100  0.531740  1.0  -0.0601
  N  N989  1  0.693170  0.207800  0.703550  1.0  0.1151
  N  N990  1  0.958600  0.909900  0.531740  1.0  -0.0601
  N  N991  1  0.193170  0.707800  0.203550  1.0  0.1151
  N  N992  1  0.458600  0.409900  0.031740  1.0  -0.0601
  N  N993  1  0.957800  0.443170  0.953550  1.0  0.1142
  N  N994  1  0.659900  0.708600  0.781740  1.0  -0.0616
  N  N995  1  0.457800  0.943170  0.453550  1.0  0.1142
  N  N996  1  0.159900  0.208600  0.281740  1.0  -0.0616
  N  N997  1  0.542200  0.556830  0.453550  1.0  0.1122
  N  N998  1  0.840100  0.291400  0.281740  1.0  -0.06
  N  N999  1  0.042200  0.056830  0.953550  1.0  0.1122
  N  N1000  1  0.340100  0.791400  0.781740  1.0  -0.06
  N  N1001  1  0.306830  0.207800  0.703550  1.0  0.1151
  N  N1002  1  0.041400  0.909900  0.531740  1.0  -0.06
  N  N1003  1  0.806830  0.707800  0.203550  1.0  0.1151
  N  N1004  1  0.541400  0.409900  0.031740  1.0  -0.06
  N  N1005  1  0.193170  0.792200  0.203550  1.0  0.1158
  N  N1006  1  0.458600  0.090100  0.031740  1.0  -0.0602
  N  N1007  1  0.693170  0.292200  0.703550  1.0  0.1158
  N  N1008  1  0.958600  0.590100  0.531740  1.0  -0.0602
  N  N1009  1  0.542200  0.443170  0.546450  1.0  0.1111
  N  N1010  1  0.840100  0.708600  0.718260  1.0  -0.0602
  N  N1011  1  0.042200  0.943170  0.046450  1.0  0.1111
  N  N1012  1  0.340100  0.208600  0.218260  1.0  -0.0602
  N  N1013  1  0.957800  0.556830  0.046450  1.0  0.1138
  N  N1014  1  0.659900  0.291400  0.218260  1.0  -0.0611
  N  N1015  1  0.457800  0.056830  0.546450  1.0  0.1138
  N  N1016  1  0.159900  0.791400  0.718260  1.0  -0.0611
  N  N1017  1  0.193170  0.207800  0.796450  1.0  0.1145
  N  N1018  1  0.458600  0.909900  0.968260  1.0  -0.0598
  N  N1019  1  0.693170  0.707800  0.296450  1.0  0.1145
  N  N1020  1  0.958600  0.409900  0.468260  1.0  -0.0598
  N  N1021  1  0.306830  0.792200  0.296450  1.0  0.115
  N  N1022  1  0.041400  0.090100  0.468260  1.0  -0.0599
  N  N1023  1  0.806830  0.292200  0.796450  1.0  0.115
  N  N1024  1  0.541400  0.590100  0.968260  1.0  -0.0599
  O  O1025  1  0.277300  0.411820  0.149750  1.0  -0.6098
  O  O1026  1  0.444000  0.502630  0.225830  1.0  -0.6049
  O  O1027  1  0.328970  0.484030  0.152720  1.0  -0.6422
  O  O1028  1  0.166530  0.695250  0.012050  1.0  -0.6225
  O  O1029  1  0.254170  0.545990  0.094910  1.0  -0.6357
  O  O1030  1  0.232060  0.695380  0.039730  1.0  -0.6546
  O  O1031  1  0.446730  0.439190  0.253940  1.0  -0.6402
  O  O1032  1  0.185010  0.494950  0.103660  1.0  -0.6167
  O  O1033  1  0.777300  0.911820  0.649750  1.0  -0.6098
  O  O1034  1  0.944000  0.002630  0.725830  1.0  -0.6049
  O  O1035  1  0.828970  0.984030  0.652720  1.0  -0.6422
  O  O1036  1  0.666530  0.195250  0.512050  1.0  -0.6225
  O  O1037  1  0.754170  0.045990  0.594910  1.0  -0.6357
  O  O1038  1  0.732060  0.195380  0.539730  1.0  -0.6546
  O  O1039  1  0.946730  0.939190  0.753940  1.0  -0.6402
  O  O1040  1  0.685010  0.994950  0.603660  1.0  -0.6167
  O  O1041  1  0.222700  0.588180  0.649750  1.0  -0.609
  O  O1042  1  0.056000  0.497370  0.725830  1.0  -0.6051
  O  O1043  1  0.171030  0.515970  0.652720  1.0  -0.6423
  O  O1044  1  0.333470  0.304750  0.512050  1.0  -0.6227
  O  O1045  1  0.245830  0.454010  0.594910  1.0  -0.6356
  O  O1046  1  0.267940  0.304620  0.539730  1.0  -0.6558
  O  O1047  1  0.053270  0.560810  0.753940  1.0  -0.6415
  O  O1048  1  0.314990  0.505050  0.603660  1.0  -0.6167
  O  O1049  1  0.722700  0.088180  0.149750  1.0  -0.609
  O  O1050  1  0.556000  0.997370  0.225830  1.0  -0.6051
  O  O1051  1  0.671030  0.015970  0.152720  1.0  -0.6423
  O  O1052  1  0.833470  0.804750  0.012050  1.0  -0.6227
  O  O1053  1  0.745830  0.954010  0.094910  1.0  -0.6356
  O  O1054  1  0.767940  0.804620  0.039730  1.0  -0.6558
  O  O1055  1  0.553270  0.060810  0.253940  1.0  -0.6415
  O  O1056  1  0.814990  0.005050  0.103660  1.0  -0.6167
  O  O1057  1  0.838180  0.027300  0.399750  1.0  -0.6096
  O  O1058  1  0.747370  0.194000  0.475830  1.0  -0.6038
  O  O1059  1  0.765970  0.078970  0.402720  1.0  -0.6416
  O  O1060  1  0.554750  0.916530  0.262050  1.0  -0.6229
  O  O1061  1  0.704010  0.004170  0.344910  1.0  -0.637
  O  O1062  1  0.554620  0.982060  0.289730  1.0  -0.6569
  O  O1063  1  0.810810  0.196730  0.503940  1.0  -0.6397
  O  O1064  1  0.755050  0.935010  0.353660  1.0  -0.6167
  O  O1065  1  0.338180  0.527300  0.899750  1.0  -0.6096
  O  O1066  1  0.247370  0.694000  0.975830  1.0  -0.6038
  O  O1067  1  0.265970  0.578970  0.902720  1.0  -0.6416
  O  O1068  1  0.054750  0.416530  0.762050  1.0  -0.6229
  O  O1069  1  0.204010  0.504170  0.844910  1.0  -0.637
  O  O1070  1  0.054620  0.482060  0.789730  1.0  -0.6569
  O  O1071  1  0.310810  0.696730  0.003940  1.0  -0.6397
  O  O1072  1  0.255050  0.435010  0.853660  1.0  -0.6167
  O  O1073  1  0.661820  0.972700  0.899750  1.0  -0.6097
  O  O1074  1  0.752630  0.806000  0.975830  1.0  -0.6051
  O  O1075  1  0.734030  0.921030  0.902720  1.0  -0.6403
  O  O1076  1  0.945250  0.083470  0.762050  1.0  -0.6228
  O  O1077  1  0.795990  0.995830  0.844910  1.0  -0.6358
  O  O1078  1  0.945380  0.017940  0.789730  1.0  -0.6566
  O  O1079  1  0.689190  0.803270  0.003940  1.0  -0.641
  O  O1080  1  0.744950  0.064990  0.853660  1.0  -0.6172
  O  O1081  1  0.161820  0.472700  0.399750  1.0  -0.6097
  O  O1082  1  0.252630  0.306000  0.475830  1.0  -0.6051
  O  O1083  1  0.234030  0.421030  0.402720  1.0  -0.6403
  O  O1084  1  0.445250  0.583470  0.262050  1.0  -0.6228
  O  O1085  1  0.295990  0.495830  0.344910  1.0  -0.6358
  O  O1086  1  0.445380  0.517940  0.289730  1.0  -0.6566
  O  O1087  1  0.189190  0.303270  0.503940  1.0  -0.641
  O  O1088  1  0.244950  0.564990  0.353660  1.0  -0.6172
  O  O1089  1  0.222700  0.411820  0.350250  1.0  -0.6091
  O  O1090  1  0.056000  0.502630  0.274170  1.0  -0.6049
  O  O1091  1  0.171030  0.484030  0.347280  1.0  -0.6433
  O  O1092  1  0.333470  0.695250  0.487950  1.0  -0.6221
  O  O1093  1  0.245830  0.545990  0.405090  1.0  -0.6348
  O  O1094  1  0.267940  0.695380  0.460270  1.0  -0.6557
  O  O1095  1  0.053270  0.439190  0.246060  1.0  -0.6402
  O  O1096  1  0.314990  0.494950  0.396340  1.0  -0.617
  O  O1097  1  0.722700  0.911820  0.850250  1.0  -0.6091
  O  O1098  1  0.556000  0.002630  0.774170  1.0  -0.6049
  O  O1099  1  0.671030  0.984030  0.847280  1.0  -0.6433
  O  O1100  1  0.833470  0.195250  0.987950  1.0  -0.622
  O  O1101  1  0.745830  0.045990  0.905090  1.0  -0.6348
  O  O1102  1  0.767940  0.195380  0.960270  1.0  -0.6557
  O  O1103  1  0.553270  0.939190  0.746060  1.0  -0.6402
  O  O1104  1  0.814990  0.994950  0.896340  1.0  -0.617
  O  O1105  1  0.277300  0.588180  0.850250  1.0  -0.6092
  O  O1106  1  0.444000  0.497370  0.774170  1.0  -0.6049
  O  O1107  1  0.328970  0.515970  0.847280  1.0  -0.6419
  O  O1108  1  0.166530  0.304750  0.987950  1.0  -0.6218
  O  O1109  1  0.254170  0.454010  0.905090  1.0  -0.6356
  O  O1110  1  0.232060  0.304620  0.960270  1.0  -0.6551
  O  O1111  1  0.446730  0.560810  0.746060  1.0  -0.6408
  O  O1112  1  0.185010  0.505050  0.896340  1.0  -0.6176
  O  O1113  1  0.777300  0.088180  0.350250  1.0  -0.6092
  O  O1114  1  0.944000  0.997370  0.274170  1.0  -0.6049
  O  O1115  1  0.828970  0.015970  0.347280  1.0  -0.6419
  O  O1116  1  0.666530  0.804750  0.487950  1.0  -0.6219
  O  O1117  1  0.754170  0.954010  0.405090  1.0  -0.6356
  O  O1118  1  0.732060  0.804620  0.460270  1.0  -0.6551
  O  O1119  1  0.946730  0.060810  0.246060  1.0  -0.6408
  O  O1120  1  0.685010  0.005050  0.396340  1.0  -0.6176
  O  O1121  1  0.661820  0.027300  0.100250  1.0  -0.6092
  O  O1122  1  0.752630  0.194000  0.024170  1.0  -0.6049
  O  O1123  1  0.734030  0.078970  0.097280  1.0  -0.6405
  O  O1124  1  0.945250  0.916530  0.237950  1.0  -0.6228
  O  O1125  1  0.795990  0.004170  0.155090  1.0  -0.6361
  O  O1126  1  0.945380  0.982060  0.210270  1.0  -0.6581
  O  O1127  1  0.689190  0.196730  0.996060  1.0  -0.6406
  O  O1128  1  0.744950  0.935010  0.146340  1.0  -0.6175
  O  O1129  1  0.161820  0.527300  0.600250  1.0  -0.6092
  O  O1130  1  0.252630  0.694000  0.524170  1.0  -0.6048
  O  O1131  1  0.234030  0.578970  0.597280  1.0  -0.6405
  O  O1132  1  0.445250  0.416530  0.737950  1.0  -0.6228
  O  O1133  1  0.295990  0.504170  0.655090  1.0  -0.6361
  O  O1134  1  0.445380  0.482060  0.710270  1.0  -0.6581
  O  O1135  1  0.189190  0.696730  0.496060  1.0  -0.6406
  O  O1136  1  0.244950  0.435010  0.646340  1.0  -0.6175
  O  O1137  1  0.838180  0.972700  0.600250  1.0  -0.6095
  O  O1138  1  0.747370  0.806000  0.524170  1.0  -0.6039
  O  O1139  1  0.765970  0.921030  0.597280  1.0  -0.6418
  O  O1140  1  0.554750  0.083470  0.737950  1.0  -0.6229
  O  O1141  1  0.704010  0.995830  0.655090  1.0  -0.6359
  O  O1142  1  0.554620  0.017940  0.710270  1.0  -0.6564
  O  O1143  1  0.810810  0.803270  0.496060  1.0  -0.6395
  O  O1144  1  0.755050  0.064990  0.646340  1.0  -0.6169
  O  O1145  1  0.338180  0.472700  0.100250  1.0  -0.6095
  O  O1146  1  0.247370  0.306000  0.024170  1.0  -0.604
  O  O1147  1  0.265970  0.421030  0.097280  1.0  -0.6418
  O  O1148  1  0.054750  0.583470  0.237950  1.0  -0.6229
  O  O1149  1  0.204010  0.495830  0.155090  1.0  -0.6359
  O  O1150  1  0.054620  0.517940  0.210270  1.0  -0.6564
  O  O1151  1  0.310810  0.303270  0.996060  1.0  -0.6395
  O  O1152  1  0.255050  0.564990  0.146340  1.0  -0.6169
  O  O1153  1  0.722700  0.588180  0.850250  1.0  -0.6091
  O  O1154  1  0.556000  0.497370  0.774170  1.0  -0.6052
  O  O1155  1  0.671030  0.515970  0.847280  1.0  -0.6422
  O  O1156  1  0.833470  0.304750  0.987950  1.0  -0.6224
  O  O1157  1  0.745830  0.454010  0.905090  1.0  -0.6353
  O  O1158  1  0.767940  0.304620  0.960270  1.0  -0.6558
  O  O1159  1  0.553270  0.560810  0.746060  1.0  -0.6413
  O  O1160  1  0.814990  0.505050  0.896340  1.0  -0.6166
  O  O1161  1  0.222700  0.088180  0.350250  1.0  -0.6091
  O  O1162  1  0.056000  0.997370  0.274170  1.0  -0.6052
  O  O1163  1  0.171030  0.015970  0.347280  1.0  -0.6422
  O  O1164  1  0.333470  0.804750  0.487950  1.0  -0.6224
  O  O1165  1  0.245830  0.954010  0.405090  1.0  -0.6353
  O  O1166  1  0.267940  0.804620  0.460270  1.0  -0.6558
  O  O1167  1  0.053270  0.060810  0.246060  1.0  -0.6413
  O  O1168  1  0.314990  0.005050  0.396340  1.0  -0.6166
  O  O1169  1  0.777300  0.411820  0.350250  1.0  -0.6096
  O  O1170  1  0.944000  0.502630  0.274170  1.0  -0.6049
  O  O1171  1  0.828970  0.484030  0.347280  1.0  -0.6426
  O  O1172  1  0.666530  0.695250  0.487950  1.0  -0.6219
  O  O1173  1  0.754170  0.545990  0.405090  1.0  -0.6356
  O  O1174  1  0.732060  0.695380  0.460270  1.0  -0.655
  O  O1175  1  0.946730  0.439190  0.246060  1.0  -0.6395
  O  O1176  1  0.685010  0.494950  0.396340  1.0  -0.6173
  O  O1177  1  0.277300  0.911820  0.850250  1.0  -0.6096
  O  O1178  1  0.444000  0.002630  0.774170  1.0  -0.6049
  O  O1179  1  0.328970  0.984030  0.847280  1.0  -0.6426
  O  O1180  1  0.166530  0.195250  0.987950  1.0  -0.6218
  O  O1181  1  0.254170  0.045990  0.905090  1.0  -0.6356
  O  O1182  1  0.232060  0.195380  0.960270  1.0  -0.655
  O  O1183  1  0.446730  0.939190  0.746060  1.0  -0.6395
  O  O1184  1  0.185010  0.994950  0.896340  1.0  -0.6173
  O  O1185  1  0.161820  0.972700  0.600250  1.0  -0.6099
  O  O1186  1  0.252630  0.806000  0.524170  1.0  -0.6054
  O  O1187  1  0.234030  0.921030  0.597280  1.0  -0.6403
  O  O1188  1  0.445250  0.083470  0.737950  1.0  -0.6224
  O  O1189  1  0.295990  0.995830  0.655090  1.0  -0.6353
  O  O1190  1  0.445380  0.017940  0.710270  1.0  -0.656
  O  O1191  1  0.189190  0.803270  0.496060  1.0  -0.6403
  O  O1192  1  0.244950  0.064990  0.646340  1.0  -0.6173
  O  O1193  1  0.661820  0.472700  0.100250  1.0  -0.6099
  O  O1194  1  0.752630  0.306000  0.024170  1.0  -0.6054
  O  O1195  1  0.734030  0.421030  0.097280  1.0  -0.6403
  O  O1196  1  0.945250  0.583470  0.237950  1.0  -0.6224
  O  O1197  1  0.795990  0.495830  0.155090  1.0  -0.6353
  O  O1198  1  0.945380  0.517940  0.210270  1.0  -0.656
  O  O1199  1  0.689190  0.303270  0.996060  1.0  -0.6403
  O  O1200  1  0.744950  0.564990  0.146340  1.0  -0.6173
  O  O1201  1  0.338180  0.027300  0.100250  1.0  -0.6096
  O  O1202  1  0.247370  0.194000  0.024170  1.0  -0.6036
  O  O1203  1  0.265970  0.078970  0.097280  1.0  -0.6416
  O  O1204  1  0.054750  0.916530  0.237950  1.0  -0.6229
  O  O1205  1  0.204010  0.004170  0.155090  1.0  -0.6371
  O  O1206  1  0.054620  0.982060  0.210270  1.0  -0.6579
  O  O1207  1  0.310810  0.196730  0.996060  1.0  -0.6391
  O  O1208  1  0.255050  0.935010  0.146340  1.0  -0.6171
  O  O1209  1  0.838180  0.527300  0.600250  1.0  -0.6096
  O  O1210  1  0.747370  0.694000  0.524170  1.0  -0.6035
  O  O1211  1  0.765970  0.578970  0.597280  1.0  -0.6416
  O  O1212  1  0.554750  0.416530  0.737950  1.0  -0.6229
  O  O1213  1  0.704010  0.504170  0.655090  1.0  -0.6371
  O  O1214  1  0.554620  0.482060  0.710270  1.0  -0.6579
  O  O1215  1  0.810810  0.696730  0.496060  1.0  -0.6391
  O  O1216  1  0.755050  0.435010  0.646340  1.0  -0.6171
  O  O1217  1  0.777300  0.588180  0.649750  1.0  -0.609
  O  O1218  1  0.944000  0.497370  0.725830  1.0  -0.6048
  O  O1219  1  0.828970  0.515970  0.652720  1.0  -0.6417
  O  O1220  1  0.666530  0.304750  0.512050  1.0  -0.623
  O  O1221  1  0.754170  0.454010  0.594910  1.0  -0.6359
  O  O1222  1  0.732060  0.304620  0.539730  1.0  -0.6546
  O  O1223  1  0.946730  0.560810  0.753940  1.0  -0.6408
  O  O1224  1  0.685010  0.505050  0.603660  1.0  -0.6177
  O  O1225  1  0.277300  0.088180  0.149750  1.0  -0.609
  O  O1226  1  0.444000  0.997370  0.225830  1.0  -0.6048
  O  O1227  1  0.328970  0.015970  0.152720  1.0  -0.6417
  O  O1228  1  0.166530  0.804750  0.012050  1.0  -0.623
  O  O1229  1  0.254170  0.954010  0.094910  1.0  -0.6359
  O  O1230  1  0.232060  0.804620  0.039730  1.0  -0.6546
  O  O1231  1  0.446730  0.060810  0.253940  1.0  -0.6408
  O  O1232  1  0.185010  0.005050  0.103660  1.0  -0.6177
  O  O1233  1  0.722700  0.411820  0.149750  1.0  -0.6093
  O  O1234  1  0.556000  0.502630  0.225830  1.0  -0.6051
  O  O1235  1  0.671030  0.484030  0.152720  1.0  -0.6434
  O  O1236  1  0.833470  0.695250  0.012050  1.0  -0.6225
  O  O1237  1  0.745830  0.545990  0.094910  1.0  -0.6349
  O  O1238  1  0.767940  0.695380  0.039730  1.0  -0.6558
  O  O1239  1  0.553270  0.439190  0.253940  1.0  -0.6407
  O  O1240  1  0.814990  0.494950  0.103660  1.0  -0.6166
  O  O1241  1  0.222700  0.911820  0.649750  1.0  -0.6093
  O  O1242  1  0.056000  0.002630  0.725830  1.0  -0.6051
  O  O1243  1  0.171030  0.984030  0.652720  1.0  -0.6434
  O  O1244  1  0.333470  0.195250  0.512050  1.0  -0.6225
  O  O1245  1  0.245830  0.045990  0.594910  1.0  -0.6349
  O  O1246  1  0.267940  0.195380  0.539730  1.0  -0.6558
  O  O1247  1  0.053270  0.939190  0.753940  1.0  -0.6407
  O  O1248  1  0.314990  0.994950  0.603660  1.0  -0.6166
  O  O1249  1  0.338180  0.972700  0.899750  1.0  -0.6089
  O  O1250  1  0.247370  0.806000  0.975830  1.0  -0.6043
  O  O1251  1  0.265970  0.921030  0.902720  1.0  -0.6418
  O  O1252  1  0.054750  0.083470  0.762050  1.0  -0.6236
  O  O1253  1  0.204010  0.995830  0.844910  1.0  -0.6364
  O  O1254  1  0.054620  0.017940  0.789730  1.0  -0.6567
  O  O1255  1  0.310810  0.803270  0.003940  1.0  -0.6399
  O  O1256  1  0.255050  0.064990  0.853660  1.0  -0.6168
  O  O1257  1  0.838180  0.472700  0.399750  1.0  -0.6089
  O  O1258  1  0.747370  0.306000  0.475830  1.0  -0.6043
  O  O1259  1  0.765970  0.421030  0.402720  1.0  -0.6418
  O  O1260  1  0.554750  0.583470  0.262050  1.0  -0.6236
  O  O1261  1  0.704010  0.495830  0.344910  1.0  -0.6364
  O  O1262  1  0.554620  0.517940  0.289730  1.0  -0.6567
  O  O1263  1  0.810810  0.303270  0.503940  1.0  -0.6399
  O  O1264  1  0.755050  0.564990  0.353660  1.0  -0.6168
  O  O1265  1  0.161820  0.027300  0.399750  1.0  -0.6094
  O  O1266  1  0.252630  0.194000  0.475830  1.0  -0.6044
  O  O1267  1  0.234030  0.078970  0.402720  1.0  -0.6405
  O  O1268  1  0.445250  0.916530  0.262050  1.0  -0.6226
  O  O1269  1  0.295990  0.004170  0.344910  1.0  -0.636
  O  O1270  1  0.445380  0.982060  0.289730  1.0  -0.6565
  O  O1271  1  0.189190  0.196730  0.503940  1.0  -0.6411
  O  O1272  1  0.244950  0.935010  0.353660  1.0  -0.617
  O  O1273  1  0.661820  0.527300  0.899750  1.0  -0.6094
  O  O1274  1  0.752630  0.694000  0.975830  1.0  -0.6044
  O  O1275  1  0.734030  0.578970  0.902720  1.0  -0.6405
  O  O1276  1  0.945250  0.416530  0.762050  1.0  -0.6226
  O  O1277  1  0.795990  0.504170  0.844910  1.0  -0.636
  O  O1278  1  0.945380  0.482060  0.789730  1.0  -0.6565
  O  O1279  1  0.689190  0.696730  0.003940  1.0  -0.6411
  O  O1280  1  0.744950  0.435010  0.853660  1.0  -0.617
