# generated using pymatgen
data_Cu3H17C36N9O14
_symmetry_space_group_name_H-M   'P 1'
_cell_length_a   31.42060000
_cell_length_b   31.42060000
_cell_length_c   44.82390000
_cell_angle_alpha   90.00000000
_cell_angle_beta   90.00000000
_cell_angle_gamma   90.00000000
_symmetry_Int_Tables_number   1
_chemical_formula_structural   Cu3H17C36N9O14
_chemical_formula_sum   'Cu48 H272 C576 N144 O224'
_cell_volume   44252.57924842
_cell_formula_units_Z   16
loop_
 _symmetry_equiv_pos_site_id
 _symmetry_equiv_pos_as_xyz
  1  'x, y, z'
loop_
 _atom_site_type_symbol
 _atom_site_label
 _atom_site_symmetry_multiplicity
 _atom_site_fract_x
 _atom_site_fract_y
 _atom_site_fract_z
 _atom_site_occupancy
 _atom_site_charge
  Cu  Cu1  1  0.640130  0.694080  0.332380  1.0  0.9432
  Cu  Cu2  1  0.605060  0.645910  0.373920  1.0  0.9656
  Cu  Cu3  1  0.140130  0.194080  0.832380  1.0  0.9432
  Cu  Cu4  1  0.105060  0.145910  0.873920  1.0  0.9656
  Cu  Cu5  1  0.359870  0.305920  0.332380  1.0  0.9452
  Cu  Cu6  1  0.394940  0.354090  0.373920  1.0  0.9639
  Cu  Cu7  1  0.859870  0.805920  0.832380  1.0  0.9452
  Cu  Cu8  1  0.894940  0.854090  0.873920  1.0  0.9639
  Cu  Cu9  1  0.305920  0.640130  0.332380  1.0  0.945
  Cu  Cu10  1  0.354090  0.605060  0.373920  1.0  0.9649
  Cu  Cu11  1  0.805920  0.140130  0.832380  1.0  0.945
  Cu  Cu12  1  0.854090  0.105060  0.873920  1.0  0.9649
  Cu  Cu13  1  0.694080  0.359870  0.332380  1.0  0.9431
  Cu  Cu14  1  0.645910  0.394940  0.373920  1.0  0.9658
  Cu  Cu15  1  0.194080  0.859870  0.832380  1.0  0.9431
  Cu  Cu16  1  0.145910  0.894940  0.873920  1.0  0.9658
  Cu  Cu17  1  0.359870  0.305920  0.667620  1.0  0.9442
  Cu  Cu18  1  0.394940  0.354090  0.626080  1.0  0.9647
  Cu  Cu19  1  0.859870  0.805920  0.167620  1.0  0.9442
  Cu  Cu20  1  0.894940  0.854090  0.126080  1.0  0.9647
  Cu  Cu21  1  0.640130  0.694080  0.667620  1.0  0.9417
  Cu  Cu22  1  0.605060  0.645910  0.626080  1.0  0.9654
  Cu  Cu23  1  0.140130  0.194080  0.167620  1.0  0.9417
  Cu  Cu24  1  0.105060  0.145910  0.126080  1.0  0.9654
  Cu  Cu25  1  0.694080  0.359870  0.667620  1.0  0.9425
  Cu  Cu26  1  0.645910  0.394940  0.626080  1.0  0.9664
  Cu  Cu27  1  0.194080  0.859870  0.167620  1.0  0.9425
  Cu  Cu28  1  0.145910  0.894940  0.126080  1.0  0.9664
  Cu  Cu29  1  0.305920  0.640130  0.667620  1.0  0.9437
  Cu  Cu30  1  0.354090  0.605060  0.626080  1.0  0.9646
  Cu  Cu31  1  0.805920  0.140130  0.167620  1.0  0.9437
  Cu  Cu32  1  0.854090  0.105060  0.126080  1.0  0.9646
  Cu  Cu33  1  0.038860  0.748630  0.000000  1.0  0.9031
  Cu  Cu34  1  0.051120  0.665480  0.000000  1.0  0.8946
  Cu  Cu35  1  0.538860  0.248630  0.500000  1.0  0.9031
  Cu  Cu36  1  0.551120  0.165480  0.500000  1.0  0.8946
  Cu  Cu37  1  0.961140  0.251370  0.000000  1.0  0.9044
  Cu  Cu38  1  0.948880  0.334520  0.000000  1.0  0.8947
  Cu  Cu39  1  0.461140  0.751370  0.500000  1.0  0.9044
  Cu  Cu40  1  0.448880  0.834520  0.500000  1.0  0.8947
  Cu  Cu41  1  0.251370  0.038860  0.000000  1.0  0.9038
  Cu  Cu42  1  0.334520  0.051120  0.000000  1.0  0.8953
  Cu  Cu43  1  0.751370  0.538860  0.500000  1.0  0.9038
  Cu  Cu44  1  0.834520  0.551120  0.500000  1.0  0.8953
  Cu  Cu45  1  0.748630  0.961140  0.000000  1.0  0.9056
  Cu  Cu46  1  0.665480  0.948880  0.000000  1.0  0.8944
  Cu  Cu47  1  0.248630  0.461140  0.500000  1.0  0.9056
  Cu  Cu48  1  0.165480  0.448880  0.500000  1.0  0.8944
  H  H49  1  0.878600  0.683000  0.125600  1.0  0.1227
  H  H50  1  0.853100  0.615300  0.135500  1.0  0.1116
  H  H51  1  0.553300  0.618500  0.413000  1.0  0.4876
  H  H52  1  0.690700  0.725000  0.293800  1.0  0.4433
  H  H53  1  0.951000  0.756100  0.072600  1.0  0.119
  H  H54  1  0.642200  0.523000  0.341200  1.0  0.1121
  H  H55  1  0.950700  0.629000  0.061700  1.0  0.124
  H  H56  1  0.860000  0.341800  0.072500  1.0  0.1142
  H  H57  1  0.687200  0.595600  0.274700  1.0  0.12
  H  H58  1  0.807100  0.269000  0.136100  1.0  0.1155
  H  H59  1  0.709800  0.469500  0.274600  1.0  0.1211
  H  H60  1  0.740400  0.480500  0.227600  1.0  0.1115
  H  H61  1  0.766600  0.453000  0.181500  1.0  0.1201
  H  H62  1  0.811600  0.570600  0.165800  1.0  0.1175
  H  H63  1  0.847400  0.399200  0.106100  1.0  0.1142
  H  H64  1  0.848400  0.473800  0.113700  1.0  0.1183
  H  H65  1  0.876000  0.214800  0.070600  1.0  0.1195
  H  H66  1  0.378600  0.183000  0.625600  1.0  0.1227
  H  H67  1  0.353100  0.115300  0.635500  1.0  0.1116
  H  H68  1  0.053300  0.118500  0.913000  1.0  0.4876
  H  H69  1  0.190700  0.225000  0.793800  1.0  0.4433
  H  H70  1  0.451000  0.256100  0.572600  1.0  0.119
  H  H71  1  0.142200  0.023000  0.841200  1.0  0.1121
  H  H72  1  0.450700  0.129000  0.561700  1.0  0.124
  H  H73  1  0.360000  0.841800  0.572500  1.0  0.1142
  H  H74  1  0.187200  0.095600  0.774700  1.0  0.12
  H  H75  1  0.307100  0.769000  0.636100  1.0  0.1155
  H  H76  1  0.209800  0.969500  0.774600  1.0  0.1211
  H  H77  1  0.240400  0.980500  0.727600  1.0  0.1115
  H  H78  1  0.266600  0.953000  0.681500  1.0  0.1196
  H  H79  1  0.311600  0.070600  0.665800  1.0  0.1175
  H  H80  1  0.347400  0.899200  0.606100  1.0  0.1142
  H  H81  1  0.348400  0.973800  0.613700  1.0  0.1183
  H  H82  1  0.376000  0.714800  0.570600  1.0  0.1195
  H  H83  1  0.121400  0.317000  0.125600  1.0  0.1227
  H  H84  1  0.146900  0.384700  0.135500  1.0  0.1112
  H  H85  1  0.446700  0.381500  0.413000  1.0  0.4838
  H  H86  1  0.309300  0.275000  0.293800  1.0  0.448
  H  H87  1  0.049000  0.243900  0.072600  1.0  0.1194
  H  H88  1  0.357800  0.477000  0.341200  1.0  0.1117
  H  H89  1  0.049300  0.371000  0.061700  1.0  0.1242
  H  H90  1  0.140000  0.658200  0.072500  1.0  0.1143
  H  H91  1  0.312800  0.404400  0.274700  1.0  0.1196
  H  H92  1  0.192900  0.731000  0.136100  1.0  0.1158
  H  H93  1  0.290200  0.530500  0.274600  1.0  0.1214
  H  H94  1  0.259600  0.519500  0.227600  1.0  0.1101
  H  H95  1  0.233400  0.547000  0.181500  1.0  0.1199
  H  H96  1  0.188400  0.429400  0.165800  1.0  0.1178
  H  H97  1  0.152600  0.600800  0.106100  1.0  0.1146
  H  H98  1  0.151600  0.526200  0.113700  1.0  0.1188
  H  H99  1  0.124000  0.785200  0.070600  1.0  0.12
  H  H100  1  0.621400  0.817000  0.625600  1.0  0.1227
  H  H101  1  0.646900  0.884700  0.635500  1.0  0.1112
  H  H102  1  0.946700  0.881500  0.913000  1.0  0.4838
  H  H103  1  0.809300  0.775000  0.793800  1.0  0.448
  H  H104  1  0.549000  0.743900  0.572600  1.0  0.1194
  H  H105  1  0.857800  0.977000  0.841200  1.0  0.1117
  H  H106  1  0.549300  0.871000  0.561700  1.0  0.1242
  H  H107  1  0.640000  0.158200  0.572500  1.0  0.1143
  H  H108  1  0.812800  0.904400  0.774700  1.0  0.1196
  H  H109  1  0.692900  0.231000  0.636100  1.0  0.1158
  H  H110  1  0.790200  0.030500  0.774600  1.0  0.1214
  H  H111  1  0.759600  0.019500  0.727600  1.0  0.1101
  H  H112  1  0.733400  0.047000  0.681500  1.0  0.1193
  H  H113  1  0.688400  0.929400  0.665800  1.0  0.1178
  H  H114  1  0.652600  0.100800  0.606100  1.0  0.1146
  H  H115  1  0.651600  0.026200  0.613700  1.0  0.1188
  H  H116  1  0.624000  0.285200  0.570600  1.0  0.12
  H  H117  1  0.317000  0.878600  0.125600  1.0  0.1225
  H  H118  1  0.384700  0.853100  0.135500  1.0  0.1117
  H  H119  1  0.381500  0.553300  0.413000  1.0  0.4898
  H  H120  1  0.275000  0.690700  0.293800  1.0  0.4466
  H  H121  1  0.243900  0.951000  0.072600  1.0  0.1187
  H  H122  1  0.477000  0.642200  0.341200  1.0  0.112
  H  H123  1  0.371000  0.950700  0.061700  1.0  0.1232
  H  H124  1  0.658200  0.860000  0.072500  1.0  0.1144
  H  H125  1  0.404400  0.687200  0.274700  1.0  0.1201
  H  H126  1  0.731000  0.807100  0.136100  1.0  0.1156
  H  H127  1  0.530500  0.709800  0.274600  1.0  0.1208
  H  H128  1  0.519500  0.740400  0.227600  1.0  0.11
  H  H129  1  0.547000  0.766600  0.181500  1.0  0.1194
  H  H130  1  0.429400  0.811600  0.165800  1.0  0.118
  H  H131  1  0.600800  0.847400  0.106100  1.0  0.1147
  H  H132  1  0.526200  0.848400  0.113700  1.0  0.1181
  H  H133  1  0.785200  0.876000  0.070600  1.0  0.1192
  H  H134  1  0.817000  0.378600  0.625600  1.0  0.1225
  H  H135  1  0.884700  0.353100  0.635500  1.0  0.1117
  H  H136  1  0.881500  0.053300  0.913000  1.0  0.4898
  H  H137  1  0.775000  0.190700  0.793800  1.0  0.4466
  H  H138  1  0.743900  0.451000  0.572600  1.0  0.1187
  H  H139  1  0.977000  0.142200  0.841200  1.0  0.112
  H  H140  1  0.871000  0.450700  0.561700  1.0  0.1232
  H  H141  1  0.158200  0.360000  0.572500  1.0  0.1144
  H  H142  1  0.904400  0.187200  0.774700  1.0  0.1201
  H  H143  1  0.231000  0.307100  0.636100  1.0  0.1156
  H  H144  1  0.030500  0.209800  0.774600  1.0  0.1208
  H  H145  1  0.019500  0.240400  0.727600  1.0  0.11
  H  H146  1  0.047000  0.266600  0.681500  1.0  0.1189
  H  H147  1  0.929400  0.311600  0.665800  1.0  0.118
  H  H148  1  0.100800  0.347400  0.606100  1.0  0.1147
  H  H149  1  0.026200  0.348400  0.613700  1.0  0.1181
  H  H150  1  0.285200  0.376000  0.570600  1.0  0.1192
  H  H151  1  0.683000  0.121400  0.125600  1.0  0.1226
  H  H152  1  0.615300  0.146900  0.135500  1.0  0.1116
  H  H153  1  0.618500  0.446700  0.413000  1.0  0.4849
  H  H154  1  0.725000  0.309300  0.293800  1.0  0.4494
  H  H155  1  0.756100  0.049000  0.072600  1.0  0.1182
  H  H156  1  0.523000  0.357800  0.341200  1.0  0.1122
  H  H157  1  0.629000  0.049300  0.061700  1.0  0.1234
  H  H158  1  0.341800  0.140000  0.072500  1.0  0.1142
  H  H159  1  0.595600  0.312800  0.274700  1.0  0.12
  H  H160  1  0.269000  0.192900  0.136100  1.0  0.1156
  H  H161  1  0.469500  0.290200  0.274600  1.0  0.1216
  H  H162  1  0.480500  0.259600  0.227600  1.0  0.1107
  H  H163  1  0.453000  0.233400  0.181500  1.0  0.1199
  H  H164  1  0.570600  0.188400  0.165800  1.0  0.1168
  H  H165  1  0.399200  0.152600  0.106100  1.0  0.1141
  H  H166  1  0.473800  0.151600  0.113700  1.0  0.1183
  H  H167  1  0.214800  0.124000  0.070600  1.0  0.1191
  H  H168  1  0.183000  0.621400  0.625600  1.0  0.1226
  H  H169  1  0.115300  0.646900  0.635500  1.0  0.1116
  H  H170  1  0.118500  0.946700  0.913000  1.0  0.4849
  H  H171  1  0.225000  0.809300  0.793800  1.0  0.4494
  H  H172  1  0.256100  0.549000  0.572600  1.0  0.1182
  H  H173  1  0.023000  0.857800  0.841200  1.0  0.1122
  H  H174  1  0.129000  0.549300  0.561700  1.0  0.1234
  H  H175  1  0.841800  0.640000  0.572500  1.0  0.1142
  H  H176  1  0.095600  0.812800  0.774700  1.0  0.12
  H  H177  1  0.769000  0.692900  0.636100  1.0  0.1156
  H  H178  1  0.969500  0.790200  0.774600  1.0  0.1216
  H  H179  1  0.980500  0.759600  0.727600  1.0  0.1107
  H  H180  1  0.953000  0.733400  0.681500  1.0  0.1193
  H  H181  1  0.070600  0.688400  0.665800  1.0  0.1168
  H  H182  1  0.899200  0.652600  0.606100  1.0  0.1141
  H  H183  1  0.973800  0.651600  0.613700  1.0  0.1183
  H  H184  1  0.714800  0.624000  0.570600  1.0  0.1191
  H  H185  1  0.121400  0.317000  0.874400  1.0  0.1226
  H  H186  1  0.146900  0.384700  0.864500  1.0  0.1107
  H  H187  1  0.446700  0.381500  0.587000  1.0  0.4828
  H  H188  1  0.309300  0.275000  0.706200  1.0  0.4472
  H  H189  1  0.049000  0.243900  0.927400  1.0  0.1194
  H  H190  1  0.357800  0.477000  0.658800  1.0  0.1117
  H  H191  1  0.049300  0.371000  0.938300  1.0  0.1238
  H  H192  1  0.140000  0.658200  0.927500  1.0  0.1145
  H  H193  1  0.312800  0.404400  0.725300  1.0  0.1197
  H  H194  1  0.192900  0.731000  0.863900  1.0  0.1163
  H  H195  1  0.290200  0.530500  0.725400  1.0  0.1211
  H  H196  1  0.259600  0.519500  0.772400  1.0  0.11
  H  H197  1  0.233400  0.547000  0.818500  1.0  0.1198
  H  H198  1  0.188400  0.429400  0.834200  1.0  0.1178
  H  H199  1  0.152600  0.600800  0.893900  1.0  0.1151
  H  H200  1  0.151600  0.526200  0.886300  1.0  0.119
  H  H201  1  0.124000  0.785200  0.929400  1.0  0.1201
  H  H202  1  0.621400  0.817000  0.374400  1.0  0.1226
  H  H203  1  0.646900  0.884700  0.364500  1.0  0.1107
  H  H204  1  0.946700  0.881500  0.087000  1.0  0.4828
  H  H205  1  0.809300  0.775000  0.206200  1.0  0.4472
  H  H206  1  0.549000  0.743900  0.427400  1.0  0.1194
  H  H207  1  0.857800  0.977000  0.158800  1.0  0.1117
  H  H208  1  0.549300  0.871000  0.438300  1.0  0.1238
  H  H209  1  0.640000  0.158200  0.427500  1.0  0.1145
  H  H210  1  0.812800  0.904400  0.225300  1.0  0.1197
  H  H211  1  0.692900  0.231000  0.363900  1.0  0.1163
  H  H212  1  0.790200  0.030500  0.225400  1.0  0.1211
  H  H213  1  0.759600  0.019500  0.272400  1.0  0.11
  H  H214  1  0.733400  0.047000  0.318500  1.0  0.1192
  H  H215  1  0.688400  0.929400  0.334200  1.0  0.1178
  H  H216  1  0.652600  0.100800  0.393900  1.0  0.1151
  H  H217  1  0.651600  0.026200  0.386300  1.0  0.119
  H  H218  1  0.624000  0.285200  0.429400  1.0  0.1201
  H  H219  1  0.878600  0.683000  0.874400  1.0  0.1226
  H  H220  1  0.853100  0.615300  0.864500  1.0  0.1113
  H  H221  1  0.553300  0.618500  0.587000  1.0  0.487
  H  H222  1  0.690700  0.725000  0.706200  1.0  0.4441
  H  H223  1  0.951000  0.756100  0.927400  1.0  0.1191
  H  H224  1  0.642200  0.523000  0.658800  1.0  0.1117
  H  H225  1  0.950700  0.629000  0.938300  1.0  0.1238
  H  H226  1  0.860000  0.341800  0.927500  1.0  0.1142
  H  H227  1  0.687200  0.595600  0.725300  1.0  0.1197
  H  H228  1  0.807100  0.269000  0.863900  1.0  0.1154
  H  H229  1  0.709800  0.469500  0.725400  1.0  0.1208
  H  H230  1  0.740400  0.480500  0.772400  1.0  0.1114
  H  H231  1  0.766600  0.453000  0.818500  1.0  0.1196
  H  H232  1  0.811600  0.570600  0.834200  1.0  0.1173
  H  H233  1  0.847400  0.399200  0.893900  1.0  0.1147
  H  H234  1  0.848400  0.473800  0.886300  1.0  0.1179
  H  H235  1  0.876000  0.214800  0.929400  1.0  0.1198
  H  H236  1  0.378600  0.183000  0.374400  1.0  0.1226
  H  H237  1  0.353100  0.115300  0.364500  1.0  0.1113
  H  H238  1  0.053300  0.118500  0.087000  1.0  0.487
  H  H239  1  0.190700  0.225000  0.206200  1.0  0.4441
  H  H240  1  0.451000  0.256100  0.427400  1.0  0.1191
  H  H241  1  0.142200  0.023000  0.158800  1.0  0.1117
  H  H242  1  0.450700  0.129000  0.438300  1.0  0.1238
  H  H243  1  0.360000  0.841800  0.427500  1.0  0.1142
  H  H244  1  0.187200  0.095600  0.225300  1.0  0.1197
  H  H245  1  0.307100  0.769000  0.363900  1.0  0.1154
  H  H246  1  0.209800  0.969500  0.225400  1.0  0.1208
  H  H247  1  0.240400  0.980500  0.272400  1.0  0.1114
  H  H248  1  0.266600  0.953000  0.318500  1.0  0.1192
  H  H249  1  0.311600  0.070600  0.334200  1.0  0.1173
  H  H250  1  0.347400  0.899200  0.393900  1.0  0.1147
  H  H251  1  0.348400  0.973800  0.386300  1.0  0.1179
  H  H252  1  0.376000  0.714800  0.429400  1.0  0.1198
  H  H253  1  0.683000  0.121400  0.874400  1.0  0.1222
  H  H254  1  0.615300  0.146900  0.864500  1.0  0.1113
  H  H255  1  0.618500  0.446700  0.587000  1.0  0.4836
  H  H256  1  0.725000  0.309300  0.706200  1.0  0.4492
  H  H257  1  0.756100  0.049000  0.927400  1.0  0.1186
  H  H258  1  0.523000  0.357800  0.658800  1.0  0.1122
  H  H259  1  0.629000  0.049300  0.938300  1.0  0.1232
  H  H260  1  0.341800  0.140000  0.927500  1.0  0.1143
  H  H261  1  0.595600  0.312800  0.725300  1.0  0.12
  H  H262  1  0.269000  0.192900  0.863900  1.0  0.1159
  H  H263  1  0.469500  0.290200  0.725400  1.0  0.1214
  H  H264  1  0.480500  0.259600  0.772400  1.0  0.1109
  H  H265  1  0.453000  0.233400  0.818500  1.0  0.1197
  H  H266  1  0.570600  0.188400  0.834200  1.0  0.117
  H  H267  1  0.399200  0.152600  0.893900  1.0  0.1144
  H  H268  1  0.473800  0.151600  0.886300  1.0  0.1183
  H  H269  1  0.214800  0.124000  0.929400  1.0  0.1197
  H  H270  1  0.183000  0.621400  0.374400  1.0  0.1222
  H  H271  1  0.115300  0.646900  0.364500  1.0  0.1113
  H  H272  1  0.118500  0.946700  0.087000  1.0  0.4836
  H  H273  1  0.225000  0.809300  0.206200  1.0  0.4492
  H  H274  1  0.256100  0.549000  0.427400  1.0  0.1186
  H  H275  1  0.023000  0.857800  0.158800  1.0  0.1122
  H  H276  1  0.129000  0.549300  0.438300  1.0  0.1232
  H  H277  1  0.841800  0.640000  0.427500  1.0  0.1143
  H  H278  1  0.095600  0.812800  0.225300  1.0  0.12
  H  H279  1  0.769000  0.692900  0.363900  1.0  0.1159
  H  H280  1  0.969500  0.790200  0.225400  1.0  0.1214
  H  H281  1  0.980500  0.759600  0.272400  1.0  0.1109
  H  H282  1  0.953000  0.733400  0.318500  1.0  0.1191
  H  H283  1  0.070600  0.688400  0.334200  1.0  0.117
  H  H284  1  0.899200  0.652600  0.393900  1.0  0.1144
  H  H285  1  0.973800  0.651600  0.386300  1.0  0.1183
  H  H286  1  0.714800  0.624000  0.429400  1.0  0.1197
  H  H287  1  0.317000  0.878600  0.874400  1.0  0.1222
  H  H288  1  0.384700  0.853100  0.864500  1.0  0.1112
  H  H289  1  0.381500  0.553300  0.587000  1.0  0.4895
  H  H290  1  0.275000  0.690700  0.706200  1.0  0.4469
  H  H291  1  0.243900  0.951000  0.927400  1.0  0.1186
  H  H292  1  0.477000  0.642200  0.658800  1.0  0.1117
  H  H293  1  0.371000  0.950700  0.938300  1.0  0.1229
  H  H294  1  0.658200  0.860000  0.927500  1.0  0.1142
  H  H295  1  0.404400  0.687200  0.725300  1.0  0.1198
  H  H296  1  0.731000  0.807100  0.863900  1.0  0.1156
  H  H297  1  0.530500  0.709800  0.725400  1.0  0.1208
  H  H298  1  0.519500  0.740400  0.772400  1.0  0.1102
  H  H299  1  0.547000  0.766600  0.818500  1.0  0.1192
  H  H300  1  0.429400  0.811600  0.834200  1.0  0.118
  H  H301  1  0.600800  0.847400  0.893900  1.0  0.115
  H  H302  1  0.526200  0.848400  0.886300  1.0  0.1182
  H  H303  1  0.785200  0.876000  0.929400  1.0  0.1193
  H  H304  1  0.817000  0.378600  0.374400  1.0  0.1222
  H  H305  1  0.884700  0.353100  0.364500  1.0  0.1112
  H  H306  1  0.881500  0.053300  0.087000  1.0  0.4895
  H  H307  1  0.775000  0.190700  0.206200  1.0  0.4469
  H  H308  1  0.743900  0.451000  0.427400  1.0  0.1186
  H  H309  1  0.977000  0.142200  0.158800  1.0  0.1117
  H  H310  1  0.871000  0.450700  0.438300  1.0  0.1229
  H  H311  1  0.158200  0.360000  0.427500  1.0  0.1142
  H  H312  1  0.904400  0.187200  0.225300  1.0  0.1198
  H  H313  1  0.231000  0.307100  0.363900  1.0  0.1156
  H  H314  1  0.030500  0.209800  0.225400  1.0  0.1208
  H  H315  1  0.019500  0.240400  0.272400  1.0  0.1102
  H  H316  1  0.047000  0.266600  0.318500  1.0  0.1187
  H  H317  1  0.929400  0.311600  0.334200  1.0  0.118
  H  H318  1  0.100800  0.347400  0.393900  1.0  0.115
  H  H319  1  0.026200  0.348400  0.386300  1.0  0.1182
  H  H320  1  0.285200  0.376000  0.429400  1.0  0.1193
  C  C321  1  0.898430  0.764170  0.118260  1.0  0.6748
  C  C322  1  0.912440  0.725300  0.101520  1.0  -0.1426
  C  C323  1  0.897480  0.685740  0.109780  1.0  -0.0654
  C  C324  1  0.911130  0.649900  0.094060  1.0  0.0748
  C  C325  1  0.866560  0.597290  0.122060  1.0  -0.0614
  C  C326  1  0.941400  0.729350  0.078330  1.0  0.024
  C  C327  1  0.657560  0.525540  0.323530  1.0  0.0388
  C  C328  1  0.662320  0.565060  0.310400  1.0  -0.1493
  C  C329  1  0.675650  0.489430  0.310440  1.0  -0.1552
  C  C330  1  0.672850  0.447320  0.325640  1.0  0.6978
  C  C331  1  0.955860  0.693560  0.063740  1.0  -0.1506
  C  C332  1  0.940850  0.653110  0.071500  1.0  -0.0358
  C  C333  1  0.855020  0.315080  0.080730  1.0  -0.0675
  C  C334  1  0.684500  0.569160  0.283770  1.0  -0.0093
  C  C335  1  0.645370  0.604270  0.325580  1.0  0.701
  C  C336  1  0.988880  0.697610  0.039750  1.0  0.6736
  C  C337  1  0.830410  0.311120  0.106280  1.0  0.1368
  C  C338  1  0.823200  0.271460  0.118750  1.0  -0.0214
  C  C339  1  0.697990  0.493380  0.283750  1.0  -0.0682
  C  C340  1  0.702460  0.533430  0.270920  1.0  0.1083
  C  C341  1  0.763100  0.530420  0.203400  1.0  0.1997
  C  C342  1  0.742670  0.509850  0.225570  1.0  -0.0575
  C  C343  1  0.803900  0.411120  0.138870  1.0  0.1021
  C  C344  1  0.783780  0.471340  0.170580  1.0  -0.0845
  C  C345  1  0.811300  0.541690  0.161330  1.0  -0.0393
  C  C346  1  0.826910  0.388410  0.118970  1.0  -0.045
  C  C347  1  0.807400  0.456080  0.146490  1.0  -0.0103
  C  C348  1  0.861100  0.554320  0.119900  1.0  0.1799
  C  C349  1  0.786100  0.514030  0.178080  1.0  0.0445
  C  C350  1  0.833140  0.483920  0.130000  1.0  -0.0921
  C  C351  1  0.835900  0.526290  0.137960  1.0  -0.0458
  C  C352  1  0.901280  0.283690  0.040940  1.0  0.6985
  C  C353  1  0.872190  0.279220  0.067480  1.0  -0.1495
  C  C354  1  0.864680  0.239010  0.079630  1.0  0.032
  C  C355  1  0.840090  0.235450  0.105370  1.0  -0.1412
  C  C356  1  0.834130  0.192760  0.120050  1.0  0.7036
  C  C357  1  0.398430  0.264170  0.618260  1.0  0.6748
  C  C358  1  0.412440  0.225300  0.601520  1.0  -0.1426
  C  C359  1  0.397480  0.185740  0.609780  1.0  -0.0654
  C  C360  1  0.411130  0.149900  0.594060  1.0  0.0748
  C  C361  1  0.366560  0.097290  0.622060  1.0  -0.0614
  C  C362  1  0.441400  0.229350  0.578330  1.0  0.024
  C  C363  1  0.157560  0.025540  0.823530  1.0  0.0388
  C  C364  1  0.162320  0.065060  0.810400  1.0  -0.1493
  C  C365  1  0.175650  0.989430  0.810440  1.0  -0.1552
  C  C366  1  0.172850  0.947320  0.825640  1.0  0.6978
  C  C367  1  0.455860  0.193560  0.563740  1.0  -0.1506
  C  C368  1  0.440850  0.153110  0.571500  1.0  -0.0358
  C  C369  1  0.355020  0.815080  0.580730  1.0  -0.0675
  C  C370  1  0.184500  0.069160  0.783770  1.0  -0.0093
  C  C371  1  0.145370  0.104270  0.825580  1.0  0.701
  C  C372  1  0.488880  0.197610  0.539750  1.0  0.6736
  C  C373  1  0.330410  0.811120  0.606280  1.0  0.1368
  C  C374  1  0.323200  0.771460  0.618750  1.0  -0.0214
  C  C375  1  0.197990  0.993380  0.783750  1.0  -0.0682
  C  C376  1  0.202460  0.033430  0.770920  1.0  0.1083
  C  C377  1  0.263100  0.030420  0.703400  1.0  0.1997
  C  C378  1  0.242670  0.009850  0.725570  1.0  -0.0561
  C  C379  1  0.303900  0.911120  0.638870  1.0  0.1019
  C  C380  1  0.283780  0.971340  0.670580  1.0  -0.0876
  C  C381  1  0.311300  0.041690  0.661330  1.0  -0.0393
  C  C382  1  0.326910  0.888410  0.618970  1.0  -0.045
  C  C383  1  0.307400  0.956080  0.646490  1.0  -0.0119
  C  C384  1  0.361100  0.054320  0.619900  1.0  0.1799
  C  C385  1  0.286100  0.014030  0.678080  1.0  0.0445
  C  C386  1  0.333140  0.983920  0.630000  1.0  -0.0925
  C  C387  1  0.335900  0.026290  0.637960  1.0  -0.0458
  C  C388  1  0.401280  0.783690  0.540940  1.0  0.6985
  C  C389  1  0.372190  0.779220  0.567480  1.0  -0.1495
  C  C390  1  0.364680  0.739010  0.579630  1.0  0.032
  C  C391  1  0.340090  0.735450  0.605370  1.0  -0.1412
  C  C392  1  0.334130  0.692760  0.620050  1.0  0.7036
  C  C393  1  0.101570  0.235830  0.118260  1.0  0.6745
  C  C394  1  0.087560  0.274700  0.101520  1.0  -0.1422
  C  C395  1  0.102520  0.314260  0.109780  1.0  -0.0653
  C  C396  1  0.088870  0.350100  0.094060  1.0  0.0753
  C  C397  1  0.133440  0.402710  0.122060  1.0  -0.0605
  C  C398  1  0.058600  0.270650  0.078330  1.0  0.0249
  C  C399  1  0.342440  0.474460  0.323530  1.0  0.0388
  C  C400  1  0.337680  0.434940  0.310400  1.0  -0.1493
  C  C401  1  0.324350  0.510570  0.310440  1.0  -0.1558
  C  C402  1  0.327150  0.552680  0.325640  1.0  0.6979
  C  C403  1  0.044140  0.306440  0.063740  1.0  -0.1511
  C  C404  1  0.059150  0.346890  0.071500  1.0  -0.0376
  C  C405  1  0.144980  0.684920  0.080730  1.0  -0.0687
  C  C406  1  0.315500  0.430840  0.283770  1.0  -0.0099
  C  C407  1  0.354630  0.395730  0.325580  1.0  0.7013
  C  C408  1  0.011120  0.302390  0.039750  1.0  0.6739
  C  C409  1  0.169590  0.688880  0.106280  1.0  0.1367
  C  C410  1  0.176800  0.728540  0.118750  1.0  -0.0207
  C  C411  1  0.302010  0.506620  0.283750  1.0  -0.0696
  C  C412  1  0.297540  0.466570  0.270920  1.0  0.1084
  C  C413  1  0.236900  0.469580  0.203400  1.0  0.1998
  C  C414  1  0.257330  0.490150  0.225570  1.0  -0.0574
  C  C415  1  0.196100  0.588880  0.138870  1.0  0.1032
  C  C416  1  0.216220  0.528660  0.170580  1.0  -0.0853
  C  C417  1  0.188700  0.458310  0.161330  1.0  -0.0389
  C  C418  1  0.173090  0.611590  0.118970  1.0  -0.0439
  C  C419  1  0.192600  0.543920  0.146490  1.0  -0.0104
  C  C420  1  0.138900  0.445680  0.119900  1.0  0.1796
  C  C421  1  0.213900  0.485970  0.178080  1.0  0.0441
  C  C422  1  0.166860  0.516080  0.130000  1.0  -0.0926
  C  C423  1  0.164100  0.473710  0.137960  1.0  -0.047
  C  C424  1  0.098720  0.716310  0.040940  1.0  0.6988
  C  C425  1  0.127810  0.720780  0.067480  1.0  -0.1498
  C  C426  1  0.135320  0.760990  0.079630  1.0  0.0318
  C  C427  1  0.159910  0.764550  0.105370  1.0  -0.1411
  C  C428  1  0.165870  0.807240  0.120050  1.0  0.7039
  C  C429  1  0.601570  0.735830  0.618260  1.0  0.6745
  C  C430  1  0.587560  0.774700  0.601520  1.0  -0.1422
  C  C431  1  0.602520  0.814260  0.609780  1.0  -0.0653
  C  C432  1  0.588870  0.850100  0.594060  1.0  0.0753
  C  C433  1  0.633440  0.902710  0.622060  1.0  -0.0605
  C  C434  1  0.558600  0.770650  0.578330  1.0  0.0249
  C  C435  1  0.842440  0.974460  0.823530  1.0  0.0388
  C  C436  1  0.837680  0.934940  0.810400  1.0  -0.1493
  C  C437  1  0.824350  0.010570  0.810440  1.0  -0.1558
  C  C438  1  0.827150  0.052680  0.825640  1.0  0.6979
  C  C439  1  0.544140  0.806440  0.563740  1.0  -0.1511
  C  C440  1  0.559150  0.846890  0.571500  1.0  -0.0376
  C  C441  1  0.644980  0.184920  0.580730  1.0  -0.0687
  C  C442  1  0.815500  0.930840  0.783770  1.0  -0.0099
  C  C443  1  0.854630  0.895730  0.825580  1.0  0.7013
  C  C444  1  0.511120  0.802390  0.539750  1.0  0.6739
  C  C445  1  0.669590  0.188880  0.606280  1.0  0.1367
  C  C446  1  0.676800  0.228540  0.618750  1.0  -0.0207
  C  C447  1  0.802010  0.006620  0.783750  1.0  -0.0696
  C  C448  1  0.797540  0.966570  0.770920  1.0  0.1084
  C  C449  1  0.736900  0.969580  0.703400  1.0  0.1998
  C  C450  1  0.757330  0.990150  0.725570  1.0  -0.0563
  C  C451  1  0.696100  0.088880  0.638870  1.0  0.1031
  C  C452  1  0.716220  0.028660  0.670580  1.0  -0.0886
  C  C453  1  0.688700  0.958310  0.661330  1.0  -0.0389
  C  C454  1  0.673090  0.111590  0.618970  1.0  -0.0439
  C  C455  1  0.692600  0.043920  0.646490  1.0  -0.0121
  C  C456  1  0.638900  0.945680  0.619900  1.0  0.1796
  C  C457  1  0.713900  0.985970  0.678080  1.0  0.0441
  C  C458  1  0.666860  0.016080  0.630000  1.0  -0.0926
  C  C459  1  0.664100  0.973710  0.637960  1.0  -0.047
  C  C460  1  0.598720  0.216310  0.540940  1.0  0.6988
  C  C461  1  0.627810  0.220780  0.567480  1.0  -0.1498
  C  C462  1  0.635320  0.260990  0.579630  1.0  0.0318
  C  C463  1  0.659910  0.264550  0.605370  1.0  -0.1411
  C  C464  1  0.665870  0.307240  0.620050  1.0  0.7039
  C  C465  1  0.235830  0.898430  0.118260  1.0  0.6747
  C  C466  1  0.274700  0.912440  0.101520  1.0  -0.1428
  C  C467  1  0.314260  0.897480  0.109780  1.0  -0.0641
  C  C468  1  0.350100  0.911130  0.094060  1.0  0.0745
  C  C469  1  0.402710  0.866560  0.122060  1.0  -0.0615
  C  C470  1  0.270650  0.941400  0.078330  1.0  0.0215
  C  C471  1  0.474460  0.657560  0.323530  1.0  0.0408
  C  C472  1  0.434940  0.662320  0.310400  1.0  -0.1484
  C  C473  1  0.510570  0.675650  0.310440  1.0  -0.155
  C  C474  1  0.552680  0.672850  0.325640  1.0  0.6975
  C  C475  1  0.306440  0.955860  0.063740  1.0  -0.1506
  C  C476  1  0.346890  0.940850  0.071500  1.0  -0.0363
  C  C477  1  0.684920  0.855020  0.080730  1.0  -0.0714
  C  C478  1  0.430840  0.684500  0.283770  1.0  -0.0131
  C  C479  1  0.395730  0.645370  0.325580  1.0  0.6999
  C  C480  1  0.302390  0.988880  0.039750  1.0  0.6737
  C  C481  1  0.688880  0.830410  0.106280  1.0  0.1377
  C  C482  1  0.728540  0.823200  0.118750  1.0  -0.0191
  C  C483  1  0.506620  0.697990  0.283750  1.0  -0.0724
  C  C484  1  0.466570  0.702460  0.270920  1.0  0.1088
  C  C485  1  0.469580  0.763100  0.203400  1.0  0.1986
  C  C486  1  0.490150  0.742670  0.225570  1.0  -0.0581
  C  C487  1  0.588880  0.803900  0.138870  1.0  0.0993
  C  C488  1  0.528660  0.783780  0.170580  1.0  -0.0847
  C  C489  1  0.458310  0.811300  0.161330  1.0  -0.0417
  C  C490  1  0.611590  0.826910  0.118970  1.0  -0.0438
  C  C491  1  0.543920  0.807400  0.146490  1.0  -0.0104
  C  C492  1  0.445680  0.861100  0.119900  1.0  0.1818
  C  C493  1  0.485970  0.786100  0.178080  1.0  0.0447
  C  C494  1  0.516080  0.833140  0.130000  1.0  -0.0931
  C  C495  1  0.473710  0.835900  0.137960  1.0  -0.0454
  C  C496  1  0.716310  0.901280  0.040940  1.0  0.6993
  C  C497  1  0.720780  0.872190  0.067480  1.0  -0.149
  C  C498  1  0.760990  0.864680  0.079630  1.0  0.0305
  C  C499  1  0.764550  0.840090  0.105370  1.0  -0.1401
  C  C500  1  0.807240  0.834130  0.120050  1.0  0.7017
  C  C501  1  0.735830  0.398430  0.618260  1.0  0.6747
  C  C502  1  0.774700  0.412440  0.601520  1.0  -0.1428
  C  C503  1  0.814260  0.397480  0.609780  1.0  -0.0641
  C  C504  1  0.850100  0.411130  0.594060  1.0  0.0745
  C  C505  1  0.902710  0.366560  0.622060  1.0  -0.0615
  C  C506  1  0.770650  0.441400  0.578330  1.0  0.0215
  C  C507  1  0.974460  0.157560  0.823530  1.0  0.0408
  C  C508  1  0.934940  0.162320  0.810400  1.0  -0.1484
  C  C509  1  0.010570  0.175650  0.810440  1.0  -0.155
  C  C510  1  0.052680  0.172850  0.825640  1.0  0.6975
  C  C511  1  0.806440  0.455860  0.563740  1.0  -0.1506
  C  C512  1  0.846890  0.440850  0.571500  1.0  -0.0363
  C  C513  1  0.184920  0.355020  0.580730  1.0  -0.0714
  C  C514  1  0.930840  0.184500  0.783770  1.0  -0.0131
  C  C515  1  0.895730  0.145370  0.825580  1.0  0.6999
  C  C516  1  0.802390  0.488880  0.539750  1.0  0.6737
  C  C517  1  0.188880  0.330410  0.606280  1.0  0.1377
  C  C518  1  0.228540  0.323200  0.618750  1.0  -0.0191
  C  C519  1  0.006620  0.197990  0.783750  1.0  -0.0724
  C  C520  1  0.966570  0.202460  0.770920  1.0  0.1088
  C  C521  1  0.969580  0.263100  0.703400  1.0  0.1986
  C  C522  1  0.990150  0.242670  0.725570  1.0  -0.0565
  C  C523  1  0.088880  0.303900  0.638870  1.0  0.0986
  C  C524  1  0.028660  0.283780  0.670580  1.0  -0.0875
  C  C525  1  0.958310  0.311300  0.661330  1.0  -0.0417
  C  C526  1  0.111590  0.326910  0.618970  1.0  -0.0438
  C  C527  1  0.043920  0.307400  0.646490  1.0  -0.0125
  C  C528  1  0.945680  0.361100  0.619900  1.0  0.1818
  C  C529  1  0.985970  0.286100  0.678080  1.0  0.0447
  C  C530  1  0.016080  0.333140  0.630000  1.0  -0.0933
  C  C531  1  0.973710  0.335900  0.637960  1.0  -0.0454
  C  C532  1  0.216310  0.401280  0.540940  1.0  0.6993
  C  C533  1  0.220780  0.372190  0.567480  1.0  -0.149
  C  C534  1  0.260990  0.364680  0.579630  1.0  0.0305
  C  C535  1  0.264550  0.340090  0.605370  1.0  -0.1401
  C  C536  1  0.307240  0.334130  0.620050  1.0  0.7017
  C  C537  1  0.764170  0.101570  0.118260  1.0  0.6746
  C  C538  1  0.725300  0.087560  0.101520  1.0  -0.1426
  C  C539  1  0.685740  0.102520  0.109780  1.0  -0.0636
  C  C540  1  0.649900  0.088870  0.094060  1.0  0.0738
  C  C541  1  0.597290  0.133440  0.122060  1.0  -0.0624
  C  C542  1  0.729350  0.058600  0.078330  1.0  0.0226
  C  C543  1  0.525540  0.342440  0.323530  1.0  0.0401
  C  C544  1  0.565060  0.337680  0.310400  1.0  -0.148
  C  C545  1  0.489430  0.324350  0.310440  1.0  -0.1553
  C  C546  1  0.447320  0.327150  0.325640  1.0  0.698
  C  C547  1  0.693560  0.044140  0.063740  1.0  -0.151
  C  C548  1  0.653110  0.059150  0.071500  1.0  -0.0373
  C  C549  1  0.315080  0.144980  0.080730  1.0  -0.0701
  C  C550  1  0.569160  0.315500  0.283770  1.0  -0.0117
  C  C551  1  0.604270  0.354630  0.325580  1.0  0.6998
  C  C552  1  0.697610  0.011120  0.039750  1.0  0.6733
  C  C553  1  0.311120  0.169590  0.106280  1.0  0.1369
  C  C554  1  0.271460  0.176800  0.118750  1.0  -0.0206
  C  C555  1  0.493380  0.302010  0.283750  1.0  -0.0712
  C  C556  1  0.533430  0.297540  0.270920  1.0  0.1087
  C  C557  1  0.530420  0.236900  0.203400  1.0  0.1988
  C  C558  1  0.509850  0.257330  0.225570  1.0  -0.0584
  C  C559  1  0.411120  0.196100  0.138870  1.0  0.0996
  C  C560  1  0.471340  0.216220  0.170580  1.0  -0.0842
  C  C561  1  0.541690  0.188700  0.161330  1.0  -0.0401
  C  C562  1  0.388410  0.173090  0.118970  1.0  -0.0431
  C  C563  1  0.456080  0.192600  0.146490  1.0  -0.0107
  C  C564  1  0.554320  0.138900  0.119900  1.0  0.1813
  C  C565  1  0.514030  0.213900  0.178080  1.0  0.0445
  C  C566  1  0.483920  0.166860  0.130000  1.0  -0.0924
  C  C567  1  0.526290  0.164100  0.137960  1.0  -0.0465
  C  C568  1  0.283690  0.098720  0.040940  1.0  0.699
  C  C569  1  0.279220  0.127810  0.067480  1.0  -0.1494
  C  C570  1  0.239010  0.135320  0.079630  1.0  0.0307
  C  C571  1  0.235450  0.159910  0.105370  1.0  -0.1402
  C  C572  1  0.192760  0.165870  0.120050  1.0  0.7022
  C  C573  1  0.264170  0.601570  0.618260  1.0  0.6746
  C  C574  1  0.225300  0.587560  0.601520  1.0  -0.1426
  C  C575  1  0.185740  0.602520  0.609780  1.0  -0.0636
  C  C576  1  0.149900  0.588870  0.594060  1.0  0.0738
  C  C577  1  0.097290  0.633440  0.622060  1.0  -0.0624
  C  C578  1  0.229350  0.558600  0.578330  1.0  0.0226
  C  C579  1  0.025540  0.842440  0.823530  1.0  0.0401
  C  C580  1  0.065060  0.837680  0.810400  1.0  -0.148
  C  C581  1  0.989430  0.824350  0.810440  1.0  -0.1553
  C  C582  1  0.947320  0.827150  0.825640  1.0  0.698
  C  C583  1  0.193560  0.544140  0.563740  1.0  -0.151
  C  C584  1  0.153110  0.559150  0.571500  1.0  -0.0373
  C  C585  1  0.815080  0.644980  0.580730  1.0  -0.0701
  C  C586  1  0.069160  0.815500  0.783770  1.0  -0.0117
  C  C587  1  0.104270  0.854630  0.825580  1.0  0.6998
  C  C588  1  0.197610  0.511120  0.539750  1.0  0.6733
  C  C589  1  0.811120  0.669590  0.606280  1.0  0.1369
  C  C590  1  0.771460  0.676800  0.618750  1.0  -0.0206
  C  C591  1  0.993380  0.802010  0.783750  1.0  -0.0712
  C  C592  1  0.033430  0.797540  0.770920  1.0  0.1087
  C  C593  1  0.030420  0.736900  0.703400  1.0  0.1988
  C  C594  1  0.009850  0.757330  0.725570  1.0  -0.0568
  C  C595  1  0.911120  0.696100  0.638870  1.0  0.0994
  C  C596  1  0.971340  0.716220  0.670580  1.0  -0.088
  C  C597  1  0.041690  0.688700  0.661330  1.0  -0.0401
  C  C598  1  0.888410  0.673090  0.618970  1.0  -0.0431
  C  C599  1  0.956080  0.692600  0.646490  1.0  -0.0129
  C  C600  1  0.054320  0.638900  0.619900  1.0  0.1813
  C  C601  1  0.014030  0.713900  0.678080  1.0  0.0445
  C  C602  1  0.983920  0.666860  0.630000  1.0  -0.0923
  C  C603  1  0.026290  0.664100  0.637960  1.0  -0.0465
  C  C604  1  0.783690  0.598720  0.540940  1.0  0.699
  C  C605  1  0.779220  0.627810  0.567480  1.0  -0.1494
  C  C606  1  0.739010  0.635320  0.579630  1.0  0.0307
  C  C607  1  0.735450  0.659910  0.605370  1.0  -0.1402
  C  C608  1  0.692760  0.665870  0.620050  1.0  0.7022
  C  C609  1  0.101570  0.235830  0.881740  1.0  0.6747
  C  C610  1  0.087560  0.274700  0.898480  1.0  -0.1421
  C  C611  1  0.102520  0.314260  0.890220  1.0  -0.0655
  C  C612  1  0.088870  0.350100  0.905940  1.0  0.0754
  C  C613  1  0.133440  0.402710  0.877940  1.0  -0.0624
  C  C614  1  0.058600  0.270650  0.921670  1.0  0.0246
  C  C615  1  0.342440  0.474460  0.676470  1.0  0.0387
  C  C616  1  0.337680  0.434940  0.689600  1.0  -0.1493
  C  C617  1  0.324350  0.510570  0.689560  1.0  -0.1558
  C  C618  1  0.327150  0.552680  0.674360  1.0  0.6983
  C  C619  1  0.044140  0.306440  0.936260  1.0  -0.1508
  C  C620  1  0.059150  0.346890  0.928500  1.0  -0.0381
  C  C621  1  0.144980  0.684920  0.919270  1.0  -0.0697
  C  C622  1  0.315500  0.430840  0.716230  1.0  -0.0101
  C  C623  1  0.354630  0.395730  0.674420  1.0  0.701
  C  C624  1  0.011120  0.302390  0.960250  1.0  0.674
  C  C625  1  0.169590  0.688880  0.893720  1.0  0.1368
  C  C626  1  0.176800  0.728540  0.881250  1.0  -0.0215
  C  C627  1  0.302010  0.506620  0.716250  1.0  -0.0701
  C  C628  1  0.297540  0.466570  0.729080  1.0  0.1083
  C  C629  1  0.236900  0.469580  0.796600  1.0  0.1997
  C  C630  1  0.257330  0.490150  0.774430  1.0  -0.0569
  C  C631  1  0.196100  0.588880  0.861130  1.0  0.1033
  C  C632  1  0.216220  0.528660  0.829420  1.0  -0.0846
  C  C633  1  0.188700  0.458310  0.838670  1.0  -0.0392
  C  C634  1  0.173090  0.611590  0.881030  1.0  -0.0428
  C  C635  1  0.192600  0.543920  0.853510  1.0  -0.0106
  C  C636  1  0.138900  0.445680  0.880100  1.0  0.1781
  C  C637  1  0.213900  0.485970  0.821920  1.0  0.0444
  C  C638  1  0.166860  0.516080  0.870000  1.0  -0.0918
  C  C639  1  0.164100  0.473710  0.862040  1.0  -0.0478
  C  C640  1  0.098720  0.716310  0.959060  1.0  0.699
  C  C641  1  0.127810  0.720780  0.932520  1.0  -0.1512
  C  C642  1  0.135320  0.760990  0.920370  1.0  0.0322
  C  C643  1  0.159910  0.764550  0.894630  1.0  -0.1412
  C  C644  1  0.165870  0.807240  0.879950  1.0  0.7038
  C  C645  1  0.601570  0.735830  0.381740  1.0  0.6747
  C  C646  1  0.587560  0.774700  0.398480  1.0  -0.1421
  C  C647  1  0.602520  0.814260  0.390220  1.0  -0.0655
  C  C648  1  0.588870  0.850100  0.405940  1.0  0.0754
  C  C649  1  0.633440  0.902710  0.377940  1.0  -0.0624
  C  C650  1  0.558600  0.770650  0.421670  1.0  0.0246
  C  C651  1  0.842440  0.974460  0.176470  1.0  0.0387
  C  C652  1  0.837680  0.934940  0.189600  1.0  -0.1493
  C  C653  1  0.824350  0.010570  0.189560  1.0  -0.1558
  C  C654  1  0.827150  0.052680  0.174360  1.0  0.6983
  C  C655  1  0.544140  0.806440  0.436260  1.0  -0.1508
  C  C656  1  0.559150  0.846890  0.428500  1.0  -0.0381
  C  C657  1  0.644980  0.184920  0.419270  1.0  -0.0697
  C  C658  1  0.815500  0.930840  0.216230  1.0  -0.0101
  C  C659  1  0.854630  0.895730  0.174420  1.0  0.701
  C  C660  1  0.511120  0.802390  0.460250  1.0  0.674
  C  C661  1  0.669590  0.188880  0.393720  1.0  0.1368
  C  C662  1  0.676800  0.228540  0.381250  1.0  -0.0215
  C  C663  1  0.802010  0.006620  0.216250  1.0  -0.0701
  C  C664  1  0.797540  0.966570  0.229080  1.0  0.1083
  C  C665  1  0.736900  0.969580  0.296600  1.0  0.1997
  C  C666  1  0.757330  0.990150  0.274430  1.0  -0.0557
  C  C667  1  0.696100  0.088880  0.361130  1.0  0.1031
  C  C668  1  0.716220  0.028660  0.329420  1.0  -0.0882
  C  C669  1  0.688700  0.958310  0.338670  1.0  -0.0392
  C  C670  1  0.673090  0.111590  0.381030  1.0  -0.0428
  C  C671  1  0.692600  0.043920  0.353510  1.0  -0.0122
  C  C672  1  0.638900  0.945680  0.380100  1.0  0.1781
  C  C673  1  0.713900  0.985970  0.321920  1.0  0.0444
  C  C674  1  0.666860  0.016080  0.370000  1.0  -0.0921
  C  C675  1  0.664100  0.973710  0.362040  1.0  -0.0468
  C  C676  1  0.598720  0.216310  0.459060  1.0  0.699
  C  C677  1  0.627810  0.220780  0.432520  1.0  -0.1512
  C  C678  1  0.635320  0.260990  0.420370  1.0  0.0322
  C  C679  1  0.659910  0.264550  0.394630  1.0  -0.1412
  C  C680  1  0.665870  0.307240  0.379950  1.0  0.7038
  C  C681  1  0.898430  0.764170  0.881740  1.0  0.675
  C  C682  1  0.912440  0.725300  0.898480  1.0  -0.1425
  C  C683  1  0.897480  0.685740  0.890220  1.0  -0.0662
  C  C684  1  0.911130  0.649900  0.905940  1.0  0.0749
  C  C685  1  0.866560  0.597290  0.877940  1.0  -0.0621
  C  C686  1  0.941400  0.729350  0.921670  1.0  0.0236
  C  C687  1  0.657560  0.525540  0.676470  1.0  0.0384
  C  C688  1  0.662320  0.565060  0.689600  1.0  -0.1494
  C  C689  1  0.675650  0.489430  0.689560  1.0  -0.1554
  C  C690  1  0.672850  0.447320  0.674360  1.0  0.6981
  C  C691  1  0.955860  0.693560  0.936260  1.0  -0.1506
  C  C692  1  0.940850  0.653110  0.928500  1.0  -0.0359
  C  C693  1  0.855020  0.315080  0.919270  1.0  -0.0682
  C  C694  1  0.684500  0.569160  0.716230  1.0  -0.0084
  C  C695  1  0.645370  0.604270  0.674420  1.0  0.701
  C  C696  1  0.988880  0.697610  0.960250  1.0  0.6737
  C  C697  1  0.830410  0.311120  0.893720  1.0  0.137
  C  C698  1  0.823200  0.271460  0.881250  1.0  -0.0219
  C  C699  1  0.697990  0.493380  0.716250  1.0  -0.0686
  C  C700  1  0.702460  0.533430  0.729080  1.0  0.1081
  C  C701  1  0.763100  0.530420  0.796600  1.0  0.1996
  C  C702  1  0.742670  0.509850  0.774430  1.0  -0.057
  C  C703  1  0.803900  0.411120  0.861130  1.0  0.1022
  C  C704  1  0.783780  0.471340  0.829420  1.0  -0.0843
  C  C705  1  0.811300  0.541690  0.838670  1.0  -0.0394
  C  C706  1  0.826910  0.388410  0.881030  1.0  -0.044
  C  C707  1  0.807400  0.456080  0.853510  1.0  -0.0105
  C  C708  1  0.861100  0.554320  0.880100  1.0  0.179
  C  C709  1  0.786100  0.514030  0.821920  1.0  0.0447
  C  C710  1  0.833140  0.483920  0.870000  1.0  -0.0921
  C  C711  1  0.835900  0.526290  0.862040  1.0  -0.0468
  C  C712  1  0.901280  0.283690  0.959060  1.0  0.6988
  C  C713  1  0.872190  0.279220  0.932520  1.0  -0.1513
  C  C714  1  0.864680  0.239010  0.920370  1.0  0.0331
  C  C715  1  0.840090  0.235450  0.894630  1.0  -0.1413
  C  C716  1  0.834130  0.192760  0.879950  1.0  0.7033
  C  C717  1  0.398430  0.264170  0.381740  1.0  0.675
  C  C718  1  0.412440  0.225300  0.398480  1.0  -0.1425
  C  C719  1  0.397480  0.185740  0.390220  1.0  -0.0662
  C  C720  1  0.411130  0.149900  0.405940  1.0  0.0749
  C  C721  1  0.366560  0.097290  0.377940  1.0  -0.0621
  C  C722  1  0.441400  0.229350  0.421670  1.0  0.0236
  C  C723  1  0.157560  0.025540  0.176470  1.0  0.0384
  C  C724  1  0.162320  0.065060  0.189600  1.0  -0.1494
  C  C725  1  0.175650  0.989430  0.189560  1.0  -0.1554
  C  C726  1  0.172850  0.947320  0.174360  1.0  0.6981
  C  C727  1  0.455860  0.193560  0.436260  1.0  -0.1506
  C  C728  1  0.440850  0.153110  0.428500  1.0  -0.0359
  C  C729  1  0.355020  0.815080  0.419270  1.0  -0.0682
  C  C730  1  0.184500  0.069160  0.216230  1.0  -0.0084
  C  C731  1  0.145370  0.104270  0.174420  1.0  0.701
  C  C732  1  0.488880  0.197610  0.460250  1.0  0.6737
  C  C733  1  0.330410  0.811120  0.393720  1.0  0.137
  C  C734  1  0.323200  0.771460  0.381250  1.0  -0.0219
  C  C735  1  0.197990  0.993380  0.216250  1.0  -0.0686
  C  C736  1  0.202460  0.033430  0.229080  1.0  0.1081
  C  C737  1  0.263100  0.030420  0.296600  1.0  0.1996
  C  C738  1  0.242670  0.009850  0.274430  1.0  -0.0556
  C  C739  1  0.303900  0.911120  0.361130  1.0  0.1019
  C  C740  1  0.283780  0.971340  0.329420  1.0  -0.0876
  C  C741  1  0.311300  0.041690  0.338670  1.0  -0.0394
  C  C742  1  0.326910  0.888410  0.381030  1.0  -0.044
  C  C743  1  0.307400  0.956080  0.353510  1.0  -0.012
  C  C744  1  0.361100  0.054320  0.380100  1.0  0.179
  C  C745  1  0.286100  0.014030  0.321920  1.0  0.0447
  C  C746  1  0.333140  0.983920  0.370000  1.0  -0.0924
  C  C747  1  0.335900  0.026290  0.362040  1.0  -0.0459
  C  C748  1  0.401280  0.783690  0.459060  1.0  0.6988
  C  C749  1  0.372190  0.779220  0.432520  1.0  -0.1513
  C  C750  1  0.364680  0.739010  0.420370  1.0  0.0331
  C  C751  1  0.340090  0.735450  0.394630  1.0  -0.1413
  C  C752  1  0.334130  0.692760  0.379950  1.0  0.7033
  C  C753  1  0.764170  0.101570  0.881740  1.0  0.6746
  C  C754  1  0.725300  0.087560  0.898480  1.0  -0.1424
  C  C755  1  0.685740  0.102520  0.890220  1.0  -0.0635
  C  C756  1  0.649900  0.088870  0.905940  1.0  0.0738
  C  C757  1  0.597290  0.133440  0.877940  1.0  -0.0637
  C  C758  1  0.729350  0.058600  0.921670  1.0  0.0222
  C  C759  1  0.525540  0.342440  0.676470  1.0  0.0402
  C  C760  1  0.565060  0.337680  0.689600  1.0  -0.1481
  C  C761  1  0.489430  0.324350  0.689560  1.0  -0.1554
  C  C762  1  0.447320  0.327150  0.674360  1.0  0.698
  C  C763  1  0.693560  0.044140  0.936260  1.0  -0.1504
  C  C764  1  0.653110  0.059150  0.928500  1.0  -0.0373
  C  C765  1  0.315080  0.144980  0.919270  1.0  -0.0708
  C  C766  1  0.569160  0.315500  0.716230  1.0  -0.0112
  C  C767  1  0.604270  0.354630  0.674420  1.0  0.6994
  C  C768  1  0.697610  0.011120  0.960250  1.0  0.6735
  C  C769  1  0.311120  0.169590  0.893720  1.0  0.1371
  C  C770  1  0.271460  0.176800  0.881250  1.0  -0.0205
  C  C771  1  0.493380  0.302010  0.716250  1.0  -0.0716
  C  C772  1  0.533430  0.297540  0.729080  1.0  0.1087
  C  C773  1  0.530420  0.236900  0.796600  1.0  0.1984
  C  C774  1  0.509850  0.257330  0.774430  1.0  -0.0579
  C  C775  1  0.411120  0.196100  0.861130  1.0  0.0997
  C  C776  1  0.471340  0.216220  0.829420  1.0  -0.0836
  C  C777  1  0.541690  0.188700  0.838670  1.0  -0.0401
  C  C778  1  0.388410  0.173090  0.881030  1.0  -0.0417
  C  C779  1  0.456080  0.192600  0.853510  1.0  -0.0108
  C  C780  1  0.554320  0.138900  0.880100  1.0  0.1804
  C  C781  1  0.514030  0.213900  0.821920  1.0  0.0447
  C  C782  1  0.483920  0.166860  0.870000  1.0  -0.0916
  C  C783  1  0.526290  0.164100  0.862040  1.0  -0.0473
  C  C784  1  0.283690  0.098720  0.959060  1.0  0.699
  C  C785  1  0.279220  0.127810  0.932520  1.0  -0.1508
  C  C786  1  0.239010  0.135320  0.920370  1.0  0.0314
  C  C787  1  0.235450  0.159910  0.894630  1.0  -0.1404
  C  C788  1  0.192760  0.165870  0.879950  1.0  0.7018
  C  C789  1  0.264170  0.601570  0.381740  1.0  0.6746
  C  C790  1  0.225300  0.587560  0.398480  1.0  -0.1424
  C  C791  1  0.185740  0.602520  0.390220  1.0  -0.0635
  C  C792  1  0.149900  0.588870  0.405940  1.0  0.0738
  C  C793  1  0.097290  0.633440  0.377940  1.0  -0.0637
  C  C794  1  0.229350  0.558600  0.421670  1.0  0.0222
  C  C795  1  0.025540  0.842440  0.176470  1.0  0.0402
  C  C796  1  0.065060  0.837680  0.189600  1.0  -0.1481
  C  C797  1  0.989430  0.824350  0.189560  1.0  -0.1554
  C  C798  1  0.947320  0.827150  0.174360  1.0  0.698
  C  C799  1  0.193560  0.544140  0.436260  1.0  -0.1504
  C  C800  1  0.153110  0.559150  0.428500  1.0  -0.0373
  C  C801  1  0.815080  0.644980  0.419270  1.0  -0.0708
  C  C802  1  0.069160  0.815500  0.216230  1.0  -0.0112
  C  C803  1  0.104270  0.854630  0.174420  1.0  0.6994
  C  C804  1  0.197610  0.511120  0.460250  1.0  0.6735
  C  C805  1  0.811120  0.669590  0.393720  1.0  0.1371
  C  C806  1  0.771460  0.676800  0.381250  1.0  -0.0205
  C  C807  1  0.993380  0.802010  0.216250  1.0  -0.0716
  C  C808  1  0.033430  0.797540  0.229080  1.0  0.1087
  C  C809  1  0.030420  0.736900  0.296600  1.0  0.1984
  C  C810  1  0.009850  0.757330  0.274430  1.0  -0.0563
  C  C811  1  0.911120  0.696100  0.361130  1.0  0.0993
  C  C812  1  0.971340  0.716220  0.329420  1.0  -0.0878
  C  C813  1  0.041690  0.688700  0.338670  1.0  -0.0401
  C  C814  1  0.888410  0.673090  0.381030  1.0  -0.0417
  C  C815  1  0.956080  0.692600  0.353510  1.0  -0.0129
  C  C816  1  0.054320  0.638900  0.380100  1.0  0.1804
  C  C817  1  0.014030  0.713900  0.321920  1.0  0.0447
  C  C818  1  0.983920  0.666860  0.370000  1.0  -0.0919
  C  C819  1  0.026290  0.664100  0.362040  1.0  -0.0464
  C  C820  1  0.783690  0.598720  0.459060  1.0  0.699
  C  C821  1  0.779220  0.627810  0.432520  1.0  -0.1508
  C  C822  1  0.739010  0.635320  0.420370  1.0  0.0314
  C  C823  1  0.735450  0.659910  0.394630  1.0  -0.1404
  C  C824  1  0.692760  0.665870  0.379950  1.0  0.7018
  C  C825  1  0.235830  0.898430  0.881740  1.0  0.6747
  C  C826  1  0.274700  0.912440  0.898480  1.0  -0.1428
  C  C827  1  0.314260  0.897480  0.890220  1.0  -0.0647
  C  C828  1  0.350100  0.911130  0.905940  1.0  0.0746
  C  C829  1  0.402710  0.866560  0.877940  1.0  -0.0627
  C  C830  1  0.270650  0.941400  0.921670  1.0  0.0215
  C  C831  1  0.474460  0.657560  0.676470  1.0  0.0398
  C  C832  1  0.434940  0.662320  0.689600  1.0  -0.1485
  C  C833  1  0.510570  0.675650  0.689560  1.0  -0.1551
  C  C834  1  0.552680  0.672850  0.674360  1.0  0.6977
  C  C835  1  0.306440  0.955860  0.936260  1.0  -0.1506
  C  C836  1  0.346890  0.940850  0.928500  1.0  -0.0365
  C  C837  1  0.684920  0.855020  0.919270  1.0  -0.0723
  C  C838  1  0.430840  0.684500  0.716230  1.0  -0.0127
  C  C839  1  0.395730  0.645370  0.674420  1.0  0.6996
  C  C840  1  0.302390  0.988880  0.960250  1.0  0.6737
  C  C841  1  0.688880  0.830410  0.893720  1.0  0.1377
  C  C842  1  0.728540  0.823200  0.881250  1.0  -0.0197
  C  C843  1  0.506620  0.697990  0.716250  1.0  -0.0724
  C  C844  1  0.466570  0.702460  0.729080  1.0  0.1086
  C  C845  1  0.469580  0.763100  0.796600  1.0  0.1987
  C  C846  1  0.490150  0.742670  0.774430  1.0  -0.0576
  C  C847  1  0.588880  0.803900  0.861130  1.0  0.0995
  C  C848  1  0.528660  0.783780  0.829420  1.0  -0.0842
  C  C849  1  0.458310  0.811300  0.838670  1.0  -0.0416
  C  C850  1  0.611590  0.826910  0.881030  1.0  -0.0432
  C  C851  1  0.543920  0.807400  0.853510  1.0  -0.0105
  C  C852  1  0.445680  0.861100  0.880100  1.0  0.1808
  C  C853  1  0.485970  0.786100  0.821920  1.0  0.0449
  C  C854  1  0.516080  0.833140  0.870000  1.0  -0.0923
  C  C855  1  0.473710  0.835900  0.862040  1.0  -0.0468
  C  C856  1  0.716310  0.901280  0.959060  1.0  0.6995
  C  C857  1  0.720780  0.872190  0.932520  1.0  -0.1508
  C  C858  1  0.760990  0.864680  0.920370  1.0  0.0311
  C  C859  1  0.764550  0.840090  0.894630  1.0  -0.1403
  C  C860  1  0.807240  0.834130  0.879950  1.0  0.7015
  C  C861  1  0.735830  0.398430  0.381740  1.0  0.6747
  C  C862  1  0.774700  0.412440  0.398480  1.0  -0.1428
  C  C863  1  0.814260  0.397480  0.390220  1.0  -0.0647
  C  C864  1  0.850100  0.411130  0.405940  1.0  0.0746
  C  C865  1  0.902710  0.366560  0.377940  1.0  -0.0627
  C  C866  1  0.770650  0.441400  0.421670  1.0  0.0215
  C  C867  1  0.974460  0.157560  0.176470  1.0  0.0398
  C  C868  1  0.934940  0.162320  0.189600  1.0  -0.1485
  C  C869  1  0.010570  0.175650  0.189560  1.0  -0.1551
  C  C870  1  0.052680  0.172850  0.174360  1.0  0.6977
  C  C871  1  0.806440  0.455860  0.436260  1.0  -0.1506
  C  C872  1  0.846890  0.440850  0.428500  1.0  -0.0365
  C  C873  1  0.184920  0.355020  0.419270  1.0  -0.0723
  C  C874  1  0.930840  0.184500  0.216230  1.0  -0.0127
  C  C875  1  0.895730  0.145370  0.174420  1.0  0.6996
  C  C876  1  0.802390  0.488880  0.460250  1.0  0.6737
  C  C877  1  0.188880  0.330410  0.393720  1.0  0.1377
  C  C878  1  0.228540  0.323200  0.381250  1.0  -0.0197
  C  C879  1  0.006620  0.197990  0.216250  1.0  -0.0724
  C  C880  1  0.966570  0.202460  0.229080  1.0  0.1086
  C  C881  1  0.969580  0.263100  0.296600  1.0  0.1987
  C  C882  1  0.990150  0.242670  0.274430  1.0  -0.056
  C  C883  1  0.088880  0.303900  0.361130  1.0  0.0987
  C  C884  1  0.028660  0.283780  0.329420  1.0  -0.0872
  C  C885  1  0.958310  0.311300  0.338670  1.0  -0.0416
  C  C886  1  0.111590  0.326910  0.381030  1.0  -0.0432
  C  C887  1  0.043920  0.307400  0.353510  1.0  -0.0126
  C  C888  1  0.945680  0.361100  0.380100  1.0  0.1808
  C  C889  1  0.985970  0.286100  0.321920  1.0  0.0449
  C  C890  1  0.016080  0.333140  0.370000  1.0  -0.0926
  C  C891  1  0.973710  0.335900  0.362040  1.0  -0.0456
  C  C892  1  0.216310  0.401280  0.459060  1.0  0.6995
  C  C893  1  0.220780  0.372190  0.432520  1.0  -0.1508
  C  C894  1  0.260990  0.364680  0.420370  1.0  0.0311
  C  C895  1  0.264550  0.340090  0.394630  1.0  -0.1403
  C  C896  1  0.307240  0.334130  0.379950  1.0  0.7015
  N  N897  1  0.895030  0.608870  0.101160  1.0  0.1079
  N  N898  1  0.814820  0.347450  0.121170  1.0  0.1211
  N  N899  1  0.726210  0.538740  0.244020  1.0  0.1044
  N  N900  1  0.885600  0.541490  0.098170  1.0  -0.2046
  N  N901  1  0.902900  0.576040  0.084360  1.0  -0.2568
  N  N902  1  0.781000  0.383740  0.153600  1.0  -0.1765
  N  N903  1  0.760400  0.570300  0.209790  1.0  -0.1924
  N  N904  1  0.788300  0.344460  0.143370  1.0  -0.1935
  N  N905  1  0.736800  0.576170  0.234670  1.0  -0.2418
  N  N906  1  0.395030  0.108870  0.601160  1.0  0.1079
  N  N907  1  0.314820  0.847450  0.621170  1.0  0.1211
  N  N908  1  0.226210  0.038740  0.744020  1.0  0.1044
  N  N909  1  0.385600  0.041490  0.598170  1.0  -0.2046
  N  N910  1  0.402900  0.076040  0.584360  1.0  -0.2568
  N  N911  1  0.281000  0.883740  0.653600  1.0  -0.1765
  N  N912  1  0.260400  0.070300  0.709790  1.0  -0.1924
  N  N913  1  0.288300  0.844460  0.643370  1.0  -0.1935
  N  N914  1  0.236800  0.076170  0.734670  1.0  -0.2418
  N  N915  1  0.104970  0.391130  0.101160  1.0  0.107
  N  N916  1  0.185180  0.652550  0.121170  1.0  0.1215
  N  N917  1  0.273790  0.461260  0.244020  1.0  0.1031
  N  N918  1  0.114400  0.458510  0.098170  1.0  -0.2045
  N  N919  1  0.097100  0.423960  0.084360  1.0  -0.2582
  N  N920  1  0.219000  0.616260  0.153600  1.0  -0.1814
  N  N921  1  0.239600  0.429700  0.209790  1.0  -0.1921
  N  N922  1  0.211700  0.655540  0.143370  1.0  -0.1969
  N  N923  1  0.263200  0.423830  0.234670  1.0  -0.2438
  N  N924  1  0.604970  0.891130  0.601160  1.0  0.107
  N  N925  1  0.685180  0.152550  0.621170  1.0  0.1215
  N  N926  1  0.773790  0.961260  0.744020  1.0  0.1031
  N  N927  1  0.614400  0.958510  0.598170  1.0  -0.2045
  N  N928  1  0.597100  0.923960  0.584360  1.0  -0.2582
  N  N929  1  0.719000  0.116260  0.653600  1.0  -0.1814
  N  N930  1  0.739600  0.929700  0.709790  1.0  -0.1921
  N  N931  1  0.711700  0.155540  0.643370  1.0  -0.1969
  N  N932  1  0.763200  0.923830  0.734670  1.0  -0.2438
  N  N933  1  0.391130  0.895030  0.101160  1.0  0.1069
  N  N934  1  0.652550  0.814820  0.121170  1.0  0.1221
  N  N935  1  0.461260  0.726210  0.244020  1.0  0.104
  N  N936  1  0.458510  0.885600  0.098170  1.0  -0.203
  N  N937  1  0.423960  0.902900  0.084360  1.0  -0.258
  N  N938  1  0.616260  0.781000  0.153600  1.0  -0.1808
  N  N939  1  0.429700  0.760400  0.209790  1.0  -0.193
  N  N940  1  0.655540  0.788300  0.143370  1.0  -0.1946
  N  N941  1  0.423830  0.736800  0.234670  1.0  -0.2413
  N  N942  1  0.891130  0.395030  0.601160  1.0  0.1069
  N  N943  1  0.152550  0.314820  0.621170  1.0  0.1221
  N  N944  1  0.961260  0.226210  0.744020  1.0  0.104
  N  N945  1  0.958510  0.385600  0.598170  1.0  -0.203
  N  N946  1  0.923960  0.402900  0.584360  1.0  -0.258
  N  N947  1  0.116260  0.281000  0.653600  1.0  -0.1808
  N  N948  1  0.929700  0.260400  0.709790  1.0  -0.193
  N  N949  1  0.155540  0.288300  0.643370  1.0  -0.1946
  N  N950  1  0.923830  0.236800  0.734670  1.0  -0.2413
  N  N951  1  0.608870  0.104970  0.101160  1.0  0.1043
  N  N952  1  0.347450  0.185180  0.121170  1.0  0.1214
  N  N953  1  0.538740  0.273790  0.244020  1.0  0.1037
  N  N954  1  0.541490  0.114400  0.098170  1.0  -0.1972
  N  N955  1  0.576040  0.097100  0.084360  1.0  -0.2554
  N  N956  1  0.383740  0.219000  0.153600  1.0  -0.1813
  N  N957  1  0.570300  0.239600  0.209790  1.0  -0.1986
  N  N958  1  0.344460  0.211700  0.143370  1.0  -0.1929
  N  N959  1  0.576170  0.263200  0.234670  1.0  -0.2466
  N  N960  1  0.108870  0.604970  0.601160  1.0  0.1043
  N  N961  1  0.847450  0.685180  0.621170  1.0  0.1214
  N  N962  1  0.038740  0.773790  0.744020  1.0  0.1037
  N  N963  1  0.041490  0.614400  0.598170  1.0  -0.1972
  N  N964  1  0.076040  0.597100  0.584360  1.0  -0.2554
  N  N965  1  0.883740  0.719000  0.653600  1.0  -0.1813
  N  N966  1  0.070300  0.739600  0.709790  1.0  -0.1986
  N  N967  1  0.844460  0.711700  0.643370  1.0  -0.1929
  N  N968  1  0.076170  0.763200  0.734670  1.0  -0.2466
  N  N969  1  0.104970  0.391130  0.898840  1.0  0.1073
  N  N970  1  0.185180  0.652550  0.878830  1.0  0.1218
  N  N971  1  0.273790  0.461260  0.755980  1.0  0.1023
  N  N972  1  0.114400  0.458510  0.901830  1.0  -0.2008
  N  N973  1  0.097100  0.423960  0.915640  1.0  -0.2562
  N  N974  1  0.219000  0.616260  0.846400  1.0  -0.1859
  N  N975  1  0.239600  0.429700  0.790210  1.0  -0.1922
  N  N976  1  0.211700  0.655540  0.856630  1.0  -0.1995
  N  N977  1  0.263200  0.423830  0.765330  1.0  -0.2432
  N  N978  1  0.604970  0.891130  0.398840  1.0  0.1073
  N  N979  1  0.685180  0.152550  0.378830  1.0  0.1218
  N  N980  1  0.773790  0.961260  0.255980  1.0  0.1023
  N  N981  1  0.614400  0.958510  0.401830  1.0  -0.2008
  N  N982  1  0.597100  0.923960  0.415640  1.0  -0.2562
  N  N983  1  0.719000  0.116260  0.346400  1.0  -0.1859
  N  N984  1  0.739600  0.929700  0.290210  1.0  -0.1922
  N  N985  1  0.711700  0.155540  0.356630  1.0  -0.1995
  N  N986  1  0.763200  0.923830  0.265330  1.0  -0.2432
  N  N987  1  0.895030  0.608870  0.898840  1.0  0.1079
  N  N988  1  0.814820  0.347450  0.878830  1.0  0.1214
  N  N989  1  0.726210  0.538740  0.755980  1.0  0.1036
  N  N990  1  0.885600  0.541490  0.901830  1.0  -0.2005
  N  N991  1  0.902900  0.576040  0.915640  1.0  -0.2554
  N  N992  1  0.781000  0.383740  0.846400  1.0  -0.1816
  N  N993  1  0.760400  0.570300  0.790210  1.0  -0.1913
  N  N994  1  0.788300  0.344460  0.856630  1.0  -0.1954
  N  N995  1  0.736800  0.576170  0.765330  1.0  -0.2418
  N  N996  1  0.395030  0.108870  0.398840  1.0  0.1079
  N  N997  1  0.314820  0.847450  0.378830  1.0  0.1214
  N  N998  1  0.226210  0.038740  0.255980  1.0  0.1036
  N  N999  1  0.385600  0.041490  0.401830  1.0  -0.2005
  N  N1000  1  0.402900  0.076040  0.415640  1.0  -0.2554
  N  N1001  1  0.281000  0.883740  0.346400  1.0  -0.1816
  N  N1002  1  0.260400  0.070300  0.290210  1.0  -0.1913
  N  N1003  1  0.288300  0.844460  0.356630  1.0  -0.1954
  N  N1004  1  0.236800  0.076170  0.265330  1.0  -0.2418
  N  N1005  1  0.608870  0.104970  0.898840  1.0  0.1045
  N  N1006  1  0.347450  0.185180  0.878830  1.0  0.1217
  N  N1007  1  0.538740  0.273790  0.755980  1.0  0.1032
  N  N1008  1  0.541490  0.114400  0.901830  1.0  -0.1952
  N  N1009  1  0.576040  0.097100  0.915640  1.0  -0.2531
  N  N1010  1  0.383740  0.219000  0.846400  1.0  -0.1878
  N  N1011  1  0.570300  0.239600  0.790210  1.0  -0.1983
  N  N1012  1  0.344460  0.211700  0.856630  1.0  -0.1948
  N  N1013  1  0.576170  0.263200  0.765330  1.0  -0.2463
  N  N1014  1  0.108870  0.604970  0.398840  1.0  0.1045
  N  N1015  1  0.847450  0.685180  0.378830  1.0  0.1217
  N  N1016  1  0.038740  0.773790  0.255980  1.0  0.1032
  N  N1017  1  0.041490  0.614400  0.401830  1.0  -0.1952
  N  N1018  1  0.076040  0.597100  0.415640  1.0  -0.2531
  N  N1019  1  0.883740  0.719000  0.346400  1.0  -0.1878
  N  N1020  1  0.070300  0.739600  0.290210  1.0  -0.1983
  N  N1021  1  0.844460  0.711700  0.356630  1.0  -0.1948
  N  N1022  1  0.076170  0.763200  0.265330  1.0  -0.2463
  N  N1023  1  0.391130  0.895030  0.898840  1.0  0.107
  N  N1024  1  0.652550  0.814820  0.878830  1.0  0.1222
  N  N1025  1  0.461260  0.726210  0.755980  1.0  0.1032
  N  N1026  1  0.458510  0.885600  0.901830  1.0  -0.1984
  N  N1027  1  0.423960  0.902900  0.915640  1.0  -0.256
  N  N1028  1  0.616260  0.781000  0.846400  1.0  -0.1857
  N  N1029  1  0.429700  0.760400  0.790210  1.0  -0.1937
  N  N1030  1  0.655540  0.788300  0.856630  1.0  -0.1975
  N  N1031  1  0.423830  0.736800  0.765330  1.0  -0.2414
  N  N1032  1  0.891130  0.395030  0.398840  1.0  0.107
  N  N1033  1  0.152550  0.314820  0.378830  1.0  0.1222
  N  N1034  1  0.961260  0.226210  0.255980  1.0  0.1032
  N  N1035  1  0.958510  0.385600  0.401830  1.0  -0.1984
  N  N1036  1  0.923960  0.402900  0.415640  1.0  -0.256
  N  N1037  1  0.116260  0.281000  0.346400  1.0  -0.1857
  N  N1038  1  0.929700  0.260400  0.290210  1.0  -0.1937
  N  N1039  1  0.155540  0.288300  0.356630  1.0  -0.1975
  N  N1040  1  0.923830  0.236800  0.265330  1.0  -0.2414
  O  O1041  1  0.909500  0.799630  0.107870  1.0  -0.5651
  O  O1042  1  0.877080  0.758380  0.141850  1.0  -0.5605
  O  O1043  1  0.652980  0.639510  0.313230  1.0  -0.569
  O  O1044  1  0.005930  0.664000  0.030340  1.0  -0.5676
  O  O1045  1  0.625750  0.598630  0.349370  1.0  -0.5602
  O  O1046  1  0.650320  0.445370  0.348830  1.0  -0.567
  O  O1047  1  0.693200  0.416970  0.314490  1.0  -0.5683
  O  O1048  1  0.996660  0.734740  0.030760  1.0  -0.5674
  O  O1049  1  0.575850  0.607530  0.407830  1.0  -0.6374
  O  O1050  1  0.667340  0.734330  0.298700  1.0  -0.6384
  O  O1051  1  0.907390  0.320870  0.031300  1.0  -0.5673
  O  O1052  1  0.917350  0.250420  0.030870  1.0  -0.5649
  O  O1053  1  0.851320  0.161500  0.107360  1.0  -0.5608
  O  O1054  1  0.813120  0.191710  0.143430  1.0  -0.5573
  O  O1055  1  0.409500  0.299630  0.607870  1.0  -0.5651
  O  O1056  1  0.377080  0.258380  0.641850  1.0  -0.5605
  O  O1057  1  0.152980  0.139510  0.813230  1.0  -0.569
  O  O1058  1  0.505930  0.164000  0.530340  1.0  -0.5676
  O  O1059  1  0.125750  0.098630  0.849370  1.0  -0.5602
  O  O1060  1  0.150320  0.945370  0.848830  1.0  -0.567
  O  O1061  1  0.193200  0.916970  0.814490  1.0  -0.5683
  O  O1062  1  0.496660  0.234740  0.530760  1.0  -0.5674
  O  O1063  1  0.075850  0.107530  0.907830  1.0  -0.6374
  O  O1064  1  0.167340  0.234330  0.798700  1.0  -0.6384
  O  O1065  1  0.407390  0.820870  0.531300  1.0  -0.5673
  O  O1066  1  0.417350  0.750420  0.530870  1.0  -0.5649
  O  O1067  1  0.351320  0.661500  0.607360  1.0  -0.5608
  O  O1068  1  0.313120  0.691710  0.643430  1.0  -0.5573
  O  O1069  1  0.090500  0.200370  0.107870  1.0  -0.5655
  O  O1070  1  0.122920  0.241620  0.141850  1.0  -0.5591
  O  O1071  1  0.347020  0.360490  0.313230  1.0  -0.5698
  O  O1072  1  0.994070  0.336000  0.030340  1.0  -0.5662
  O  O1073  1  0.374250  0.401370  0.349370  1.0  -0.5591
  O  O1074  1  0.349680  0.554630  0.348830  1.0  -0.567
  O  O1075  1  0.306800  0.583030  0.314490  1.0  -0.5682
  O  O1076  1  0.003340  0.265260  0.030760  1.0  -0.5665
  O  O1077  1  0.424150  0.392470  0.407830  1.0  -0.6375
  O  O1078  1  0.332660  0.265670  0.298700  1.0  -0.6392
  O  O1079  1  0.092610  0.679130  0.031300  1.0  -0.5674
  O  O1080  1  0.082650  0.749580  0.030870  1.0  -0.5656
  O  O1081  1  0.148680  0.838500  0.107360  1.0  -0.5614
  O  O1082  1  0.186880  0.808290  0.143430  1.0  -0.5569
  O  O1083  1  0.590500  0.700370  0.607870  1.0  -0.5655
  O  O1084  1  0.622920  0.741620  0.641850  1.0  -0.5591
  O  O1085  1  0.847020  0.860490  0.813230  1.0  -0.5698
  O  O1086  1  0.494070  0.836000  0.530340  1.0  -0.5662
  O  O1087  1  0.874250  0.901370  0.849370  1.0  -0.5591
  O  O1088  1  0.849680  0.054630  0.848830  1.0  -0.567
  O  O1089  1  0.806800  0.083030  0.814490  1.0  -0.5682
  O  O1090  1  0.503340  0.765260  0.530760  1.0  -0.5665
  O  O1091  1  0.924150  0.892470  0.907830  1.0  -0.6375
  O  O1092  1  0.832660  0.765670  0.798700  1.0  -0.6392
  O  O1093  1  0.592610  0.179130  0.531300  1.0  -0.5674
  O  O1094  1  0.582650  0.249580  0.530870  1.0  -0.5656
  O  O1095  1  0.648680  0.338500  0.607360  1.0  -0.5614
  O  O1096  1  0.686880  0.308290  0.643430  1.0  -0.5569
  O  O1097  1  0.200370  0.909500  0.107870  1.0  -0.5655
  O  O1098  1  0.241620  0.877080  0.141850  1.0  -0.5613
  O  O1099  1  0.360490  0.652980  0.313230  1.0  -0.569
  O  O1100  1  0.336000  0.005930  0.030340  1.0  -0.5673
  O  O1101  1  0.401370  0.625750  0.349370  1.0  -0.5604
  O  O1102  1  0.554630  0.650320  0.348830  1.0  -0.5675
  O  O1103  1  0.583030  0.693200  0.314490  1.0  -0.5652
  O  O1104  1  0.265260  0.996660  0.030760  1.0  -0.5673
  O  O1105  1  0.392470  0.575850  0.407830  1.0  -0.6343
  O  O1106  1  0.265670  0.667340  0.298700  1.0  -0.6383
  O  O1107  1  0.679130  0.907390  0.031300  1.0  -0.5676
  O  O1108  1  0.749580  0.917350  0.030870  1.0  -0.5654
  O  O1109  1  0.838500  0.851320  0.107360  1.0  -0.5605
  O  O1110  1  0.808290  0.813120  0.143430  1.0  -0.5573
  O  O1111  1  0.700370  0.409500  0.607870  1.0  -0.5655
  O  O1112  1  0.741620  0.377080  0.641850  1.0  -0.5613
  O  O1113  1  0.860490  0.152980  0.813230  1.0  -0.569
  O  O1114  1  0.836000  0.505930  0.530340  1.0  -0.5673
  O  O1115  1  0.901370  0.125750  0.849370  1.0  -0.5604
  O  O1116  1  0.054630  0.150320  0.848830  1.0  -0.5675
  O  O1117  1  0.083030  0.193200  0.814490  1.0  -0.5652
  O  O1118  1  0.765260  0.496660  0.530760  1.0  -0.5673
  O  O1119  1  0.892470  0.075850  0.907830  1.0  -0.6343
  O  O1120  1  0.765670  0.167340  0.798700  1.0  -0.6383
  O  O1121  1  0.179130  0.407390  0.531300  1.0  -0.5676
  O  O1122  1  0.249580  0.417350  0.530870  1.0  -0.5654
  O  O1123  1  0.338500  0.351320  0.607360  1.0  -0.5605
  O  O1124  1  0.308290  0.313120  0.643430  1.0  -0.5573
  O  O1125  1  0.799630  0.090500  0.107870  1.0  -0.5654
  O  O1126  1  0.758380  0.122920  0.141850  1.0  -0.5599
  O  O1127  1  0.639510  0.347020  0.313230  1.0  -0.5691
  O  O1128  1  0.664000  0.994070  0.030340  1.0  -0.5687
  O  O1129  1  0.598630  0.374250  0.349370  1.0  -0.5602
  O  O1130  1  0.445370  0.349680  0.348830  1.0  -0.5671
  O  O1131  1  0.416970  0.306800  0.314490  1.0  -0.5665
  O  O1132  1  0.734740  0.003340  0.030760  1.0  -0.5666
  O  O1133  1  0.607530  0.424150  0.407830  1.0  -0.6344
  O  O1134  1  0.734330  0.332660  0.298700  1.0  -0.635
  O  O1135  1  0.320870  0.092610  0.031300  1.0  -0.5671
  O  O1136  1  0.250420  0.082650  0.030870  1.0  -0.5651
  O  O1137  1  0.161500  0.148680  0.107360  1.0  -0.5603
  O  O1138  1  0.191710  0.186880  0.143430  1.0  -0.5577
  O  O1139  1  0.299630  0.590500  0.607870  1.0  -0.5654
  O  O1140  1  0.258380  0.622920  0.641850  1.0  -0.5599
  O  O1141  1  0.139510  0.847020  0.813230  1.0  -0.5691
  O  O1142  1  0.164000  0.494070  0.530340  1.0  -0.5687
  O  O1143  1  0.098630  0.874250  0.849370  1.0  -0.5602
  O  O1144  1  0.945370  0.849680  0.848830  1.0  -0.5671
  O  O1145  1  0.916970  0.806800  0.814490  1.0  -0.5665
  O  O1146  1  0.234740  0.503340  0.530760  1.0  -0.5666
  O  O1147  1  0.107530  0.924150  0.907830  1.0  -0.6344
  O  O1148  1  0.234330  0.832660  0.798700  1.0  -0.635
  O  O1149  1  0.820870  0.592610  0.531300  1.0  -0.5671
  O  O1150  1  0.750420  0.582650  0.530870  1.0  -0.5651
  O  O1151  1  0.661500  0.648680  0.607360  1.0  -0.5603
  O  O1152  1  0.691710  0.686880  0.643430  1.0  -0.5577
  O  O1153  1  0.090500  0.200370  0.892130  1.0  -0.5654
  O  O1154  1  0.122920  0.241620  0.858150  1.0  -0.5587
  O  O1155  1  0.347020  0.360490  0.686770  1.0  -0.5705
  O  O1156  1  0.994070  0.336000  0.969660  1.0  -0.5662
  O  O1157  1  0.374250  0.401370  0.650630  1.0  -0.5587
  O  O1158  1  0.349680  0.554630  0.651170  1.0  -0.5669
  O  O1159  1  0.306800  0.583030  0.685510  1.0  -0.5683
  O  O1160  1  0.003340  0.265260  0.969240  1.0  -0.5669
  O  O1161  1  0.424150  0.392470  0.592170  1.0  -0.6365
  O  O1162  1  0.332660  0.265670  0.701300  1.0  -0.6403
  O  O1163  1  0.092610  0.679130  0.968700  1.0  -0.5673
  O  O1164  1  0.082650  0.749580  0.969130  1.0  -0.5655
  O  O1165  1  0.148680  0.838500  0.892640  1.0  -0.5617
  O  O1166  1  0.186880  0.808290  0.856570  1.0  -0.5575
  O  O1167  1  0.590500  0.700370  0.392130  1.0  -0.5654
  O  O1168  1  0.622920  0.741620  0.358150  1.0  -0.5587
  O  O1169  1  0.847020  0.860490  0.186770  1.0  -0.5705
  O  O1170  1  0.494070  0.836000  0.469660  1.0  -0.5662
  O  O1171  1  0.874250  0.901370  0.150630  1.0  -0.5587
  O  O1172  1  0.849680  0.054630  0.151170  1.0  -0.5669
  O  O1173  1  0.806800  0.083030  0.185510  1.0  -0.5683
  O  O1174  1  0.503340  0.765260  0.469240  1.0  -0.5669
  O  O1175  1  0.924150  0.892470  0.092170  1.0  -0.6365
  O  O1176  1  0.832660  0.765670  0.201300  1.0  -0.6403
  O  O1177  1  0.592610  0.179130  0.468700  1.0  -0.5673
  O  O1178  1  0.582650  0.249580  0.469130  1.0  -0.5655
  O  O1179  1  0.648680  0.338500  0.392640  1.0  -0.5617
  O  O1180  1  0.686880  0.308290  0.356570  1.0  -0.5575
  O  O1181  1  0.909500  0.799630  0.892130  1.0  -0.5646
  O  O1182  1  0.877080  0.758380  0.858150  1.0  -0.5598
  O  O1183  1  0.652980  0.639510  0.686770  1.0  -0.5681
  O  O1184  1  0.005930  0.664000  0.969660  1.0  -0.5676
  O  O1185  1  0.625750  0.598630  0.650630  1.0  -0.56
  O  O1186  1  0.650320  0.445370  0.651170  1.0  -0.5665
  O  O1187  1  0.693200  0.416970  0.685510  1.0  -0.5676
  O  O1188  1  0.996660  0.734740  0.969240  1.0  -0.567
  O  O1189  1  0.575850  0.607530  0.592170  1.0  -0.636
  O  O1190  1  0.667340  0.734330  0.701300  1.0  -0.638
  O  O1191  1  0.907390  0.320870  0.968700  1.0  -0.5675
  O  O1192  1  0.917350  0.250420  0.969130  1.0  -0.5648
  O  O1193  1  0.851320  0.161500  0.892640  1.0  -0.5612
  O  O1194  1  0.813120  0.191710  0.856570  1.0  -0.5573
  O  O1195  1  0.409500  0.299630  0.392130  1.0  -0.5646
  O  O1196  1  0.377080  0.258380  0.358150  1.0  -0.5598
  O  O1197  1  0.152980  0.139510  0.186770  1.0  -0.5681
  O  O1198  1  0.505930  0.164000  0.469660  1.0  -0.5676
  O  O1199  1  0.125750  0.098630  0.150630  1.0  -0.56
  O  O1200  1  0.150320  0.945370  0.151170  1.0  -0.5665
  O  O1201  1  0.193200  0.916970  0.185510  1.0  -0.5676
  O  O1202  1  0.496660  0.234740  0.469240  1.0  -0.567
  O  O1203  1  0.075850  0.107530  0.092170  1.0  -0.636
  O  O1204  1  0.167340  0.234330  0.201300  1.0  -0.638
  O  O1205  1  0.407390  0.820870  0.468700  1.0  -0.5675
  O  O1206  1  0.417350  0.750420  0.469130  1.0  -0.5648
  O  O1207  1  0.351320  0.661500  0.392640  1.0  -0.5612
  O  O1208  1  0.313120  0.691710  0.356570  1.0  -0.5573
  O  O1209  1  0.799630  0.090500  0.892130  1.0  -0.5652
  O  O1210  1  0.758380  0.122920  0.858150  1.0  -0.5597
  O  O1211  1  0.639510  0.347020  0.686770  1.0  -0.5693
  O  O1212  1  0.664000  0.994070  0.969660  1.0  -0.5686
  O  O1213  1  0.598630  0.374250  0.650630  1.0  -0.5596
  O  O1214  1  0.445370  0.349680  0.651170  1.0  -0.5663
  O  O1215  1  0.416970  0.306800  0.685510  1.0  -0.566
  O  O1216  1  0.734740  0.003340  0.969240  1.0  -0.5673
  O  O1217  1  0.607530  0.424150  0.592170  1.0  -0.6337
  O  O1218  1  0.734330  0.332660  0.701300  1.0  -0.6354
  O  O1219  1  0.320870  0.092610  0.968700  1.0  -0.5674
  O  O1220  1  0.250420  0.082650  0.969130  1.0  -0.565
  O  O1221  1  0.161500  0.148680  0.892640  1.0  -0.5608
  O  O1222  1  0.191710  0.186880  0.856570  1.0  -0.5575
  O  O1223  1  0.299630  0.590500  0.392130  1.0  -0.5652
  O  O1224  1  0.258380  0.622920  0.358150  1.0  -0.5597
  O  O1225  1  0.139510  0.847020  0.186770  1.0  -0.5693
  O  O1226  1  0.164000  0.494070  0.469660  1.0  -0.5686
  O  O1227  1  0.098630  0.874250  0.150630  1.0  -0.5596
  O  O1228  1  0.945370  0.849680  0.151170  1.0  -0.5663
  O  O1229  1  0.916970  0.806800  0.185510  1.0  -0.566
  O  O1230  1  0.234740  0.503340  0.469240  1.0  -0.5673
  O  O1231  1  0.107530  0.924150  0.092170  1.0  -0.6337
  O  O1232  1  0.234330  0.832660  0.201300  1.0  -0.6354
  O  O1233  1  0.820870  0.592610  0.468700  1.0  -0.5674
  O  O1234  1  0.750420  0.582650  0.469130  1.0  -0.565
  O  O1235  1  0.661500  0.648680  0.392640  1.0  -0.5608
  O  O1236  1  0.691710  0.686880  0.356570  1.0  -0.5575
  O  O1237  1  0.200370  0.909500  0.892130  1.0  -0.5658
  O  O1238  1  0.241620  0.877080  0.858150  1.0  -0.5607
  O  O1239  1  0.360490  0.652980  0.686770  1.0  -0.5694
  O  O1240  1  0.336000  0.005930  0.969660  1.0  -0.5671
  O  O1241  1  0.401370  0.625750  0.650630  1.0  -0.5601
  O  O1242  1  0.554630  0.650320  0.651170  1.0  -0.5675
  O  O1243  1  0.583030  0.693200  0.685510  1.0  -0.565
  O  O1244  1  0.265260  0.996660  0.969240  1.0  -0.5669
  O  O1245  1  0.392470  0.575850  0.592170  1.0  -0.6338
  O  O1246  1  0.265670  0.667340  0.701300  1.0  -0.6382
  O  O1247  1  0.679130  0.907390  0.968700  1.0  -0.5675
  O  O1248  1  0.749580  0.917350  0.969130  1.0  -0.5654
  O  O1249  1  0.838500  0.851320  0.892640  1.0  -0.5604
  O  O1250  1  0.808290  0.813120  0.856570  1.0  -0.5579
  O  O1251  1  0.700370  0.409500  0.392130  1.0  -0.5658
  O  O1252  1  0.741620  0.377080  0.358150  1.0  -0.5607
  O  O1253  1  0.860490  0.152980  0.186770  1.0  -0.5694
  O  O1254  1  0.836000  0.505930  0.469660  1.0  -0.5671
  O  O1255  1  0.901370  0.125750  0.150630  1.0  -0.5601
  O  O1256  1  0.054630  0.150320  0.151170  1.0  -0.5675
  O  O1257  1  0.083030  0.193200  0.185510  1.0  -0.565
  O  O1258  1  0.765260  0.496660  0.469240  1.0  -0.5669
  O  O1259  1  0.892470  0.075850  0.092170  1.0  -0.6338
  O  O1260  1  0.765670  0.167340  0.201300  1.0  -0.6382
  O  O1261  1  0.179130  0.407390  0.468700  1.0  -0.5675
  O  O1262  1  0.249580  0.417350  0.469130  1.0  -0.5654
  O  O1263  1  0.338500  0.351320  0.392640  1.0  -0.5604
  O  O1264  1  0.308290  0.313120  0.356570  1.0  -0.5579
