# generated using pymatgen
data_NbFe2H44(C13N4)4
_symmetry_space_group_name_H-M   'P 1'
_cell_length_a   35.15710000
_cell_length_b   35.15710000
_cell_length_c   35.15710000
_cell_angle_alpha   90.00000000
_cell_angle_beta   90.00000000
_cell_angle_gamma   90.00000000
_symmetry_Int_Tables_number   1
_chemical_formula_structural   NbFe2H44(C13N4)4
_chemical_formula_sum   'Nb24 Fe48 H1056 C1248 N384'
_cell_volume   43454.93782034
_cell_formula_units_Z   24
loop_
 _symmetry_equiv_pos_site_id
 _symmetry_equiv_pos_as_xyz
  1  'x, y, z'
loop_
 _atom_site_type_symbol
 _atom_site_label
 _atom_site_symmetry_multiplicity
 _atom_site_fract_x
 _atom_site_fract_y
 _atom_site_fract_z
 _atom_site_occupancy
 _atom_site_charge
  Nb  Nb1  1  0.625000  0.500000  0.250000  1.0  0.2175
  Nb  Nb2  1  0.875000  0.500000  0.750000  1.0  0.2175
  Nb  Nb3  1  0.375000  0.000000  0.250000  1.0  0.2175
  Nb  Nb4  1  0.125000  0.000000  0.750000  1.0  0.2175
  Nb  Nb5  1  0.250000  0.625000  0.500000  1.0  0.2175
  Nb  Nb6  1  0.750000  0.875000  0.500000  1.0  0.2175
  Nb  Nb7  1  0.250000  0.375000  0.000000  1.0  0.2175
  Nb  Nb8  1  0.750000  0.125000  0.000000  1.0  0.2175
  Nb  Nb9  1  0.500000  0.250000  0.625000  1.0  0.2175
  Nb  Nb10  1  0.500000  0.750000  0.875000  1.0  0.2175
  Nb  Nb11  1  0.000000  0.250000  0.375000  1.0  0.2175
  Nb  Nb12  1  0.000000  0.750000  0.125000  1.0  0.2175
  Nb  Nb13  1  0.250000  0.875000  0.000000  1.0  0.2175
  Nb  Nb14  1  0.750000  0.375000  0.500000  1.0  0.2175
  Nb  Nb15  1  0.250000  0.125000  0.500000  1.0  0.2175
  Nb  Nb16  1  0.750000  0.625000  0.000000  1.0  0.2175
  Nb  Nb17  1  0.375000  0.500000  0.750000  1.0  0.2175
  Nb  Nb18  1  0.625000  0.000000  0.750000  1.0  0.2175
  Nb  Nb19  1  0.125000  0.500000  0.250000  1.0  0.2175
  Nb  Nb20  1  0.875000  0.000000  0.250000  1.0  0.2175
  Nb  Nb21  1  0.000000  0.750000  0.625000  1.0  0.2175
  Nb  Nb22  1  0.500000  0.750000  0.375000  1.0  0.2175
  Nb  Nb23  1  0.000000  0.250000  0.875000  1.0  0.2175
  Nb  Nb24  1  0.500000  0.250000  0.125000  1.0  0.2175
  Fe  Fe25  1  0.682000  0.432000  0.375000  1.0  0.5073
  Fe  Fe26  1  0.818000  0.568000  0.875000  1.0  0.5078
  Fe  Fe27  1  0.318000  0.932000  0.125000  1.0  0.5073
  Fe  Fe28  1  0.182000  0.068000  0.625000  1.0  0.5077
  Fe  Fe29  1  0.375000  0.682000  0.432000  1.0  0.5108
  Fe  Fe30  1  0.875000  0.818000  0.568000  1.0  0.51
  Fe  Fe31  1  0.125000  0.318000  0.932000  1.0  0.5113
  Fe  Fe32  1  0.625000  0.182000  0.068000  1.0  0.5097
  Fe  Fe33  1  0.432000  0.375000  0.682000  1.0  0.5097
  Fe  Fe34  1  0.568000  0.875000  0.818000  1.0  0.5085
  Fe  Fe35  1  0.932000  0.125000  0.318000  1.0  0.5085
  Fe  Fe36  1  0.068000  0.625000  0.182000  1.0  0.5097
  Fe  Fe37  1  0.182000  0.932000  0.875000  1.0  0.5073
  Fe  Fe38  1  0.318000  0.068000  0.375000  1.0  0.5078
  Fe  Fe39  1  0.682000  0.568000  0.125000  1.0  0.5077
  Fe  Fe40  1  0.818000  0.432000  0.625000  1.0  0.5073
  Fe  Fe41  1  0.432000  0.625000  0.818000  1.0  0.5085
  Fe  Fe42  1  0.568000  0.125000  0.682000  1.0  0.5097
  Fe  Fe43  1  0.068000  0.375000  0.318000  1.0  0.5085
  Fe  Fe44  1  0.932000  0.875000  0.182000  1.0  0.5097
  Fe  Fe45  1  0.125000  0.682000  0.568000  1.0  0.5097
  Fe  Fe46  1  0.625000  0.818000  0.432000  1.0  0.5113
  Fe  Fe47  1  0.875000  0.182000  0.932000  1.0  0.5108
  Fe  Fe48  1  0.375000  0.318000  0.068000  1.0  0.51
  Fe  Fe49  1  0.318000  0.568000  0.625000  1.0  0.5078
  Fe  Fe50  1  0.182000  0.432000  0.125000  1.0  0.5073
  Fe  Fe51  1  0.682000  0.068000  0.875000  1.0  0.5077
  Fe  Fe52  1  0.818000  0.932000  0.375000  1.0  0.5073
  Fe  Fe53  1  0.625000  0.318000  0.568000  1.0  0.51
  Fe  Fe54  1  0.125000  0.182000  0.432000  1.0  0.5108
  Fe  Fe55  1  0.875000  0.682000  0.068000  1.0  0.5097
  Fe  Fe56  1  0.375000  0.818000  0.932000  1.0  0.5113
  Fe  Fe57  1  0.568000  0.625000  0.318000  1.0  0.5085
  Fe  Fe58  1  0.432000  0.125000  0.182000  1.0  0.5097
  Fe  Fe59  1  0.068000  0.875000  0.682000  1.0  0.5097
  Fe  Fe60  1  0.932000  0.375000  0.818000  1.0  0.5085
  Fe  Fe61  1  0.818000  0.068000  0.125000  1.0  0.5078
  Fe  Fe62  1  0.682000  0.932000  0.625000  1.0  0.5073
  Fe  Fe63  1  0.318000  0.432000  0.875000  1.0  0.5073
  Fe  Fe64  1  0.182000  0.568000  0.375000  1.0  0.5077
  Fe  Fe65  1  0.568000  0.375000  0.182000  1.0  0.5097
  Fe  Fe66  1  0.432000  0.875000  0.318000  1.0  0.5085
  Fe  Fe67  1  0.932000  0.625000  0.682000  1.0  0.5097
  Fe  Fe68  1  0.068000  0.125000  0.818000  1.0  0.5085
  Fe  Fe69  1  0.875000  0.318000  0.432000  1.0  0.5113
  Fe  Fe70  1  0.375000  0.182000  0.568000  1.0  0.5097
  Fe  Fe71  1  0.125000  0.818000  0.068000  1.0  0.51
  Fe  Fe72  1  0.625000  0.682000  0.932000  1.0  0.5108
  H  H73  1  0.669950  0.478830  0.459040  1.0  -0.0039
  H  H74  1  0.689440  0.540950  0.485680  1.0  0.0106
  H  H75  1  0.718870  0.588170  0.437610  1.0  0.0115
  H  H76  1  0.710500  0.575230  0.367330  1.0  -0.0038
  H  H77  1  0.691010  0.516310  0.341930  1.0  0.0192
  H  H78  1  0.628160  0.369940  0.419370  1.0  0.0514
  H  H79  1  0.574380  0.379510  0.464500  1.0  0.0022
  H  H80  1  0.522690  0.422940  0.445520  1.0  -0.0032
  H  H81  1  0.606910  0.479320  0.380930  1.0  -0.0019
  H  H82  1  0.532780  0.483260  0.363210  1.0  0.0175
  H  H83  1  0.512620  0.490830  0.415080  1.0  0.0298
  H  H84  1  0.169950  0.978830  0.959040  1.0  -0.0039
  H  H85  1  0.189440  0.040950  0.985680  1.0  0.0106
  H  H86  1  0.218870  0.088170  0.937610  1.0  0.0115
  H  H87  1  0.210500  0.075230  0.867330  1.0  -0.0038
  H  H88  1  0.191010  0.016310  0.841930  1.0  0.0192
  H  H89  1  0.128160  0.869940  0.919370  1.0  0.0514
  H  H90  1  0.074380  0.879510  0.964500  1.0  0.0022
  H  H91  1  0.022690  0.922940  0.945520  1.0  -0.0032
  H  H92  1  0.106910  0.979320  0.880930  1.0  -0.0019
  H  H93  1  0.032780  0.983260  0.863210  1.0  0.0175
  H  H94  1  0.012620  0.990830  0.915080  1.0  0.0298
  H  H95  1  0.830050  0.521170  0.959040  1.0  -0.005
  H  H96  1  0.810560  0.459050  0.985680  1.0  0.0106
  H  H97  1  0.781130  0.411830  0.937610  1.0  0.0123
  H  H98  1  0.789500  0.424770  0.867330  1.0  -0.0037
  H  H99  1  0.808990  0.483690  0.841930  1.0  0.0191
  H  H100  1  0.871840  0.630060  0.919370  1.0  0.0513
  H  H101  1  0.925620  0.620490  0.964500  1.0  0.0015
  H  H102  1  0.977310  0.577060  0.945520  1.0  -0.0028
  H  H103  1  0.893090  0.520680  0.880930  1.0  -0.0015
  H  H104  1  0.967220  0.516740  0.863210  1.0  0.0163
  H  H105  1  0.987380  0.509170  0.915080  1.0  0.0279
  H  H106  1  0.330050  0.021170  0.459040  1.0  -0.005
  H  H107  1  0.310560  0.959050  0.485680  1.0  0.0106
  H  H108  1  0.281130  0.911830  0.437610  1.0  0.0123
  H  H109  1  0.289500  0.924770  0.367330  1.0  -0.0037
  H  H110  1  0.308990  0.983690  0.341930  1.0  0.0191
  H  H111  1  0.371840  0.130060  0.419370  1.0  0.0513
  H  H112  1  0.425620  0.120490  0.464500  1.0  0.0015
  H  H113  1  0.477310  0.077060  0.445520  1.0  -0.0028
  H  H114  1  0.393090  0.020680  0.380930  1.0  -0.0015
  H  H115  1  0.467220  0.016740  0.363210  1.0  0.0163
  H  H116  1  0.487380  0.009170  0.415080  1.0  0.0279
  H  H117  1  0.330050  0.978830  0.040960  1.0  -0.0039
  H  H118  1  0.310560  0.040950  0.014320  1.0  0.0113
  H  H119  1  0.281130  0.088170  0.062390  1.0  0.0127
  H  H120  1  0.289500  0.075230  0.132670  1.0  -0.0042
  H  H121  1  0.308990  0.016310  0.158070  1.0  0.0194
  H  H122  1  0.371840  0.869940  0.080630  1.0  0.0516
  H  H123  1  0.425620  0.879510  0.035500  1.0  0.0021
  H  H124  1  0.477310  0.922940  0.054480  1.0  -0.0019
  H  H125  1  0.393090  0.979320  0.119070  1.0  -0.0015
  H  H126  1  0.467220  0.983260  0.136790  1.0  0.017
  H  H127  1  0.487380  0.990830  0.084920  1.0  0.029
  H  H128  1  0.830050  0.478830  0.540960  1.0  -0.0039
  H  H129  1  0.810560  0.540950  0.514320  1.0  0.0113
  H  H130  1  0.781130  0.588170  0.562390  1.0  0.0127
  H  H131  1  0.789500  0.575230  0.632670  1.0  -0.0042
  H  H132  1  0.808990  0.516310  0.658070  1.0  0.0194
  H  H133  1  0.871840  0.369940  0.580630  1.0  0.0516
  H  H134  1  0.925620  0.379510  0.535500  1.0  0.0021
  H  H135  1  0.977310  0.422940  0.554480  1.0  -0.0019
  H  H136  1  0.893090  0.479320  0.619070  1.0  -0.0015
  H  H137  1  0.967220  0.483260  0.636790  1.0  0.017
  H  H138  1  0.987380  0.490830  0.584920  1.0  0.029
  H  H139  1  0.169950  0.021170  0.540960  1.0  -0.0046
  H  H140  1  0.189440  0.959050  0.514320  1.0  0.0123
  H  H141  1  0.218870  0.911830  0.562390  1.0  0.0118
  H  H142  1  0.210500  0.924770  0.632670  1.0  -0.0053
  H  H143  1  0.191010  0.983690  0.658070  1.0  0.019
  H  H144  1  0.128160  0.130060  0.580630  1.0  0.0508
  H  H145  1  0.074380  0.120490  0.535500  1.0  0.0017
  H  H146  1  0.022690  0.077060  0.554480  1.0  -0.0023
  H  H147  1  0.106910  0.020680  0.619070  1.0  -0.002
  H  H148  1  0.032780  0.016740  0.636790  1.0  0.0188
  H  H149  1  0.012620  0.009170  0.584920  1.0  0.0296
  H  H150  1  0.669950  0.521170  0.040960  1.0  -0.0046
  H  H151  1  0.689440  0.459050  0.014320  1.0  0.0123
  H  H152  1  0.718870  0.411830  0.062390  1.0  0.0118
  H  H153  1  0.710500  0.424770  0.132670  1.0  -0.0053
  H  H154  1  0.691010  0.483690  0.158070  1.0  0.019
  H  H155  1  0.628160  0.630060  0.080630  1.0  0.0508
  H  H156  1  0.574380  0.620490  0.035500  1.0  0.0017
  H  H157  1  0.522690  0.577060  0.054480  1.0  -0.0023
  H  H158  1  0.606910  0.520680  0.119070  1.0  -0.002
  H  H159  1  0.532780  0.516740  0.136790  1.0  0.0188
  H  H160  1  0.512620  0.509170  0.084920  1.0  0.0296
  H  H161  1  0.459040  0.669950  0.478830  1.0  -0.0043
  H  H162  1  0.485680  0.689440  0.540950  1.0  0.0144
  H  H163  1  0.437610  0.718870  0.588170  1.0  0.012
  H  H164  1  0.367330  0.710500  0.575230  1.0  -0.0006
  H  H165  1  0.341930  0.691010  0.516310  1.0  0.0192
  H  H166  1  0.419370  0.628160  0.369940  1.0  0.0508
  H  H167  1  0.464500  0.574380  0.379510  1.0  0.0012
  H  H168  1  0.445520  0.522690  0.422940  1.0  -0.0044
  H  H169  1  0.380930  0.606910  0.479320  1.0  -0.0009
  H  H170  1  0.363210  0.532780  0.483260  1.0  0.0173
  H  H171  1  0.415080  0.512620  0.490830  1.0  0.0299
  H  H172  1  0.959040  0.169950  0.978830  1.0  -0.0043
  H  H173  1  0.985680  0.189440  0.040950  1.0  0.0144
  H  H174  1  0.937610  0.218870  0.088170  1.0  0.012
  H  H175  1  0.867330  0.210500  0.075230  1.0  -0.0006
  H  H176  1  0.841930  0.191010  0.016310  1.0  0.0192
  H  H177  1  0.919370  0.128160  0.869940  1.0  0.0508
  H  H178  1  0.964500  0.074380  0.879510  1.0  0.0012
  H  H179  1  0.945520  0.022690  0.922940  1.0  -0.0044
  H  H180  1  0.880930  0.106910  0.979320  1.0  -0.0009
  H  H181  1  0.863210  0.032780  0.983260  1.0  0.0173
  H  H182  1  0.915080  0.012620  0.990830  1.0  0.0299
  H  H183  1  0.959040  0.830050  0.521170  1.0  -0.0047
  H  H184  1  0.985680  0.810560  0.459050  1.0  0.015
  H  H185  1  0.937610  0.781130  0.411830  1.0  0.0123
  H  H186  1  0.867330  0.789500  0.424770  1.0  -0.001
  H  H187  1  0.841930  0.808990  0.483690  1.0  0.0187
  H  H188  1  0.919370  0.871840  0.630060  1.0  0.0509
  H  H189  1  0.964500  0.925620  0.620490  1.0  0.0014
  H  H190  1  0.945520  0.977310  0.577060  1.0  -0.0039
  H  H191  1  0.880930  0.893090  0.520680  1.0  -0.0006
  H  H192  1  0.863210  0.967220  0.516740  1.0  0.0187
  H  H193  1  0.915080  0.987380  0.509170  1.0  0.0288
  H  H194  1  0.459040  0.330050  0.021170  1.0  -0.0047
  H  H195  1  0.485680  0.310560  0.959050  1.0  0.015
  H  H196  1  0.437610  0.281130  0.911830  1.0  0.0123
  H  H197  1  0.367330  0.289500  0.924770  1.0  -0.001
  H  H198  1  0.341930  0.308990  0.983690  1.0  0.0187
  H  H199  1  0.419370  0.371840  0.130060  1.0  0.0509
  H  H200  1  0.464500  0.425620  0.120490  1.0  0.0014
  H  H201  1  0.445520  0.477310  0.077060  1.0  -0.0039
  H  H202  1  0.380930  0.393090  0.020680  1.0  -0.0006
  H  H203  1  0.363210  0.467220  0.016740  1.0  0.0187
  H  H204  1  0.415080  0.487380  0.009170  1.0  0.0288
  H  H205  1  0.040960  0.330050  0.978830  1.0  -0.005
  H  H206  1  0.014320  0.310560  0.040950  1.0  0.0143
  H  H207  1  0.062390  0.281130  0.088170  1.0  0.0122
  H  H208  1  0.132670  0.289500  0.075230  1.0  -0.0008
  H  H209  1  0.158070  0.308990  0.016310  1.0  0.0205
  H  H210  1  0.080630  0.371840  0.869940  1.0  0.0508
  H  H211  1  0.035500  0.425620  0.879510  1.0  0.0017
  H  H212  1  0.054480  0.477310  0.922940  1.0  -0.0033
  H  H213  1  0.119070  0.393090  0.979320  1.0  -0.0007
  H  H214  1  0.136790  0.467220  0.983260  1.0  0.0188
  H  H215  1  0.084920  0.487380  0.990830  1.0  0.0306
  H  H216  1  0.540960  0.830050  0.478830  1.0  -0.005
  H  H217  1  0.514320  0.810560  0.540950  1.0  0.0143
  H  H218  1  0.562390  0.781130  0.588170  1.0  0.0122
  H  H219  1  0.632670  0.789500  0.575230  1.0  -0.0008
  H  H220  1  0.658070  0.808990  0.516310  1.0  0.0205
  H  H221  1  0.580630  0.871840  0.369940  1.0  0.0508
  H  H222  1  0.535500  0.925620  0.379510  1.0  0.0017
  H  H223  1  0.554480  0.977310  0.422940  1.0  -0.0033
  H  H224  1  0.619070  0.893090  0.479320  1.0  -0.0007
  H  H225  1  0.636790  0.967220  0.483260  1.0  0.0188
  H  H226  1  0.584920  0.987380  0.490830  1.0  0.0306
  H  H227  1  0.540960  0.169950  0.021170  1.0  -0.0051
  H  H228  1  0.514320  0.189440  0.959050  1.0  0.0137
  H  H229  1  0.562390  0.218870  0.911830  1.0  0.0117
  H  H230  1  0.632670  0.210500  0.924770  1.0  -0.0025
  H  H231  1  0.658070  0.191010  0.983690  1.0  0.0197
  H  H232  1  0.580630  0.128160  0.130060  1.0  0.0508
  H  H233  1  0.535500  0.074380  0.120490  1.0  0.0014
  H  H234  1  0.554480  0.022690  0.077060  1.0  -0.0031
  H  H235  1  0.619070  0.106910  0.020680  1.0  -0.0007
  H  H236  1  0.636790  0.032780  0.016740  1.0  0.0176
  H  H237  1  0.584920  0.012620  0.009170  1.0  0.0302
  H  H238  1  0.040960  0.669950  0.521170  1.0  -0.0051
  H  H239  1  0.014320  0.689440  0.459050  1.0  0.0137
  H  H240  1  0.062390  0.718870  0.411830  1.0  0.0117
  H  H241  1  0.132670  0.710500  0.424770  1.0  -0.0025
  H  H242  1  0.158070  0.691010  0.483690  1.0  0.0197
  H  H243  1  0.080630  0.628160  0.630060  1.0  0.0508
  H  H244  1  0.035500  0.574380  0.620490  1.0  0.0014
  H  H245  1  0.054480  0.522690  0.577060  1.0  -0.0031
  H  H246  1  0.119070  0.606910  0.520680  1.0  -0.0007
  H  H247  1  0.136790  0.532780  0.516740  1.0  0.0176
  H  H248  1  0.084920  0.512620  0.509170  1.0  0.0302
  H  H249  1  0.478830  0.459040  0.669950  1.0  -0.0038
  H  H250  1  0.540950  0.485680  0.689440  1.0  0.0153
  H  H251  1  0.588170  0.437610  0.718870  1.0  0.0109
  H  H252  1  0.575230  0.367330  0.710500  1.0  -0.0018
  H  H253  1  0.516310  0.341930  0.691010  1.0  0.0198
  H  H254  1  0.369940  0.419370  0.628160  1.0  0.051
  H  H255  1  0.379510  0.464500  0.574380  1.0  0.0025
  H  H256  1  0.422940  0.445520  0.522690  1.0  -0.0069
  H  H257  1  0.479320  0.380930  0.606910  1.0  -0.001
  H  H258  1  0.483260  0.363210  0.532780  1.0  0.0151
  H  H259  1  0.490830  0.415080  0.512620  1.0  0.0288
  H  H260  1  0.978830  0.959040  0.169950  1.0  -0.0038
  H  H261  1  0.040950  0.985680  0.189440  1.0  0.0153
  H  H262  1  0.088170  0.937610  0.218870  1.0  0.0109
  H  H263  1  0.075230  0.867330  0.210500  1.0  -0.0018
  H  H264  1  0.016310  0.841930  0.191010  1.0  0.0198
  H  H265  1  0.869940  0.919370  0.128160  1.0  0.051
  H  H266  1  0.879510  0.964500  0.074380  1.0  0.0025
  H  H267  1  0.922940  0.945520  0.022690  1.0  -0.0069
  H  H268  1  0.979320  0.880930  0.106910  1.0  -0.001
  H  H269  1  0.983260  0.863210  0.032780  1.0  0.0151
  H  H270  1  0.990830  0.915080  0.012620  1.0  0.0288
  H  H271  1  0.521170  0.959040  0.830050  1.0  -0.0045
  H  H272  1  0.459050  0.985680  0.810560  1.0  0.0157
  H  H273  1  0.411830  0.937610  0.781130  1.0  0.0099
  H  H274  1  0.424770  0.867330  0.789500  1.0  -0.0017
  H  H275  1  0.483690  0.841930  0.808990  1.0  0.0198
  H  H276  1  0.630060  0.919370  0.871840  1.0  0.0517
  H  H277  1  0.620490  0.964500  0.925620  1.0  0.0025
  H  H278  1  0.577060  0.945520  0.977310  1.0  -0.0062
  H  H279  1  0.520680  0.880930  0.893090  1.0  -0.0014
  H  H280  1  0.516740  0.863210  0.967220  1.0  0.0152
  H  H281  1  0.509170  0.915080  0.987380  1.0  0.0311
  H  H282  1  0.021170  0.459040  0.330050  1.0  -0.0045
  H  H283  1  0.959050  0.485680  0.310560  1.0  0.0157
  H  H284  1  0.911830  0.437610  0.281130  1.0  0.0099
  H  H285  1  0.924770  0.367330  0.289500  1.0  -0.0017
  H  H286  1  0.983690  0.341930  0.308990  1.0  0.0198
  H  H287  1  0.130060  0.419370  0.371840  1.0  0.0517
  H  H288  1  0.120490  0.464500  0.425620  1.0  0.0025
  H  H289  1  0.077060  0.445520  0.477310  1.0  -0.0062
  H  H290  1  0.020680  0.380930  0.393090  1.0  -0.0014
  H  H291  1  0.016740  0.363210  0.467220  1.0  0.0152
  H  H292  1  0.009170  0.415080  0.487380  1.0  0.0311
  H  H293  1  0.978830  0.040960  0.330050  1.0  -0.0045
  H  H294  1  0.040950  0.014320  0.310560  1.0  0.0154
  H  H295  1  0.088170  0.062390  0.281130  1.0  0.0113
  H  H296  1  0.075230  0.132670  0.289500  1.0  -0.0032
  H  H297  1  0.016310  0.158070  0.308990  1.0  0.0213
  H  H298  1  0.869940  0.080630  0.371840  1.0  0.0513
  H  H299  1  0.879510  0.035500  0.425620  1.0  0.0028
  H  H300  1  0.922940  0.054480  0.477310  1.0  -0.0052
  H  H301  1  0.979320  0.119070  0.393090  1.0  -0.0008
  H  H302  1  0.983260  0.136790  0.467220  1.0  0.0174
  H  H303  1  0.990830  0.084920  0.487380  1.0  0.0307
  H  H304  1  0.478830  0.540960  0.830050  1.0  -0.0045
  H  H305  1  0.540950  0.514320  0.810560  1.0  0.0154
  H  H306  1  0.588170  0.562390  0.781130  1.0  0.0113
  H  H307  1  0.575230  0.632670  0.789500  1.0  -0.0032
  H  H308  1  0.516310  0.658070  0.808990  1.0  0.0213
  H  H309  1  0.369940  0.580630  0.871840  1.0  0.0513
  H  H310  1  0.379510  0.535500  0.925620  1.0  0.0028
  H  H311  1  0.422940  0.554480  0.977310  1.0  -0.0052
  H  H312  1  0.479320  0.619070  0.893090  1.0  -0.0008
  H  H313  1  0.483260  0.636790  0.967220  1.0  0.0174
  H  H314  1  0.490830  0.584920  0.987380  1.0  0.0307
  H  H315  1  0.021170  0.540960  0.169950  1.0  -0.0033
  H  H316  1  0.959050  0.514320  0.189440  1.0  0.0153
  H  H317  1  0.911830  0.562390  0.218870  1.0  0.0097
  H  H318  1  0.924770  0.632670  0.210500  1.0  -0.0016
  H  H319  1  0.983690  0.658070  0.191010  1.0  0.0208
  H  H320  1  0.130060  0.580630  0.128160  1.0  0.0511
  H  H321  1  0.120490  0.535500  0.074380  1.0  0.0028
  H  H322  1  0.077060  0.554480  0.022690  1.0  -0.0079
  H  H323  1  0.020680  0.619070  0.106910  1.0  -0.0012
  H  H324  1  0.016740  0.636790  0.032780  1.0  0.0164
  H  H325  1  0.009170  0.584920  0.012620  1.0  0.0305
  H  H326  1  0.521170  0.040960  0.669950  1.0  -0.0033
  H  H327  1  0.459050  0.014320  0.689440  1.0  0.0153
  H  H328  1  0.411830  0.062390  0.718870  1.0  0.0097
  H  H329  1  0.424770  0.132670  0.710500  1.0  -0.0016
  H  H330  1  0.483690  0.158070  0.691010  1.0  0.0208
  H  H331  1  0.630060  0.080630  0.628160  1.0  0.0511
  H  H332  1  0.620490  0.035500  0.574380  1.0  0.0028
  H  H333  1  0.577060  0.054480  0.522690  1.0  -0.0079
  H  H334  1  0.520680  0.119070  0.606910  1.0  -0.0012
  H  H335  1  0.516740  0.136790  0.532780  1.0  0.0164
  H  H336  1  0.509170  0.084920  0.512620  1.0  0.0305
  H  H337  1  0.228830  0.919950  0.790960  1.0  -0.0033
  H  H338  1  0.290950  0.939440  0.764320  1.0  0.0129
  H  H339  1  0.338170  0.968870  0.812390  1.0  0.0099
  H  H340  1  0.325230  0.960500  0.882670  1.0  -0.0028
  H  H341  1  0.266310  0.941010  0.908070  1.0  0.0193
  H  H342  1  0.119940  0.878160  0.830630  1.0  0.0507
  H  H343  1  0.129510  0.824380  0.785500  1.0  0.0015
  H  H344  1  0.172940  0.772690  0.804480  1.0  -0.0024
  H  H345  1  0.229320  0.856910  0.869070  1.0  -0.0014
  H  H346  1  0.233260  0.782780  0.886790  1.0  0.0174
  H  H347  1  0.240830  0.762620  0.834920  1.0  0.0298
  H  H348  1  0.728830  0.419950  0.290960  1.0  -0.0033
  H  H349  1  0.790950  0.439440  0.264320  1.0  0.0129
  H  H350  1  0.838170  0.468870  0.312390  1.0  0.0099
  H  H351  1  0.825230  0.460500  0.382670  1.0  -0.0028
  H  H352  1  0.766310  0.441010  0.408070  1.0  0.0193
  H  H353  1  0.619940  0.378160  0.330630  1.0  0.0507
  H  H354  1  0.629510  0.324380  0.285500  1.0  0.0015
  H  H355  1  0.672940  0.272690  0.304480  1.0  -0.0024
  H  H356  1  0.729320  0.356910  0.369070  1.0  -0.0014
  H  H357  1  0.733260  0.282780  0.386790  1.0  0.0174
  H  H358  1  0.740830  0.262620  0.334920  1.0  0.0298
  H  H359  1  0.271170  0.080050  0.290960  1.0  -0.0034
  H  H360  1  0.209050  0.060560  0.264320  1.0  0.0122
  H  H361  1  0.161830  0.031130  0.312390  1.0  0.0081
  H  H362  1  0.174770  0.039500  0.382670  1.0  -0.002
  H  H363  1  0.233690  0.058990  0.408070  1.0  0.0191
  H  H364  1  0.380060  0.121840  0.330630  1.0  0.051
  H  H365  1  0.370490  0.175620  0.285500  1.0  0.0019
  H  H366  1  0.327060  0.227310  0.304480  1.0  -0.0037
  H  H367  1  0.270680  0.143090  0.369070  1.0  -0.0017
  H  H368  1  0.266740  0.217220  0.386790  1.0  0.0179
  H  H369  1  0.259170  0.237380  0.334920  1.0  0.0307
  H  H370  1  0.771170  0.580050  0.790960  1.0  -0.0034
  H  H371  1  0.709050  0.560560  0.764320  1.0  0.0122
  H  H372  1  0.661830  0.531130  0.812390  1.0  0.0081
  H  H373  1  0.674770  0.539500  0.882670  1.0  -0.002
  H  H374  1  0.733690  0.558990  0.908070  1.0  0.0191
  H  H375  1  0.880060  0.621840  0.830630  1.0  0.051
  H  H376  1  0.870490  0.675620  0.785500  1.0  0.0019
  H  H377  1  0.827060  0.727310  0.804480  1.0  -0.0037
  H  H378  1  0.770680  0.643090  0.869070  1.0  -0.0017
  H  H379  1  0.766740  0.717220  0.886790  1.0  0.0179
  H  H380  1  0.759170  0.737380  0.834920  1.0  0.0307
  H  H381  1  0.728830  0.580050  0.209040  1.0  -0.0034
  H  H382  1  0.790950  0.560560  0.235680  1.0  0.0107
  H  H383  1  0.838170  0.531130  0.187610  1.0  0.0097
  H  H384  1  0.825230  0.539500  0.117330  1.0  -0.002
  H  H385  1  0.766310  0.558990  0.091930  1.0  0.0191
  H  H386  1  0.619940  0.621840  0.169370  1.0  0.0508
  H  H387  1  0.629510  0.675620  0.214500  1.0  0.0018
  H  H388  1  0.672940  0.727310  0.195520  1.0  -0.0031
  H  H389  1  0.729320  0.643090  0.130930  1.0  -0.0008
  H  H390  1  0.733260  0.717220  0.113210  1.0  0.0171
  H  H391  1  0.740830  0.737380  0.165080  1.0  0.0293
  H  H392  1  0.228830  0.080050  0.709040  1.0  -0.0034
  H  H393  1  0.290950  0.060560  0.735680  1.0  0.0107
  H  H394  1  0.338170  0.031130  0.687610  1.0  0.0097
  H  H395  1  0.325230  0.039500  0.617330  1.0  -0.002
  H  H396  1  0.266310  0.058990  0.591930  1.0  0.0191
  H  H397  1  0.119940  0.121840  0.669370  1.0  0.0508
  H  H398  1  0.129510  0.175620  0.714500  1.0  0.0018
  H  H399  1  0.172940  0.227310  0.695520  1.0  -0.0031
  H  H400  1  0.229320  0.143090  0.630930  1.0  -0.0008
  H  H401  1  0.233260  0.217220  0.613210  1.0  0.0171
  H  H402  1  0.240830  0.237380  0.665080  1.0  0.0293
  H  H403  1  0.771170  0.419950  0.709040  1.0  -0.0035
  H  H404  1  0.709050  0.439440  0.735680  1.0  0.0118
  H  H405  1  0.661830  0.468870  0.687610  1.0  0.0081
  H  H406  1  0.674770  0.460500  0.617330  1.0  -0.0021
  H  H407  1  0.733690  0.441010  0.591930  1.0  0.0187
  H  H408  1  0.880060  0.378160  0.669370  1.0  0.051
  H  H409  1  0.870490  0.324380  0.714500  1.0  0.0017
  H  H410  1  0.827060  0.272690  0.695520  1.0  -0.0034
  H  H411  1  0.770680  0.356910  0.630930  1.0  -0.0016
  H  H412  1  0.766740  0.282780  0.613210  1.0  0.0155
  H  H413  1  0.759170  0.262620  0.665080  1.0  0.0306
  H  H414  1  0.271170  0.919950  0.209040  1.0  -0.0035
  H  H415  1  0.209050  0.939440  0.235680  1.0  0.0118
  H  H416  1  0.161830  0.968870  0.187610  1.0  0.0081
  H  H417  1  0.174770  0.960500  0.117330  1.0  -0.0021
  H  H418  1  0.233690  0.941010  0.091930  1.0  0.0187
  H  H419  1  0.380060  0.878160  0.169370  1.0  0.051
  H  H420  1  0.370490  0.824380  0.214500  1.0  0.0017
  H  H421  1  0.327060  0.772690  0.195520  1.0  -0.0034
  H  H422  1  0.270680  0.856910  0.130930  1.0  -0.0016
  H  H423  1  0.266740  0.782780  0.113210  1.0  0.0155
  H  H424  1  0.259170  0.762620  0.165080  1.0  0.0306
  H  H425  1  0.419950  0.709040  0.771170  1.0  -0.0057
  H  H426  1  0.439440  0.735680  0.709050  1.0  0.0161
  H  H427  1  0.468870  0.687610  0.661830  1.0  0.0083
  H  H428  1  0.460500  0.617330  0.674770  1.0  -0.0045
  H  H429  1  0.441010  0.591930  0.733690  1.0  0.018
  H  H430  1  0.378160  0.669370  0.880060  1.0  0.05
  H  H431  1  0.324380  0.714500  0.870490  1.0  0.0024
  H  H432  1  0.272690  0.695520  0.827060  1.0  -0.0029
  H  H433  1  0.356910  0.630930  0.770680  1.0  -0.0022
  H  H434  1  0.282780  0.613210  0.766740  1.0  0.0178
  H  H435  1  0.262620  0.665080  0.759170  1.0  0.0292
  H  H436  1  0.919950  0.209040  0.271170  1.0  -0.0057
  H  H437  1  0.939440  0.235680  0.209050  1.0  0.0161
  H  H438  1  0.968870  0.187610  0.161830  1.0  0.0083
  H  H439  1  0.960500  0.117330  0.174770  1.0  -0.0045
  H  H440  1  0.941010  0.091930  0.233690  1.0  0.018
  H  H441  1  0.878160  0.169370  0.380060  1.0  0.05
  H  H442  1  0.824380  0.214500  0.370490  1.0  0.0024
  H  H443  1  0.772690  0.195520  0.327060  1.0  -0.0029
  H  H444  1  0.856910  0.130930  0.270680  1.0  -0.0022
  H  H445  1  0.782780  0.113210  0.266740  1.0  0.0178
  H  H446  1  0.762620  0.165080  0.259170  1.0  0.0292
  H  H447  1  0.580050  0.209040  0.728830  1.0  -0.0053
  H  H448  1  0.560560  0.235680  0.790950  1.0  0.0155
  H  H449  1  0.531130  0.187610  0.838170  1.0  0.0091
  H  H450  1  0.539500  0.117330  0.825230  1.0  -0.0028
  H  H451  1  0.558990  0.091930  0.766310  1.0  0.0194
  H  H452  1  0.621840  0.169370  0.619940  1.0  0.05
  H  H453  1  0.675620  0.214500  0.629510  1.0  0.002
  H  H454  1  0.727310  0.195520  0.672940  1.0  -0.0036
  H  H455  1  0.643090  0.130930  0.729320  1.0  -0.0016
  H  H456  1  0.717220  0.113210  0.733260  1.0  0.0166
  H  H457  1  0.737380  0.165080  0.740830  1.0  0.0287
  H  H458  1  0.080050  0.709040  0.228830  1.0  -0.0053
  H  H459  1  0.060560  0.735680  0.290950  1.0  0.0155
  H  H460  1  0.031130  0.687610  0.338170  1.0  0.0091
  H  H461  1  0.039500  0.617330  0.325230  1.0  -0.0028
  H  H462  1  0.058990  0.591930  0.266310  1.0  0.0194
  H  H463  1  0.121840  0.669370  0.119940  1.0  0.05
  H  H464  1  0.175620  0.714500  0.129510  1.0  0.002
  H  H465  1  0.227310  0.695520  0.172940  1.0  -0.0036
  H  H466  1  0.143090  0.630930  0.229320  1.0  -0.0016
  H  H467  1  0.217220  0.613210  0.233260  1.0  0.0166
  H  H468  1  0.237380  0.665080  0.240830  1.0  0.0287
  H  H469  1  0.080050  0.290960  0.271170  1.0  -0.0051
  H  H470  1  0.060560  0.264320  0.209050  1.0  0.0147
  H  H471  1  0.031130  0.312390  0.161830  1.0  0.0086
  H  H472  1  0.039500  0.382670  0.174770  1.0  -0.0032
  H  H473  1  0.058990  0.408070  0.233690  1.0  0.0198
  H  H474  1  0.121840  0.330630  0.380060  1.0  0.0501
  H  H475  1  0.175620  0.285500  0.370490  1.0  0.0023
  H  H476  1  0.227310  0.304480  0.327060  1.0  -0.0035
  H  H477  1  0.143090  0.369070  0.270680  1.0  -0.0011
  H  H478  1  0.217220  0.386790  0.266740  1.0  0.018
  H  H479  1  0.237380  0.334920  0.259170  1.0  0.0284
  H  H480  1  0.580050  0.790960  0.771170  1.0  -0.0051
  H  H481  1  0.560560  0.764320  0.709050  1.0  0.0147
  H  H482  1  0.531130  0.812390  0.661830  1.0  0.0086
  H  H483  1  0.539500  0.882670  0.674770  1.0  -0.0032
  H  H484  1  0.558990  0.908070  0.733690  1.0  0.0198
  H  H485  1  0.621840  0.830630  0.880060  1.0  0.0501
  H  H486  1  0.675620  0.785500  0.870490  1.0  0.0023
  H  H487  1  0.727310  0.804480  0.827060  1.0  -0.0035
  H  H488  1  0.643090  0.869070  0.770680  1.0  -0.0011
  H  H489  1  0.717220  0.886790  0.766740  1.0  0.018
  H  H490  1  0.737380  0.834920  0.759170  1.0  0.0284
  H  H491  1  0.919950  0.790960  0.228830  1.0  -0.0049
  H  H492  1  0.939440  0.764320  0.290950  1.0  0.0155
  H  H493  1  0.968870  0.812390  0.338170  1.0  0.0079
  H  H494  1  0.960500  0.882670  0.325230  1.0  -0.004
  H  H495  1  0.941010  0.908070  0.266310  1.0  0.0201
  H  H496  1  0.878160  0.830630  0.119940  1.0  0.0497
  H  H497  1  0.824380  0.785500  0.129510  1.0  0.0024
  H  H498  1  0.772690  0.804480  0.172940  1.0  -0.0039
  H  H499  1  0.856910  0.869070  0.229320  1.0  -0.0022
  H  H500  1  0.782780  0.886790  0.233260  1.0  0.0195
  H  H501  1  0.762620  0.834920  0.240830  1.0  0.0301
  H  H502  1  0.419950  0.290960  0.728830  1.0  -0.0049
  H  H503  1  0.439440  0.264320  0.790950  1.0  0.0155
  H  H504  1  0.468870  0.312390  0.838170  1.0  0.0079
  H  H505  1  0.460500  0.382670  0.825230  1.0  -0.004
  H  H506  1  0.441010  0.408070  0.766310  1.0  0.0201
  H  H507  1  0.378160  0.330630  0.619940  1.0  0.0497
  H  H508  1  0.324380  0.285500  0.629510  1.0  0.0024
  H  H509  1  0.272690  0.304480  0.672940  1.0  -0.0039
  H  H510  1  0.356910  0.369070  0.729320  1.0  -0.0022
  H  H511  1  0.282780  0.386790  0.733260  1.0  0.0195
  H  H512  1  0.262620  0.334920  0.740830  1.0  0.0301
  H  H513  1  0.209040  0.728830  0.580050  1.0  -0.0038
  H  H514  1  0.235680  0.790950  0.560560  1.0  0.0153
  H  H515  1  0.187610  0.838170  0.531130  1.0  0.0101
  H  H516  1  0.117330  0.825230  0.539500  1.0  -0.0011
  H  H517  1  0.091930  0.766310  0.558990  1.0  0.0197
  H  H518  1  0.169370  0.619940  0.621840  1.0  0.0501
  H  H519  1  0.214500  0.629510  0.675620  1.0  0.0019
  H  H520  1  0.195520  0.672940  0.727310  1.0  -0.0052
  H  H521  1  0.130930  0.729320  0.643090  1.0  -0.0004
  H  H522  1  0.113210  0.733260  0.717220  1.0  0.0167
  H  H523  1  0.165080  0.740830  0.737380  1.0  0.0301
  H  H524  1  0.709040  0.228830  0.080050  1.0  -0.0038
  H  H525  1  0.735680  0.290950  0.060560  1.0  0.0153
  H  H526  1  0.687610  0.338170  0.031130  1.0  0.0101
  H  H527  1  0.617330  0.325230  0.039500  1.0  -0.0011
  H  H528  1  0.591930  0.266310  0.058990  1.0  0.0197
  H  H529  1  0.669370  0.119940  0.121840  1.0  0.0501
  H  H530  1  0.714500  0.129510  0.175620  1.0  0.0019
  H  H531  1  0.695520  0.172940  0.227310  1.0  -0.0052
  H  H532  1  0.630930  0.229320  0.143090  1.0  -0.0004
  H  H533  1  0.613210  0.233260  0.217220  1.0  0.0167
  H  H534  1  0.665080  0.240830  0.237380  1.0  0.0301
  H  H535  1  0.709040  0.771170  0.419950  1.0  -0.004
  H  H536  1  0.735680  0.709050  0.439440  1.0  0.0151
  H  H537  1  0.687610  0.661830  0.468870  1.0  0.0089
  H  H538  1  0.617330  0.674770  0.460500  1.0  -0.0009
  H  H539  1  0.591930  0.733690  0.441010  1.0  0.0196
  H  H540  1  0.669370  0.880060  0.378160  1.0  0.0493
  H  H541  1  0.714500  0.870490  0.324380  1.0  0.0015
  H  H542  1  0.695520  0.827060  0.272690  1.0  -0.007
  H  H543  1  0.630930  0.770680  0.356910  1.0  -0.0003
  H  H544  1  0.613210  0.766740  0.282780  1.0  0.0161
  H  H545  1  0.665080  0.759170  0.262620  1.0  0.0286
  H  H546  1  0.209040  0.271170  0.919950  1.0  -0.004
  H  H547  1  0.235680  0.209050  0.939440  1.0  0.0151
  H  H548  1  0.187610  0.161830  0.968870  1.0  0.0089
  H  H549  1  0.117330  0.174770  0.960500  1.0  -0.0009
  H  H550  1  0.091930  0.233690  0.941010  1.0  0.0196
  H  H551  1  0.169370  0.380060  0.878160  1.0  0.0493
  H  H552  1  0.214500  0.370490  0.824380  1.0  0.0015
  H  H553  1  0.195520  0.327060  0.772690  1.0  -0.007
  H  H554  1  0.130930  0.270680  0.856910  1.0  -0.0003
  H  H555  1  0.113210  0.266740  0.782780  1.0  0.0161
  H  H556  1  0.165080  0.259170  0.762620  1.0  0.0286
  H  H557  1  0.790960  0.228830  0.919950  1.0  -0.0041
  H  H558  1  0.764320  0.290950  0.939440  1.0  0.0131
  H  H559  1  0.812390  0.338170  0.968870  1.0  0.0098
  H  H560  1  0.882670  0.325230  0.960500  1.0  -0.0015
  H  H561  1  0.908070  0.266310  0.941010  1.0  0.021
  H  H562  1  0.830630  0.119940  0.878160  1.0  0.0497
  H  H563  1  0.785500  0.129510  0.824380  1.0  0.0018
  H  H564  1  0.804480  0.172940  0.772690  1.0  -0.0066
  H  H565  1  0.869070  0.229320  0.856910  1.0  -0.0004
  H  H566  1  0.886790  0.233260  0.782780  1.0  0.0164
  H  H567  1  0.834920  0.240830  0.762620  1.0  0.0298
  H  H568  1  0.290960  0.728830  0.419950  1.0  -0.0041
  H  H569  1  0.264320  0.790950  0.439440  1.0  0.0131
  H  H570  1  0.312390  0.838170  0.468870  1.0  0.0098
  H  H571  1  0.382670  0.825230  0.460500  1.0  -0.0015
  H  H572  1  0.408070  0.766310  0.441010  1.0  0.021
  H  H573  1  0.330630  0.619940  0.378160  1.0  0.0497
  H  H574  1  0.285500  0.629510  0.324380  1.0  0.0018
  H  H575  1  0.304480  0.672940  0.272690  1.0  -0.0066
  H  H576  1  0.369070  0.729320  0.356910  1.0  -0.0004
  H  H577  1  0.386790  0.733260  0.282780  1.0  0.0164
  H  H578  1  0.334920  0.740830  0.262620  1.0  0.0298
  H  H579  1  0.290960  0.271170  0.080050  1.0  -0.0053
  H  H580  1  0.264320  0.209050  0.060560  1.0  0.0135
  H  H581  1  0.312390  0.161830  0.031130  1.0  0.0095
  H  H582  1  0.382670  0.174770  0.039500  1.0  -0.002
  H  H583  1  0.408070  0.233690  0.058990  1.0  0.021
  H  H584  1  0.330630  0.380060  0.121840  1.0  0.0498
  H  H585  1  0.285500  0.370490  0.175620  1.0  0.0015
  H  H586  1  0.304480  0.327060  0.227310  1.0  -0.0045
  H  H587  1  0.369070  0.270680  0.143090  1.0  -1e-04
  H  H588  1  0.386790  0.266740  0.217220  1.0  0.017
  H  H589  1  0.334920  0.259170  0.237380  1.0  0.0305
  H  H590  1  0.790960  0.771170  0.580050  1.0  -0.0053
  H  H591  1  0.764320  0.709050  0.560560  1.0  0.0135
  H  H592  1  0.812390  0.661830  0.531130  1.0  0.0095
  H  H593  1  0.882670  0.674770  0.539500  1.0  -0.002
  H  H594  1  0.908070  0.733690  0.558990  1.0  0.021
  H  H595  1  0.830630  0.880060  0.621840  1.0  0.0498
  H  H596  1  0.785500  0.870490  0.675620  1.0  0.0015
  H  H597  1  0.804480  0.827060  0.727310  1.0  -0.0045
  H  H598  1  0.869070  0.770680  0.643090  1.0  -1e-04
  H  H599  1  0.886790  0.766740  0.717220  1.0  0.017
  H  H600  1  0.834920  0.759170  0.737380  1.0  0.0305
  H  H601  1  0.330050  0.521170  0.540960  1.0  -0.005
  H  H602  1  0.310560  0.459050  0.514320  1.0  0.0112
  H  H603  1  0.281130  0.411830  0.562390  1.0  0.0121
  H  H604  1  0.289500  0.424770  0.632670  1.0  -0.004
  H  H605  1  0.308990  0.483690  0.658070  1.0  0.0192
  H  H606  1  0.371840  0.630060  0.580630  1.0  0.0512
  H  H607  1  0.425620  0.620490  0.535500  1.0  0.0017
  H  H608  1  0.477310  0.577060  0.554480  1.0  -0.0022
  H  H609  1  0.393090  0.520680  0.619070  1.0  -0.0017
  H  H610  1  0.467220  0.516740  0.636790  1.0  0.0173
  H  H611  1  0.487380  0.509170  0.584920  1.0  0.0286
  H  H612  1  0.830050  0.021170  0.040960  1.0  -0.005
  H  H613  1  0.810560  0.959050  0.014320  1.0  0.0112
  H  H614  1  0.781130  0.911830  0.062390  1.0  0.0121
  H  H615  1  0.789500  0.924770  0.132670  1.0  -0.004
  H  H616  1  0.808990  0.983690  0.158070  1.0  0.0192
  H  H617  1  0.871840  0.130060  0.080630  1.0  0.0512
  H  H618  1  0.925620  0.120490  0.035500  1.0  0.0017
  H  H619  1  0.977310  0.077060  0.054480  1.0  -0.0022
  H  H620  1  0.893090  0.020680  0.119070  1.0  -0.0017
  H  H621  1  0.967220  0.016740  0.136790  1.0  0.0173
  H  H622  1  0.987380  0.009170  0.084920  1.0  0.0286
  H  H623  1  0.169950  0.478830  0.040960  1.0  -0.0033
  H  H624  1  0.189440  0.540950  0.014320  1.0  0.0121
  H  H625  1  0.218870  0.588170  0.062390  1.0  0.0123
  H  H626  1  0.210500  0.575230  0.132670  1.0  -0.0048
  H  H627  1  0.191010  0.516310  0.158070  1.0  0.0189
  H  H628  1  0.128160  0.369940  0.080630  1.0  0.0513
  H  H629  1  0.074380  0.379510  0.035500  1.0  0.0025
  H  H630  1  0.022690  0.422940  0.054480  1.0  -0.0026
  H  H631  1  0.106910  0.479320  0.119070  1.0  -0.0021
  H  H632  1  0.032780  0.483260  0.136790  1.0  0.0187
  H  H633  1  0.012620  0.490830  0.084920  1.0  0.0298
  H  H634  1  0.669950  0.978830  0.540960  1.0  -0.0033
  H  H635  1  0.689440  0.040950  0.514320  1.0  0.0121
  H  H636  1  0.718870  0.088170  0.562390  1.0  0.0123
  H  H637  1  0.710500  0.075230  0.632670  1.0  -0.0048
  H  H638  1  0.691010  0.016310  0.658070  1.0  0.0189
  H  H639  1  0.628160  0.869940  0.580630  1.0  0.0513
  H  H640  1  0.574380  0.879510  0.535500  1.0  0.0025
  H  H641  1  0.522690  0.922940  0.554480  1.0  -0.0026
  H  H642  1  0.606910  0.979320  0.619070  1.0  -0.0021
  H  H643  1  0.532780  0.983260  0.636790  1.0  0.0187
  H  H644  1  0.512620  0.990830  0.584920  1.0  0.0298
  H  H645  1  0.669950  0.021170  0.959040  1.0  -0.0044
  H  H646  1  0.689440  0.959050  0.985680  1.0  0.0107
  H  H647  1  0.718870  0.911830  0.937610  1.0  0.0112
  H  H648  1  0.710500  0.924770  0.867330  1.0  -0.0045
  H  H649  1  0.691010  0.983690  0.841930  1.0  0.0186
  H  H650  1  0.628160  0.130060  0.919370  1.0  0.051
  H  H651  1  0.574380  0.120490  0.964500  1.0  0.0016
  H  H652  1  0.522690  0.077060  0.945520  1.0  -0.0032
  H  H653  1  0.606910  0.020680  0.880930  1.0  -0.0019
  H  H654  1  0.532780  0.016740  0.863210  1.0  0.0176
  H  H655  1  0.512620  0.009170  0.915080  1.0  0.0297
  H  H656  1  0.169950  0.521170  0.459040  1.0  -0.0044
  H  H657  1  0.189440  0.459050  0.485680  1.0  0.0107
  H  H658  1  0.218870  0.411830  0.437610  1.0  0.0112
  H  H659  1  0.210500  0.424770  0.367330  1.0  -0.0045
  H  H660  1  0.191010  0.483690  0.341930  1.0  0.0186
  H  H661  1  0.128160  0.630060  0.419370  1.0  0.051
  H  H662  1  0.074380  0.620490  0.464500  1.0  0.0016
  H  H663  1  0.022690  0.577060  0.445520  1.0  -0.0032
  H  H664  1  0.106910  0.520680  0.380930  1.0  -0.0019
  H  H665  1  0.032780  0.516740  0.363210  1.0  0.0176
  H  H666  1  0.012620  0.509170  0.415080  1.0  0.0297
  H  H667  1  0.830050  0.978830  0.459040  1.0  -0.0045
  H  H668  1  0.810560  0.040950  0.485680  1.0  0.0106
  H  H669  1  0.781130  0.088170  0.437610  1.0  0.0124
  H  H670  1  0.789500  0.075230  0.367330  1.0  -0.0034
  H  H671  1  0.808990  0.016310  0.341930  1.0  0.0195
  H  H672  1  0.871840  0.869940  0.419370  1.0  0.0517
  H  H673  1  0.925620  0.879510  0.464500  1.0  0.0021
  H  H674  1  0.977310  0.922940  0.445520  1.0  -0.0026
  H  H675  1  0.893090  0.979320  0.380930  1.0  -0.0012
  H  H676  1  0.967220  0.983260  0.363210  1.0  0.0163
  H  H677  1  0.987380  0.990830  0.415080  1.0  0.0283
  H  H678  1  0.330050  0.478830  0.959040  1.0  -0.0045
  H  H679  1  0.310560  0.540950  0.985680  1.0  0.0106
  H  H680  1  0.281130  0.588170  0.937610  1.0  0.0124
  H  H681  1  0.289500  0.575230  0.867330  1.0  -0.0034
  H  H682  1  0.308990  0.516310  0.841930  1.0  0.0195
  H  H683  1  0.371840  0.369940  0.919370  1.0  0.0517
  H  H684  1  0.425620  0.379510  0.964500  1.0  0.0021
  H  H685  1  0.477310  0.422940  0.945520  1.0  -0.0026
  H  H686  1  0.393090  0.479320  0.880930  1.0  -0.0012
  H  H687  1  0.467220  0.483260  0.863210  1.0  0.0163
  H  H688  1  0.487380  0.490830  0.915080  1.0  0.0283
  H  H689  1  0.540960  0.330050  0.521170  1.0  -0.0053
  H  H690  1  0.514320  0.310560  0.459050  1.0  0.0142
  H  H691  1  0.562390  0.281130  0.411830  1.0  0.0119
  H  H692  1  0.632670  0.289500  0.424770  1.0  -0.0017
  H  H693  1  0.658070  0.308990  0.483690  1.0  0.0196
  H  H694  1  0.580630  0.371840  0.630060  1.0  0.0507
  H  H695  1  0.535500  0.425620  0.620490  1.0  0.002
  H  H696  1  0.554480  0.477310  0.577060  1.0  -0.0029
  H  H697  1  0.619070  0.393090  0.520680  1.0  -0.0005
  H  H698  1  0.636790  0.467220  0.516740  1.0  0.0184
  H  H699  1  0.584920  0.487380  0.509170  1.0  0.0296
  H  H700  1  0.040960  0.830050  0.021170  1.0  -0.0053
  H  H701  1  0.014320  0.810560  0.959050  1.0  0.0142
  H  H702  1  0.062390  0.781130  0.911830  1.0  0.0119
  H  H703  1  0.132670  0.789500  0.924770  1.0  -0.0017
  H  H704  1  0.158070  0.808990  0.983690  1.0  0.0196
  H  H705  1  0.080630  0.871840  0.130060  1.0  0.0507
  H  H706  1  0.035500  0.925620  0.120490  1.0  0.002
  H  H707  1  0.054480  0.977310  0.077060  1.0  -0.0029
  H  H708  1  0.119070  0.893090  0.020680  1.0  -0.0005
  H  H709  1  0.136790  0.967220  0.016740  1.0  0.0184
  H  H710  1  0.084920  0.987380  0.009170  1.0  0.0296
  H  H711  1  0.040960  0.169950  0.478830  1.0  -0.0047
  H  H712  1  0.014320  0.189440  0.540950  1.0  0.0136
  H  H713  1  0.062390  0.218870  0.588170  1.0  0.0122
  H  H714  1  0.132670  0.210500  0.575230  1.0  -0.0011
  H  H715  1  0.158070  0.191010  0.516310  1.0  0.0201
  H  H716  1  0.080630  0.128160  0.369940  1.0  0.0506
  H  H717  1  0.035500  0.074380  0.379510  1.0  0.0011
  H  H718  1  0.054480  0.022690  0.422940  1.0  -0.004
  H  H719  1  0.119070  0.106910  0.479320  1.0  -0.0008
  H  H720  1  0.136790  0.032780  0.483260  1.0  0.0182
  H  H721  1  0.084920  0.012620  0.490830  1.0  0.0307
  H  H722  1  0.540960  0.669950  0.978830  1.0  -0.0047
  H  H723  1  0.514320  0.689440  0.040950  1.0  0.0136
  H  H724  1  0.562390  0.718870  0.088170  1.0  0.0122
  H  H725  1  0.632670  0.710500  0.075230  1.0  -0.0011
  H  H726  1  0.658070  0.691010  0.016310  1.0  0.0201
  H  H727  1  0.580630  0.628160  0.869940  1.0  0.0506
  H  H728  1  0.535500  0.574380  0.879510  1.0  0.0011
  H  H729  1  0.554480  0.522690  0.922940  1.0  -0.004
  H  H730  1  0.619070  0.606910  0.979320  1.0  -0.0008
  H  H731  1  0.636790  0.532780  0.983260  1.0  0.0182
  H  H732  1  0.584920  0.512620  0.990830  1.0  0.0307
  H  H733  1  0.959040  0.669950  0.021170  1.0  -0.0045
  H  H734  1  0.985680  0.689440  0.959050  1.0  0.0154
  H  H735  1  0.937610  0.718870  0.911830  1.0  0.012
  H  H736  1  0.867330  0.710500  0.924770  1.0  -0.0014
  H  H737  1  0.841930  0.691010  0.983690  1.0  0.0185
  H  H738  1  0.919370  0.628160  0.130060  1.0  0.0509
  H  H739  1  0.964500  0.574380  0.120490  1.0  0.0015
  H  H740  1  0.945520  0.522690  0.077060  1.0  -0.0038
  H  H741  1  0.880930  0.606910  0.020680  1.0  -0.0008
  H  H742  1  0.863210  0.532780  0.016740  1.0  0.0173
  H  H743  1  0.915080  0.512620  0.009170  1.0  0.0294
  H  H744  1  0.459040  0.169950  0.521170  1.0  -0.0045
  H  H745  1  0.485680  0.189440  0.459050  1.0  0.0154
  H  H746  1  0.437610  0.218870  0.411830  1.0  0.012
  H  H747  1  0.367330  0.210500  0.424770  1.0  -0.0014
  H  H748  1  0.341930  0.191010  0.483690  1.0  0.0185
  H  H749  1  0.419370  0.128160  0.630060  1.0  0.0509
  H  H750  1  0.464500  0.074380  0.620490  1.0  0.0015
  H  H751  1  0.445520  0.022690  0.577060  1.0  -0.0038
  H  H752  1  0.380930  0.106910  0.520680  1.0  -0.0008
  H  H753  1  0.363210  0.032780  0.516740  1.0  0.0173
  H  H754  1  0.415080  0.012620  0.509170  1.0  0.0294
  H  H755  1  0.459040  0.830050  0.978830  1.0  -0.0045
  H  H756  1  0.485680  0.810560  0.040950  1.0  0.0142
  H  H757  1  0.437610  0.781130  0.088170  1.0  0.012
  H  H758  1  0.367330  0.789500  0.075230  1.0  -0.0007
  H  H759  1  0.341930  0.808990  0.016310  1.0  0.0192
  H  H760  1  0.419370  0.871840  0.869940  1.0  0.0509
  H  H761  1  0.464500  0.925620  0.879510  1.0  0.0015
  H  H762  1  0.445520  0.977310  0.922940  1.0  -0.0042
  H  H763  1  0.380930  0.893090  0.979320  1.0  -0.0008
  H  H764  1  0.363210  0.967220  0.983260  1.0  0.019
  H  H765  1  0.415080  0.987380  0.990830  1.0  0.0297
  H  H766  1  0.959040  0.330050  0.478830  1.0  -0.0045
  H  H767  1  0.985680  0.310560  0.540950  1.0  0.0142
  H  H768  1  0.937610  0.281130  0.588170  1.0  0.012
  H  H769  1  0.867330  0.289500  0.575230  1.0  -0.0007
  H  H770  1  0.841930  0.308990  0.516310  1.0  0.0192
  H  H771  1  0.919370  0.371840  0.369940  1.0  0.0509
  H  H772  1  0.964500  0.425620  0.379510  1.0  0.0015
  H  H773  1  0.945520  0.477310  0.422940  1.0  -0.0042
  H  H774  1  0.880930  0.393090  0.479320  1.0  -0.0008
  H  H775  1  0.863210  0.467220  0.483260  1.0  0.019
  H  H776  1  0.915080  0.487380  0.490830  1.0  0.0297
  H  H777  1  0.521170  0.540960  0.330050  1.0  -0.004
  H  H778  1  0.459050  0.514320  0.310560  1.0  0.015
  H  H779  1  0.411830  0.562390  0.281130  1.0  0.0096
  H  H780  1  0.424770  0.632670  0.289500  1.0  -0.0019
  H  H781  1  0.483690  0.658070  0.308990  1.0  0.0207
  H  H782  1  0.630060  0.580630  0.371840  1.0  0.0514
  H  H783  1  0.620490  0.535500  0.425620  1.0  0.0028
  H  H784  1  0.577060  0.554480  0.477310  1.0  -0.0061
  H  H785  1  0.520680  0.619070  0.393090  1.0  -0.0011
  H  H786  1  0.516740  0.636790  0.467220  1.0  0.0174
  H  H787  1  0.509170  0.584920  0.487380  1.0  0.0316
  H  H788  1  0.021170  0.040960  0.830050  1.0  -0.004
  H  H789  1  0.959050  0.014320  0.810560  1.0  0.015
  H  H790  1  0.911830  0.062390  0.781130  1.0  0.0096
  H  H791  1  0.924770  0.132670  0.789500  1.0  -0.0019
  H  H792  1  0.983690  0.158070  0.808990  1.0  0.0207
  H  H793  1  0.130060  0.080630  0.871840  1.0  0.0514
  H  H794  1  0.120490  0.035500  0.925620  1.0  0.0028
  H  H795  1  0.077060  0.054480  0.977310  1.0  -0.0061
  H  H796  1  0.020680  0.119070  0.893090  1.0  -0.0011
  H  H797  1  0.016740  0.136790  0.967220  1.0  0.0174
  H  H798  1  0.009170  0.084920  0.987380  1.0  0.0316
  H  H799  1  0.478830  0.040960  0.169950  1.0  -0.0035
  H  H800  1  0.540950  0.014320  0.189440  1.0  0.0154
  H  H801  1  0.588170  0.062390  0.218870  1.0  0.0109
  H  H802  1  0.575230  0.132670  0.210500  1.0  -0.0024
  H  H803  1  0.516310  0.158070  0.191010  1.0  0.0209
  H  H804  1  0.369940  0.080630  0.128160  1.0  0.051
  H  H805  1  0.379510  0.035500  0.074380  1.0  0.0029
  H  H806  1  0.422940  0.054480  0.022690  1.0  -0.0071
  H  H807  1  0.479320  0.119070  0.106910  1.0  -0.0011
  H  H808  1  0.483260  0.136790  0.032780  1.0  0.0166
  H  H809  1  0.490830  0.084920  0.012620  1.0  0.0295
  H  H810  1  0.978830  0.540960  0.669950  1.0  -0.0035
  H  H811  1  0.040950  0.514320  0.689440  1.0  0.0154
  H  H812  1  0.088170  0.562390  0.718870  1.0  0.0109
  H  H813  1  0.075230  0.632670  0.710500  1.0  -0.0024
  H  H814  1  0.016310  0.658070  0.691010  1.0  0.0209
  H  H815  1  0.869940  0.580630  0.628160  1.0  0.051
  H  H816  1  0.879510  0.535500  0.574380  1.0  0.0029
  H  H817  1  0.922940  0.554480  0.522690  1.0  -0.0071
  H  H818  1  0.979320  0.619070  0.606910  1.0  -0.0011
  H  H819  1  0.983260  0.636790  0.532780  1.0  0.0166
  H  H820  1  0.990830  0.584920  0.512620  1.0  0.0295
  H  H821  1  0.021170  0.959040  0.669950  1.0  -0.0038
  H  H822  1  0.959050  0.985680  0.689440  1.0  0.0157
  H  H823  1  0.911830  0.937610  0.718870  1.0  0.0097
  H  H824  1  0.924770  0.867330  0.710500  1.0  -0.001
  H  H825  1  0.983690  0.841930  0.691010  1.0  0.0195
  H  H826  1  0.130060  0.919370  0.628160  1.0  0.0512
  H  H827  1  0.120490  0.964500  0.574380  1.0  0.0026
  H  H828  1  0.077060  0.945520  0.522690  1.0  -0.0076
  H  H829  1  0.020680  0.880930  0.606910  1.0  -0.0014
  H  H830  1  0.016740  0.863210  0.532780  1.0  0.0144
  H  H831  1  0.009170  0.915080  0.512620  1.0  0.03
  H  H832  1  0.521170  0.459040  0.169950  1.0  -0.0038
  H  H833  1  0.459050  0.485680  0.189440  1.0  0.0157
  H  H834  1  0.411830  0.437610  0.218870  1.0  0.0097
  H  H835  1  0.424770  0.367330  0.210500  1.0  -0.001
  H  H836  1  0.483690  0.341930  0.191010  1.0  0.0195
  H  H837  1  0.630060  0.419370  0.128160  1.0  0.0512
  H  H838  1  0.620490  0.464500  0.074380  1.0  0.0026
  H  H839  1  0.577060  0.445520  0.022690  1.0  -0.0076
  H  H840  1  0.520680  0.380930  0.106910  1.0  -0.0014
  H  H841  1  0.516740  0.363210  0.032780  1.0  0.0144
  H  H842  1  0.509170  0.415080  0.012620  1.0  0.03
  H  H843  1  0.978830  0.459040  0.830050  1.0  -0.0045
  H  H844  1  0.040950  0.485680  0.810560  1.0  0.0155
  H  H845  1  0.088170  0.437610  0.781130  1.0  0.0116
  H  H846  1  0.075230  0.367330  0.789500  1.0  -0.0033
  H  H847  1  0.016310  0.341930  0.808990  1.0  0.02
  H  H848  1  0.869940  0.419370  0.871840  1.0  0.0512
  H  H849  1  0.879510  0.464500  0.925620  1.0  0.0026
  H  H850  1  0.922940  0.445520  0.977310  1.0  -0.0055
  H  H851  1  0.979320  0.380930  0.893090  1.0  -0.0009
  H  H852  1  0.983260  0.363210  0.967220  1.0  0.0162
  H  H853  1  0.990830  0.415080  0.987380  1.0  0.0301
  H  H854  1  0.478830  0.959040  0.330050  1.0  -0.0045
  H  H855  1  0.540950  0.985680  0.310560  1.0  0.0155
  H  H856  1  0.588170  0.937610  0.281130  1.0  0.0116
  H  H857  1  0.575230  0.867330  0.289500  1.0  -0.0033
  H  H858  1  0.516310  0.841930  0.308990  1.0  0.02
  H  H859  1  0.369940  0.919370  0.371840  1.0  0.0512
  H  H860  1  0.379510  0.964500  0.425620  1.0  0.0026
  H  H861  1  0.422940  0.945520  0.477310  1.0  -0.0055
  H  H862  1  0.479320  0.880930  0.393090  1.0  -0.0009
  H  H863  1  0.483260  0.863210  0.467220  1.0  0.0162
  H  H864  1  0.490830  0.915080  0.487380  1.0  0.0301
  H  H865  1  0.771170  0.080050  0.209040  1.0  -0.0034
  H  H866  1  0.709050  0.060560  0.235680  1.0  0.0118
  H  H867  1  0.661830  0.031130  0.187610  1.0  0.0081
  H  H868  1  0.674770  0.039500  0.117330  1.0  -0.0011
  H  H869  1  0.733690  0.058990  0.091930  1.0  0.0189
  H  H870  1  0.880060  0.121840  0.169370  1.0  0.0511
  H  H871  1  0.870490  0.175620  0.214500  1.0  0.002
  H  H872  1  0.827060  0.227310  0.195520  1.0  -0.0041
  H  H873  1  0.770680  0.143090  0.130930  1.0  -0.0013
  H  H874  1  0.766740  0.217220  0.113210  1.0  0.017
  H  H875  1  0.759170  0.237380  0.165080  1.0  0.0304
  H  H876  1  0.271170  0.580050  0.709040  1.0  -0.0034
  H  H877  1  0.209050  0.560560  0.735680  1.0  0.0118
  H  H878  1  0.161830  0.531130  0.687610  1.0  0.0081
  H  H879  1  0.174770  0.539500  0.617330  1.0  -0.0011
  H  H880  1  0.233690  0.558990  0.591930  1.0  0.0189
  H  H881  1  0.380060  0.621840  0.669370  1.0  0.0511
  H  H882  1  0.370490  0.675620  0.714500  1.0  0.002
  H  H883  1  0.327060  0.727310  0.695520  1.0  -0.0041
  H  H884  1  0.270680  0.643090  0.630930  1.0  -0.0013
  H  H885  1  0.266740  0.717220  0.613210  1.0  0.017
  H  H886  1  0.259170  0.737380  0.665080  1.0  0.0304
  H  H887  1  0.728830  0.919950  0.709040  1.0  -0.0037
  H  H888  1  0.790950  0.939440  0.735680  1.0  0.0107
  H  H889  1  0.838170  0.968870  0.687610  1.0  0.0093
  H  H890  1  0.825230  0.960500  0.617330  1.0  -0.0034
  H  H891  1  0.766310  0.941010  0.591930  1.0  0.0191
  H  H892  1  0.619940  0.878160  0.669370  1.0  0.0508
  H  H893  1  0.629510  0.824380  0.714500  1.0  0.0016
  H  H894  1  0.672940  0.772690  0.695520  1.0  -0.0024
  H  H895  1  0.729320  0.856910  0.630930  1.0  -0.0013
  H  H896  1  0.733260  0.782780  0.613210  1.0  0.0161
  H  H897  1  0.740830  0.762620  0.665080  1.0  0.03
  H  H898  1  0.228830  0.419950  0.209040  1.0  -0.0037
  H  H899  1  0.290950  0.439440  0.235680  1.0  0.0107
  H  H900  1  0.338170  0.468870  0.187610  1.0  0.0093
  H  H901  1  0.325230  0.460500  0.117330  1.0  -0.0034
  H  H902  1  0.266310  0.441010  0.091930  1.0  0.0191
  H  H903  1  0.119940  0.378160  0.169370  1.0  0.0508
  H  H904  1  0.129510  0.324380  0.214500  1.0  0.0016
  H  H905  1  0.172940  0.272690  0.195520  1.0  -0.0024
  H  H906  1  0.229320  0.356910  0.130930  1.0  -0.0013
  H  H907  1  0.233260  0.282780  0.113210  1.0  0.0161
  H  H908  1  0.240830  0.262620  0.165080  1.0  0.03
  H  H909  1  0.271170  0.419950  0.790960  1.0  -0.0033
  H  H910  1  0.209050  0.439440  0.764320  1.0  0.012
  H  H911  1  0.161830  0.468870  0.812390  1.0  0.0084
  H  H912  1  0.174770  0.460500  0.882670  1.0  -0.0025
  H  H913  1  0.233690  0.441010  0.908070  1.0  0.0187
  H  H914  1  0.380060  0.378160  0.830630  1.0  0.0509
  H  H915  1  0.370490  0.324380  0.785500  1.0  0.0015
  H  H916  1  0.327060  0.272690  0.804480  1.0  -0.0034
  H  H917  1  0.270680  0.356910  0.869070  1.0  -0.0017
  H  H918  1  0.266740  0.282780  0.886790  1.0  0.0169
  H  H919  1  0.259170  0.262620  0.834920  1.0  0.0306
  H  H920  1  0.771170  0.919950  0.290960  1.0  -0.0033
  H  H921  1  0.709050  0.939440  0.264320  1.0  0.012
  H  H922  1  0.661830  0.968870  0.312390  1.0  0.0084
  H  H923  1  0.674770  0.960500  0.382670  1.0  -0.0025
  H  H924  1  0.733690  0.941010  0.408070  1.0  0.0187
  H  H925  1  0.880060  0.878160  0.330630  1.0  0.0509
  H  H926  1  0.870490  0.824380  0.285500  1.0  0.0015
  H  H927  1  0.827060  0.772690  0.304480  1.0  -0.0034
  H  H928  1  0.770680  0.856910  0.369070  1.0  -0.0017
  H  H929  1  0.766740  0.782780  0.386790  1.0  0.0169
  H  H930  1  0.759170  0.762620  0.334920  1.0  0.0306
  H  H931  1  0.228830  0.580050  0.290960  1.0  -0.0034
  H  H932  1  0.290950  0.560560  0.264320  1.0  0.013
  H  H933  1  0.338170  0.531130  0.312390  1.0  0.01
  H  H934  1  0.325230  0.539500  0.382670  1.0  -0.0022
  H  H935  1  0.266310  0.558990  0.408070  1.0  0.0189
  H  H936  1  0.119940  0.621840  0.330630  1.0  0.0508
  H  H937  1  0.129510  0.675620  0.285500  1.0  0.0024
  H  H938  1  0.172940  0.727310  0.304480  1.0  -0.0028
  H  H939  1  0.229320  0.643090  0.369070  1.0  -0.0011
  H  H940  1  0.233260  0.717220  0.386790  1.0  0.0184
  H  H941  1  0.240830  0.737380  0.334920  1.0  0.0292
  H  H942  1  0.728830  0.080050  0.790960  1.0  -0.0034
  H  H943  1  0.790950  0.060560  0.764320  1.0  0.013
  H  H944  1  0.838170  0.031130  0.812390  1.0  0.01
  H  H945  1  0.825230  0.039500  0.882670  1.0  -0.0022
  H  H946  1  0.766310  0.058990  0.908070  1.0  0.0189
  H  H947  1  0.619940  0.121840  0.830630  1.0  0.0508
  H  H948  1  0.629510  0.175620  0.785500  1.0  0.0024
  H  H949  1  0.672940  0.227310  0.804480  1.0  -0.0028
  H  H950  1  0.729320  0.143090  0.869070  1.0  -0.0011
  H  H951  1  0.733260  0.217220  0.886790  1.0  0.0184
  H  H952  1  0.740830  0.237380  0.834920  1.0  0.0292
  H  H953  1  0.580050  0.290960  0.228830  1.0  -0.0054
  H  H954  1  0.560560  0.264320  0.290950  1.0  0.0148
  H  H955  1  0.531130  0.312390  0.338170  1.0  0.0093
  H  H956  1  0.539500  0.382670  0.325230  1.0  -0.003
  H  H957  1  0.558990  0.408070  0.266310  1.0  0.0202
  H  H958  1  0.621840  0.330630  0.119940  1.0  0.0501
  H  H959  1  0.675620  0.285500  0.129510  1.0  0.0023
  H  H960  1  0.727310  0.304480  0.172940  1.0  -0.0036
  H  H961  1  0.643090  0.369070  0.229320  1.0  -0.0015
  H  H962  1  0.717220  0.386790  0.233260  1.0  0.0182
  H  H963  1  0.737380  0.334920  0.240830  1.0  0.029
  H  H964  1  0.080050  0.790960  0.728830  1.0  -0.0054
  H  H965  1  0.060560  0.764320  0.790950  1.0  0.0148
  H  H966  1  0.031130  0.812390  0.838170  1.0  0.0093
  H  H967  1  0.039500  0.882670  0.825230  1.0  -0.003
  H  H968  1  0.058990  0.908070  0.766310  1.0  0.0202
  H  H969  1  0.121840  0.830630  0.619940  1.0  0.0501
  H  H970  1  0.175620  0.785500  0.629510  1.0  0.0023
  H  H971  1  0.227310  0.804480  0.672940  1.0  -0.0036
  H  H972  1  0.143090  0.869070  0.729320  1.0  -0.0015
  H  H973  1  0.217220  0.886790  0.733260  1.0  0.0182
  H  H974  1  0.237380  0.834920  0.740830  1.0  0.029
  H  H975  1  0.419950  0.790960  0.271170  1.0  -0.0051
  H  H976  1  0.439440  0.764320  0.209050  1.0  0.0158
  H  H977  1  0.468870  0.812390  0.161830  1.0  0.0084
  H  H978  1  0.460500  0.882670  0.174770  1.0  -0.0044
  H  H979  1  0.441010  0.908070  0.233690  1.0  0.0193
  H  H980  1  0.378160  0.830630  0.380060  1.0  0.05
  H  H981  1  0.324380  0.785500  0.370490  1.0  0.0028
  H  H982  1  0.272690  0.804480  0.327060  1.0  -0.0036
  H  H983  1  0.356910  0.869070  0.270680  1.0  -0.0019
  H  H984  1  0.282780  0.886790  0.266740  1.0  0.0191
  H  H985  1  0.262620  0.834920  0.259170  1.0  0.0296
  H  H986  1  0.919950  0.290960  0.771170  1.0  -0.0051
  H  H987  1  0.939440  0.264320  0.709050  1.0  0.0158
  H  H988  1  0.968870  0.312390  0.661830  1.0  0.0084
  H  H989  1  0.960500  0.382670  0.674770  1.0  -0.0044
  H  H990  1  0.941010  0.408070  0.733690  1.0  0.0193
  H  H991  1  0.878160  0.330630  0.880060  1.0  0.05
  H  H992  1  0.824380  0.285500  0.870490  1.0  0.0028
  H  H993  1  0.772690  0.304480  0.827060  1.0  -0.0036
  H  H994  1  0.856910  0.369070  0.770680  1.0  -0.0019
  H  H995  1  0.782780  0.386790  0.766740  1.0  0.0191
  H  H996  1  0.762620  0.334920  0.759170  1.0  0.0296
  H  H997  1  0.919950  0.709040  0.728830  1.0  -0.0049
  H  H998  1  0.939440  0.735680  0.790950  1.0  0.0159
  H  H999  1  0.968870  0.687610  0.838170  1.0  0.0076
  H  H1000  1  0.960500  0.617330  0.825230  1.0  -0.0036
  H  H1001  1  0.941010  0.591930  0.766310  1.0  0.0187
  H  H1002  1  0.878160  0.669370  0.619940  1.0  0.0497
  H  H1003  1  0.824380  0.714500  0.629510  1.0  0.0021
  H  H1004  1  0.772690  0.695520  0.672940  1.0  -0.0031
  H  H1005  1  0.856910  0.630930  0.729320  1.0  -0.0022
  H  H1006  1  0.782780  0.613210  0.733260  1.0  0.0182
  H  H1007  1  0.762620  0.665080  0.740830  1.0  0.0297
  H  H1008  1  0.419950  0.209040  0.228830  1.0  -0.0049
  H  H1009  1  0.439440  0.235680  0.290950  1.0  0.0159
  H  H1010  1  0.468870  0.187610  0.338170  1.0  0.0076
  H  H1011  1  0.460500  0.117330  0.325230  1.0  -0.0036
  H  H1012  1  0.441010  0.091930  0.266310  1.0  0.0187
  H  H1013  1  0.378160  0.169370  0.119940  1.0  0.0497
  H  H1014  1  0.324380  0.214500  0.129510  1.0  0.0021
  H  H1015  1  0.272690  0.195520  0.172940  1.0  -0.0031
  H  H1016  1  0.356910  0.130930  0.229320  1.0  -0.0022
  H  H1017  1  0.282780  0.113210  0.233260  1.0  0.0182
  H  H1018  1  0.262620  0.165080  0.240830  1.0  0.0297
  H  H1019  1  0.080050  0.209040  0.771170  1.0  -0.006
  H  H1020  1  0.060560  0.235680  0.709050  1.0  0.0156
  H  H1021  1  0.031130  0.187610  0.661830  1.0  0.0086
  H  H1022  1  0.039500  0.117330  0.674770  1.0  -0.0036
  H  H1023  1  0.058990  0.091930  0.733690  1.0  0.0185
  H  H1024  1  0.121840  0.169370  0.880060  1.0  0.0502
  H  H1025  1  0.175620  0.214500  0.870490  1.0  0.0025
  H  H1026  1  0.227310  0.195520  0.827060  1.0  -0.0037
  H  H1027  1  0.143090  0.130930  0.770680  1.0  -0.0016
  H  H1028  1  0.217220  0.113210  0.766740  1.0  0.0166
  H  H1029  1  0.237380  0.165080  0.759170  1.0  0.0279
  H  H1030  1  0.580050  0.709040  0.271170  1.0  -0.006
  H  H1031  1  0.560560  0.735680  0.209050  1.0  0.0156
  H  H1032  1  0.531130  0.687610  0.161830  1.0  0.0086
  H  H1033  1  0.539500  0.617330  0.174770  1.0  -0.0036
  H  H1034  1  0.558990  0.591930  0.233690  1.0  0.0185
  H  H1035  1  0.621840  0.669370  0.380060  1.0  0.0502
  H  H1036  1  0.675620  0.714500  0.370490  1.0  0.0025
  H  H1037  1  0.727310  0.695520  0.327060  1.0  -0.0037
  H  H1038  1  0.643090  0.630930  0.270680  1.0  -0.0016
  H  H1039  1  0.717220  0.613210  0.266740  1.0  0.0166
  H  H1040  1  0.737380  0.665080  0.259170  1.0  0.0279
  H  H1041  1  0.790960  0.271170  0.419950  1.0  -0.0047
  H  H1042  1  0.764320  0.209050  0.439440  1.0  0.0137
  H  H1043  1  0.812390  0.161830  0.468870  1.0  0.0094
  H  H1044  1  0.882670  0.174770  0.460500  1.0  -0.0013
  H  H1045  1  0.908070  0.233690  0.441010  1.0  0.021
  H  H1046  1  0.830630  0.380060  0.378160  1.0  0.0492
  H  H1047  1  0.785500  0.370490  0.324380  1.0  0.0016
  H  H1048  1  0.804480  0.327060  0.272690  1.0  -0.0066
  H  H1049  1  0.869070  0.270680  0.356910  1.0  -0.0003
  H  H1050  1  0.886790  0.266740  0.282780  1.0  0.0162
  H  H1051  1  0.834920  0.259170  0.262620  1.0  0.0296
  H  H1052  1  0.290960  0.771170  0.919950  1.0  -0.0047
  H  H1053  1  0.264320  0.709050  0.939440  1.0  0.0137
  H  H1054  1  0.312390  0.661830  0.968870  1.0  0.0094
  H  H1055  1  0.382670  0.674770  0.960500  1.0  -0.0013
  H  H1056  1  0.408070  0.733690  0.941010  1.0  0.021
  H  H1057  1  0.330630  0.880060  0.878160  1.0  0.0492
  H  H1058  1  0.285500  0.870490  0.824380  1.0  0.0016
  H  H1059  1  0.304480  0.827060  0.772690  1.0  -0.0066
  H  H1060  1  0.369070  0.770680  0.856910  1.0  -0.0003
  H  H1061  1  0.386790  0.766740  0.782780  1.0  0.0162
  H  H1062  1  0.334920  0.759170  0.762620  1.0  0.0296
  H  H1063  1  0.290960  0.228830  0.580050  1.0  -0.0046
  H  H1064  1  0.264320  0.290950  0.560560  1.0  0.0132
  H  H1065  1  0.312390  0.338170  0.531130  1.0  0.0098
  H  H1066  1  0.382670  0.325230  0.539500  1.0  -0.0017
  H  H1067  1  0.408070  0.266310  0.558990  1.0  0.021
  H  H1068  1  0.330630  0.119940  0.621840  1.0  0.0501
  H  H1069  1  0.285500  0.129510  0.675620  1.0  0.0024
  H  H1070  1  0.304480  0.172940  0.727310  1.0  -0.0044
  H  H1071  1  0.369070  0.229320  0.643090  1.0  -0.0002
  H  H1072  1  0.386790  0.233260  0.717220  1.0  0.0174
  H  H1073  1  0.334920  0.240830  0.737380  1.0  0.0308
  H  H1074  1  0.790960  0.728830  0.080050  1.0  -0.0046
  H  H1075  1  0.764320  0.790950  0.060560  1.0  0.0132
  H  H1076  1  0.812390  0.838170  0.031130  1.0  0.0098
  H  H1077  1  0.882670  0.825230  0.039500  1.0  -0.0017
  H  H1078  1  0.908070  0.766310  0.058990  1.0  0.021
  H  H1079  1  0.830630  0.619940  0.121840  1.0  0.0501
  H  H1080  1  0.785500  0.629510  0.175620  1.0  0.0024
  H  H1081  1  0.804480  0.672940  0.227310  1.0  -0.0044
  H  H1082  1  0.869070  0.729320  0.143090  1.0  -0.0002
  H  H1083  1  0.886790  0.733260  0.217220  1.0  0.0174
  H  H1084  1  0.834920  0.740830  0.237380  1.0  0.0308
  H  H1085  1  0.209040  0.771170  0.080050  1.0  -0.0047
  H  H1086  1  0.235680  0.709050  0.060560  1.0  0.015
  H  H1087  1  0.187610  0.661830  0.031130  1.0  0.0097
  H  H1088  1  0.117330  0.674770  0.039500  1.0  -0.0014
  H  H1089  1  0.091930  0.733690  0.058990  1.0  0.0192
  H  H1090  1  0.169370  0.880060  0.121840  1.0  0.05
  H  H1091  1  0.214500  0.870490  0.175620  1.0  0.0013
  H  H1092  1  0.195520  0.827060  0.227310  1.0  -0.0053
  H  H1093  1  0.130930  0.770680  0.143090  1.0  -0.0002
  H  H1094  1  0.113210  0.766740  0.217220  1.0  0.0171
  H  H1095  1  0.165080  0.759170  0.237380  1.0  0.0296
  H  H1096  1  0.709040  0.271170  0.580050  1.0  -0.0047
  H  H1097  1  0.735680  0.209050  0.560560  1.0  0.015
  H  H1098  1  0.687610  0.161830  0.531130  1.0  0.0097
  H  H1099  1  0.617330  0.174770  0.539500  1.0  -0.0014
  H  H1100  1  0.591930  0.233690  0.558990  1.0  0.0192
  H  H1101  1  0.669370  0.380060  0.621840  1.0  0.05
  H  H1102  1  0.714500  0.370490  0.675620  1.0  0.0013
  H  H1103  1  0.695520  0.327060  0.727310  1.0  -0.0053
  H  H1104  1  0.630930  0.270680  0.643090  1.0  -0.0002
  H  H1105  1  0.613210  0.266740  0.717220  1.0  0.0171
  H  H1106  1  0.665080  0.259170  0.737380  1.0  0.0296
  H  H1107  1  0.709040  0.728830  0.919950  1.0  -0.0033
  H  H1108  1  0.735680  0.790950  0.939440  1.0  0.0148
  H  H1109  1  0.687610  0.838170  0.968870  1.0  0.0096
  H  H1110  1  0.617330  0.825230  0.960500  1.0  -0.001
  H  H1111  1  0.591930  0.766310  0.941010  1.0  0.0194
  H  H1112  1  0.669370  0.619940  0.878160  1.0  0.0499
  H  H1113  1  0.714500  0.629510  0.824380  1.0  0.002
  H  H1114  1  0.695520  0.672940  0.772690  1.0  -0.007
  H  H1115  1  0.630930  0.729320  0.856910  1.0  -0.0004
  H  H1116  1  0.613210  0.733260  0.782780  1.0  0.0163
  H  H1117  1  0.665080  0.740830  0.762620  1.0  0.0293
  H  H1118  1  0.209040  0.228830  0.419950  1.0  -0.0033
  H  H1119  1  0.235680  0.290950  0.439440  1.0  0.0148
  H  H1120  1  0.187610  0.338170  0.468870  1.0  0.0096
  H  H1121  1  0.117330  0.325230  0.460500  1.0  -0.001
  H  H1122  1  0.091930  0.266310  0.441010  1.0  0.0194
  H  H1123  1  0.169370  0.119940  0.378160  1.0  0.0499
  H  H1124  1  0.214500  0.129510  0.324380  1.0  0.002
  H  H1125  1  0.195520  0.172940  0.272690  1.0  -0.007
  H  H1126  1  0.130930  0.229320  0.356910  1.0  -0.0004
  H  H1127  1  0.113210  0.233260  0.282780  1.0  0.0163
  H  H1128  1  0.165080  0.240830  0.262620  1.0  0.0293
  C  C1129  1  0.639000  0.468000  0.300000  1.0  0.1431
  C  C1130  1  0.578000  0.477000  0.282000  1.0  0.15
  C  C1131  1  0.684000  0.501000  0.440000  1.0  0.1861
  C  C1132  1  0.693000  0.535000  0.454000  1.0  -0.1083
  C  C1133  1  0.706000  0.560000  0.428000  1.0  -0.1977
  C  C1134  1  0.704000  0.552000  0.389000  1.0  -0.1274
  C  C1135  1  0.695000  0.519000  0.374000  1.0  0.2018
  C  C1136  1  0.612000  0.398000  0.421000  1.0  0.1095
  C  C1137  1  0.580000  0.400000  0.440000  1.0  -0.1123
  C  C1138  1  0.552000  0.426000  0.432000  1.0  0.16
  C  C1139  1  0.561000  0.453000  0.409000  1.0  0.3336
  C  C1140  1  0.596000  0.454000  0.398000  1.0  0.1791
  C  C1141  1  0.534000  0.477000  0.395000  1.0  0.3878
  C  C1142  1  0.139000  0.968000  0.800000  1.0  0.1431
  C  C1143  1  0.078000  0.977000  0.782000  1.0  0.15
  C  C1144  1  0.184000  0.001000  0.940000  1.0  0.1861
  C  C1145  1  0.193000  0.035000  0.954000  1.0  -0.1083
  C  C1146  1  0.206000  0.060000  0.928000  1.0  -0.1977
  C  C1147  1  0.204000  0.052000  0.889000  1.0  -0.1274
  C  C1148  1  0.195000  0.019000  0.874000  1.0  0.2018
  C  C1149  1  0.112000  0.898000  0.921000  1.0  0.1095
  C  C1150  1  0.080000  0.900000  0.940000  1.0  -0.1123
  C  C1151  1  0.052000  0.926000  0.932000  1.0  0.16
  C  C1152  1  0.061000  0.953000  0.909000  1.0  0.3336
  C  C1153  1  0.096000  0.954000  0.898000  1.0  0.1791
  C  C1154  1  0.034000  0.977000  0.895000  1.0  0.3878
  C  C1155  1  0.861000  0.532000  0.800000  1.0  0.1427
  C  C1156  1  0.922000  0.523000  0.782000  1.0  0.1495
  C  C1157  1  0.816000  0.499000  0.940000  1.0  0.1871
  C  C1158  1  0.807000  0.465000  0.954000  1.0  -0.1072
  C  C1159  1  0.794000  0.440000  0.928000  1.0  -0.1947
  C  C1160  1  0.796000  0.448000  0.889000  1.0  -0.1282
  C  C1161  1  0.805000  0.481000  0.874000  1.0  0.2016
  C  C1162  1  0.888000  0.602000  0.921000  1.0  0.1094
  C  C1163  1  0.920000  0.600000  0.940000  1.0  -0.1126
  C  C1164  1  0.948000  0.574000  0.932000  1.0  0.1589
  C  C1165  1  0.939000  0.547000  0.909000  1.0  0.332
  C  C1166  1  0.904000  0.546000  0.898000  1.0  0.178
  C  C1167  1  0.966000  0.523000  0.895000  1.0  0.3879
  C  C1168  1  0.361000  0.032000  0.300000  1.0  0.1427
  C  C1169  1  0.422000  0.023000  0.282000  1.0  0.1495
  C  C1170  1  0.316000  0.999000  0.440000  1.0  0.1871
  C  C1171  1  0.307000  0.965000  0.454000  1.0  -0.1072
  C  C1172  1  0.294000  0.940000  0.428000  1.0  -0.1947
  C  C1173  1  0.296000  0.948000  0.389000  1.0  -0.1282
  C  C1174  1  0.305000  0.981000  0.374000  1.0  0.2016
  C  C1175  1  0.388000  0.102000  0.421000  1.0  0.1094
  C  C1176  1  0.420000  0.100000  0.440000  1.0  -0.1126
  C  C1177  1  0.448000  0.074000  0.432000  1.0  0.1589
  C  C1178  1  0.439000  0.047000  0.409000  1.0  0.332
  C  C1179  1  0.404000  0.046000  0.398000  1.0  0.178
  C  C1180  1  0.466000  0.023000  0.395000  1.0  0.3879
  C  C1181  1  0.361000  0.968000  0.200000  1.0  0.1441
  C  C1182  1  0.422000  0.977000  0.218000  1.0  0.1486
  C  C1183  1  0.316000  0.001000  0.060000  1.0  0.1863
  C  C1184  1  0.307000  0.035000  0.046000  1.0  -0.1064
  C  C1185  1  0.294000  0.060000  0.072000  1.0  -0.1954
  C  C1186  1  0.296000  0.052000  0.111000  1.0  -0.1239
  C  C1187  1  0.305000  0.019000  0.126000  1.0  0.202
  C  C1188  1  0.388000  0.898000  0.079000  1.0  0.1095
  C  C1189  1  0.420000  0.900000  0.060000  1.0  -0.1133
  C  C1190  1  0.448000  0.926000  0.068000  1.0  0.1586
  C  C1191  1  0.439000  0.953000  0.091000  1.0  0.332
  C  C1192  1  0.404000  0.954000  0.102000  1.0  0.1796
  C  C1193  1  0.466000  0.977000  0.105000  1.0  0.3892
  C  C1194  1  0.861000  0.468000  0.700000  1.0  0.1441
  C  C1195  1  0.922000  0.477000  0.718000  1.0  0.1486
  C  C1196  1  0.816000  0.501000  0.560000  1.0  0.1863
  C  C1197  1  0.807000  0.535000  0.546000  1.0  -0.1064
  C  C1198  1  0.794000  0.560000  0.572000  1.0  -0.1954
  C  C1199  1  0.796000  0.552000  0.611000  1.0  -0.1239
  C  C1200  1  0.805000  0.519000  0.626000  1.0  0.202
  C  C1201  1  0.888000  0.398000  0.579000  1.0  0.1095
  C  C1202  1  0.920000  0.400000  0.560000  1.0  -0.1133
  C  C1203  1  0.948000  0.426000  0.568000  1.0  0.1586
  C  C1204  1  0.939000  0.453000  0.591000  1.0  0.332
  C  C1205  1  0.904000  0.454000  0.602000  1.0  0.1796
  C  C1206  1  0.966000  0.477000  0.605000  1.0  0.3892
  C  C1207  1  0.139000  0.032000  0.700000  1.0  0.1448
  C  C1208  1  0.078000  0.023000  0.718000  1.0  0.1497
  C  C1209  1  0.184000  0.999000  0.560000  1.0  0.1861
  C  C1210  1  0.193000  0.965000  0.546000  1.0  -0.1079
  C  C1211  1  0.206000  0.940000  0.572000  1.0  -0.1962
  C  C1212  1  0.204000  0.948000  0.611000  1.0  -0.1261
  C  C1213  1  0.195000  0.981000  0.626000  1.0  0.2026
  C  C1214  1  0.112000  0.102000  0.579000  1.0  0.1097
  C  C1215  1  0.080000  0.100000  0.560000  1.0  -0.1118
  C  C1216  1  0.052000  0.074000  0.568000  1.0  0.1603
  C  C1217  1  0.061000  0.047000  0.591000  1.0  0.3328
  C  C1218  1  0.096000  0.046000  0.602000  1.0  0.1796
  C  C1219  1  0.034000  0.023000  0.605000  1.0  0.3877
  C  C1220  1  0.639000  0.532000  0.200000  1.0  0.1448
  C  C1221  1  0.578000  0.523000  0.218000  1.0  0.1497
  C  C1222  1  0.684000  0.499000  0.060000  1.0  0.1861
  C  C1223  1  0.693000  0.465000  0.046000  1.0  -0.1079
  C  C1224  1  0.706000  0.440000  0.072000  1.0  -0.1962
  C  C1225  1  0.704000  0.448000  0.111000  1.0  -0.1261
  C  C1226  1  0.695000  0.481000  0.126000  1.0  0.2026
  C  C1227  1  0.612000  0.602000  0.079000  1.0  0.1097
  C  C1228  1  0.580000  0.600000  0.060000  1.0  -0.1118
  C  C1229  1  0.552000  0.574000  0.068000  1.0  0.1603
  C  C1230  1  0.561000  0.547000  0.091000  1.0  0.3328
  C  C1231  1  0.596000  0.546000  0.102000  1.0  0.1796
  C  C1232  1  0.534000  0.523000  0.105000  1.0  0.3877
  C  C1233  1  0.300000  0.639000  0.468000  1.0  0.145
  C  C1234  1  0.282000  0.578000  0.477000  1.0  0.1511
  C  C1235  1  0.440000  0.684000  0.501000  1.0  0.1875
  C  C1236  1  0.454000  0.693000  0.535000  1.0  -0.1131
  C  C1237  1  0.428000  0.706000  0.560000  1.0  -0.1948
  C  C1238  1  0.389000  0.704000  0.552000  1.0  -0.1236
  C  C1239  1  0.374000  0.695000  0.519000  1.0  0.2014
  C  C1240  1  0.421000  0.612000  0.398000  1.0  0.1147
  C  C1241  1  0.440000  0.580000  0.400000  1.0  -0.1153
  C  C1242  1  0.432000  0.552000  0.426000  1.0  0.1626
  C  C1243  1  0.409000  0.561000  0.453000  1.0  0.3316
  C  C1244  1  0.398000  0.596000  0.454000  1.0  0.1787
  C  C1245  1  0.395000  0.534000  0.477000  1.0  0.3909
  C  C1246  1  0.800000  0.139000  0.968000  1.0  0.145
  C  C1247  1  0.782000  0.078000  0.977000  1.0  0.1511
  C  C1248  1  0.940000  0.184000  0.001000  1.0  0.1875
  C  C1249  1  0.954000  0.193000  0.035000  1.0  -0.1131
  C  C1250  1  0.928000  0.206000  0.060000  1.0  -0.1948
  C  C1251  1  0.889000  0.204000  0.052000  1.0  -0.1236
  C  C1252  1  0.874000  0.195000  0.019000  1.0  0.2014
  C  C1253  1  0.921000  0.112000  0.898000  1.0  0.1147
  C  C1254  1  0.940000  0.080000  0.900000  1.0  -0.1153
  C  C1255  1  0.932000  0.052000  0.926000  1.0  0.1626
  C  C1256  1  0.909000  0.061000  0.953000  1.0  0.3316
  C  C1257  1  0.898000  0.096000  0.954000  1.0  0.1787
  C  C1258  1  0.895000  0.034000  0.977000  1.0  0.3909
  C  C1259  1  0.800000  0.861000  0.532000  1.0  0.1458
  C  C1260  1  0.782000  0.922000  0.523000  1.0  0.1509
  C  C1261  1  0.940000  0.816000  0.499000  1.0  0.1902
  C  C1262  1  0.954000  0.807000  0.465000  1.0  -0.1137
  C  C1263  1  0.928000  0.794000  0.440000  1.0  -0.1923
  C  C1264  1  0.889000  0.796000  0.448000  1.0  -0.1246
  C  C1265  1  0.874000  0.805000  0.481000  1.0  0.2011
  C  C1266  1  0.921000  0.888000  0.602000  1.0  0.1122
  C  C1267  1  0.940000  0.920000  0.600000  1.0  -0.114
  C  C1268  1  0.932000  0.948000  0.574000  1.0  0.1612
  C  C1269  1  0.909000  0.939000  0.547000  1.0  0.3327
  C  C1270  1  0.898000  0.904000  0.546000  1.0  0.1781
  C  C1271  1  0.895000  0.966000  0.523000  1.0  0.3927
  C  C1272  1  0.300000  0.361000  0.032000  1.0  0.1458
  C  C1273  1  0.282000  0.422000  0.023000  1.0  0.1509
  C  C1274  1  0.440000  0.316000  0.999000  1.0  0.1902
  C  C1275  1  0.454000  0.307000  0.965000  1.0  -0.1137
  C  C1276  1  0.428000  0.294000  0.940000  1.0  -0.1923
  C  C1277  1  0.389000  0.296000  0.948000  1.0  -0.1246
  C  C1278  1  0.374000  0.305000  0.981000  1.0  0.2011
  C  C1279  1  0.421000  0.388000  0.102000  1.0  0.1122
  C  C1280  1  0.440000  0.420000  0.100000  1.0  -0.114
  C  C1281  1  0.432000  0.448000  0.074000  1.0  0.1612
  C  C1282  1  0.409000  0.439000  0.047000  1.0  0.3327
  C  C1283  1  0.398000  0.404000  0.046000  1.0  0.1781
  C  C1284  1  0.395000  0.466000  0.023000  1.0  0.3927
  C  C1285  1  0.200000  0.361000  0.968000  1.0  0.1443
  C  C1286  1  0.218000  0.422000  0.977000  1.0  0.1509
  C  C1287  1  0.060000  0.316000  0.001000  1.0  0.1865
  C  C1288  1  0.046000  0.307000  0.035000  1.0  -0.1127
  C  C1289  1  0.072000  0.294000  0.060000  1.0  -0.1918
  C  C1290  1  0.111000  0.296000  0.052000  1.0  -0.1215
  C  C1291  1  0.126000  0.305000  0.019000  1.0  0.2018
  C  C1292  1  0.079000  0.388000  0.898000  1.0  0.1133
  C  C1293  1  0.060000  0.420000  0.900000  1.0  -0.1168
  C  C1294  1  0.068000  0.448000  0.926000  1.0  0.1601
  C  C1295  1  0.091000  0.439000  0.953000  1.0  0.3322
  C  C1296  1  0.102000  0.404000  0.954000  1.0  0.1789
  C  C1297  1  0.105000  0.466000  0.977000  1.0  0.3907
  C  C1298  1  0.700000  0.861000  0.468000  1.0  0.1443
  C  C1299  1  0.718000  0.922000  0.477000  1.0  0.1509
  C  C1300  1  0.560000  0.816000  0.501000  1.0  0.1865
  C  C1301  1  0.546000  0.807000  0.535000  1.0  -0.1127
  C  C1302  1  0.572000  0.794000  0.560000  1.0  -0.1918
  C  C1303  1  0.611000  0.796000  0.552000  1.0  -0.1215
  C  C1304  1  0.626000  0.805000  0.519000  1.0  0.2018
  C  C1305  1  0.579000  0.888000  0.398000  1.0  0.1133
  C  C1306  1  0.560000  0.920000  0.400000  1.0  -0.1168
  C  C1307  1  0.568000  0.948000  0.426000  1.0  0.1601
  C  C1308  1  0.591000  0.939000  0.453000  1.0  0.3322
  C  C1309  1  0.602000  0.904000  0.454000  1.0  0.1789
  C  C1310  1  0.605000  0.966000  0.477000  1.0  0.3907
  C  C1311  1  0.700000  0.139000  0.032000  1.0  0.1447
  C  C1312  1  0.718000  0.078000  0.023000  1.0  0.1524
  C  C1313  1  0.560000  0.184000  0.999000  1.0  0.1894
  C  C1314  1  0.546000  0.193000  0.965000  1.0  -0.1146
  C  C1315  1  0.572000  0.206000  0.940000  1.0  -0.1922
  C  C1316  1  0.611000  0.204000  0.948000  1.0  -0.1217
  C  C1317  1  0.626000  0.195000  0.981000  1.0  0.2018
  C  C1318  1  0.579000  0.112000  0.102000  1.0  0.1108
  C  C1319  1  0.560000  0.080000  0.100000  1.0  -0.1162
  C  C1320  1  0.568000  0.052000  0.074000  1.0  0.1615
  C  C1321  1  0.591000  0.061000  0.047000  1.0  0.3324
  C  C1322  1  0.602000  0.096000  0.046000  1.0  0.1783
  C  C1323  1  0.605000  0.034000  0.023000  1.0  0.3892
  C  C1324  1  0.200000  0.639000  0.532000  1.0  0.1447
  C  C1325  1  0.218000  0.578000  0.523000  1.0  0.1524
  C  C1326  1  0.060000  0.684000  0.499000  1.0  0.1894
  C  C1327  1  0.046000  0.693000  0.465000  1.0  -0.1146
  C  C1328  1  0.072000  0.706000  0.440000  1.0  -0.1922
  C  C1329  1  0.111000  0.704000  0.448000  1.0  -0.1217
  C  C1330  1  0.126000  0.695000  0.481000  1.0  0.2018
  C  C1331  1  0.079000  0.612000  0.602000  1.0  0.1108
  C  C1332  1  0.060000  0.580000  0.600000  1.0  -0.1162
  C  C1333  1  0.068000  0.552000  0.574000  1.0  0.1615
  C  C1334  1  0.091000  0.561000  0.547000  1.0  0.3324
  C  C1335  1  0.102000  0.596000  0.546000  1.0  0.1783
  C  C1336  1  0.105000  0.534000  0.523000  1.0  0.3892
  C  C1337  1  0.468000  0.300000  0.639000  1.0  0.1449
  C  C1338  1  0.477000  0.282000  0.578000  1.0  0.1503
  C  C1339  1  0.501000  0.440000  0.684000  1.0  0.1853
  C  C1340  1  0.535000  0.454000  0.693000  1.0  -0.1125
  C  C1341  1  0.560000  0.428000  0.706000  1.0  -0.1909
  C  C1342  1  0.552000  0.389000  0.704000  1.0  -0.1226
  C  C1343  1  0.519000  0.374000  0.695000  1.0  0.2024
  C  C1344  1  0.398000  0.421000  0.612000  1.0  0.1148
  C  C1345  1  0.400000  0.440000  0.580000  1.0  -0.1164
  C  C1346  1  0.426000  0.432000  0.552000  1.0  0.1683
  C  C1347  1  0.453000  0.409000  0.561000  1.0  0.3302
  C  C1348  1  0.454000  0.398000  0.596000  1.0  0.1805
  C  C1349  1  0.477000  0.395000  0.534000  1.0  0.3965
  C  C1350  1  0.968000  0.800000  0.139000  1.0  0.1449
  C  C1351  1  0.977000  0.782000  0.078000  1.0  0.1503
  C  C1352  1  0.001000  0.940000  0.184000  1.0  0.1853
  C  C1353  1  0.035000  0.954000  0.193000  1.0  -0.1125
  C  C1354  1  0.060000  0.928000  0.206000  1.0  -0.1909
  C  C1355  1  0.052000  0.889000  0.204000  1.0  -0.1226
  C  C1356  1  0.019000  0.874000  0.195000  1.0  0.2024
  C  C1357  1  0.898000  0.921000  0.112000  1.0  0.1148
  C  C1358  1  0.900000  0.940000  0.080000  1.0  -0.1164
  C  C1359  1  0.926000  0.932000  0.052000  1.0  0.1683
  C  C1360  1  0.953000  0.909000  0.061000  1.0  0.3302
  C  C1361  1  0.954000  0.898000  0.096000  1.0  0.1805
  C  C1362  1  0.977000  0.895000  0.034000  1.0  0.3965
  C  C1363  1  0.532000  0.800000  0.861000  1.0  0.1444
  C  C1364  1  0.523000  0.782000  0.922000  1.0  0.1511
  C  C1365  1  0.499000  0.940000  0.816000  1.0  0.1863
  C  C1366  1  0.465000  0.954000  0.807000  1.0  -0.111
  C  C1367  1  0.440000  0.928000  0.794000  1.0  -0.1882
  C  C1368  1  0.448000  0.889000  0.796000  1.0  -0.1245
  C  C1369  1  0.481000  0.874000  0.805000  1.0  0.2029
  C  C1370  1  0.602000  0.921000  0.888000  1.0  0.1152
  C  C1371  1  0.600000  0.940000  0.920000  1.0  -0.1136
  C  C1372  1  0.574000  0.932000  0.948000  1.0  0.1696
  C  C1373  1  0.547000  0.909000  0.939000  1.0  0.332
  C  C1374  1  0.546000  0.898000  0.904000  1.0  0.1793
  C  C1375  1  0.523000  0.895000  0.966000  1.0  0.3948
  C  C1376  1  0.032000  0.300000  0.361000  1.0  0.1444
  C  C1377  1  0.023000  0.282000  0.422000  1.0  0.1511
  C  C1378  1  0.999000  0.440000  0.316000  1.0  0.1863
  C  C1379  1  0.965000  0.454000  0.307000  1.0  -0.111
  C  C1380  1  0.940000  0.428000  0.294000  1.0  -0.1882
  C  C1381  1  0.948000  0.389000  0.296000  1.0  -0.1245
  C  C1382  1  0.981000  0.374000  0.305000  1.0  0.2029
  C  C1383  1  0.102000  0.421000  0.388000  1.0  0.1152
  C  C1384  1  0.100000  0.440000  0.420000  1.0  -0.1136
  C  C1385  1  0.074000  0.432000  0.448000  1.0  0.1696
  C  C1386  1  0.047000  0.409000  0.439000  1.0  0.332
  C  C1387  1  0.046000  0.398000  0.404000  1.0  0.1793
  C  C1388  1  0.023000  0.395000  0.466000  1.0  0.3948
  C  C1389  1  0.968000  0.200000  0.361000  1.0  0.1439
  C  C1390  1  0.977000  0.218000  0.422000  1.0  0.1508
  C  C1391  1  0.001000  0.060000  0.316000  1.0  0.1855
  C  C1392  1  0.035000  0.046000  0.307000  1.0  -0.1123
  C  C1393  1  0.060000  0.072000  0.294000  1.0  -0.1916
  C  C1394  1  0.052000  0.111000  0.296000  1.0  -0.1245
  C  C1395  1  0.019000  0.126000  0.305000  1.0  0.2009
  C  C1396  1  0.898000  0.079000  0.388000  1.0  0.1162
  C  C1397  1  0.900000  0.060000  0.420000  1.0  -0.1165
  C  C1398  1  0.926000  0.068000  0.448000  1.0  0.1687
  C  C1399  1  0.953000  0.091000  0.439000  1.0  0.3305
  C  C1400  1  0.954000  0.102000  0.404000  1.0  0.1804
  C  C1401  1  0.977000  0.105000  0.466000  1.0  0.3963
  C  C1402  1  0.468000  0.700000  0.861000  1.0  0.1439
  C  C1403  1  0.477000  0.718000  0.922000  1.0  0.1508
  C  C1404  1  0.501000  0.560000  0.816000  1.0  0.1855
  C  C1405  1  0.535000  0.546000  0.807000  1.0  -0.1123
  C  C1406  1  0.560000  0.572000  0.794000  1.0  -0.1916
  C  C1407  1  0.552000  0.611000  0.796000  1.0  -0.1245
  C  C1408  1  0.519000  0.626000  0.805000  1.0  0.2009
  C  C1409  1  0.398000  0.579000  0.888000  1.0  0.1162
  C  C1410  1  0.400000  0.560000  0.920000  1.0  -0.1165
  C  C1411  1  0.426000  0.568000  0.948000  1.0  0.1687
  C  C1412  1  0.453000  0.591000  0.939000  1.0  0.3305
  C  C1413  1  0.454000  0.602000  0.904000  1.0  0.1804
  C  C1414  1  0.477000  0.605000  0.966000  1.0  0.3963
  C  C1415  1  0.032000  0.700000  0.139000  1.0  0.1445
  C  C1416  1  0.023000  0.718000  0.078000  1.0  0.1498
  C  C1417  1  0.999000  0.560000  0.184000  1.0  0.1865
  C  C1418  1  0.965000  0.546000  0.193000  1.0  -0.112
  C  C1419  1  0.940000  0.572000  0.206000  1.0  -0.1891
  C  C1420  1  0.948000  0.611000  0.204000  1.0  -0.1243
  C  C1421  1  0.981000  0.626000  0.195000  1.0  0.2012
  C  C1422  1  0.102000  0.579000  0.112000  1.0  0.1137
  C  C1423  1  0.100000  0.560000  0.080000  1.0  -0.1146
  C  C1424  1  0.074000  0.568000  0.052000  1.0  0.1672
  C  C1425  1  0.047000  0.591000  0.061000  1.0  0.331
  C  C1426  1  0.046000  0.602000  0.096000  1.0  0.1795
  C  C1427  1  0.023000  0.605000  0.034000  1.0  0.3974
  C  C1428  1  0.532000  0.200000  0.639000  1.0  0.1445
  C  C1429  1  0.523000  0.218000  0.578000  1.0  0.1498
  C  C1430  1  0.499000  0.060000  0.684000  1.0  0.1865
  C  C1431  1  0.465000  0.046000  0.693000  1.0  -0.112
  C  C1432  1  0.440000  0.072000  0.706000  1.0  -0.1891
  C  C1433  1  0.448000  0.111000  0.704000  1.0  -0.1243
  C  C1434  1  0.481000  0.126000  0.695000  1.0  0.2012
  C  C1435  1  0.602000  0.079000  0.612000  1.0  0.1137
  C  C1436  1  0.600000  0.060000  0.580000  1.0  -0.1146
  C  C1437  1  0.574000  0.068000  0.552000  1.0  0.1672
  C  C1438  1  0.547000  0.091000  0.561000  1.0  0.331
  C  C1439  1  0.546000  0.102000  0.596000  1.0  0.1795
  C  C1440  1  0.523000  0.105000  0.534000  1.0  0.3974
  C  C1441  1  0.218000  0.889000  0.950000  1.0  0.1454
  C  C1442  1  0.227000  0.828000  0.968000  1.0  0.1503
  C  C1443  1  0.251000  0.934000  0.810000  1.0  0.1864
  C  C1444  1  0.285000  0.943000  0.796000  1.0  -0.108
  C  C1445  1  0.310000  0.956000  0.822000  1.0  -0.1966
  C  C1446  1  0.302000  0.954000  0.861000  1.0  -0.125
  C  C1447  1  0.269000  0.945000  0.876000  1.0  0.2029
  C  C1448  1  0.148000  0.862000  0.829000  1.0  0.1104
  C  C1449  1  0.150000  0.830000  0.810000  1.0  -0.1157
  C  C1450  1  0.176000  0.802000  0.818000  1.0  0.1634
  C  C1451  1  0.203000  0.811000  0.841000  1.0  0.3305
  C  C1452  1  0.204000  0.846000  0.852000  1.0  0.1807
  C  C1453  1  0.227000  0.784000  0.855000  1.0  0.3876
  C  C1454  1  0.718000  0.389000  0.450000  1.0  0.1454
  C  C1455  1  0.727000  0.328000  0.468000  1.0  0.1503
  C  C1456  1  0.751000  0.434000  0.310000  1.0  0.1864
  C  C1457  1  0.785000  0.443000  0.296000  1.0  -0.108
  C  C1458  1  0.810000  0.456000  0.322000  1.0  -0.1966
  C  C1459  1  0.802000  0.454000  0.361000  1.0  -0.125
  C  C1460  1  0.769000  0.445000  0.376000  1.0  0.2029
  C  C1461  1  0.648000  0.362000  0.329000  1.0  0.1104
  C  C1462  1  0.650000  0.330000  0.310000  1.0  -0.1157
  C  C1463  1  0.676000  0.302000  0.318000  1.0  0.1634
  C  C1464  1  0.703000  0.311000  0.341000  1.0  0.3305
  C  C1465  1  0.704000  0.346000  0.352000  1.0  0.1807
  C  C1466  1  0.727000  0.284000  0.355000  1.0  0.3876
  C  C1467  1  0.282000  0.111000  0.450000  1.0  0.1453
  C  C1468  1  0.273000  0.172000  0.468000  1.0  0.1489
  C  C1469  1  0.249000  0.066000  0.310000  1.0  0.1865
  C  C1470  1  0.215000  0.057000  0.296000  1.0  -0.1067
  C  C1471  1  0.190000  0.044000  0.322000  1.0  -0.1924
  C  C1472  1  0.198000  0.046000  0.361000  1.0  -0.126
  C  C1473  1  0.231000  0.055000  0.376000  1.0  0.2033
  C  C1474  1  0.352000  0.138000  0.329000  1.0  0.1092
  C  C1475  1  0.350000  0.170000  0.310000  1.0  -0.1135
  C  C1476  1  0.324000  0.198000  0.318000  1.0  0.162
  C  C1477  1  0.297000  0.189000  0.341000  1.0  0.3318
  C  C1478  1  0.296000  0.154000  0.352000  1.0  0.1795
  C  C1479  1  0.273000  0.216000  0.355000  1.0  0.3894
  C  C1480  1  0.782000  0.611000  0.950000  1.0  0.1453
  C  C1481  1  0.773000  0.672000  0.968000  1.0  0.1489
  C  C1482  1  0.749000  0.566000  0.810000  1.0  0.1865
  C  C1483  1  0.715000  0.557000  0.796000  1.0  -0.1067
  C  C1484  1  0.690000  0.544000  0.822000  1.0  -0.1924
  C  C1485  1  0.698000  0.546000  0.861000  1.0  -0.126
  C  C1486  1  0.731000  0.555000  0.876000  1.0  0.2033
  C  C1487  1  0.852000  0.638000  0.829000  1.0  0.1092
  C  C1488  1  0.850000  0.670000  0.810000  1.0  -0.1135
  C  C1489  1  0.824000  0.698000  0.818000  1.0  0.162
  C  C1490  1  0.797000  0.689000  0.841000  1.0  0.3318
  C  C1491  1  0.796000  0.654000  0.852000  1.0  0.1795
  C  C1492  1  0.773000  0.716000  0.855000  1.0  0.3894
  C  C1493  1  0.718000  0.611000  0.050000  1.0  0.1436
  C  C1494  1  0.727000  0.672000  0.032000  1.0  0.1499
  C  C1495  1  0.751000  0.566000  0.190000  1.0  0.1861
  C  C1496  1  0.785000  0.557000  0.204000  1.0  -0.1073
  C  C1497  1  0.810000  0.544000  0.178000  1.0  -0.1945
  C  C1498  1  0.802000  0.546000  0.139000  1.0  -0.1277
  C  C1499  1  0.769000  0.555000  0.124000  1.0  0.2012
  C  C1500  1  0.648000  0.638000  0.171000  1.0  0.1103
  C  C1501  1  0.650000  0.670000  0.190000  1.0  -0.1165
  C  C1502  1  0.676000  0.698000  0.182000  1.0  0.1622
  C  C1503  1  0.703000  0.689000  0.159000  1.0  0.3312
  C  C1504  1  0.704000  0.654000  0.148000  1.0  0.1795
  C  C1505  1  0.727000  0.716000  0.145000  1.0  0.3896
  C  C1506  1  0.218000  0.111000  0.550000  1.0  0.1436
  C  C1507  1  0.227000  0.172000  0.532000  1.0  0.1499
  C  C1508  1  0.251000  0.066000  0.690000  1.0  0.1861
  C  C1509  1  0.285000  0.057000  0.704000  1.0  -0.1073
  C  C1510  1  0.310000  0.044000  0.678000  1.0  -0.1945
  C  C1511  1  0.302000  0.046000  0.639000  1.0  -0.1277
  C  C1512  1  0.269000  0.055000  0.624000  1.0  0.2012
  C  C1513  1  0.148000  0.138000  0.671000  1.0  0.1103
  C  C1514  1  0.150000  0.170000  0.690000  1.0  -0.1165
  C  C1515  1  0.176000  0.198000  0.682000  1.0  0.1622
  C  C1516  1  0.203000  0.189000  0.659000  1.0  0.3312
  C  C1517  1  0.204000  0.154000  0.648000  1.0  0.1795
  C  C1518  1  0.227000  0.216000  0.645000  1.0  0.3896
  C  C1519  1  0.782000  0.389000  0.550000  1.0  0.1439
  C  C1520  1  0.773000  0.328000  0.532000  1.0  0.1504
  C  C1521  1  0.749000  0.434000  0.690000  1.0  0.1868
  C  C1522  1  0.715000  0.443000  0.704000  1.0  -0.1096
  C  C1523  1  0.690000  0.456000  0.678000  1.0  -0.1954
  C  C1524  1  0.698000  0.454000  0.639000  1.0  -0.1255
  C  C1525  1  0.731000  0.445000  0.624000  1.0  0.2033
  C  C1526  1  0.852000  0.362000  0.671000  1.0  0.1096
  C  C1527  1  0.850000  0.330000  0.690000  1.0  -0.1135
  C  C1528  1  0.824000  0.302000  0.682000  1.0  0.1634
  C  C1529  1  0.797000  0.311000  0.659000  1.0  0.3318
  C  C1530  1  0.796000  0.346000  0.648000  1.0  0.1786
  C  C1531  1  0.773000  0.284000  0.645000  1.0  0.3887
  C  C1532  1  0.282000  0.889000  0.050000  1.0  0.1439
  C  C1533  1  0.273000  0.828000  0.032000  1.0  0.1504
  C  C1534  1  0.249000  0.934000  0.190000  1.0  0.1868
  C  C1535  1  0.215000  0.943000  0.204000  1.0  -0.1096
  C  C1536  1  0.190000  0.956000  0.178000  1.0  -0.1954
  C  C1537  1  0.198000  0.954000  0.139000  1.0  -0.1255
  C  C1538  1  0.231000  0.945000  0.124000  1.0  0.2033
  C  C1539  1  0.352000  0.862000  0.171000  1.0  0.1096
  C  C1540  1  0.350000  0.830000  0.190000  1.0  -0.1135
  C  C1541  1  0.324000  0.802000  0.182000  1.0  0.1634
  C  C1542  1  0.297000  0.811000  0.159000  1.0  0.3318
  C  C1543  1  0.296000  0.846000  0.148000  1.0  0.1786
  C  C1544  1  0.273000  0.784000  0.145000  1.0  0.3887
  C  C1545  1  0.389000  0.550000  0.782000  1.0  0.1449
  C  C1546  1  0.328000  0.532000  0.773000  1.0  0.1508
  C  C1547  1  0.434000  0.690000  0.749000  1.0  0.1867
  C  C1548  1  0.443000  0.704000  0.715000  1.0  -0.1121
  C  C1549  1  0.456000  0.678000  0.690000  1.0  -0.1921
  C  C1550  1  0.454000  0.639000  0.698000  1.0  -0.1264
  C  C1551  1  0.445000  0.624000  0.731000  1.0  0.2027
  C  C1552  1  0.362000  0.671000  0.852000  1.0  0.1106
  C  C1553  1  0.330000  0.690000  0.850000  1.0  -0.1127
  C  C1554  1  0.302000  0.682000  0.824000  1.0  0.1594
  C  C1555  1  0.311000  0.659000  0.797000  1.0  0.3338
  C  C1556  1  0.346000  0.648000  0.796000  1.0  0.1789
  C  C1557  1  0.284000  0.645000  0.773000  1.0  0.3873
  C  C1558  1  0.889000  0.050000  0.282000  1.0  0.1449
  C  C1559  1  0.828000  0.032000  0.273000  1.0  0.1508
  C  C1560  1  0.934000  0.190000  0.249000  1.0  0.1867
  C  C1561  1  0.943000  0.204000  0.215000  1.0  -0.1121
  C  C1562  1  0.956000  0.178000  0.190000  1.0  -0.1921
  C  C1563  1  0.954000  0.139000  0.198000  1.0  -0.1264
  C  C1564  1  0.945000  0.124000  0.231000  1.0  0.2027
  C  C1565  1  0.862000  0.171000  0.352000  1.0  0.1106
  C  C1566  1  0.830000  0.190000  0.350000  1.0  -0.1127
  C  C1567  1  0.802000  0.182000  0.324000  1.0  0.1594
  C  C1568  1  0.811000  0.159000  0.297000  1.0  0.3338
  C  C1569  1  0.846000  0.148000  0.296000  1.0  0.1789
  C  C1570  1  0.784000  0.145000  0.273000  1.0  0.3873
  C  C1571  1  0.611000  0.050000  0.718000  1.0  0.1436
  C  C1572  1  0.672000  0.032000  0.727000  1.0  0.1491
  C  C1573  1  0.566000  0.190000  0.751000  1.0  0.1863
  C  C1574  1  0.557000  0.204000  0.785000  1.0  -0.111
  C  C1575  1  0.544000  0.178000  0.810000  1.0  -0.1917
  C  C1576  1  0.546000  0.139000  0.802000  1.0  -0.1244
  C  C1577  1  0.555000  0.124000  0.769000  1.0  0.2017
  C  C1578  1  0.638000  0.171000  0.648000  1.0  0.1134
  C  C1579  1  0.670000  0.190000  0.650000  1.0  -0.1137
  C  C1580  1  0.698000  0.182000  0.676000  1.0  0.1581
  C  C1581  1  0.689000  0.159000  0.703000  1.0  0.3319
  C  C1582  1  0.654000  0.148000  0.704000  1.0  0.1796
  C  C1583  1  0.716000  0.145000  0.727000  1.0  0.3888
  C  C1584  1  0.111000  0.550000  0.218000  1.0  0.1436
  C  C1585  1  0.172000  0.532000  0.227000  1.0  0.1491
  C  C1586  1  0.066000  0.690000  0.251000  1.0  0.1863
  C  C1587  1  0.057000  0.704000  0.285000  1.0  -0.111
  C  C1588  1  0.044000  0.678000  0.310000  1.0  -0.1917
  C  C1589  1  0.046000  0.639000  0.302000  1.0  -0.1244
  C  C1590  1  0.055000  0.624000  0.269000  1.0  0.2017
  C  C1591  1  0.138000  0.671000  0.148000  1.0  0.1134
  C  C1592  1  0.170000  0.690000  0.150000  1.0  -0.1137
  C  C1593  1  0.198000  0.682000  0.176000  1.0  0.1581
  C  C1594  1  0.189000  0.659000  0.203000  1.0  0.3319
  C  C1595  1  0.154000  0.648000  0.204000  1.0  0.1796
  C  C1596  1  0.216000  0.645000  0.227000  1.0  0.3888
  C  C1597  1  0.111000  0.450000  0.282000  1.0  0.1435
  C  C1598  1  0.172000  0.468000  0.273000  1.0  0.1494
  C  C1599  1  0.066000  0.310000  0.249000  1.0  0.1891
  C  C1600  1  0.057000  0.296000  0.215000  1.0  -0.1122
  C  C1601  1  0.044000  0.322000  0.190000  1.0  -0.1903
  C  C1602  1  0.046000  0.361000  0.198000  1.0  -0.1242
  C  C1603  1  0.055000  0.376000  0.231000  1.0  0.2011
  C  C1604  1  0.138000  0.329000  0.352000  1.0  0.1104
  C  C1605  1  0.170000  0.310000  0.350000  1.0  -0.1135
  C  C1606  1  0.198000  0.318000  0.324000  1.0  0.1573
  C  C1607  1  0.189000  0.341000  0.297000  1.0  0.3327
  C  C1608  1  0.154000  0.352000  0.296000  1.0  0.1789
  C  C1609  1  0.216000  0.355000  0.273000  1.0  0.3884
  C  C1610  1  0.611000  0.950000  0.782000  1.0  0.1435
  C  C1611  1  0.672000  0.968000  0.773000  1.0  0.1494
  C  C1612  1  0.566000  0.810000  0.749000  1.0  0.1891
  C  C1613  1  0.557000  0.796000  0.715000  1.0  -0.1122
  C  C1614  1  0.544000  0.822000  0.690000  1.0  -0.1903
  C  C1615  1  0.546000  0.861000  0.698000  1.0  -0.1242
  C  C1616  1  0.555000  0.876000  0.731000  1.0  0.2011
  C  C1617  1  0.638000  0.829000  0.852000  1.0  0.1104
  C  C1618  1  0.670000  0.810000  0.850000  1.0  -0.1135
  C  C1619  1  0.698000  0.818000  0.824000  1.0  0.1573
  C  C1620  1  0.689000  0.841000  0.797000  1.0  0.3327
  C  C1621  1  0.654000  0.852000  0.796000  1.0  0.1789
  C  C1622  1  0.716000  0.855000  0.773000  1.0  0.3884
  C  C1623  1  0.889000  0.950000  0.218000  1.0  0.1437
  C  C1624  1  0.828000  0.968000  0.227000  1.0  0.1497
  C  C1625  1  0.934000  0.810000  0.251000  1.0  0.1847
  C  C1626  1  0.943000  0.796000  0.285000  1.0  -0.1112
  C  C1627  1  0.956000  0.822000  0.310000  1.0  -0.1928
  C  C1628  1  0.954000  0.861000  0.302000  1.0  -0.1243
  C  C1629  1  0.945000  0.876000  0.269000  1.0  0.2013
  C  C1630  1  0.862000  0.829000  0.148000  1.0  0.1132
  C  C1631  1  0.830000  0.810000  0.150000  1.0  -0.1138
  C  C1632  1  0.802000  0.818000  0.176000  1.0  0.1591
  C  C1633  1  0.811000  0.841000  0.203000  1.0  0.333
  C  C1634  1  0.846000  0.852000  0.204000  1.0  0.1798
  C  C1635  1  0.784000  0.855000  0.227000  1.0  0.3878
  C  C1636  1  0.389000  0.450000  0.718000  1.0  0.1437
  C  C1637  1  0.328000  0.468000  0.727000  1.0  0.1497
  C  C1638  1  0.434000  0.310000  0.751000  1.0  0.1847
  C  C1639  1  0.443000  0.296000  0.785000  1.0  -0.1112
  C  C1640  1  0.456000  0.322000  0.810000  1.0  -0.1928
  C  C1641  1  0.454000  0.361000  0.802000  1.0  -0.1243
  C  C1642  1  0.445000  0.376000  0.769000  1.0  0.2013
  C  C1643  1  0.362000  0.329000  0.648000  1.0  0.1132
  C  C1644  1  0.330000  0.310000  0.650000  1.0  -0.1138
  C  C1645  1  0.302000  0.318000  0.676000  1.0  0.1591
  C  C1646  1  0.311000  0.341000  0.703000  1.0  0.333
  C  C1647  1  0.346000  0.352000  0.704000  1.0  0.1798
  C  C1648  1  0.284000  0.355000  0.727000  1.0  0.3878
  C  C1649  1  0.050000  0.718000  0.611000  1.0  0.1445
  C  C1650  1  0.032000  0.727000  0.672000  1.0  0.1516
  C  C1651  1  0.190000  0.751000  0.566000  1.0  0.1877
  C  C1652  1  0.204000  0.785000  0.557000  1.0  -0.1139
  C  C1653  1  0.178000  0.810000  0.544000  1.0  -0.1956
  C  C1654  1  0.139000  0.802000  0.546000  1.0  -0.1228
  C  C1655  1  0.124000  0.769000  0.555000  1.0  0.1999
  C  C1656  1  0.171000  0.648000  0.638000  1.0  0.1167
  C  C1657  1  0.190000  0.650000  0.670000  1.0  -0.1141
  C  C1658  1  0.182000  0.676000  0.698000  1.0  0.1689
  C  C1659  1  0.159000  0.703000  0.689000  1.0  0.3312
  C  C1660  1  0.148000  0.704000  0.654000  1.0  0.1784
  C  C1661  1  0.145000  0.727000  0.716000  1.0  0.3962
  C  C1662  1  0.550000  0.218000  0.111000  1.0  0.1445
  C  C1663  1  0.532000  0.227000  0.172000  1.0  0.1516
  C  C1664  1  0.690000  0.251000  0.066000  1.0  0.1877
  C  C1665  1  0.704000  0.285000  0.057000  1.0  -0.1139
  C  C1666  1  0.678000  0.310000  0.044000  1.0  -0.1956
  C  C1667  1  0.639000  0.302000  0.046000  1.0  -0.1228
  C  C1668  1  0.624000  0.269000  0.055000  1.0  0.1999
  C  C1669  1  0.671000  0.148000  0.138000  1.0  0.1167
  C  C1670  1  0.690000  0.150000  0.170000  1.0  -0.1141
  C  C1671  1  0.682000  0.176000  0.198000  1.0  0.1689
  C  C1672  1  0.659000  0.203000  0.189000  1.0  0.3312
  C  C1673  1  0.648000  0.204000  0.154000  1.0  0.1784
  C  C1674  1  0.645000  0.227000  0.216000  1.0  0.3962
  C  C1675  1  0.550000  0.782000  0.389000  1.0  0.1453
  C  C1676  1  0.532000  0.773000  0.328000  1.0  0.1507
  C  C1677  1  0.690000  0.749000  0.434000  1.0  0.1883
  C  C1678  1  0.704000  0.715000  0.443000  1.0  -0.1138
  C  C1679  1  0.678000  0.690000  0.456000  1.0  -0.192
  C  C1680  1  0.639000  0.698000  0.454000  1.0  -0.1221
  C  C1681  1  0.624000  0.731000  0.445000  1.0  0.2005
  C  C1682  1  0.671000  0.852000  0.362000  1.0  0.1154
  C  C1683  1  0.690000  0.850000  0.330000  1.0  -0.1141
  C  C1684  1  0.682000  0.824000  0.302000  1.0  0.1677
  C  C1685  1  0.659000  0.797000  0.311000  1.0  0.3301
  C  C1686  1  0.648000  0.796000  0.346000  1.0  0.1784
  C  C1687  1  0.645000  0.773000  0.284000  1.0  0.3988
  C  C1688  1  0.050000  0.282000  0.889000  1.0  0.1453
  C  C1689  1  0.032000  0.273000  0.828000  1.0  0.1507
  C  C1690  1  0.190000  0.249000  0.934000  1.0  0.1883
  C  C1691  1  0.204000  0.215000  0.943000  1.0  -0.1138
  C  C1692  1  0.178000  0.190000  0.956000  1.0  -0.192
  C  C1693  1  0.139000  0.198000  0.954000  1.0  -0.1221
  C  C1694  1  0.124000  0.231000  0.945000  1.0  0.2005
  C  C1695  1  0.171000  0.352000  0.862000  1.0  0.1154
  C  C1696  1  0.190000  0.350000  0.830000  1.0  -0.1141
  C  C1697  1  0.182000  0.324000  0.802000  1.0  0.1677
  C  C1698  1  0.159000  0.297000  0.811000  1.0  0.3301
  C  C1699  1  0.148000  0.296000  0.846000  1.0  0.1784
  C  C1700  1  0.145000  0.273000  0.784000  1.0  0.3988
  C  C1701  1  0.950000  0.218000  0.889000  1.0  0.144
  C  C1702  1  0.968000  0.227000  0.828000  1.0  0.1518
  C  C1703  1  0.810000  0.251000  0.934000  1.0  0.1872
  C  C1704  1  0.796000  0.285000  0.943000  1.0  -0.1148
  C  C1705  1  0.822000  0.310000  0.956000  1.0  -0.194
  C  C1706  1  0.861000  0.302000  0.954000  1.0  -0.1188
  C  C1707  1  0.876000  0.269000  0.945000  1.0  0.2014
  C  C1708  1  0.829000  0.148000  0.862000  1.0  0.1143
  C  C1709  1  0.810000  0.150000  0.830000  1.0  -0.1165
  C  C1710  1  0.818000  0.176000  0.802000  1.0  0.1668
  C  C1711  1  0.841000  0.203000  0.811000  1.0  0.3314
  C  C1712  1  0.852000  0.204000  0.846000  1.0  0.1791
  C  C1713  1  0.855000  0.227000  0.784000  1.0  0.3983
  C  C1714  1  0.450000  0.718000  0.389000  1.0  0.144
  C  C1715  1  0.468000  0.727000  0.328000  1.0  0.1518
  C  C1716  1  0.310000  0.751000  0.434000  1.0  0.1872
  C  C1717  1  0.296000  0.785000  0.443000  1.0  -0.1148
  C  C1718  1  0.322000  0.810000  0.456000  1.0  -0.194
  C  C1719  1  0.361000  0.802000  0.454000  1.0  -0.1188
  C  C1720  1  0.376000  0.769000  0.445000  1.0  0.2014
  C  C1721  1  0.329000  0.648000  0.362000  1.0  0.1143
  C  C1722  1  0.310000  0.650000  0.330000  1.0  -0.1165
  C  C1723  1  0.318000  0.676000  0.302000  1.0  0.1668
  C  C1724  1  0.341000  0.703000  0.311000  1.0  0.3314
  C  C1725  1  0.352000  0.704000  0.346000  1.0  0.1791
  C  C1726  1  0.355000  0.727000  0.284000  1.0  0.3983
  C  C1727  1  0.450000  0.282000  0.111000  1.0  0.144
  C  C1728  1  0.468000  0.273000  0.172000  1.0  0.1526
  C  C1729  1  0.310000  0.249000  0.066000  1.0  0.1873
  C  C1730  1  0.296000  0.215000  0.057000  1.0  -0.1138
  C  C1731  1  0.322000  0.190000  0.044000  1.0  -0.191
  C  C1732  1  0.361000  0.198000  0.046000  1.0  -0.1232
  C  C1733  1  0.376000  0.231000  0.055000  1.0  0.2016
  C  C1734  1  0.329000  0.352000  0.138000  1.0  0.1157
  C  C1735  1  0.310000  0.350000  0.170000  1.0  -0.1164
  C  C1736  1  0.318000  0.324000  0.198000  1.0  0.168
  C  C1737  1  0.341000  0.297000  0.189000  1.0  0.3318
  C  C1738  1  0.352000  0.296000  0.154000  1.0  0.1785
  C  C1739  1  0.355000  0.273000  0.216000  1.0  0.3971
  C  C1740  1  0.950000  0.782000  0.611000  1.0  0.144
  C  C1741  1  0.968000  0.773000  0.672000  1.0  0.1526
  C  C1742  1  0.810000  0.749000  0.566000  1.0  0.1873
  C  C1743  1  0.796000  0.715000  0.557000  1.0  -0.1138
  C  C1744  1  0.822000  0.690000  0.544000  1.0  -0.191
  C  C1745  1  0.861000  0.698000  0.546000  1.0  -0.1232
  C  C1746  1  0.876000  0.731000  0.555000  1.0  0.2016
  C  C1747  1  0.829000  0.852000  0.638000  1.0  0.1157
  C  C1748  1  0.810000  0.850000  0.670000  1.0  -0.1164
  C  C1749  1  0.818000  0.824000  0.698000  1.0  0.168
  C  C1750  1  0.841000  0.797000  0.689000  1.0  0.3318
  C  C1751  1  0.852000  0.796000  0.654000  1.0  0.1785
  C  C1752  1  0.855000  0.773000  0.716000  1.0  0.3971
  C  C1753  1  0.361000  0.532000  0.700000  1.0  0.1443
  C  C1754  1  0.422000  0.523000  0.718000  1.0  0.1487
  C  C1755  1  0.316000  0.499000  0.560000  1.0  0.1872
  C  C1756  1  0.307000  0.465000  0.546000  1.0  -0.1066
  C  C1757  1  0.294000  0.440000  0.572000  1.0  -0.1946
  C  C1758  1  0.296000  0.448000  0.611000  1.0  -0.1257
  C  C1759  1  0.305000  0.481000  0.626000  1.0  0.2022
  C  C1760  1  0.388000  0.602000  0.579000  1.0  0.1094
  C  C1761  1  0.420000  0.600000  0.560000  1.0  -0.1127
  C  C1762  1  0.448000  0.574000  0.568000  1.0  0.1587
  C  C1763  1  0.439000  0.547000  0.591000  1.0  0.3317
  C  C1764  1  0.404000  0.546000  0.602000  1.0  0.1791
  C  C1765  1  0.466000  0.523000  0.605000  1.0  0.388
  C  C1766  1  0.861000  0.032000  0.200000  1.0  0.1443
  C  C1767  1  0.922000  0.023000  0.218000  1.0  0.1487
  C  C1768  1  0.816000  0.999000  0.060000  1.0  0.1872
  C  C1769  1  0.807000  0.965000  0.046000  1.0  -0.1066
  C  C1770  1  0.794000  0.940000  0.072000  1.0  -0.1946
  C  C1771  1  0.796000  0.948000  0.111000  1.0  -0.1257
  C  C1772  1  0.805000  0.981000  0.126000  1.0  0.2022
  C  C1773  1  0.888000  0.102000  0.079000  1.0  0.1094
  C  C1774  1  0.920000  0.100000  0.060000  1.0  -0.1127
  C  C1775  1  0.948000  0.074000  0.068000  1.0  0.1587
  C  C1776  1  0.939000  0.047000  0.091000  1.0  0.3317
  C  C1777  1  0.904000  0.046000  0.102000  1.0  0.1791
  C  C1778  1  0.966000  0.023000  0.105000  1.0  0.388
  C  C1779  1  0.139000  0.468000  0.200000  1.0  0.1445
  C  C1780  1  0.078000  0.477000  0.218000  1.0  0.1507
  C  C1781  1  0.184000  0.501000  0.060000  1.0  0.1853
  C  C1782  1  0.193000  0.535000  0.046000  1.0  -0.1082
  C  C1783  1  0.206000  0.560000  0.072000  1.0  -0.1973
  C  C1784  1  0.204000  0.552000  0.111000  1.0  -0.1258
  C  C1785  1  0.195000  0.519000  0.126000  1.0  0.2022
  C  C1786  1  0.112000  0.398000  0.079000  1.0  0.1094
  C  C1787  1  0.080000  0.400000  0.060000  1.0  -0.1125
  C  C1788  1  0.052000  0.426000  0.068000  1.0  0.1601
  C  C1789  1  0.061000  0.453000  0.091000  1.0  0.333
  C  C1790  1  0.096000  0.454000  0.102000  1.0  0.18
  C  C1791  1  0.034000  0.477000  0.105000  1.0  0.388
  C  C1792  1  0.639000  0.968000  0.700000  1.0  0.1445
  C  C1793  1  0.578000  0.977000  0.718000  1.0  0.1507
  C  C1794  1  0.684000  0.001000  0.560000  1.0  0.1853
  C  C1795  1  0.693000  0.035000  0.546000  1.0  -0.1082
  C  C1796  1  0.706000  0.060000  0.572000  1.0  -0.1973
  C  C1797  1  0.704000  0.052000  0.611000  1.0  -0.1258
  C  C1798  1  0.695000  0.019000  0.626000  1.0  0.2022
  C  C1799  1  0.612000  0.898000  0.579000  1.0  0.1094
  C  C1800  1  0.580000  0.900000  0.560000  1.0  -0.1125
  C  C1801  1  0.552000  0.926000  0.568000  1.0  0.1601
  C  C1802  1  0.561000  0.953000  0.591000  1.0  0.333
  C  C1803  1  0.596000  0.954000  0.602000  1.0  0.18
  C  C1804  1  0.534000  0.977000  0.605000  1.0  0.388
  C  C1805  1  0.639000  0.032000  0.800000  1.0  0.1434
  C  C1806  1  0.578000  0.023000  0.782000  1.0  0.1504
  C  C1807  1  0.684000  0.999000  0.940000  1.0  0.1861
  C  C1808  1  0.693000  0.965000  0.954000  1.0  -0.1073
  C  C1809  1  0.706000  0.940000  0.928000  1.0  -0.1958
  C  C1810  1  0.704000  0.948000  0.889000  1.0  -0.1289
  C  C1811  1  0.695000  0.981000  0.874000  1.0  0.2022
  C  C1812  1  0.612000  0.102000  0.921000  1.0  0.1099
  C  C1813  1  0.580000  0.100000  0.940000  1.0  -0.1121
  C  C1814  1  0.552000  0.074000  0.932000  1.0  0.1603
  C  C1815  1  0.561000  0.047000  0.909000  1.0  0.3332
  C  C1816  1  0.596000  0.046000  0.898000  1.0  0.1785
  C  C1817  1  0.534000  0.023000  0.895000  1.0  0.3875
  C  C1818  1  0.139000  0.532000  0.300000  1.0  0.1434
  C  C1819  1  0.078000  0.523000  0.282000  1.0  0.1504
  C  C1820  1  0.184000  0.499000  0.440000  1.0  0.1861
  C  C1821  1  0.193000  0.465000  0.454000  1.0  -0.1073
  C  C1822  1  0.206000  0.440000  0.428000  1.0  -0.1958
  C  C1823  1  0.204000  0.448000  0.389000  1.0  -0.1289
  C  C1824  1  0.195000  0.481000  0.374000  1.0  0.2022
  C  C1825  1  0.112000  0.602000  0.421000  1.0  0.1099
  C  C1826  1  0.080000  0.600000  0.440000  1.0  -0.1121
  C  C1827  1  0.052000  0.574000  0.432000  1.0  0.1603
  C  C1828  1  0.061000  0.547000  0.409000  1.0  0.3332
  C  C1829  1  0.096000  0.546000  0.398000  1.0  0.1785
  C  C1830  1  0.034000  0.523000  0.395000  1.0  0.3875
  C  C1831  1  0.861000  0.968000  0.300000  1.0  0.1424
  C  C1832  1  0.922000  0.977000  0.282000  1.0  0.1493
  C  C1833  1  0.816000  0.001000  0.440000  1.0  0.1871
  C  C1834  1  0.807000  0.035000  0.454000  1.0  -0.1086
  C  C1835  1  0.794000  0.060000  0.428000  1.0  -0.1969
  C  C1836  1  0.796000  0.052000  0.389000  1.0  -0.125
  C  C1837  1  0.805000  0.019000  0.374000  1.0  0.2011
  C  C1838  1  0.888000  0.898000  0.421000  1.0  0.1093
  C  C1839  1  0.920000  0.900000  0.440000  1.0  -0.1126
  C  C1840  1  0.948000  0.926000  0.432000  1.0  0.1588
  C  C1841  1  0.939000  0.953000  0.409000  1.0  0.3324
  C  C1842  1  0.904000  0.954000  0.398000  1.0  0.1787
  C  C1843  1  0.966000  0.977000  0.395000  1.0  0.3889
  C  C1844  1  0.361000  0.468000  0.800000  1.0  0.1424
  C  C1845  1  0.422000  0.477000  0.782000  1.0  0.1493
  C  C1846  1  0.316000  0.501000  0.940000  1.0  0.1871
  C  C1847  1  0.307000  0.535000  0.954000  1.0  -0.1086
  C  C1848  1  0.294000  0.560000  0.928000  1.0  -0.1969
  C  C1849  1  0.296000  0.552000  0.889000  1.0  -0.125
  C  C1850  1  0.305000  0.519000  0.874000  1.0  0.2011
  C  C1851  1  0.388000  0.398000  0.921000  1.0  0.1093
  C  C1852  1  0.420000  0.400000  0.940000  1.0  -0.1126
  C  C1853  1  0.448000  0.426000  0.932000  1.0  0.1588
  C  C1854  1  0.439000  0.453000  0.909000  1.0  0.3324
  C  C1855  1  0.404000  0.454000  0.898000  1.0  0.1787
  C  C1856  1  0.466000  0.477000  0.895000  1.0  0.3889
  C  C1857  1  0.700000  0.361000  0.532000  1.0  0.1447
  C  C1858  1  0.718000  0.422000  0.523000  1.0  0.1528
  C  C1859  1  0.560000  0.316000  0.499000  1.0  0.1896
  C  C1860  1  0.546000  0.307000  0.465000  1.0  -0.1138
  C  C1861  1  0.572000  0.294000  0.440000  1.0  -0.1902
  C  C1862  1  0.611000  0.296000  0.448000  1.0  -0.1229
  C  C1863  1  0.626000  0.305000  0.481000  1.0  0.2012
  C  C1864  1  0.579000  0.388000  0.602000  1.0  0.1108
  C  C1865  1  0.560000  0.420000  0.600000  1.0  -0.1168
  C  C1866  1  0.568000  0.448000  0.574000  1.0  0.1599
  C  C1867  1  0.591000  0.439000  0.547000  1.0  0.3327
  C  C1868  1  0.602000  0.404000  0.546000  1.0  0.1783
  C  C1869  1  0.605000  0.466000  0.523000  1.0  0.3913
  C  C1870  1  0.200000  0.861000  0.032000  1.0  0.1447
  C  C1871  1  0.218000  0.922000  0.023000  1.0  0.1528
  C  C1872  1  0.060000  0.816000  0.999000  1.0  0.1896
  C  C1873  1  0.046000  0.807000  0.965000  1.0  -0.1138
  C  C1874  1  0.072000  0.794000  0.940000  1.0  -0.1902
  C  C1875  1  0.111000  0.796000  0.948000  1.0  -0.1229
  C  C1876  1  0.126000  0.805000  0.981000  1.0  0.2012
  C  C1877  1  0.079000  0.888000  0.102000  1.0  0.1108
  C  C1878  1  0.060000  0.920000  0.100000  1.0  -0.1168
  C  C1879  1  0.068000  0.948000  0.074000  1.0  0.1599
  C  C1880  1  0.091000  0.939000  0.047000  1.0  0.3327
  C  C1881  1  0.102000  0.904000  0.046000  1.0  0.1783
  C  C1882  1  0.105000  0.966000  0.023000  1.0  0.3913
  C  C1883  1  0.200000  0.139000  0.468000  1.0  0.1442
  C  C1884  1  0.218000  0.078000  0.477000  1.0  0.1518
  C  C1885  1  0.060000  0.184000  0.501000  1.0  0.1869
  C  C1886  1  0.046000  0.193000  0.535000  1.0  -0.1142
  C  C1887  1  0.072000  0.206000  0.560000  1.0  -0.194
  C  C1888  1  0.111000  0.204000  0.552000  1.0  -0.1211
  C  C1889  1  0.126000  0.195000  0.519000  1.0  0.2023
  C  C1890  1  0.079000  0.112000  0.398000  1.0  0.1133
  C  C1891  1  0.060000  0.080000  0.400000  1.0  -0.1172
  C  C1892  1  0.068000  0.052000  0.426000  1.0  0.1616
  C  C1893  1  0.091000  0.061000  0.453000  1.0  0.3316
  C  C1894  1  0.102000  0.096000  0.454000  1.0  0.1789
  C  C1895  1  0.105000  0.034000  0.477000  1.0  0.3905
  C  C1896  1  0.700000  0.639000  0.968000  1.0  0.1442
  C  C1897  1  0.718000  0.578000  0.977000  1.0  0.1518
  C  C1898  1  0.560000  0.684000  0.001000  1.0  0.1869
  C  C1899  1  0.546000  0.693000  0.035000  1.0  -0.1142
  C  C1900  1  0.572000  0.706000  0.060000  1.0  -0.194
  C  C1901  1  0.611000  0.704000  0.052000  1.0  -0.1211
  C  C1902  1  0.626000  0.695000  0.019000  1.0  0.2023
  C  C1903  1  0.579000  0.612000  0.898000  1.0  0.1133
  C  C1904  1  0.560000  0.580000  0.900000  1.0  -0.1172
  C  C1905  1  0.568000  0.552000  0.926000  1.0  0.1616
  C  C1906  1  0.591000  0.561000  0.953000  1.0  0.3316
  C  C1907  1  0.602000  0.596000  0.954000  1.0  0.1789
  C  C1908  1  0.605000  0.534000  0.977000  1.0  0.3905
  C  C1909  1  0.800000  0.639000  0.032000  1.0  0.1457
  C  C1910  1  0.782000  0.578000  0.023000  1.0  0.1516
  C  C1911  1  0.940000  0.684000  0.999000  1.0  0.1903
  C  C1912  1  0.954000  0.693000  0.965000  1.0  -0.114
  C  C1913  1  0.928000  0.706000  0.940000  1.0  -0.1944
  C  C1914  1  0.889000  0.704000  0.948000  1.0  -0.1238
  C  C1915  1  0.874000  0.695000  0.981000  1.0  0.2017
  C  C1916  1  0.921000  0.612000  0.102000  1.0  0.1123
  C  C1917  1  0.940000  0.580000  0.100000  1.0  -0.1138
  C  C1918  1  0.932000  0.552000  0.074000  1.0  0.1624
  C  C1919  1  0.909000  0.561000  0.047000  1.0  0.3323
  C  C1920  1  0.898000  0.596000  0.046000  1.0  0.1781
  C  C1921  1  0.895000  0.534000  0.023000  1.0  0.3897
  C  C1922  1  0.300000  0.139000  0.532000  1.0  0.1457
  C  C1923  1  0.282000  0.078000  0.523000  1.0  0.1516
  C  C1924  1  0.440000  0.184000  0.499000  1.0  0.1903
  C  C1925  1  0.454000  0.193000  0.465000  1.0  -0.114
  C  C1926  1  0.428000  0.206000  0.440000  1.0  -0.1944
  C  C1927  1  0.389000  0.204000  0.448000  1.0  -0.1238
  C  C1928  1  0.374000  0.195000  0.481000  1.0  0.2017
  C  C1929  1  0.421000  0.112000  0.602000  1.0  0.1123
  C  C1930  1  0.440000  0.080000  0.600000  1.0  -0.1138
  C  C1931  1  0.432000  0.052000  0.574000  1.0  0.1624
  C  C1932  1  0.409000  0.061000  0.547000  1.0  0.3323
  C  C1933  1  0.398000  0.096000  0.546000  1.0  0.1781
  C  C1934  1  0.395000  0.034000  0.523000  1.0  0.3897
  C  C1935  1  0.300000  0.861000  0.968000  1.0  0.1451
  C  C1936  1  0.282000  0.922000  0.977000  1.0  0.1505
  C  C1937  1  0.440000  0.816000  0.001000  1.0  0.1866
  C  C1938  1  0.454000  0.807000  0.035000  1.0  -0.1124
  C  C1939  1  0.428000  0.794000  0.060000  1.0  -0.1929
  C  C1940  1  0.389000  0.796000  0.052000  1.0  -0.1236
  C  C1941  1  0.374000  0.805000  0.019000  1.0  0.201
  C  C1942  1  0.421000  0.888000  0.898000  1.0  0.1146
  C  C1943  1  0.440000  0.920000  0.900000  1.0  -0.1147
  C  C1944  1  0.432000  0.948000  0.926000  1.0  0.1614
  C  C1945  1  0.409000  0.939000  0.953000  1.0  0.332
  C  C1946  1  0.398000  0.904000  0.954000  1.0  0.1788
  C  C1947  1  0.395000  0.966000  0.977000  1.0  0.3919
  C  C1948  1  0.800000  0.361000  0.468000  1.0  0.1451
  C  C1949  1  0.782000  0.422000  0.477000  1.0  0.1505
  C  C1950  1  0.940000  0.316000  0.501000  1.0  0.1866
  C  C1951  1  0.954000  0.307000  0.535000  1.0  -0.1124
  C  C1952  1  0.928000  0.294000  0.560000  1.0  -0.1929
  C  C1953  1  0.889000  0.296000  0.552000  1.0  -0.1236
  C  C1954  1  0.874000  0.305000  0.519000  1.0  0.201
  C  C1955  1  0.921000  0.388000  0.398000  1.0  0.1146
  C  C1956  1  0.940000  0.420000  0.400000  1.0  -0.1147
  C  C1957  1  0.932000  0.448000  0.426000  1.0  0.1614
  C  C1958  1  0.909000  0.439000  0.453000  1.0  0.332
  C  C1959  1  0.898000  0.404000  0.454000  1.0  0.1788
  C  C1960  1  0.895000  0.466000  0.477000  1.0  0.3919
  C  C1961  1  0.532000  0.700000  0.361000  1.0  0.1441
  C  C1962  1  0.523000  0.718000  0.422000  1.0  0.1503
  C  C1963  1  0.499000  0.560000  0.316000  1.0  0.1866
  C  C1964  1  0.465000  0.546000  0.307000  1.0  -0.1121
  C  C1965  1  0.440000  0.572000  0.294000  1.0  -0.1885
  C  C1966  1  0.448000  0.611000  0.296000  1.0  -0.1239
  C  C1967  1  0.481000  0.626000  0.305000  1.0  0.2021
  C  C1968  1  0.602000  0.579000  0.388000  1.0  0.1151
  C  C1969  1  0.600000  0.560000  0.420000  1.0  -0.1141
  C  C1970  1  0.574000  0.568000  0.448000  1.0  0.1692
  C  C1971  1  0.547000  0.591000  0.439000  1.0  0.3319
  C  C1972  1  0.546000  0.602000  0.404000  1.0  0.1791
  C  C1973  1  0.523000  0.605000  0.466000  1.0  0.3949
  C  C1974  1  0.032000  0.200000  0.861000  1.0  0.1441
  C  C1975  1  0.023000  0.218000  0.922000  1.0  0.1503
  C  C1976  1  0.999000  0.060000  0.816000  1.0  0.1866
  C  C1977  1  0.965000  0.046000  0.807000  1.0  -0.1121
  C  C1978  1  0.940000  0.072000  0.794000  1.0  -0.1885
  C  C1979  1  0.948000  0.111000  0.796000  1.0  -0.1239
  C  C1980  1  0.981000  0.126000  0.805000  1.0  0.2021
  C  C1981  1  0.102000  0.079000  0.888000  1.0  0.1151
  C  C1982  1  0.100000  0.060000  0.920000  1.0  -0.1141
  C  C1983  1  0.074000  0.068000  0.948000  1.0  0.1692
  C  C1984  1  0.047000  0.091000  0.939000  1.0  0.3319
  C  C1985  1  0.046000  0.102000  0.904000  1.0  0.1791
  C  C1986  1  0.023000  0.105000  0.966000  1.0  0.3949
  C  C1987  1  0.468000  0.200000  0.139000  1.0  0.1442
  C  C1988  1  0.477000  0.218000  0.078000  1.0  0.1517
  C  C1989  1  0.501000  0.060000  0.184000  1.0  0.1856
  C  C1990  1  0.535000  0.046000  0.193000  1.0  -0.1121
  C  C1991  1  0.560000  0.072000  0.206000  1.0  -0.1902
  C  C1992  1  0.552000  0.111000  0.204000  1.0  -0.1219
  C  C1993  1  0.519000  0.126000  0.195000  1.0  0.2008
  C  C1994  1  0.398000  0.079000  0.112000  1.0  0.1147
  C  C1995  1  0.400000  0.060000  0.080000  1.0  -0.1168
  C  C1996  1  0.426000  0.068000  0.052000  1.0  0.1675
  C  C1997  1  0.453000  0.091000  0.061000  1.0  0.3302
  C  C1998  1  0.454000  0.102000  0.096000  1.0  0.1804
  C  C1999  1  0.477000  0.105000  0.034000  1.0  0.3962
  C  C2000  1  0.968000  0.700000  0.639000  1.0  0.1442
  C  C2001  1  0.977000  0.718000  0.578000  1.0  0.1517
  C  C2002  1  0.001000  0.560000  0.684000  1.0  0.1856
  C  C2003  1  0.035000  0.546000  0.693000  1.0  -0.1121
  C  C2004  1  0.060000  0.572000  0.706000  1.0  -0.1902
  C  C2005  1  0.052000  0.611000  0.704000  1.0  -0.1219
  C  C2006  1  0.019000  0.626000  0.695000  1.0  0.2008
  C  C2007  1  0.898000  0.579000  0.612000  1.0  0.1147
  C  C2008  1  0.900000  0.560000  0.580000  1.0  -0.1168
  C  C2009  1  0.926000  0.568000  0.552000  1.0  0.1675
  C  C2010  1  0.953000  0.591000  0.561000  1.0  0.3302
  C  C2011  1  0.954000  0.602000  0.596000  1.0  0.1804
  C  C2012  1  0.977000  0.605000  0.534000  1.0  0.3962
  C  C2013  1  0.032000  0.800000  0.639000  1.0  0.1448
  C  C2014  1  0.023000  0.782000  0.578000  1.0  0.1498
  C  C2015  1  0.999000  0.940000  0.684000  1.0  0.1862
  C  C2016  1  0.965000  0.954000  0.693000  1.0  -0.1121
  C  C2017  1  0.940000  0.928000  0.706000  1.0  -0.1903
  C  C2018  1  0.948000  0.889000  0.704000  1.0  -0.1243
  C  C2019  1  0.981000  0.874000  0.695000  1.0  0.2028
  C  C2020  1  0.102000  0.921000  0.612000  1.0  0.1138
  C  C2021  1  0.100000  0.940000  0.580000  1.0  -0.114
  C  C2022  1  0.074000  0.932000  0.552000  1.0  0.1679
  C  C2023  1  0.047000  0.909000  0.561000  1.0  0.331
  C  C2024  1  0.046000  0.898000  0.596000  1.0  0.1798
  C  C2025  1  0.023000  0.895000  0.534000  1.0  0.3981
  C  C2026  1  0.532000  0.300000  0.139000  1.0  0.1448
  C  C2027  1  0.523000  0.282000  0.078000  1.0  0.1498
  C  C2028  1  0.499000  0.440000  0.184000  1.0  0.1862
  C  C2029  1  0.465000  0.454000  0.193000  1.0  -0.1121
  C  C2030  1  0.440000  0.428000  0.206000  1.0  -0.1903
  C  C2031  1  0.448000  0.389000  0.204000  1.0  -0.1243
  C  C2032  1  0.481000  0.374000  0.195000  1.0  0.2028
  C  C2033  1  0.602000  0.421000  0.112000  1.0  0.1138
  C  C2034  1  0.600000  0.440000  0.080000  1.0  -0.114
  C  C2035  1  0.574000  0.432000  0.052000  1.0  0.1679
  C  C2036  1  0.547000  0.409000  0.061000  1.0  0.331
  C  C2037  1  0.546000  0.398000  0.096000  1.0  0.1798
  C  C2038  1  0.523000  0.395000  0.034000  1.0  0.3981
  C  C2039  1  0.968000  0.300000  0.861000  1.0  0.1446
  C  C2040  1  0.977000  0.282000  0.922000  1.0  0.1517
  C  C2041  1  0.001000  0.440000  0.816000  1.0  0.1852
  C  C2042  1  0.035000  0.454000  0.807000  1.0  -0.1114
  C  C2043  1  0.060000  0.428000  0.794000  1.0  -0.1916
  C  C2044  1  0.052000  0.389000  0.796000  1.0  -0.1252
  C  C2045  1  0.019000  0.374000  0.805000  1.0  0.2016
  C  C2046  1  0.898000  0.421000  0.888000  1.0  0.1163
  C  C2047  1  0.900000  0.440000  0.920000  1.0  -0.1164
  C  C2048  1  0.926000  0.432000  0.948000  1.0  0.1688
  C  C2049  1  0.953000  0.409000  0.939000  1.0  0.3306
  C  C2050  1  0.954000  0.398000  0.904000  1.0  0.1802
  C  C2051  1  0.977000  0.395000  0.966000  1.0  0.3953
  C  C2052  1  0.468000  0.800000  0.361000  1.0  0.1446
  C  C2053  1  0.477000  0.782000  0.422000  1.0  0.1517
  C  C2054  1  0.501000  0.940000  0.316000  1.0  0.1852
  C  C2055  1  0.535000  0.954000  0.307000  1.0  -0.1114
  C  C2056  1  0.560000  0.928000  0.294000  1.0  -0.1916
  C  C2057  1  0.552000  0.889000  0.296000  1.0  -0.1252
  C  C2058  1  0.519000  0.874000  0.305000  1.0  0.2016
  C  C2059  1  0.398000  0.921000  0.388000  1.0  0.1163
  C  C2060  1  0.400000  0.940000  0.420000  1.0  -0.1164
  C  C2061  1  0.426000  0.932000  0.448000  1.0  0.1688
  C  C2062  1  0.453000  0.909000  0.439000  1.0  0.3306
  C  C2063  1  0.454000  0.898000  0.404000  1.0  0.1802
  C  C2064  1  0.477000  0.895000  0.466000  1.0  0.3953
  C  C2065  1  0.782000  0.111000  0.050000  1.0  0.1438
  C  C2066  1  0.773000  0.172000  0.032000  1.0  0.1495
  C  C2067  1  0.749000  0.066000  0.190000  1.0  0.1872
  C  C2068  1  0.715000  0.057000  0.204000  1.0  -0.1078
  C  C2069  1  0.690000  0.044000  0.178000  1.0  -0.1933
  C  C2070  1  0.698000  0.046000  0.139000  1.0  -0.1283
  C  C2071  1  0.731000  0.055000  0.124000  1.0  0.2024
  C  C2072  1  0.852000  0.138000  0.171000  1.0  0.1092
  C  C2073  1  0.850000  0.170000  0.190000  1.0  -0.1134
  C  C2074  1  0.824000  0.198000  0.182000  1.0  0.1617
  C  C2075  1  0.797000  0.189000  0.159000  1.0  0.3323
  C  C2076  1  0.796000  0.154000  0.148000  1.0  0.1786
  C  C2077  1  0.773000  0.216000  0.145000  1.0  0.3899
  C  C2078  1  0.282000  0.611000  0.550000  1.0  0.1438
  C  C2079  1  0.273000  0.672000  0.532000  1.0  0.1495
  C  C2080  1  0.249000  0.566000  0.690000  1.0  0.1872
  C  C2081  1  0.215000  0.557000  0.704000  1.0  -0.1078
  C  C2082  1  0.190000  0.544000  0.678000  1.0  -0.1933
  C  C2083  1  0.198000  0.546000  0.639000  1.0  -0.1283
  C  C2084  1  0.231000  0.555000  0.624000  1.0  0.2024
  C  C2085  1  0.352000  0.638000  0.671000  1.0  0.1092
  C  C2086  1  0.350000  0.670000  0.690000  1.0  -0.1134
  C  C2087  1  0.324000  0.698000  0.682000  1.0  0.1617
  C  C2088  1  0.297000  0.689000  0.659000  1.0  0.3323
  C  C2089  1  0.296000  0.654000  0.648000  1.0  0.1786
  C  C2090  1  0.273000  0.716000  0.645000  1.0  0.3899
  C  C2091  1  0.718000  0.889000  0.550000  1.0  0.1436
  C  C2092  1  0.727000  0.828000  0.532000  1.0  0.1522
  C  C2093  1  0.751000  0.934000  0.690000  1.0  0.1858
  C  C2094  1  0.785000  0.943000  0.704000  1.0  -0.1085
  C  C2095  1  0.810000  0.956000  0.678000  1.0  -0.1974
  C  C2096  1  0.802000  0.954000  0.639000  1.0  -0.1265
  C  C2097  1  0.769000  0.945000  0.624000  1.0  0.2024
  C  C2098  1  0.648000  0.862000  0.671000  1.0  0.1106
  C  C2099  1  0.650000  0.830000  0.690000  1.0  -0.1158
  C  C2100  1  0.676000  0.802000  0.682000  1.0  0.1634
  C  C2101  1  0.703000  0.811000  0.659000  1.0  0.3309
  C  C2102  1  0.704000  0.846000  0.648000  1.0  0.1796
  C  C2103  1  0.727000  0.784000  0.645000  1.0  0.3875
  C  C2104  1  0.218000  0.389000  0.050000  1.0  0.1436
  C  C2105  1  0.227000  0.328000  0.032000  1.0  0.1522
  C  C2106  1  0.251000  0.434000  0.190000  1.0  0.1858
  C  C2107  1  0.285000  0.443000  0.204000  1.0  -0.1085
  C  C2108  1  0.310000  0.456000  0.178000  1.0  -0.1974
  C  C2109  1  0.302000  0.454000  0.139000  1.0  -0.1265
  C  C2110  1  0.269000  0.445000  0.124000  1.0  0.2024
  C  C2111  1  0.148000  0.362000  0.171000  1.0  0.1106
  C  C2112  1  0.150000  0.330000  0.190000  1.0  -0.1158
  C  C2113  1  0.176000  0.302000  0.182000  1.0  0.1634
  C  C2114  1  0.203000  0.311000  0.159000  1.0  0.3309
  C  C2115  1  0.204000  0.346000  0.148000  1.0  0.1796
  C  C2116  1  0.227000  0.284000  0.145000  1.0  0.3875
  C  C2117  1  0.282000  0.389000  0.950000  1.0  0.1453
  C  C2118  1  0.273000  0.328000  0.968000  1.0  0.1496
  C  C2119  1  0.249000  0.434000  0.810000  1.0  0.1872
  C  C2120  1  0.215000  0.443000  0.796000  1.0  -0.107
  C  C2121  1  0.190000  0.456000  0.822000  1.0  -0.1934
  C  C2122  1  0.198000  0.454000  0.861000  1.0  -0.1244
  C  C2123  1  0.231000  0.445000  0.876000  1.0  0.2038
  C  C2124  1  0.352000  0.362000  0.829000  1.0  0.1096
  C  C2125  1  0.350000  0.330000  0.810000  1.0  -0.1138
  C  C2126  1  0.324000  0.302000  0.818000  1.0  0.1639
  C  C2127  1  0.297000  0.311000  0.841000  1.0  0.3314
  C  C2128  1  0.296000  0.346000  0.852000  1.0  0.1796
  C  C2129  1  0.273000  0.284000  0.855000  1.0  0.3886
  C  C2130  1  0.782000  0.889000  0.450000  1.0  0.1453
  C  C2131  1  0.773000  0.828000  0.468000  1.0  0.1496
  C  C2132  1  0.749000  0.934000  0.310000  1.0  0.1872
  C  C2133  1  0.715000  0.943000  0.296000  1.0  -0.107
  C  C2134  1  0.690000  0.956000  0.322000  1.0  -0.1934
  C  C2135  1  0.698000  0.954000  0.361000  1.0  -0.1244
  C  C2136  1  0.731000  0.945000  0.376000  1.0  0.2038
  C  C2137  1  0.852000  0.862000  0.329000  1.0  0.1096
  C  C2138  1  0.850000  0.830000  0.310000  1.0  -0.1138
  C  C2139  1  0.824000  0.802000  0.318000  1.0  0.1639
  C  C2140  1  0.797000  0.811000  0.341000  1.0  0.3314
  C  C2141  1  0.796000  0.846000  0.352000  1.0  0.1796
  C  C2142  1  0.773000  0.784000  0.355000  1.0  0.3886
  C  C2143  1  0.218000  0.611000  0.450000  1.0  0.1454
  C  C2144  1  0.227000  0.672000  0.468000  1.0  0.1494
  C  C2145  1  0.251000  0.566000  0.310000  1.0  0.1855
  C  C2146  1  0.285000  0.557000  0.296000  1.0  -0.1074
  C  C2147  1  0.310000  0.544000  0.322000  1.0  -0.1946
  C  C2148  1  0.302000  0.546000  0.361000  1.0  -0.125
  C  C2149  1  0.269000  0.555000  0.376000  1.0  0.2022
  C  C2150  1  0.148000  0.638000  0.329000  1.0  0.1104
  C  C2151  1  0.150000  0.670000  0.310000  1.0  -0.116
  C  C2152  1  0.176000  0.698000  0.318000  1.0  0.1623
  C  C2153  1  0.203000  0.689000  0.341000  1.0  0.3307
  C  C2154  1  0.204000  0.654000  0.352000  1.0  0.1803
  C  C2155  1  0.227000  0.716000  0.355000  1.0  0.3891
  C  C2156  1  0.718000  0.111000  0.950000  1.0  0.1454
  C  C2157  1  0.727000  0.172000  0.968000  1.0  0.1494
  C  C2158  1  0.751000  0.066000  0.810000  1.0  0.1855
  C  C2159  1  0.785000  0.057000  0.796000  1.0  -0.1074
  C  C2160  1  0.810000  0.044000  0.822000  1.0  -0.1946
  C  C2161  1  0.802000  0.046000  0.861000  1.0  -0.125
  C  C2162  1  0.769000  0.055000  0.876000  1.0  0.2022
  C  C2163  1  0.648000  0.138000  0.829000  1.0  0.1104
  C  C2164  1  0.650000  0.170000  0.810000  1.0  -0.116
  C  C2165  1  0.676000  0.198000  0.818000  1.0  0.1623
  C  C2166  1  0.703000  0.189000  0.841000  1.0  0.3307
  C  C2167  1  0.704000  0.154000  0.852000  1.0  0.1803
  C  C2168  1  0.727000  0.216000  0.855000  1.0  0.3891
  C  C2169  1  0.611000  0.450000  0.218000  1.0  0.143
  C  C2170  1  0.672000  0.468000  0.227000  1.0  0.1499
  C  C2171  1  0.566000  0.310000  0.251000  1.0  0.1853
  C  C2172  1  0.557000  0.296000  0.285000  1.0  -0.1109
  C  C2173  1  0.544000  0.322000  0.310000  1.0  -0.1913
  C  C2174  1  0.546000  0.361000  0.302000  1.0  -0.1243
  C  C2175  1  0.555000  0.376000  0.269000  1.0  0.2006
  C  C2176  1  0.638000  0.329000  0.148000  1.0  0.113
  C  C2177  1  0.670000  0.310000  0.150000  1.0  -0.1146
  C  C2178  1  0.698000  0.318000  0.176000  1.0  0.1576
  C  C2179  1  0.689000  0.341000  0.203000  1.0  0.3317
  C  C2180  1  0.654000  0.352000  0.204000  1.0  0.1794
  C  C2181  1  0.716000  0.355000  0.227000  1.0  0.3891
  C  C2182  1  0.111000  0.950000  0.718000  1.0  0.143
  C  C2183  1  0.172000  0.968000  0.727000  1.0  0.1499
  C  C2184  1  0.066000  0.810000  0.751000  1.0  0.1853
  C  C2185  1  0.057000  0.796000  0.785000  1.0  -0.1109
  C  C2186  1  0.044000  0.822000  0.810000  1.0  -0.1913
  C  C2187  1  0.046000  0.861000  0.802000  1.0  -0.1243
  C  C2188  1  0.055000  0.876000  0.769000  1.0  0.2006
  C  C2189  1  0.138000  0.829000  0.648000  1.0  0.113
  C  C2190  1  0.170000  0.810000  0.650000  1.0  -0.1146
  C  C2191  1  0.198000  0.818000  0.676000  1.0  0.1576
  C  C2192  1  0.189000  0.841000  0.703000  1.0  0.3317
  C  C2193  1  0.154000  0.852000  0.704000  1.0  0.1794
  C  C2194  1  0.216000  0.855000  0.727000  1.0  0.3891
  C  C2195  1  0.389000  0.950000  0.282000  1.0  0.1443
  C  C2196  1  0.328000  0.968000  0.273000  1.0  0.1502
  C  C2197  1  0.434000  0.810000  0.249000  1.0  0.1879
  C  C2198  1  0.443000  0.796000  0.215000  1.0  -0.1125
  C  C2199  1  0.456000  0.822000  0.190000  1.0  -0.1924
  C  C2200  1  0.454000  0.861000  0.198000  1.0  -0.1259
  C  C2201  1  0.445000  0.876000  0.231000  1.0  0.201
  C  C2202  1  0.362000  0.829000  0.352000  1.0  0.1107
  C  C2203  1  0.330000  0.810000  0.350000  1.0  -0.1128
  C  C2204  1  0.302000  0.818000  0.324000  1.0  0.1591
  C  C2205  1  0.311000  0.841000  0.297000  1.0  0.3337
  C  C2206  1  0.346000  0.852000  0.296000  1.0  0.1794
  C  C2207  1  0.284000  0.855000  0.273000  1.0  0.3879
  C  C2208  1  0.889000  0.450000  0.782000  1.0  0.1443
  C  C2209  1  0.828000  0.468000  0.773000  1.0  0.1502
  C  C2210  1  0.934000  0.310000  0.749000  1.0  0.1879
  C  C2211  1  0.943000  0.296000  0.715000  1.0  -0.1125
  C  C2212  1  0.956000  0.322000  0.690000  1.0  -0.1924
  C  C2213  1  0.954000  0.361000  0.698000  1.0  -0.1259
  C  C2214  1  0.945000  0.376000  0.731000  1.0  0.201
  C  C2215  1  0.862000  0.329000  0.852000  1.0  0.1107
  C  C2216  1  0.830000  0.310000  0.850000  1.0  -0.1128
  C  C2217  1  0.802000  0.318000  0.824000  1.0  0.1591
  C  C2218  1  0.811000  0.341000  0.797000  1.0  0.3337
  C  C2219  1  0.846000  0.352000  0.796000  1.0  0.1794
  C  C2220  1  0.784000  0.355000  0.773000  1.0  0.3879
  C  C2221  1  0.889000  0.550000  0.718000  1.0  0.1442
  C  C2222  1  0.828000  0.532000  0.727000  1.0  0.1503
  C  C2223  1  0.934000  0.690000  0.751000  1.0  0.1851
  C  C2224  1  0.943000  0.704000  0.785000  1.0  -0.1119
  C  C2225  1  0.956000  0.678000  0.810000  1.0  -0.1922
  C  C2226  1  0.954000  0.639000  0.802000  1.0  -0.1249
  C  C2227  1  0.945000  0.624000  0.769000  1.0  0.2026
  C  C2228  1  0.862000  0.671000  0.648000  1.0  0.1134
  C  C2229  1  0.830000  0.690000  0.650000  1.0  -0.1131
  C  C2230  1  0.802000  0.682000  0.676000  1.0  0.1595
  C  C2231  1  0.811000  0.659000  0.703000  1.0  0.3331
  C  C2232  1  0.846000  0.648000  0.704000  1.0  0.1799
  C  C2233  1  0.784000  0.645000  0.727000  1.0  0.3878
  C  C2234  1  0.389000  0.050000  0.218000  1.0  0.1442
  C  C2235  1  0.328000  0.032000  0.227000  1.0  0.1503
  C  C2236  1  0.434000  0.190000  0.251000  1.0  0.1851
  C  C2237  1  0.443000  0.204000  0.285000  1.0  -0.1119
  C  C2238  1  0.456000  0.178000  0.310000  1.0  -0.1922
  C  C2239  1  0.454000  0.139000  0.302000  1.0  -0.1249
  C  C2240  1  0.445000  0.124000  0.269000  1.0  0.2026
  C  C2241  1  0.362000  0.171000  0.148000  1.0  0.1134
  C  C2242  1  0.330000  0.190000  0.150000  1.0  -0.1131
  C  C2243  1  0.302000  0.182000  0.176000  1.0  0.1595
  C  C2244  1  0.311000  0.159000  0.203000  1.0  0.3331
  C  C2245  1  0.346000  0.148000  0.204000  1.0  0.1799
  C  C2246  1  0.284000  0.145000  0.227000  1.0  0.3878
  C  C2247  1  0.111000  0.050000  0.782000  1.0  0.1443
  C  C2248  1  0.172000  0.032000  0.773000  1.0  0.1496
  C  C2249  1  0.066000  0.190000  0.749000  1.0  0.1885
  C  C2250  1  0.057000  0.204000  0.715000  1.0  -0.1111
  C  C2251  1  0.044000  0.178000  0.690000  1.0  -0.1897
  C  C2252  1  0.046000  0.139000  0.698000  1.0  -0.1246
  C  C2253  1  0.055000  0.124000  0.731000  1.0  0.2025
  C  C2254  1  0.138000  0.171000  0.852000  1.0  0.1106
  C  C2255  1  0.170000  0.190000  0.850000  1.0  -0.113
  C  C2256  1  0.198000  0.182000  0.824000  1.0  0.1577
  C  C2257  1  0.189000  0.159000  0.797000  1.0  0.3328
  C  C2258  1  0.154000  0.148000  0.796000  1.0  0.1785
  C  C2259  1  0.216000  0.145000  0.773000  1.0  0.3878
  C  C2260  1  0.611000  0.550000  0.282000  1.0  0.1443
  C  C2261  1  0.672000  0.532000  0.273000  1.0  0.1496
  C  C2262  1  0.566000  0.690000  0.249000  1.0  0.1885
  C  C2263  1  0.557000  0.704000  0.215000  1.0  -0.1111
  C  C2264  1  0.544000  0.678000  0.190000  1.0  -0.1897
  C  C2265  1  0.546000  0.639000  0.198000  1.0  -0.1246
  C  C2266  1  0.555000  0.624000  0.231000  1.0  0.2025
  C  C2267  1  0.638000  0.671000  0.352000  1.0  0.1106
  C  C2268  1  0.670000  0.690000  0.350000  1.0  -0.113
  C  C2269  1  0.698000  0.682000  0.324000  1.0  0.1577
  C  C2270  1  0.689000  0.659000  0.297000  1.0  0.3328
  C  C2271  1  0.654000  0.648000  0.296000  1.0  0.1785
  C  C2272  1  0.716000  0.645000  0.273000  1.0  0.3878
  C  C2273  1  0.950000  0.282000  0.389000  1.0  0.1444
  C  C2274  1  0.968000  0.273000  0.328000  1.0  0.1515
  C  C2275  1  0.810000  0.249000  0.434000  1.0  0.1876
  C  C2276  1  0.796000  0.215000  0.443000  1.0  -0.1137
  C  C2277  1  0.822000  0.190000  0.456000  1.0  -0.191
  C  C2278  1  0.861000  0.198000  0.454000  1.0  -0.1196
  C  C2279  1  0.876000  0.231000  0.445000  1.0  0.2018
  C  C2280  1  0.829000  0.352000  0.362000  1.0  0.1143
  C  C2281  1  0.810000  0.350000  0.330000  1.0  -0.1164
  C  C2282  1  0.818000  0.324000  0.302000  1.0  0.1673
  C  C2283  1  0.841000  0.297000  0.311000  1.0  0.3303
  C  C2284  1  0.852000  0.296000  0.346000  1.0  0.1785
  C  C2285  1  0.855000  0.273000  0.284000  1.0  0.3978
  C  C2286  1  0.450000  0.782000  0.889000  1.0  0.1444
  C  C2287  1  0.468000  0.773000  0.828000  1.0  0.1515
  C  C2288  1  0.310000  0.749000  0.934000  1.0  0.1876
  C  C2289  1  0.296000  0.715000  0.943000  1.0  -0.1137
  C  C2290  1  0.322000  0.690000  0.956000  1.0  -0.191
  C  C2291  1  0.361000  0.698000  0.954000  1.0  -0.1196
  C  C2292  1  0.376000  0.731000  0.945000  1.0  0.2018
  C  C2293  1  0.329000  0.852000  0.862000  1.0  0.1143
  C  C2294  1  0.310000  0.850000  0.830000  1.0  -0.1164
  C  C2295  1  0.318000  0.824000  0.802000  1.0  0.1673
  C  C2296  1  0.341000  0.797000  0.811000  1.0  0.3303
  C  C2297  1  0.352000  0.796000  0.846000  1.0  0.1785
  C  C2298  1  0.355000  0.773000  0.784000  1.0  0.3978
  C  C2299  1  0.450000  0.218000  0.611000  1.0  0.1437
  C  C2300  1  0.468000  0.227000  0.672000  1.0  0.1534
  C  C2301  1  0.310000  0.251000  0.566000  1.0  0.1873
  C  C2302  1  0.296000  0.285000  0.557000  1.0  -0.1143
  C  C2303  1  0.322000  0.310000  0.544000  1.0  -0.1929
  C  C2304  1  0.361000  0.302000  0.546000  1.0  -0.1213
  C  C2305  1  0.376000  0.269000  0.555000  1.0  0.2006
  C  C2306  1  0.329000  0.148000  0.638000  1.0  0.1152
  C  C2307  1  0.310000  0.150000  0.670000  1.0  -0.1163
  C  C2308  1  0.318000  0.176000  0.698000  1.0  0.168
  C  C2309  1  0.341000  0.203000  0.689000  1.0  0.3316
  C  C2310  1  0.352000  0.204000  0.654000  1.0  0.1788
  C  C2311  1  0.355000  0.227000  0.716000  1.0  0.3981
  C  C2312  1  0.950000  0.718000  0.111000  1.0  0.1437
  C  C2313  1  0.968000  0.727000  0.172000  1.0  0.1534
  C  C2314  1  0.810000  0.751000  0.066000  1.0  0.1873
  C  C2315  1  0.796000  0.785000  0.057000  1.0  -0.1143
  C  C2316  1  0.822000  0.810000  0.044000  1.0  -0.1929
  C  C2317  1  0.861000  0.802000  0.046000  1.0  -0.1213
  C  C2318  1  0.876000  0.769000  0.055000  1.0  0.2006
  C  C2319  1  0.829000  0.648000  0.138000  1.0  0.1152
  C  C2320  1  0.810000  0.650000  0.170000  1.0  -0.1163
  C  C2321  1  0.818000  0.676000  0.198000  1.0  0.168
  C  C2322  1  0.841000  0.703000  0.189000  1.0  0.3316
  C  C2323  1  0.852000  0.704000  0.154000  1.0  0.1788
  C  C2324  1  0.855000  0.727000  0.216000  1.0  0.3981
  C  C2325  1  0.050000  0.782000  0.111000  1.0  0.1449
  C  C2326  1  0.032000  0.773000  0.172000  1.0  0.152
  C  C2327  1  0.190000  0.749000  0.066000  1.0  0.1884
  C  C2328  1  0.204000  0.715000  0.057000  1.0  -0.1137
  C  C2329  1  0.178000  0.690000  0.044000  1.0  -0.1937
  C  C2330  1  0.139000  0.698000  0.046000  1.0  -0.1249
  C  C2331  1  0.124000  0.731000  0.055000  1.0  0.2003
  C  C2332  1  0.171000  0.852000  0.138000  1.0  0.1173
  C  C2333  1  0.190000  0.850000  0.170000  1.0  -0.114
  C  C2334  1  0.182000  0.824000  0.198000  1.0  0.1685
  C  C2335  1  0.159000  0.797000  0.189000  1.0  0.3316
  C  C2336  1  0.148000  0.796000  0.154000  1.0  0.1782
  C  C2337  1  0.145000  0.773000  0.216000  1.0  0.3956
  C  C2338  1  0.550000  0.282000  0.611000  1.0  0.1449
  C  C2339  1  0.532000  0.273000  0.672000  1.0  0.152
  C  C2340  1  0.690000  0.249000  0.566000  1.0  0.1884
  C  C2341  1  0.704000  0.215000  0.557000  1.0  -0.1137
  C  C2342  1  0.678000  0.190000  0.544000  1.0  -0.1937
  C  C2343  1  0.639000  0.198000  0.546000  1.0  -0.1249
  C  C2344  1  0.624000  0.231000  0.555000  1.0  0.2003
  C  C2345  1  0.671000  0.352000  0.638000  1.0  0.1173
  C  C2346  1  0.690000  0.350000  0.670000  1.0  -0.114
  C  C2347  1  0.682000  0.324000  0.698000  1.0  0.1685
  C  C2348  1  0.659000  0.297000  0.689000  1.0  0.3316
  C  C2349  1  0.648000  0.296000  0.654000  1.0  0.1782
  C  C2350  1  0.645000  0.273000  0.716000  1.0  0.3956
  C  C2351  1  0.550000  0.718000  0.889000  1.0  0.1449
  C  C2352  1  0.532000  0.727000  0.828000  1.0  0.1512
  C  C2353  1  0.690000  0.751000  0.934000  1.0  0.1874
  C  C2354  1  0.704000  0.785000  0.943000  1.0  -0.114
  C  C2355  1  0.678000  0.810000  0.956000  1.0  -0.1939
  C  C2356  1  0.639000  0.802000  0.954000  1.0  -0.1215
  C  C2357  1  0.624000  0.769000  0.945000  1.0  0.2002
  C  C2358  1  0.671000  0.648000  0.862000  1.0  0.1153
  C  C2359  1  0.690000  0.650000  0.830000  1.0  -0.1145
  C  C2360  1  0.682000  0.676000  0.802000  1.0  0.1674
  C  C2361  1  0.659000  0.703000  0.811000  1.0  0.3314
  C  C2362  1  0.648000  0.704000  0.846000  1.0  0.1787
  C  C2363  1  0.645000  0.727000  0.784000  1.0  0.3992
  C  C2364  1  0.050000  0.218000  0.389000  1.0  0.1449
  C  C2365  1  0.032000  0.227000  0.328000  1.0  0.1512
  C  C2366  1  0.190000  0.251000  0.434000  1.0  0.1874
  C  C2367  1  0.204000  0.285000  0.443000  1.0  -0.114
  C  C2368  1  0.178000  0.310000  0.456000  1.0  -0.1939
  C  C2369  1  0.139000  0.302000  0.454000  1.0  -0.1215
  C  C2370  1  0.124000  0.269000  0.445000  1.0  0.2002
  C  C2371  1  0.171000  0.148000  0.362000  1.0  0.1153
  C  C2372  1  0.190000  0.150000  0.330000  1.0  -0.1145
  C  C2373  1  0.182000  0.176000  0.302000  1.0  0.1674
  C  C2374  1  0.159000  0.203000  0.311000  1.0  0.3314
  C  C2375  1  0.148000  0.204000  0.346000  1.0  0.1787
  C  C2376  1  0.145000  0.227000  0.284000  1.0  0.3992
  N  N2377  1  0.648000  0.453000  0.324000  1.0  -0.412
  N  N2378  1  0.555000  0.469000  0.299000  1.0  -0.445
  N  N2379  1  0.691000  0.489000  0.400000  1.0  -0.5591
  N  N2380  1  0.624000  0.424000  0.406000  1.0  -0.3432
  N  N2381  1  0.148000  0.953000  0.824000  1.0  -0.412
  N  N2382  1  0.055000  0.969000  0.799000  1.0  -0.445
  N  N2383  1  0.191000  0.989000  0.900000  1.0  -0.5591
  N  N2384  1  0.124000  0.924000  0.906000  1.0  -0.3432
  N  N2385  1  0.852000  0.547000  0.824000  1.0  -0.4134
  N  N2386  1  0.945000  0.531000  0.799000  1.0  -0.4435
  N  N2387  1  0.809000  0.511000  0.900000  1.0  -0.5615
  N  N2388  1  0.876000  0.576000  0.906000  1.0  -0.3427
  N  N2389  1  0.352000  0.047000  0.324000  1.0  -0.4134
  N  N2390  1  0.445000  0.031000  0.299000  1.0  -0.4435
  N  N2391  1  0.309000  0.011000  0.400000  1.0  -0.5615
  N  N2392  1  0.376000  0.076000  0.406000  1.0  -0.3427
  N  N2393  1  0.352000  0.953000  0.176000  1.0  -0.4135
  N  N2394  1  0.445000  0.969000  0.201000  1.0  -0.4427
  N  N2395  1  0.309000  0.989000  0.100000  1.0  -0.5589
  N  N2396  1  0.376000  0.924000  0.094000  1.0  -0.3432
  N  N2397  1  0.852000  0.453000  0.676000  1.0  -0.4135
  N  N2398  1  0.945000  0.469000  0.701000  1.0  -0.4427
  N  N2399  1  0.809000  0.489000  0.600000  1.0  -0.5589
  N  N2400  1  0.876000  0.424000  0.594000  1.0  -0.3432
  N  N2401  1  0.148000  0.047000  0.676000  1.0  -0.4127
  N  N2402  1  0.055000  0.031000  0.701000  1.0  -0.4461
  N  N2403  1  0.191000  0.011000  0.600000  1.0  -0.5616
  N  N2404  1  0.124000  0.076000  0.594000  1.0  -0.3433
  N  N2405  1  0.648000  0.547000  0.176000  1.0  -0.4127
  N  N2406  1  0.555000  0.531000  0.201000  1.0  -0.4461
  N  N2407  1  0.691000  0.511000  0.100000  1.0  -0.5616
  N  N2408  1  0.624000  0.576000  0.094000  1.0  -0.3433
  N  N2409  1  0.324000  0.648000  0.453000  1.0  -0.4113
  N  N2410  1  0.299000  0.555000  0.469000  1.0  -0.4404
  N  N2411  1  0.400000  0.691000  0.489000  1.0  -0.5583
  N  N2412  1  0.406000  0.624000  0.424000  1.0  -0.3458
  N  N2413  1  0.824000  0.148000  0.953000  1.0  -0.4113
  N  N2414  1  0.799000  0.055000  0.969000  1.0  -0.4404
  N  N2415  1  0.900000  0.191000  0.989000  1.0  -0.5583
  N  N2416  1  0.906000  0.124000  0.924000  1.0  -0.3458
  N  N2417  1  0.824000  0.852000  0.547000  1.0  -0.4116
  N  N2418  1  0.799000  0.945000  0.531000  1.0  -0.4417
  N  N2419  1  0.900000  0.809000  0.511000  1.0  -0.5587
  N  N2420  1  0.906000  0.876000  0.576000  1.0  -0.346
  N  N2421  1  0.324000  0.352000  0.047000  1.0  -0.4116
  N  N2422  1  0.299000  0.445000  0.031000  1.0  -0.4417
  N  N2423  1  0.400000  0.309000  0.011000  1.0  -0.5587
  N  N2424  1  0.406000  0.376000  0.076000  1.0  -0.346
  N  N2425  1  0.176000  0.352000  0.953000  1.0  -0.4135
  N  N2426  1  0.201000  0.445000  0.969000  1.0  -0.4429
  N  N2427  1  0.100000  0.309000  0.989000  1.0  -0.5588
  N  N2428  1  0.094000  0.376000  0.924000  1.0  -0.3439
  N  N2429  1  0.676000  0.852000  0.453000  1.0  -0.4135
  N  N2430  1  0.701000  0.945000  0.469000  1.0  -0.4429
  N  N2431  1  0.600000  0.809000  0.489000  1.0  -0.5588
  N  N2432  1  0.594000  0.876000  0.424000  1.0  -0.3439
  N  N2433  1  0.676000  0.148000  0.047000  1.0  -0.4133
  N  N2434  1  0.701000  0.055000  0.031000  1.0  -0.4422
  N  N2435  1  0.600000  0.191000  0.011000  1.0  -0.5587
  N  N2436  1  0.594000  0.124000  0.076000  1.0  -0.3456
  N  N2437  1  0.176000  0.648000  0.547000  1.0  -0.4133
  N  N2438  1  0.201000  0.555000  0.531000  1.0  -0.4422
  N  N2439  1  0.100000  0.691000  0.511000  1.0  -0.5587
  N  N2440  1  0.094000  0.624000  0.576000  1.0  -0.3456
  N  N2441  1  0.453000  0.324000  0.648000  1.0  -0.4126
  N  N2442  1  0.469000  0.299000  0.555000  1.0  -0.4424
  N  N2443  1  0.489000  0.400000  0.691000  1.0  -0.5583
  N  N2444  1  0.424000  0.406000  0.624000  1.0  -0.3437
  N  N2445  1  0.953000  0.824000  0.148000  1.0  -0.4126
  N  N2446  1  0.969000  0.799000  0.055000  1.0  -0.4424
  N  N2447  1  0.989000  0.900000  0.191000  1.0  -0.5583
  N  N2448  1  0.924000  0.906000  0.124000  1.0  -0.3437
  N  N2449  1  0.547000  0.824000  0.852000  1.0  -0.4115
  N  N2450  1  0.531000  0.799000  0.945000  1.0  -0.4441
  N  N2451  1  0.511000  0.900000  0.809000  1.0  -0.5588
  N  N2452  1  0.576000  0.906000  0.876000  1.0  -0.3456
  N  N2453  1  0.047000  0.324000  0.352000  1.0  -0.4115
  N  N2454  1  0.031000  0.299000  0.445000  1.0  -0.4441
  N  N2455  1  0.011000  0.400000  0.309000  1.0  -0.5588
  N  N2456  1  0.076000  0.406000  0.376000  1.0  -0.3456
  N  N2457  1  0.953000  0.176000  0.352000  1.0  -0.4112
  N  N2458  1  0.969000  0.201000  0.445000  1.0  -0.4421
  N  N2459  1  0.989000  0.100000  0.309000  1.0  -0.5574
  N  N2460  1  0.924000  0.094000  0.376000  1.0  -0.3448
  N  N2461  1  0.453000  0.676000  0.852000  1.0  -0.4112
  N  N2462  1  0.469000  0.701000  0.945000  1.0  -0.4421
  N  N2463  1  0.489000  0.600000  0.809000  1.0  -0.5574
  N  N2464  1  0.424000  0.594000  0.876000  1.0  -0.3448
  N  N2465  1  0.047000  0.676000  0.148000  1.0  -0.4111
  N  N2466  1  0.031000  0.701000  0.055000  1.0  -0.4407
  N  N2467  1  0.011000  0.600000  0.191000  1.0  -0.5591
  N  N2468  1  0.076000  0.594000  0.124000  1.0  -0.3444
  N  N2469  1  0.547000  0.176000  0.648000  1.0  -0.4111
  N  N2470  1  0.531000  0.201000  0.555000  1.0  -0.4407
  N  N2471  1  0.511000  0.100000  0.691000  1.0  -0.5591
  N  N2472  1  0.576000  0.094000  0.624000  1.0  -0.3444
  N  N2473  1  0.203000  0.898000  0.926000  1.0  -0.4105
  N  N2474  1  0.219000  0.805000  0.951000  1.0  -0.4427
  N  N2475  1  0.239000  0.941000  0.850000  1.0  -0.5587
  N  N2476  1  0.174000  0.874000  0.844000  1.0  -0.345
  N  N2477  1  0.703000  0.398000  0.426000  1.0  -0.4105
  N  N2478  1  0.719000  0.305000  0.451000  1.0  -0.4427
  N  N2479  1  0.739000  0.441000  0.350000  1.0  -0.5587
  N  N2480  1  0.674000  0.374000  0.344000  1.0  -0.345
  N  N2481  1  0.297000  0.102000  0.426000  1.0  -0.4103
  N  N2482  1  0.281000  0.195000  0.451000  1.0  -0.4437
  N  N2483  1  0.261000  0.059000  0.350000  1.0  -0.5599
  N  N2484  1  0.326000  0.126000  0.344000  1.0  -0.345
  N  N2485  1  0.797000  0.602000  0.926000  1.0  -0.4103
  N  N2486  1  0.781000  0.695000  0.951000  1.0  -0.4437
  N  N2487  1  0.761000  0.559000  0.850000  1.0  -0.5599
  N  N2488  1  0.826000  0.626000  0.844000  1.0  -0.345
  N  N2489  1  0.703000  0.602000  0.074000  1.0  -0.4107
  N  N2490  1  0.719000  0.695000  0.049000  1.0  -0.4431
  N  N2491  1  0.739000  0.559000  0.150000  1.0  -0.5588
  N  N2492  1  0.674000  0.626000  0.156000  1.0  -0.344
  N  N2493  1  0.203000  0.102000  0.574000  1.0  -0.4107
  N  N2494  1  0.219000  0.195000  0.549000  1.0  -0.4431
  N  N2495  1  0.239000  0.059000  0.650000  1.0  -0.5588
  N  N2496  1  0.174000  0.126000  0.656000  1.0  -0.344
  N  N2497  1  0.797000  0.398000  0.574000  1.0  -0.4094
  N  N2498  1  0.781000  0.305000  0.549000  1.0  -0.4427
  N  N2499  1  0.761000  0.441000  0.650000  1.0  -0.5595
  N  N2500  1  0.826000  0.374000  0.656000  1.0  -0.3447
  N  N2501  1  0.297000  0.898000  0.074000  1.0  -0.4094
  N  N2502  1  0.281000  0.805000  0.049000  1.0  -0.4427
  N  N2503  1  0.261000  0.941000  0.150000  1.0  -0.5595
  N  N2504  1  0.326000  0.874000  0.156000  1.0  -0.3447
  N  N2505  1  0.398000  0.574000  0.797000  1.0  -0.4116
  N  N2506  1  0.305000  0.549000  0.781000  1.0  -0.4475
  N  N2507  1  0.441000  0.650000  0.761000  1.0  -0.558
  N  N2508  1  0.374000  0.656000  0.826000  1.0  -0.3439
  N  N2509  1  0.898000  0.074000  0.297000  1.0  -0.4116
  N  N2510  1  0.805000  0.049000  0.281000  1.0  -0.4475
  N  N2511  1  0.941000  0.150000  0.261000  1.0  -0.558
  N  N2512  1  0.874000  0.156000  0.326000  1.0  -0.3439
  N  N2513  1  0.602000  0.074000  0.703000  1.0  -0.4131
  N  N2514  1  0.695000  0.049000  0.719000  1.0  -0.445
  N  N2515  1  0.559000  0.150000  0.739000  1.0  -0.5581
  N  N2516  1  0.626000  0.156000  0.674000  1.0  -0.3437
  N  N2517  1  0.102000  0.574000  0.203000  1.0  -0.4131
  N  N2518  1  0.195000  0.549000  0.219000  1.0  -0.445
  N  N2519  1  0.059000  0.650000  0.239000  1.0  -0.5581
  N  N2520  1  0.126000  0.656000  0.174000  1.0  -0.3437
  N  N2521  1  0.102000  0.426000  0.297000  1.0  -0.4121
  N  N2522  1  0.195000  0.451000  0.281000  1.0  -0.4437
  N  N2523  1  0.059000  0.350000  0.261000  1.0  -0.5578
  N  N2524  1  0.126000  0.344000  0.326000  1.0  -0.3432
  N  N2525  1  0.602000  0.926000  0.797000  1.0  -0.4121
  N  N2526  1  0.695000  0.951000  0.781000  1.0  -0.4437
  N  N2527  1  0.559000  0.850000  0.761000  1.0  -0.5578
  N  N2528  1  0.626000  0.844000  0.826000  1.0  -0.3432
  N  N2529  1  0.898000  0.926000  0.203000  1.0  -0.4112
  N  N2530  1  0.805000  0.951000  0.219000  1.0  -0.446
  N  N2531  1  0.941000  0.850000  0.239000  1.0  -0.558
  N  N2532  1  0.874000  0.844000  0.174000  1.0  -0.3437
  N  N2533  1  0.398000  0.426000  0.703000  1.0  -0.4112
  N  N2534  1  0.305000  0.451000  0.719000  1.0  -0.446
  N  N2535  1  0.441000  0.350000  0.739000  1.0  -0.558
  N  N2536  1  0.374000  0.344000  0.674000  1.0  -0.3437
  N  N2537  1  0.074000  0.703000  0.602000  1.0  -0.4133
  N  N2538  1  0.049000  0.719000  0.695000  1.0  -0.4393
  N  N2539  1  0.150000  0.739000  0.559000  1.0  -0.559
  N  N2540  1  0.156000  0.674000  0.626000  1.0  -0.3455
  N  N2541  1  0.574000  0.203000  0.102000  1.0  -0.4133
  N  N2542  1  0.549000  0.219000  0.195000  1.0  -0.4393
  N  N2543  1  0.650000  0.239000  0.059000  1.0  -0.559
  N  N2544  1  0.656000  0.174000  0.126000  1.0  -0.3455
  N  N2545  1  0.574000  0.797000  0.398000  1.0  -0.4143
  N  N2546  1  0.549000  0.781000  0.305000  1.0  -0.4383
  N  N2547  1  0.650000  0.761000  0.441000  1.0  -0.5618
  N  N2548  1  0.656000  0.826000  0.374000  1.0  -0.3447
  N  N2549  1  0.074000  0.297000  0.898000  1.0  -0.4143
  N  N2550  1  0.049000  0.281000  0.805000  1.0  -0.4383
  N  N2551  1  0.150000  0.261000  0.941000  1.0  -0.5618
  N  N2552  1  0.156000  0.326000  0.874000  1.0  -0.3447
  N  N2553  1  0.926000  0.203000  0.898000  1.0  -0.4157
  N  N2554  1  0.951000  0.219000  0.805000  1.0  -0.4396
  N  N2555  1  0.850000  0.239000  0.941000  1.0  -0.559
  N  N2556  1  0.844000  0.174000  0.874000  1.0  -0.3439
  N  N2557  1  0.426000  0.703000  0.398000  1.0  -0.4157
  N  N2558  1  0.451000  0.719000  0.305000  1.0  -0.4396
  N  N2559  1  0.350000  0.739000  0.441000  1.0  -0.559
  N  N2560  1  0.344000  0.674000  0.374000  1.0  -0.3439
  N  N2561  1  0.426000  0.297000  0.102000  1.0  -0.4155
  N  N2562  1  0.451000  0.281000  0.195000  1.0  -0.4413
  N  N2563  1  0.350000  0.261000  0.059000  1.0  -0.5609
  N  N2564  1  0.344000  0.326000  0.126000  1.0  -0.3454
  N  N2565  1  0.926000  0.797000  0.602000  1.0  -0.4155
  N  N2566  1  0.951000  0.781000  0.695000  1.0  -0.4413
  N  N2567  1  0.850000  0.761000  0.559000  1.0  -0.5609
  N  N2568  1  0.844000  0.826000  0.626000  1.0  -0.3454
  N  N2569  1  0.352000  0.547000  0.676000  1.0  -0.4137
  N  N2570  1  0.445000  0.531000  0.701000  1.0  -0.4438
  N  N2571  1  0.309000  0.511000  0.600000  1.0  -0.5615
  N  N2572  1  0.376000  0.576000  0.594000  1.0  -0.3433
  N  N2573  1  0.852000  0.047000  0.176000  1.0  -0.4137
  N  N2574  1  0.945000  0.031000  0.201000  1.0  -0.4438
  N  N2575  1  0.809000  0.011000  0.100000  1.0  -0.5615
  N  N2576  1  0.876000  0.076000  0.094000  1.0  -0.3433
  N  N2577  1  0.148000  0.453000  0.176000  1.0  -0.4125
  N  N2578  1  0.055000  0.469000  0.201000  1.0  -0.4452
  N  N2579  1  0.191000  0.489000  0.100000  1.0  -0.5591
  N  N2580  1  0.124000  0.424000  0.094000  1.0  -0.3436
  N  N2581  1  0.648000  0.953000  0.676000  1.0  -0.4125
  N  N2582  1  0.555000  0.969000  0.701000  1.0  -0.4452
  N  N2583  1  0.691000  0.989000  0.600000  1.0  -0.5591
  N  N2584  1  0.624000  0.924000  0.594000  1.0  -0.3436
  N  N2585  1  0.648000  0.047000  0.824000  1.0  -0.4121
  N  N2586  1  0.555000  0.031000  0.799000  1.0  -0.4458
  N  N2587  1  0.691000  0.011000  0.900000  1.0  -0.5615
  N  N2588  1  0.624000  0.076000  0.906000  1.0  -0.3431
  N  N2589  1  0.148000  0.547000  0.324000  1.0  -0.4121
  N  N2590  1  0.055000  0.531000  0.299000  1.0  -0.4458
  N  N2591  1  0.191000  0.511000  0.400000  1.0  -0.5615
  N  N2592  1  0.124000  0.576000  0.406000  1.0  -0.3431
  N  N2593  1  0.852000  0.953000  0.324000  1.0  -0.4133
  N  N2594  1  0.945000  0.969000  0.299000  1.0  -0.4427
  N  N2595  1  0.809000  0.989000  0.400000  1.0  -0.559
  N  N2596  1  0.876000  0.924000  0.406000  1.0  -0.3424
  N  N2597  1  0.352000  0.453000  0.824000  1.0  -0.4133
  N  N2598  1  0.445000  0.469000  0.799000  1.0  -0.4427
  N  N2599  1  0.309000  0.489000  0.900000  1.0  -0.559
  N  N2600  1  0.376000  0.424000  0.906000  1.0  -0.3424
  N  N2601  1  0.676000  0.352000  0.547000  1.0  -0.4134
  N  N2602  1  0.701000  0.445000  0.531000  1.0  -0.4429
  N  N2603  1  0.600000  0.309000  0.511000  1.0  -0.5586
  N  N2604  1  0.594000  0.376000  0.576000  1.0  -0.3444
  N  N2605  1  0.176000  0.852000  0.047000  1.0  -0.4134
  N  N2606  1  0.201000  0.945000  0.031000  1.0  -0.4429
  N  N2607  1  0.100000  0.809000  0.011000  1.0  -0.5586
  N  N2608  1  0.094000  0.876000  0.076000  1.0  -0.3444
  N  N2609  1  0.176000  0.148000  0.453000  1.0  -0.4132
  N  N2610  1  0.201000  0.055000  0.469000  1.0  -0.4422
  N  N2611  1  0.100000  0.191000  0.489000  1.0  -0.5584
  N  N2612  1  0.094000  0.124000  0.424000  1.0  -0.3453
  N  N2613  1  0.676000  0.648000  0.953000  1.0  -0.4132
  N  N2614  1  0.701000  0.555000  0.969000  1.0  -0.4422
  N  N2615  1  0.600000  0.691000  0.989000  1.0  -0.5584
  N  N2616  1  0.594000  0.624000  0.924000  1.0  -0.3453
  N  N2617  1  0.824000  0.648000  0.047000  1.0  -0.4113
  N  N2618  1  0.799000  0.555000  0.031000  1.0  -0.4405
  N  N2619  1  0.900000  0.691000  0.011000  1.0  -0.5584
  N  N2620  1  0.906000  0.624000  0.076000  1.0  -0.3459
  N  N2621  1  0.324000  0.148000  0.547000  1.0  -0.4113
  N  N2622  1  0.299000  0.055000  0.531000  1.0  -0.4405
  N  N2623  1  0.400000  0.191000  0.511000  1.0  -0.5584
  N  N2624  1  0.406000  0.124000  0.576000  1.0  -0.3459
  N  N2625  1  0.324000  0.852000  0.953000  1.0  -0.4117
  N  N2626  1  0.299000  0.945000  0.969000  1.0  -0.4416
  N  N2627  1  0.400000  0.809000  0.989000  1.0  -0.559
  N  N2628  1  0.406000  0.876000  0.924000  1.0  -0.3457
  N  N2629  1  0.824000  0.352000  0.453000  1.0  -0.4117
  N  N2630  1  0.799000  0.445000  0.469000  1.0  -0.4416
  N  N2631  1  0.900000  0.309000  0.489000  1.0  -0.559
  N  N2632  1  0.906000  0.376000  0.424000  1.0  -0.3457
  N  N2633  1  0.547000  0.676000  0.352000  1.0  -0.4106
  N  N2634  1  0.531000  0.701000  0.445000  1.0  -0.4425
  N  N2635  1  0.511000  0.600000  0.309000  1.0  -0.5582
  N  N2636  1  0.576000  0.594000  0.376000  1.0  -0.345
  N  N2637  1  0.047000  0.176000  0.852000  1.0  -0.4106
  N  N2638  1  0.031000  0.201000  0.945000  1.0  -0.4425
  N  N2639  1  0.011000  0.100000  0.809000  1.0  -0.5582
  N  N2640  1  0.076000  0.094000  0.876000  1.0  -0.345
  N  N2641  1  0.453000  0.176000  0.148000  1.0  -0.4117
  N  N2642  1  0.469000  0.201000  0.055000  1.0  -0.4409
  N  N2643  1  0.489000  0.100000  0.191000  1.0  -0.5582
  N  N2644  1  0.424000  0.094000  0.124000  1.0  -0.3438
  N  N2645  1  0.953000  0.676000  0.648000  1.0  -0.4117
  N  N2646  1  0.969000  0.701000  0.555000  1.0  -0.4409
  N  N2647  1  0.989000  0.600000  0.691000  1.0  -0.5582
  N  N2648  1  0.924000  0.594000  0.624000  1.0  -0.3438
  N  N2649  1  0.047000  0.824000  0.648000  1.0  -0.4119
  N  N2650  1  0.031000  0.799000  0.555000  1.0  -0.4423
  N  N2651  1  0.011000  0.900000  0.691000  1.0  -0.5594
  N  N2652  1  0.076000  0.906000  0.624000  1.0  -0.3443
  N  N2653  1  0.547000  0.324000  0.148000  1.0  -0.4119
  N  N2654  1  0.531000  0.299000  0.055000  1.0  -0.4423
  N  N2655  1  0.511000  0.400000  0.191000  1.0  -0.5594
  N  N2656  1  0.576000  0.406000  0.124000  1.0  -0.3443
  N  N2657  1  0.953000  0.324000  0.852000  1.0  -0.412
  N  N2658  1  0.969000  0.299000  0.945000  1.0  -0.4437
  N  N2659  1  0.989000  0.400000  0.809000  1.0  -0.5577
  N  N2660  1  0.924000  0.406000  0.876000  1.0  -0.3452
  N  N2661  1  0.453000  0.824000  0.352000  1.0  -0.412
  N  N2662  1  0.469000  0.799000  0.445000  1.0  -0.4437
  N  N2663  1  0.489000  0.900000  0.309000  1.0  -0.5577
  N  N2664  1  0.424000  0.906000  0.376000  1.0  -0.3452
  N  N2665  1  0.797000  0.102000  0.074000  1.0  -0.4098
  N  N2666  1  0.781000  0.195000  0.049000  1.0  -0.4434
  N  N2667  1  0.761000  0.059000  0.150000  1.0  -0.5597
  N  N2668  1  0.826000  0.126000  0.156000  1.0  -0.345
  N  N2669  1  0.297000  0.602000  0.574000  1.0  -0.4098
  N  N2670  1  0.281000  0.695000  0.549000  1.0  -0.4434
  N  N2671  1  0.261000  0.559000  0.650000  1.0  -0.5597
  N  N2672  1  0.326000  0.626000  0.656000  1.0  -0.345
  N  N2673  1  0.703000  0.898000  0.574000  1.0  -0.4103
  N  N2674  1  0.719000  0.805000  0.549000  1.0  -0.4426
  N  N2675  1  0.739000  0.941000  0.650000  1.0  -0.5586
  N  N2676  1  0.674000  0.874000  0.656000  1.0  -0.3446
  N  N2677  1  0.203000  0.398000  0.074000  1.0  -0.4103
  N  N2678  1  0.219000  0.305000  0.049000  1.0  -0.4426
  N  N2679  1  0.239000  0.441000  0.150000  1.0  -0.5586
  N  N2680  1  0.174000  0.374000  0.156000  1.0  -0.3446
  N  N2681  1  0.297000  0.398000  0.926000  1.0  -0.4098
  N  N2682  1  0.281000  0.305000  0.951000  1.0  -0.443
  N  N2683  1  0.261000  0.441000  0.850000  1.0  -0.5596
  N  N2684  1  0.326000  0.374000  0.844000  1.0  -0.3451
  N  N2685  1  0.797000  0.898000  0.426000  1.0  -0.4098
  N  N2686  1  0.781000  0.805000  0.451000  1.0  -0.443
  N  N2687  1  0.761000  0.941000  0.350000  1.0  -0.5596
  N  N2688  1  0.826000  0.874000  0.344000  1.0  -0.3451
  N  N2689  1  0.203000  0.602000  0.426000  1.0  -0.4109
  N  N2690  1  0.219000  0.695000  0.451000  1.0  -0.4431
  N  N2691  1  0.239000  0.559000  0.350000  1.0  -0.559
  N  N2692  1  0.174000  0.626000  0.344000  1.0  -0.3439
  N  N2693  1  0.703000  0.102000  0.926000  1.0  -0.4109
  N  N2694  1  0.719000  0.195000  0.951000  1.0  -0.4431
  N  N2695  1  0.739000  0.059000  0.850000  1.0  -0.559
  N  N2696  1  0.674000  0.126000  0.844000  1.0  -0.3439
  N  N2697  1  0.602000  0.426000  0.203000  1.0  -0.4122
  N  N2698  1  0.695000  0.451000  0.219000  1.0  -0.4435
  N  N2699  1  0.559000  0.350000  0.239000  1.0  -0.5577
  N  N2700  1  0.626000  0.344000  0.174000  1.0  -0.3433
  N  N2701  1  0.102000  0.926000  0.703000  1.0  -0.4122
  N  N2702  1  0.195000  0.951000  0.719000  1.0  -0.4435
  N  N2703  1  0.059000  0.850000  0.739000  1.0  -0.5577
  N  N2704  1  0.126000  0.844000  0.674000  1.0  -0.3433
  N  N2705  1  0.398000  0.926000  0.297000  1.0  -0.411
  N  N2706  1  0.305000  0.951000  0.281000  1.0  -0.4459
  N  N2707  1  0.441000  0.850000  0.261000  1.0  -0.558
  N  N2708  1  0.374000  0.844000  0.326000  1.0  -0.344
  N  N2709  1  0.898000  0.426000  0.797000  1.0  -0.411
  N  N2710  1  0.805000  0.451000  0.781000  1.0  -0.4459
  N  N2711  1  0.941000  0.350000  0.761000  1.0  -0.558
  N  N2712  1  0.874000  0.344000  0.826000  1.0  -0.344
  N  N2713  1  0.898000  0.574000  0.703000  1.0  -0.4121
  N  N2714  1  0.805000  0.549000  0.719000  1.0  -0.4475
  N  N2715  1  0.941000  0.650000  0.739000  1.0  -0.5585
  N  N2716  1  0.874000  0.656000  0.674000  1.0  -0.3436
  N  N2717  1  0.398000  0.074000  0.203000  1.0  -0.4121
  N  N2718  1  0.305000  0.049000  0.219000  1.0  -0.4475
  N  N2719  1  0.441000  0.150000  0.239000  1.0  -0.5585
  N  N2720  1  0.374000  0.156000  0.174000  1.0  -0.3436
  N  N2721  1  0.102000  0.074000  0.797000  1.0  -0.4129
  N  N2722  1  0.195000  0.049000  0.781000  1.0  -0.4453
  N  N2723  1  0.059000  0.150000  0.761000  1.0  -0.5578
  N  N2724  1  0.126000  0.156000  0.826000  1.0  -0.3436
  N  N2725  1  0.602000  0.574000  0.297000  1.0  -0.4129
  N  N2726  1  0.695000  0.549000  0.281000  1.0  -0.4453
  N  N2727  1  0.559000  0.650000  0.261000  1.0  -0.5578
  N  N2728  1  0.626000  0.656000  0.326000  1.0  -0.3436
  N  N2729  1  0.926000  0.297000  0.398000  1.0  -0.4161
  N  N2730  1  0.951000  0.281000  0.305000  1.0  -0.4399
  N  N2731  1  0.850000  0.261000  0.441000  1.0  -0.5619
  N  N2732  1  0.844000  0.326000  0.374000  1.0  -0.3436
  N  N2733  1  0.426000  0.797000  0.898000  1.0  -0.4161
  N  N2734  1  0.451000  0.781000  0.805000  1.0  -0.4399
  N  N2735  1  0.350000  0.761000  0.941000  1.0  -0.5619
  N  N2736  1  0.344000  0.826000  0.874000  1.0  -0.3436
  N  N2737  1  0.426000  0.203000  0.602000  1.0  -0.4154
  N  N2738  1  0.451000  0.219000  0.695000  1.0  -0.4405
  N  N2739  1  0.350000  0.239000  0.559000  1.0  -0.559
  N  N2740  1  0.344000  0.174000  0.626000  1.0  -0.3448
  N  N2741  1  0.926000  0.703000  0.102000  1.0  -0.4154
  N  N2742  1  0.951000  0.719000  0.195000  1.0  -0.4405
  N  N2743  1  0.850000  0.739000  0.059000  1.0  -0.559
  N  N2744  1  0.844000  0.674000  0.126000  1.0  -0.3448
  N  N2745  1  0.074000  0.797000  0.102000  1.0  -0.4135
  N  N2746  1  0.049000  0.781000  0.195000  1.0  -0.4402
  N  N2747  1  0.150000  0.761000  0.059000  1.0  -0.561
  N  N2748  1  0.156000  0.826000  0.126000  1.0  -0.3462
  N  N2749  1  0.574000  0.297000  0.602000  1.0  -0.4135
  N  N2750  1  0.549000  0.281000  0.695000  1.0  -0.4402
  N  N2751  1  0.650000  0.261000  0.559000  1.0  -0.561
  N  N2752  1  0.656000  0.326000  0.626000  1.0  -0.3462
  N  N2753  1  0.574000  0.703000  0.898000  1.0  -0.414
  N  N2754  1  0.549000  0.719000  0.805000  1.0  -0.4379
  N  N2755  1  0.650000  0.739000  0.941000  1.0  -0.5588
  N  N2756  1  0.656000  0.674000  0.874000  1.0  -0.3451
  N  N2757  1  0.074000  0.203000  0.398000  1.0  -0.414
  N  N2758  1  0.049000  0.219000  0.305000  1.0  -0.4379
  N  N2759  1  0.150000  0.239000  0.441000  1.0  -0.5588
  N  N2760  1  0.156000  0.174000  0.374000  1.0  -0.3451
