# generated using pymatgen
data_Cu4H32C48N4O9
_symmetry_space_group_name_H-M   'P 1'
_cell_length_a   7.98780000
_cell_length_b   33.93520000
_cell_length_c   39.19920000
_cell_angle_alpha   90.00000000
_cell_angle_beta   90.00000000
_cell_angle_gamma   90.00000000
_symmetry_Int_Tables_number   1
_chemical_formula_structural   Cu4H32C48N4O9
_chemical_formula_sum   'Cu32 H256 C384 N32 O72'
_cell_volume   10625.63269588
_cell_formula_units_Z   8
loop_
 _symmetry_equiv_pos_site_id
 _symmetry_equiv_pos_as_xyz
  1  'x, y, z'
loop_
 _atom_site_type_symbol
 _atom_site_label
 _atom_site_symmetry_multiplicity
 _atom_site_fract_x
 _atom_site_fract_y
 _atom_site_fract_z
 _atom_site_occupancy
 _atom_site_charge
  Cu  Cu1  1  0.204970  0.406180  0.350660  1.0  0.8185
  Cu  Cu2  1  0.204970  0.906180  0.850660  1.0  0.8185
  Cu  Cu3  1  0.704970  0.406180  0.850660  1.0  0.8185
  Cu  Cu4  1  0.704970  0.906180  0.350660  1.0  0.8185
  Cu  Cu5  1  0.545030  0.343820  0.350660  1.0  0.8182
  Cu  Cu6  1  0.545030  0.843820  0.850660  1.0  0.8182
  Cu  Cu7  1  0.045030  0.343820  0.850660  1.0  0.8182
  Cu  Cu8  1  0.045030  0.843820  0.350660  1.0  0.8182
  Cu  Cu9  1  0.545030  0.406180  0.399340  1.0  0.8179
  Cu  Cu10  1  0.545030  0.906180  0.899340  1.0  0.8179
  Cu  Cu11  1  0.045030  0.406180  0.899340  1.0  0.8179
  Cu  Cu12  1  0.045030  0.906180  0.399340  1.0  0.8179
  Cu  Cu13  1  0.204970  0.343820  0.399340  1.0  0.8188
  Cu  Cu14  1  0.204970  0.843820  0.899340  1.0  0.8188
  Cu  Cu15  1  0.704970  0.343820  0.899340  1.0  0.8188
  Cu  Cu16  1  0.704970  0.843820  0.399340  1.0  0.8188
  Cu  Cu17  1  0.795030  0.593820  0.649340  1.0  0.8182
  Cu  Cu18  1  0.795030  0.093820  0.149340  1.0  0.8182
  Cu  Cu19  1  0.295030  0.593820  0.149340  1.0  0.8182
  Cu  Cu20  1  0.295030  0.093820  0.649340  1.0  0.8182
  Cu  Cu21  1  0.454970  0.656180  0.649340  1.0  0.8185
  Cu  Cu22  1  0.454970  0.156180  0.149340  1.0  0.8185
  Cu  Cu23  1  0.954970  0.656180  0.149340  1.0  0.8185
  Cu  Cu24  1  0.954970  0.156180  0.649340  1.0  0.8185
  Cu  Cu25  1  0.454970  0.593820  0.600660  1.0  0.8189
  Cu  Cu26  1  0.454970  0.093820  0.100660  1.0  0.8189
  Cu  Cu27  1  0.954970  0.593820  0.100660  1.0  0.8189
  Cu  Cu28  1  0.954970  0.093820  0.600660  1.0  0.8189
  Cu  Cu29  1  0.795030  0.656180  0.600660  1.0  0.8179
  Cu  Cu30  1  0.795030  0.156180  0.100660  1.0  0.8179
  Cu  Cu31  1  0.295030  0.656180  0.100660  1.0  0.8179
  Cu  Cu32  1  0.295030  0.156180  0.600660  1.0  0.8179
  H  H33  1  0.659000  0.508800  0.159100  1.0  0.0935
  H  H34  1  0.518300  0.471400  0.199600  1.0  0.1233
  H  H35  1  0.584400  0.558000  0.268600  1.0  0.118
  H  H36  1  0.720500  0.595800  0.227600  1.0  0.0959
  H  H37  1  0.266600  0.403000  0.277300  1.0  0.0668
  H  H38  1  0.399500  0.438200  0.235700  1.0  0.1208
  H  H39  1  0.454400  0.527100  0.303100  1.0  0.1213
  H  H40  1  0.326300  0.488500  0.343200  1.0  0.085
  H  H41  1  0.659000  0.008800  0.659100  1.0  0.0935
  H  H42  1  0.518300  0.971400  0.699600  1.0  0.1233
  H  H43  1  0.584400  0.058000  0.768600  1.0  0.118
  H  H44  1  0.720500  0.095800  0.727600  1.0  0.0959
  H  H45  1  0.266600  0.903000  0.777300  1.0  0.0668
  H  H46  1  0.399500  0.938200  0.735700  1.0  0.1208
  H  H47  1  0.454400  0.027100  0.803100  1.0  0.1213
  H  H48  1  0.326300  0.988500  0.843200  1.0  0.085
  H  H49  1  0.159000  0.508800  0.659100  1.0  0.0935
  H  H50  1  0.018300  0.471400  0.699600  1.0  0.1233
  H  H51  1  0.084400  0.558000  0.768600  1.0  0.118
  H  H52  1  0.220500  0.595800  0.727600  1.0  0.0959
  H  H53  1  0.766600  0.403000  0.777300  1.0  0.0668
  H  H54  1  0.899500  0.438200  0.735700  1.0  0.1208
  H  H55  1  0.954400  0.527100  0.803100  1.0  0.1213
  H  H56  1  0.826300  0.488500  0.843200  1.0  0.085
  H  H57  1  0.159000  0.008800  0.159100  1.0  0.0935
  H  H58  1  0.018300  0.971400  0.199600  1.0  0.1233
  H  H59  1  0.084400  0.058000  0.268600  1.0  0.118
  H  H60  1  0.220500  0.095800  0.227600  1.0  0.0959
  H  H61  1  0.766600  0.903000  0.277300  1.0  0.0668
  H  H62  1  0.899500  0.938200  0.235700  1.0  0.1208
  H  H63  1  0.954400  0.027100  0.303100  1.0  0.1213
  H  H64  1  0.826300  0.988500  0.343200  1.0  0.085
  H  H65  1  0.091000  0.241200  0.159100  1.0  0.0934
  H  H66  1  0.231700  0.278600  0.199600  1.0  0.1239
  H  H67  1  0.165600  0.192000  0.268600  1.0  0.1186
  H  H68  1  0.029500  0.154200  0.227600  1.0  0.0962
  H  H69  1  0.483400  0.347000  0.277300  1.0  0.0677
  H  H70  1  0.350500  0.311800  0.235700  1.0  0.1222
  H  H71  1  0.295600  0.222900  0.303100  1.0  0.121
  H  H72  1  0.423700  0.261500  0.343200  1.0  0.0862
  H  H73  1  0.091000  0.741200  0.659100  1.0  0.0934
  H  H74  1  0.231700  0.778600  0.699600  1.0  0.1239
  H  H75  1  0.165600  0.692000  0.768600  1.0  0.1186
  H  H76  1  0.029500  0.654200  0.727600  1.0  0.0962
  H  H77  1  0.483400  0.847000  0.777300  1.0  0.0677
  H  H78  1  0.350500  0.811800  0.735700  1.0  0.1222
  H  H79  1  0.295600  0.722900  0.803100  1.0  0.121
  H  H80  1  0.423700  0.761500  0.843200  1.0  0.0862
  H  H81  1  0.591000  0.241200  0.659100  1.0  0.0934
  H  H82  1  0.731700  0.278600  0.699600  1.0  0.1239
  H  H83  1  0.665600  0.192000  0.768600  1.0  0.1186
  H  H84  1  0.529500  0.154200  0.727600  1.0  0.0962
  H  H85  1  0.983400  0.347000  0.777300  1.0  0.0677
  H  H86  1  0.850500  0.311800  0.735700  1.0  0.1222
  H  H87  1  0.795600  0.222900  0.803100  1.0  0.121
  H  H88  1  0.923700  0.261500  0.843200  1.0  0.0862
  H  H89  1  0.591000  0.741200  0.159100  1.0  0.0934
  H  H90  1  0.731700  0.778600  0.199600  1.0  0.1239
  H  H91  1  0.665600  0.692000  0.268600  1.0  0.1186
  H  H92  1  0.529500  0.654200  0.227600  1.0  0.0962
  H  H93  1  0.983400  0.847000  0.277300  1.0  0.0677
  H  H94  1  0.850500  0.811800  0.235700  1.0  0.1222
  H  H95  1  0.795600  0.722900  0.303100  1.0  0.121
  H  H96  1  0.923700  0.761500  0.343200  1.0  0.0862
  H  H97  1  0.091000  0.508800  0.590900  1.0  0.0937
  H  H98  1  0.231700  0.471400  0.550400  1.0  0.1241
  H  H99  1  0.165600  0.558000  0.481400  1.0  0.1176
  H  H100  1  0.029500  0.595800  0.522400  1.0  0.0957
  H  H101  1  0.483400  0.403000  0.472700  1.0  0.0678
  H  H102  1  0.350500  0.438200  0.514300  1.0  0.1225
  H  H103  1  0.295600  0.527100  0.446900  1.0  0.1212
  H  H104  1  0.423700  0.488500  0.406800  1.0  0.0864
  H  H105  1  0.091000  0.008800  0.090900  1.0  0.0937
  H  H106  1  0.231700  0.971400  0.050400  1.0  0.1241
  H  H107  1  0.165600  0.058000  0.981400  1.0  0.1176
  H  H108  1  0.029500  0.095800  0.022400  1.0  0.0957
  H  H109  1  0.483400  0.903000  0.972700  1.0  0.0678
  H  H110  1  0.350500  0.938200  0.014300  1.0  0.1224
  H  H111  1  0.295600  0.027100  0.946900  1.0  0.1212
  H  H112  1  0.423700  0.988500  0.906800  1.0  0.0864
  H  H113  1  0.591000  0.508800  0.090900  1.0  0.0937
  H  H114  1  0.731700  0.471400  0.050400  1.0  0.1241
  H  H115  1  0.665600  0.558000  0.981400  1.0  0.1176
  H  H116  1  0.529500  0.595800  0.022400  1.0  0.0957
  H  H117  1  0.983400  0.403000  0.972700  1.0  0.0678
  H  H118  1  0.850500  0.438200  0.014300  1.0  0.1224
  H  H119  1  0.795600  0.527100  0.946900  1.0  0.1212
  H  H120  1  0.923700  0.488500  0.906800  1.0  0.0864
  H  H121  1  0.591000  0.008800  0.590900  1.0  0.0937
  H  H122  1  0.731700  0.971400  0.550400  1.0  0.1241
  H  H123  1  0.665600  0.058000  0.481400  1.0  0.1176
  H  H124  1  0.529500  0.095800  0.522400  1.0  0.0957
  H  H125  1  0.983400  0.903000  0.472700  1.0  0.0678
  H  H126  1  0.850500  0.938200  0.514300  1.0  0.1224
  H  H127  1  0.795600  0.027100  0.446900  1.0  0.1212
  H  H128  1  0.923700  0.988500  0.406800  1.0  0.0864
  H  H129  1  0.659000  0.241200  0.590900  1.0  0.0934
  H  H130  1  0.518300  0.278600  0.550400  1.0  0.1239
  H  H131  1  0.584400  0.192000  0.481400  1.0  0.1184
  H  H132  1  0.720500  0.154200  0.522400  1.0  0.0958
  H  H133  1  0.266600  0.347000  0.472700  1.0  0.0673
  H  H134  1  0.399500  0.311800  0.514300  1.0  0.1228
  H  H135  1  0.454400  0.222900  0.446900  1.0  0.1211
  H  H136  1  0.326300  0.261500  0.406800  1.0  0.086
  H  H137  1  0.659000  0.741200  0.090900  1.0  0.0934
  H  H138  1  0.518300  0.778600  0.050400  1.0  0.1239
  H  H139  1  0.584400  0.692000  0.981400  1.0  0.1184
  H  H140  1  0.720500  0.654200  0.022400  1.0  0.0958
  H  H141  1  0.266600  0.847000  0.972700  1.0  0.0673
  H  H142  1  0.399500  0.811800  0.014300  1.0  0.1228
  H  H143  1  0.454400  0.722900  0.946900  1.0  0.1211
  H  H144  1  0.326300  0.761500  0.906800  1.0  0.086
  H  H145  1  0.159000  0.241200  0.090900  1.0  0.0934
  H  H146  1  0.018300  0.278600  0.050400  1.0  0.1239
  H  H147  1  0.084400  0.192000  0.981400  1.0  0.1184
  H  H148  1  0.220500  0.154200  0.022400  1.0  0.0958
  H  H149  1  0.766600  0.347000  0.972700  1.0  0.0673
  H  H150  1  0.899500  0.311800  0.014300  1.0  0.1228
  H  H151  1  0.954400  0.222900  0.946900  1.0  0.1211
  H  H152  1  0.826300  0.261500  0.906800  1.0  0.086
  H  H153  1  0.159000  0.741200  0.590900  1.0  0.0934
  H  H154  1  0.018300  0.778600  0.550400  1.0  0.1239
  H  H155  1  0.084400  0.692000  0.481400  1.0  0.1184
  H  H156  1  0.220500  0.654200  0.522400  1.0  0.0958
  H  H157  1  0.766600  0.847000  0.472700  1.0  0.0673
  H  H158  1  0.899500  0.811800  0.514300  1.0  0.1228
  H  H159  1  0.954400  0.722900  0.446900  1.0  0.1211
  H  H160  1  0.826300  0.761500  0.406800  1.0  0.086
  H  H161  1  0.341000  0.491200  0.840900  1.0  0.0934
  H  H162  1  0.481700  0.528600  0.800400  1.0  0.1243
  H  H163  1  0.415600  0.442000  0.731400  1.0  0.1184
  H  H164  1  0.279500  0.404200  0.772400  1.0  0.0955
  H  H165  1  0.733400  0.597000  0.722700  1.0  0.0678
  H  H166  1  0.600500  0.561800  0.764300  1.0  0.1225
  H  H167  1  0.545600  0.472900  0.696900  1.0  0.121
  H  H168  1  0.673700  0.511500  0.656800  1.0  0.0868
  H  H169  1  0.341000  0.991200  0.340900  1.0  0.0934
  H  H170  1  0.481700  0.028600  0.300400  1.0  0.1243
  H  H171  1  0.415600  0.942000  0.231400  1.0  0.1184
  H  H172  1  0.279500  0.904200  0.272400  1.0  0.0955
  H  H173  1  0.733400  0.097000  0.222700  1.0  0.0678
  H  H174  1  0.600500  0.061800  0.264300  1.0  0.1225
  H  H175  1  0.545600  0.972900  0.196900  1.0  0.121
  H  H176  1  0.673700  0.011500  0.156800  1.0  0.0868
  H  H177  1  0.841000  0.491200  0.340900  1.0  0.0934
  H  H178  1  0.981700  0.528600  0.300400  1.0  0.1243
  H  H179  1  0.915600  0.442000  0.231400  1.0  0.1184
  H  H180  1  0.779500  0.404200  0.272400  1.0  0.0955
  H  H181  1  0.233400  0.597000  0.222700  1.0  0.0678
  H  H182  1  0.100500  0.561800  0.264300  1.0  0.1225
  H  H183  1  0.045600  0.472900  0.196900  1.0  0.121
  H  H184  1  0.173700  0.511500  0.156800  1.0  0.0868
  H  H185  1  0.841000  0.991200  0.840900  1.0  0.0934
  H  H186  1  0.981700  0.028600  0.800400  1.0  0.1243
  H  H187  1  0.915600  0.942000  0.731400  1.0  0.1184
  H  H188  1  0.779500  0.904200  0.772400  1.0  0.0955
  H  H189  1  0.233400  0.097000  0.722700  1.0  0.0678
  H  H190  1  0.100500  0.061800  0.764300  1.0  0.1225
  H  H191  1  0.045600  0.972900  0.696900  1.0  0.121
  H  H192  1  0.173700  0.011500  0.656800  1.0  0.0868
  H  H193  1  0.909000  0.758800  0.840900  1.0  0.0935
  H  H194  1  0.768300  0.721400  0.800400  1.0  0.1231
  H  H195  1  0.834400  0.808000  0.731400  1.0  0.1177
  H  H196  1  0.970500  0.845800  0.772400  1.0  0.0959
  H  H197  1  0.516600  0.653000  0.722700  1.0  0.0674
  H  H198  1  0.649500  0.688200  0.764300  1.0  0.1224
  H  H199  1  0.704400  0.777100  0.696900  1.0  0.1211
  H  H200  1  0.576300  0.738500  0.656800  1.0  0.0863
  H  H201  1  0.909000  0.258800  0.340900  1.0  0.0935
  H  H202  1  0.768300  0.221400  0.300400  1.0  0.1231
  H  H203  1  0.834400  0.308000  0.231400  1.0  0.1177
  H  H204  1  0.970500  0.345800  0.272400  1.0  0.0959
  H  H205  1  0.516600  0.153000  0.222700  1.0  0.0674
  H  H206  1  0.649500  0.188200  0.264300  1.0  0.1224
  H  H207  1  0.704400  0.277100  0.196900  1.0  0.1211
  H  H208  1  0.576300  0.238500  0.156800  1.0  0.0863
  H  H209  1  0.409000  0.758800  0.340900  1.0  0.0935
  H  H210  1  0.268300  0.721400  0.300400  1.0  0.1231
  H  H211  1  0.334400  0.808000  0.231400  1.0  0.1177
  H  H212  1  0.470500  0.845800  0.272400  1.0  0.0959
  H  H213  1  0.016600  0.653000  0.222700  1.0  0.0674
  H  H214  1  0.149500  0.688200  0.264300  1.0  0.1224
  H  H215  1  0.204400  0.777100  0.196900  1.0  0.1211
  H  H216  1  0.076300  0.738500  0.156800  1.0  0.0863
  H  H217  1  0.409000  0.258800  0.840900  1.0  0.0935
  H  H218  1  0.268300  0.221400  0.800400  1.0  0.1231
  H  H219  1  0.334400  0.308000  0.731400  1.0  0.1177
  H  H220  1  0.470500  0.345800  0.772400  1.0  0.0959
  H  H221  1  0.016600  0.153000  0.722700  1.0  0.0674
  H  H222  1  0.149500  0.188200  0.764300  1.0  0.1224
  H  H223  1  0.204400  0.277100  0.696900  1.0  0.1211
  H  H224  1  0.076300  0.238500  0.656800  1.0  0.0863
  H  H225  1  0.909000  0.491200  0.409100  1.0  0.0934
  H  H226  1  0.768300  0.528600  0.449600  1.0  0.1237
  H  H227  1  0.834400  0.442000  0.518600  1.0  0.1186
  H  H228  1  0.970500  0.404200  0.477600  1.0  0.0963
  H  H229  1  0.516600  0.597000  0.527300  1.0  0.0671
  H  H230  1  0.649500  0.561800  0.485700  1.0  0.1216
  H  H231  1  0.704400  0.472900  0.553100  1.0  0.1216
  H  H232  1  0.576300  0.511500  0.593200  1.0  0.0854
  H  H233  1  0.909000  0.991200  0.909100  1.0  0.0934
  H  H234  1  0.768300  0.028600  0.949600  1.0  0.1237
  H  H235  1  0.834400  0.942000  0.018600  1.0  0.1186
  H  H236  1  0.970500  0.904200  0.977600  1.0  0.0963
  H  H237  1  0.516600  0.097000  0.027300  1.0  0.0671
  H  H238  1  0.649500  0.061800  0.985700  1.0  0.1216
  H  H239  1  0.704400  0.972900  0.053100  1.0  0.1216
  H  H240  1  0.576300  0.011500  0.093200  1.0  0.0854
  H  H241  1  0.409000  0.491200  0.909100  1.0  0.0934
  H  H242  1  0.268300  0.528600  0.949600  1.0  0.1237
  H  H243  1  0.334400  0.442000  0.018600  1.0  0.1186
  H  H244  1  0.470500  0.404200  0.977600  1.0  0.0963
  H  H245  1  0.016600  0.597000  0.027300  1.0  0.0671
  H  H246  1  0.149500  0.561800  0.985700  1.0  0.1216
  H  H247  1  0.204400  0.472900  0.053100  1.0  0.1215
  H  H248  1  0.076300  0.511500  0.093200  1.0  0.0854
  H  H249  1  0.409000  0.991200  0.409100  1.0  0.0934
  H  H250  1  0.268300  0.028600  0.449600  1.0  0.1237
  H  H251  1  0.334400  0.942000  0.518600  1.0  0.1186
  H  H252  1  0.470500  0.904200  0.477600  1.0  0.0963
  H  H253  1  0.016600  0.097000  0.527300  1.0  0.0671
  H  H254  1  0.149500  0.061800  0.485700  1.0  0.1216
  H  H255  1  0.204400  0.972900  0.553100  1.0  0.1216
  H  H256  1  0.076300  0.011500  0.593200  1.0  0.0854
  H  H257  1  0.341000  0.758800  0.409100  1.0  0.0936
  H  H258  1  0.481700  0.721400  0.449600  1.0  0.1238
  H  H259  1  0.415600  0.808000  0.518600  1.0  0.118
  H  H260  1  0.279500  0.845800  0.477600  1.0  0.0958
  H  H261  1  0.733400  0.653000  0.527300  1.0  0.0675
  H  H262  1  0.600500  0.688200  0.485700  1.0  0.1215
  H  H263  1  0.545600  0.777100  0.553100  1.0  0.1212
  H  H264  1  0.673700  0.738500  0.593200  1.0  0.0857
  H  H265  1  0.341000  0.258800  0.909100  1.0  0.0936
  H  H266  1  0.481700  0.221400  0.949600  1.0  0.1238
  H  H267  1  0.415600  0.308000  0.018600  1.0  0.118
  H  H268  1  0.279500  0.345800  0.977600  1.0  0.0958
  H  H269  1  0.733400  0.153000  0.027300  1.0  0.0675
  H  H270  1  0.600500  0.188200  0.985700  1.0  0.1215
  H  H271  1  0.545600  0.277100  0.053100  1.0  0.1212
  H  H272  1  0.673700  0.238500  0.093200  1.0  0.0857
  H  H273  1  0.841000  0.758800  0.909100  1.0  0.0936
  H  H274  1  0.981700  0.721400  0.949600  1.0  0.1238
  H  H275  1  0.915600  0.808000  0.018600  1.0  0.118
  H  H276  1  0.779500  0.845800  0.977600  1.0  0.0958
  H  H277  1  0.233400  0.653000  0.027300  1.0  0.0675
  H  H278  1  0.100500  0.688200  0.985700  1.0  0.1215
  H  H279  1  0.045600  0.777100  0.053100  1.0  0.1212
  H  H280  1  0.173700  0.738500  0.093200  1.0  0.0857
  H  H281  1  0.841000  0.258800  0.409100  1.0  0.0936
  H  H282  1  0.981700  0.221400  0.449600  1.0  0.1238
  H  H283  1  0.915600  0.308000  0.518600  1.0  0.118
  H  H284  1  0.779500  0.345800  0.477600  1.0  0.0958
  H  H285  1  0.233400  0.153000  0.527300  1.0  0.0675
  H  H286  1  0.100500  0.188200  0.485700  1.0  0.1215
  H  H287  1  0.045600  0.277100  0.553100  1.0  0.1212
  H  H288  1  0.173700  0.238500  0.593200  1.0  0.0857
  C  C289  1  0.791900  0.581000  0.164210  1.0  0.6853
  C  C290  1  0.642500  0.518800  0.180900  1.0  -0.0608
  C  C291  1  0.558400  0.496200  0.205300  1.0  -0.0981
  C  C292  1  0.534100  0.510900  0.238260  1.0  -0.0055
  C  C293  1  0.597500  0.548200  0.246560  1.0  -0.1065
  C  C294  1  0.680200  0.570900  0.222000  1.0  -0.1069
  C  C295  1  0.701900  0.556300  0.189500  1.0  -0.133
  C  C296  1  0.307600  0.427900  0.282570  1.0  0.1716
  C  C297  1  0.386200  0.449000  0.257400  1.0  -0.189
  C  C298  1  0.446100  0.486800  0.264390  1.0  0.041
  C  C299  1  0.419600  0.501700  0.297500  1.0  -0.1859
  C  C300  1  0.341800  0.478500  0.321400  1.0  0.162
  C  C301  1  0.791900  0.081000  0.664210  1.0  0.6853
  C  C302  1  0.642500  0.018800  0.680900  1.0  -0.0608
  C  C303  1  0.558400  0.996200  0.705300  1.0  -0.0981
  C  C304  1  0.534100  0.010900  0.738260  1.0  -0.0055
  C  C305  1  0.597500  0.048200  0.746560  1.0  -0.1065
  C  C306  1  0.680200  0.070900  0.722000  1.0  -0.1069
  C  C307  1  0.701900  0.056300  0.689500  1.0  -0.133
  C  C308  1  0.307600  0.927900  0.782570  1.0  0.1716
  C  C309  1  0.386200  0.949000  0.757400  1.0  -0.189
  C  C310  1  0.446100  0.986800  0.764390  1.0  0.041
  C  C311  1  0.419600  0.001700  0.797500  1.0  -0.1859
  C  C312  1  0.341800  0.978500  0.821400  1.0  0.162
  C  C313  1  0.291900  0.581000  0.664210  1.0  0.6853
  C  C314  1  0.142500  0.518800  0.680900  1.0  -0.0608
  C  C315  1  0.058400  0.496200  0.705300  1.0  -0.0981
  C  C316  1  0.034100  0.510900  0.738260  1.0  -0.0055
  C  C317  1  0.097500  0.548200  0.746560  1.0  -0.1065
  C  C318  1  0.180200  0.570900  0.722000  1.0  -0.1069
  C  C319  1  0.201900  0.556300  0.689500  1.0  -0.133
  C  C320  1  0.807600  0.427900  0.782570  1.0  0.1716
  C  C321  1  0.886200  0.449000  0.757400  1.0  -0.189
  C  C322  1  0.946100  0.486800  0.764390  1.0  0.041
  C  C323  1  0.919600  0.501700  0.797500  1.0  -0.1859
  C  C324  1  0.841800  0.478500  0.821400  1.0  0.162
  C  C325  1  0.291900  0.081000  0.164210  1.0  0.6853
  C  C326  1  0.142500  0.018800  0.180900  1.0  -0.0608
  C  C327  1  0.058400  0.996200  0.205300  1.0  -0.0981
  C  C328  1  0.034100  0.010900  0.238260  1.0  -0.0055
  C  C329  1  0.097500  0.048200  0.246560  1.0  -0.1065
  C  C330  1  0.180200  0.070900  0.222000  1.0  -0.1069
  C  C331  1  0.201900  0.056300  0.189500  1.0  -0.133
  C  C332  1  0.807600  0.927900  0.282570  1.0  0.1716
  C  C333  1  0.886200  0.949000  0.257400  1.0  -0.189
  C  C334  1  0.946100  0.986800  0.264390  1.0  0.041
  C  C335  1  0.919600  0.001700  0.297500  1.0  -0.1859
  C  C336  1  0.841800  0.978500  0.321400  1.0  0.162
  C  C337  1  0.958100  0.169000  0.164210  1.0  0.6865
  C  C338  1  0.107500  0.231200  0.180900  1.0  -0.0538
  C  C339  1  0.191600  0.253800  0.205300  1.0  -0.1006
  C  C340  1  0.215900  0.239100  0.238260  1.0  -0.0052
  C  C341  1  0.152500  0.201800  0.246560  1.0  -0.1049
  C  C342  1  0.069800  0.179100  0.222000  1.0  -0.1056
  C  C343  1  0.048100  0.193700  0.189500  1.0  -0.1335
  C  C344  1  0.442400  0.322100  0.282570  1.0  0.1736
  C  C345  1  0.363800  0.301000  0.257400  1.0  -0.1834
  C  C346  1  0.303900  0.263200  0.264390  1.0  0.0412
  C  C347  1  0.330400  0.248300  0.297500  1.0  -0.1859
  C  C348  1  0.408200  0.271500  0.321400  1.0  0.1627
  C  C349  1  0.958100  0.669000  0.664210  1.0  0.6865
  C  C350  1  0.107500  0.731200  0.680900  1.0  -0.0538
  C  C351  1  0.191600  0.753800  0.705300  1.0  -0.1006
  C  C352  1  0.215900  0.739100  0.738260  1.0  -0.0052
  C  C353  1  0.152500  0.701800  0.746560  1.0  -0.1049
  C  C354  1  0.069800  0.679100  0.722000  1.0  -0.1056
  C  C355  1  0.048100  0.693700  0.689500  1.0  -0.1335
  C  C356  1  0.442400  0.822100  0.782570  1.0  0.1736
  C  C357  1  0.363800  0.801000  0.757400  1.0  -0.1834
  C  C358  1  0.303900  0.763200  0.764390  1.0  0.0412
  C  C359  1  0.330400  0.748300  0.797500  1.0  -0.1859
  C  C360  1  0.408200  0.771500  0.821400  1.0  0.1627
  C  C361  1  0.458100  0.169000  0.664210  1.0  0.6865
  C  C362  1  0.607500  0.231200  0.680900  1.0  -0.0538
  C  C363  1  0.691600  0.253800  0.705300  1.0  -0.1006
  C  C364  1  0.715900  0.239100  0.738260  1.0  -0.0052
  C  C365  1  0.652500  0.201800  0.746560  1.0  -0.1049
  C  C366  1  0.569800  0.179100  0.722000  1.0  -0.1056
  C  C367  1  0.548100  0.193700  0.689500  1.0  -0.1335
  C  C368  1  0.942400  0.322100  0.782570  1.0  0.1736
  C  C369  1  0.863800  0.301000  0.757400  1.0  -0.1834
  C  C370  1  0.803900  0.263200  0.764390  1.0  0.0412
  C  C371  1  0.830400  0.248300  0.797500  1.0  -0.1859
  C  C372  1  0.908200  0.271500  0.821400  1.0  0.1627
  C  C373  1  0.458100  0.669000  0.164210  1.0  0.6865
  C  C374  1  0.607500  0.731200  0.180900  1.0  -0.0538
  C  C375  1  0.691600  0.753800  0.205300  1.0  -0.1006
  C  C376  1  0.715900  0.739100  0.238260  1.0  -0.0052
  C  C377  1  0.652500  0.701800  0.246560  1.0  -0.1049
  C  C378  1  0.569800  0.679100  0.222000  1.0  -0.1056
  C  C379  1  0.548100  0.693700  0.189500  1.0  -0.1335
  C  C380  1  0.942400  0.822100  0.282570  1.0  0.1736
  C  C381  1  0.863800  0.801000  0.257400  1.0  -0.1834
  C  C382  1  0.803900  0.763200  0.264390  1.0  0.0412
  C  C383  1  0.830400  0.748300  0.297500  1.0  -0.1859
  C  C384  1  0.908200  0.771500  0.321400  1.0  0.1627
  C  C385  1  0.958100  0.581000  0.585790  1.0  0.6859
  C  C386  1  0.107500  0.518800  0.569100  1.0  -0.0516
  C  C387  1  0.191600  0.496200  0.544700  1.0  -0.1024
  C  C388  1  0.215900  0.510900  0.511740  1.0  -0.0056
  C  C389  1  0.152500  0.548200  0.503440  1.0  -0.1129
  C  C390  1  0.069800  0.570900  0.528000  1.0  -0.1047
  C  C391  1  0.048100  0.556300  0.560500  1.0  -0.1308
  C  C392  1  0.442400  0.427900  0.467430  1.0  0.1694
  C  C393  1  0.363800  0.449000  0.492600  1.0  -0.1814
  C  C394  1  0.303900  0.486800  0.485610  1.0  0.0409
  C  C395  1  0.330400  0.501700  0.452500  1.0  -0.1908
  C  C396  1  0.408200  0.478500  0.428600  1.0  0.1652
  C  C397  1  0.958100  0.081000  0.085790  1.0  0.6859
  C  C398  1  0.107500  0.018800  0.069100  1.0  -0.0516
  C  C399  1  0.191600  0.996200  0.044700  1.0  -0.1024
  C  C400  1  0.215900  0.010900  0.011740  1.0  -0.0056
  C  C401  1  0.152500  0.048200  0.003440  1.0  -0.1129
  C  C402  1  0.069800  0.070900  0.028000  1.0  -0.1047
  C  C403  1  0.048100  0.056300  0.060500  1.0  -0.1308
  C  C404  1  0.442400  0.927900  0.967430  1.0  0.1691
  C  C405  1  0.363800  0.949000  0.992600  1.0  -0.1814
  C  C406  1  0.303900  0.986800  0.985610  1.0  0.0409
  C  C407  1  0.330400  0.001700  0.952500  1.0  -0.1908
  C  C408  1  0.408200  0.978500  0.928600  1.0  0.1652
  C  C409  1  0.458100  0.581000  0.085790  1.0  0.6859
  C  C410  1  0.607500  0.518800  0.069100  1.0  -0.0516
  C  C411  1  0.691600  0.496200  0.044700  1.0  -0.1024
  C  C412  1  0.715900  0.510900  0.011740  1.0  -0.0056
  C  C413  1  0.652500  0.548200  0.003440  1.0  -0.1129
  C  C414  1  0.569800  0.570900  0.028000  1.0  -0.1047
  C  C415  1  0.548100  0.556300  0.060500  1.0  -0.1308
  C  C416  1  0.942400  0.427900  0.967430  1.0  0.1692
  C  C417  1  0.863800  0.449000  0.992600  1.0  -0.1814
  C  C418  1  0.803900  0.486800  0.985610  1.0  0.0409
  C  C419  1  0.830400  0.501700  0.952500  1.0  -0.1908
  C  C420  1  0.908200  0.478500  0.928600  1.0  0.1652
  C  C421  1  0.458100  0.081000  0.585790  1.0  0.6859
  C  C422  1  0.607500  0.018800  0.569100  1.0  -0.0516
  C  C423  1  0.691600  0.996200  0.544700  1.0  -0.1024
  C  C424  1  0.715900  0.010900  0.511740  1.0  -0.0056
  C  C425  1  0.652500  0.048200  0.503440  1.0  -0.1129
  C  C426  1  0.569800  0.070900  0.528000  1.0  -0.1047
  C  C427  1  0.548100  0.056300  0.560500  1.0  -0.1308
  C  C428  1  0.942400  0.927900  0.467430  1.0  0.1691
  C  C429  1  0.863800  0.949000  0.492600  1.0  -0.1814
  C  C430  1  0.803900  0.986800  0.485610  1.0  0.0409
  C  C431  1  0.830400  0.001700  0.452500  1.0  -0.1908
  C  C432  1  0.908200  0.978500  0.428600  1.0  0.1652
  C  C433  1  0.791900  0.169000  0.585790  1.0  0.6861
  C  C434  1  0.642500  0.231200  0.569100  1.0  -0.0456
  C  C435  1  0.558400  0.253800  0.544700  1.0  -0.1002
  C  C436  1  0.534100  0.239100  0.511740  1.0  -0.006
  C  C437  1  0.597500  0.201800  0.503440  1.0  -0.105
  C  C438  1  0.680200  0.179100  0.528000  1.0  -0.1071
  C  C439  1  0.701900  0.193700  0.560500  1.0  -0.1333
  C  C440  1  0.307600  0.322100  0.467430  1.0  0.1696
  C  C441  1  0.386200  0.301000  0.492600  1.0  -0.1805
  C  C442  1  0.446100  0.263200  0.485610  1.0  0.0413
  C  C443  1  0.419600  0.248300  0.452500  1.0  -0.1929
  C  C444  1  0.341800  0.271500  0.428600  1.0  0.1639
  C  C445  1  0.791900  0.669000  0.085790  1.0  0.6861
  C  C446  1  0.642500  0.731200  0.069100  1.0  -0.0456
  C  C447  1  0.558400  0.753800  0.044700  1.0  -0.0999
  C  C448  1  0.534100  0.739100  0.011740  1.0  -0.006
  C  C449  1  0.597500  0.701800  0.003440  1.0  -0.105
  C  C450  1  0.680200  0.679100  0.028000  1.0  -0.1071
  C  C451  1  0.701900  0.693700  0.060500  1.0  -0.1333
  C  C452  1  0.307600  0.822100  0.967430  1.0  0.1693
  C  C453  1  0.386200  0.801000  0.992600  1.0  -0.1805
  C  C454  1  0.446100  0.763200  0.985610  1.0  0.0413
  C  C455  1  0.419600  0.748300  0.952500  1.0  -0.1929
  C  C456  1  0.341800  0.771500  0.928600  1.0  0.1639
  C  C457  1  0.291900  0.169000  0.085790  1.0  0.6861
  C  C458  1  0.142500  0.231200  0.069100  1.0  -0.0456
  C  C459  1  0.058400  0.253800  0.044700  1.0  -0.0999
  C  C460  1  0.034100  0.239100  0.011740  1.0  -0.006
  C  C461  1  0.097500  0.201800  0.003440  1.0  -0.105
  C  C462  1  0.180200  0.179100  0.028000  1.0  -0.1071
  C  C463  1  0.201900  0.193700  0.060500  1.0  -0.1333
  C  C464  1  0.807600  0.322100  0.967430  1.0  0.1693
  C  C465  1  0.886200  0.301000  0.992600  1.0  -0.1805
  C  C466  1  0.946100  0.263200  0.985610  1.0  0.0413
  C  C467  1  0.919600  0.248300  0.952500  1.0  -0.1929
  C  C468  1  0.841800  0.271500  0.928600  1.0  0.1639
  C  C469  1  0.291900  0.669000  0.585790  1.0  0.6861
  C  C470  1  0.142500  0.731200  0.569100  1.0  -0.0456
  C  C471  1  0.058400  0.753800  0.544700  1.0  -0.1002
  C  C472  1  0.034100  0.739100  0.511740  1.0  -0.006
  C  C473  1  0.097500  0.701800  0.503440  1.0  -0.105
  C  C474  1  0.180200  0.679100  0.528000  1.0  -0.1071
  C  C475  1  0.201900  0.693700  0.560500  1.0  -0.1333
  C  C476  1  0.807600  0.822100  0.467430  1.0  0.1696
  C  C477  1  0.886200  0.801000  0.492600  1.0  -0.1805
  C  C478  1  0.946100  0.763200  0.485610  1.0  0.0413
  C  C479  1  0.919600  0.748300  0.452500  1.0  -0.1929
  C  C480  1  0.841800  0.771500  0.428600  1.0  0.1639
  C  C481  1  0.208100  0.419000  0.835790  1.0  0.686
  C  C482  1  0.357500  0.481200  0.819100  1.0  -0.053
  C  C483  1  0.441600  0.503800  0.794700  1.0  -0.0985
  C  C484  1  0.465900  0.489100  0.761740  1.0  -0.0056
  C  C485  1  0.402500  0.451800  0.753440  1.0  -0.1115
  C  C486  1  0.319800  0.429100  0.778000  1.0  -0.1077
  C  C487  1  0.298100  0.443700  0.810500  1.0  -0.1326
  C  C488  1  0.692400  0.572100  0.717430  1.0  0.1696
  C  C489  1  0.613800  0.551000  0.742600  1.0  -0.1828
  C  C490  1  0.553900  0.513200  0.735610  1.0  0.0413
  C  C491  1  0.580400  0.498300  0.702500  1.0  -0.1886
  C  C492  1  0.658200  0.521500  0.678600  1.0  0.1632
  C  C493  1  0.208100  0.919000  0.335790  1.0  0.686
  C  C494  1  0.357500  0.981200  0.319100  1.0  -0.0532
  C  C495  1  0.441600  0.003800  0.294700  1.0  -0.0985
  C  C496  1  0.465900  0.989100  0.261740  1.0  -0.0056
  C  C497  1  0.402500  0.951800  0.253440  1.0  -0.1094
  C  C498  1  0.319800  0.929100  0.278000  1.0  -0.1077
  C  C499  1  0.298100  0.943700  0.310500  1.0  -0.1326
  C  C500  1  0.692400  0.072100  0.217430  1.0  0.1696
  C  C501  1  0.613800  0.051000  0.242600  1.0  -0.1832
  C  C502  1  0.553900  0.013200  0.235610  1.0  0.0413
  C  C503  1  0.580400  0.998300  0.202500  1.0  -0.1886
  C  C504  1  0.658200  0.021500  0.178600  1.0  0.1644
  C  C505  1  0.708100  0.419000  0.335790  1.0  0.686
  C  C506  1  0.857500  0.481200  0.319100  1.0  -0.053
  C  C507  1  0.941600  0.503800  0.294700  1.0  -0.0985
  C  C508  1  0.965900  0.489100  0.261740  1.0  -0.0056
  C  C509  1  0.902500  0.451800  0.253440  1.0  -0.1115
  C  C510  1  0.819800  0.429100  0.278000  1.0  -0.1077
  C  C511  1  0.798100  0.443700  0.310500  1.0  -0.1326
  C  C512  1  0.192400  0.572100  0.217430  1.0  0.1696
  C  C513  1  0.113800  0.551000  0.242600  1.0  -0.1828
  C  C514  1  0.053900  0.513200  0.235610  1.0  0.0413
  C  C515  1  0.080400  0.498300  0.202500  1.0  -0.1886
  C  C516  1  0.158200  0.521500  0.178600  1.0  0.1632
  C  C517  1  0.708100  0.919000  0.835790  1.0  0.686
  C  C518  1  0.857500  0.981200  0.819100  1.0  -0.0532
  C  C519  1  0.941600  0.003800  0.794700  1.0  -0.0985
  C  C520  1  0.965900  0.989100  0.761740  1.0  -0.0056
  C  C521  1  0.902500  0.951800  0.753440  1.0  -0.1094
  C  C522  1  0.819800  0.929100  0.778000  1.0  -0.1077
  C  C523  1  0.798100  0.943700  0.810500  1.0  -0.1326
  C  C524  1  0.192400  0.072100  0.717430  1.0  0.1696
  C  C525  1  0.113800  0.051000  0.742600  1.0  -0.1832
  C  C526  1  0.053900  0.013200  0.735610  1.0  0.0413
  C  C527  1  0.080400  0.998300  0.702500  1.0  -0.1886
  C  C528  1  0.158200  0.021500  0.678600  1.0  0.1644
  C  C529  1  0.041900  0.831000  0.835790  1.0  0.6861
  C  C530  1  0.892500  0.768800  0.819100  1.0  -0.0604
  C  C531  1  0.808400  0.746200  0.794700  1.0  -0.096
  C  C532  1  0.784100  0.760900  0.761740  1.0  -0.0059
  C  C533  1  0.847500  0.798200  0.753440  1.0  -0.1052
  C  C534  1  0.930200  0.820900  0.778000  1.0  -0.1092
  C  C535  1  0.951900  0.806300  0.810500  1.0  -0.1323
  C  C536  1  0.557600  0.677900  0.717430  1.0  0.1719
  C  C537  1  0.636200  0.699000  0.742600  1.0  -0.18
  C  C538  1  0.696100  0.736800  0.735610  1.0  0.041
  C  C539  1  0.669600  0.751700  0.702500  1.0  -0.1888
  C  C540  1  0.591800  0.728500  0.678600  1.0  0.1641
  C  C541  1  0.041900  0.331000  0.335790  1.0  0.6861
  C  C542  1  0.892500  0.268800  0.319100  1.0  -0.0604
  C  C543  1  0.808400  0.246200  0.294700  1.0  -0.096
  C  C544  1  0.784100  0.260900  0.261740  1.0  -0.0059
  C  C545  1  0.847500  0.298200  0.253440  1.0  -0.1052
  C  C546  1  0.930200  0.320900  0.278000  1.0  -0.1092
  C  C547  1  0.951900  0.306300  0.310500  1.0  -0.1323
  C  C548  1  0.557600  0.177900  0.217430  1.0  0.1719
  C  C549  1  0.636200  0.199000  0.242600  1.0  -0.18
  C  C550  1  0.696100  0.236800  0.235610  1.0  0.041
  C  C551  1  0.669600  0.251700  0.202500  1.0  -0.1888
  C  C552  1  0.591800  0.228500  0.178600  1.0  0.1641
  C  C553  1  0.541900  0.831000  0.335790  1.0  0.6861
  C  C554  1  0.392500  0.768800  0.319100  1.0  -0.0604
  C  C555  1  0.308400  0.746200  0.294700  1.0  -0.096
  C  C556  1  0.284100  0.760900  0.261740  1.0  -0.0059
  C  C557  1  0.347500  0.798200  0.253440  1.0  -0.1052
  C  C558  1  0.430200  0.820900  0.278000  1.0  -0.1092
  C  C559  1  0.451900  0.806300  0.310500  1.0  -0.1323
  C  C560  1  0.057600  0.677900  0.217430  1.0  0.1719
  C  C561  1  0.136200  0.699000  0.242600  1.0  -0.18
  C  C562  1  0.196100  0.736800  0.235610  1.0  0.041
  C  C563  1  0.169600  0.751700  0.202500  1.0  -0.1888
  C  C564  1  0.091800  0.728500  0.178600  1.0  0.1641
  C  C565  1  0.541900  0.331000  0.835790  1.0  0.6861
  C  C566  1  0.392500  0.268800  0.819100  1.0  -0.0604
  C  C567  1  0.308400  0.246200  0.794700  1.0  -0.096
  C  C568  1  0.284100  0.260900  0.761740  1.0  -0.0059
  C  C569  1  0.347500  0.298200  0.753440  1.0  -0.1052
  C  C570  1  0.430200  0.320900  0.778000  1.0  -0.1092
  C  C571  1  0.451900  0.306300  0.810500  1.0  -0.1323
  C  C572  1  0.057600  0.177900  0.717430  1.0  0.1719
  C  C573  1  0.136200  0.199000  0.742600  1.0  -0.18
  C  C574  1  0.196100  0.236800  0.735610  1.0  0.041
  C  C575  1  0.169600  0.251700  0.702500  1.0  -0.1888
  C  C576  1  0.091800  0.228500  0.678600  1.0  0.1641
  C  C577  1  0.041900  0.419000  0.414210  1.0  0.6855
  C  C578  1  0.892500  0.481200  0.430900  1.0  -0.0604
  C  C579  1  0.808400  0.503800  0.455300  1.0  -0.1012
  C  C580  1  0.784100  0.489100  0.488260  1.0  -0.0055
  C  C581  1  0.847500  0.451800  0.496560  1.0  -0.1081
  C  C582  1  0.930200  0.429100  0.472000  1.0  -0.1053
  C  C583  1  0.951900  0.443700  0.439500  1.0  -0.1335
  C  C584  1  0.557600  0.572100  0.532570  1.0  0.174
  C  C585  1  0.636200  0.551000  0.507400  1.0  -0.1908
  C  C586  1  0.696100  0.513200  0.514390  1.0  0.0412
  C  C587  1  0.669600  0.498300  0.547500  1.0  -0.1908
  C  C588  1  0.591800  0.521500  0.571400  1.0  0.165
  C  C589  1  0.041900  0.919000  0.914210  1.0  0.6855
  C  C590  1  0.892500  0.981200  0.930900  1.0  -0.047
  C  C591  1  0.808400  0.003800  0.955300  1.0  -0.1012
  C  C592  1  0.784100  0.989100  0.988260  1.0  -0.0055
  C  C593  1  0.847500  0.951800  0.996560  1.0  -0.1085
  C  C594  1  0.930200  0.929100  0.972000  1.0  -0.1055
  C  C595  1  0.951900  0.943700  0.939500  1.0  -0.1335
  C  C596  1  0.557600  0.072100  0.032570  1.0  0.174
  C  C597  1  0.636200  0.051000  0.007400  1.0  -0.1909
  C  C598  1  0.696100  0.013200  0.014390  1.0  0.0412
  C  C599  1  0.669600  0.998300  0.047500  1.0  -0.1908
  C  C600  1  0.591800  0.021500  0.071400  1.0  0.1646
  C  C601  1  0.541900  0.419000  0.914210  1.0  0.6855
  C  C602  1  0.392500  0.481200  0.930900  1.0  -0.0604
  C  C603  1  0.308400  0.503800  0.955300  1.0  -0.1012
  C  C604  1  0.284100  0.489100  0.988260  1.0  -0.0055
  C  C605  1  0.347500  0.451800  0.996560  1.0  -0.1081
  C  C606  1  0.430200  0.429100  0.972000  1.0  -0.1055
  C  C607  1  0.451900  0.443700  0.939500  1.0  -0.1335
  C  C608  1  0.057600  0.572100  0.032570  1.0  0.174
  C  C609  1  0.136200  0.551000  0.007400  1.0  -0.1908
  C  C610  1  0.196100  0.513200  0.014390  1.0  0.0412
  C  C611  1  0.169600  0.498300  0.047500  1.0  -0.1908
  C  C612  1  0.091800  0.521500  0.071400  1.0  0.165
  C  C613  1  0.541900  0.919000  0.414210  1.0  0.6855
  C  C614  1  0.392500  0.981200  0.430900  1.0  -0.047
  C  C615  1  0.308400  0.003800  0.455300  1.0  -0.1012
  C  C616  1  0.284100  0.989100  0.488260  1.0  -0.0055
  C  C617  1  0.347500  0.951800  0.496560  1.0  -0.1085
  C  C618  1  0.430200  0.929100  0.472000  1.0  -0.1053
  C  C619  1  0.451900  0.943700  0.439500  1.0  -0.1335
  C  C620  1  0.057600  0.072100  0.532570  1.0  0.174
  C  C621  1  0.136200  0.051000  0.507400  1.0  -0.1909
  C  C622  1  0.196100  0.013200  0.514390  1.0  0.0412
  C  C623  1  0.169600  0.998300  0.547500  1.0  -0.1908
  C  C624  1  0.091800  0.021500  0.571400  1.0  0.1646
  C  C625  1  0.208100  0.831000  0.414210  1.0  0.6867
  C  C626  1  0.357500  0.768800  0.430900  1.0  -0.0511
  C  C627  1  0.441600  0.746200  0.455300  1.0  -0.1033
  C  C628  1  0.465900  0.760900  0.488260  1.0  -0.0051
  C  C629  1  0.402500  0.798200  0.496560  1.0  -0.1102
  C  C630  1  0.319800  0.820900  0.472000  1.0  -0.108
  C  C631  1  0.298100  0.806300  0.439500  1.0  -0.1315
  C  C632  1  0.692400  0.677900  0.532570  1.0  0.1712
  C  C633  1  0.613800  0.699000  0.507400  1.0  -0.1823
  C  C634  1  0.553900  0.736800  0.514390  1.0  0.0409
  C  C635  1  0.580400  0.751700  0.547500  1.0  -0.1877
  C  C636  1  0.658200  0.728500  0.571400  1.0  0.1643
  C  C637  1  0.208100  0.331000  0.914210  1.0  0.6867
  C  C638  1  0.357500  0.268800  0.930900  1.0  -0.0511
  C  C639  1  0.441600  0.246200  0.955300  1.0  -0.1033
  C  C640  1  0.465900  0.260900  0.988260  1.0  -0.0051
  C  C641  1  0.402500  0.298200  0.996560  1.0  -0.1102
  C  C642  1  0.319800  0.320900  0.972000  1.0  -0.1076
  C  C643  1  0.298100  0.306300  0.939500  1.0  -0.1315
  C  C644  1  0.692400  0.177900  0.032570  1.0  0.1712
  C  C645  1  0.613800  0.199000  0.007400  1.0  -0.1823
  C  C646  1  0.553900  0.236800  0.014390  1.0  0.0409
  C  C647  1  0.580400  0.251700  0.047500  1.0  -0.1877
  C  C648  1  0.658200  0.228500  0.071400  1.0  0.1643
  C  C649  1  0.708100  0.831000  0.914210  1.0  0.6867
  C  C650  1  0.857500  0.768800  0.930900  1.0  -0.0511
  C  C651  1  0.941600  0.746200  0.955300  1.0  -0.1033
  C  C652  1  0.965900  0.760900  0.988260  1.0  -0.0051
  C  C653  1  0.902500  0.798200  0.996560  1.0  -0.1102
  C  C654  1  0.819800  0.820900  0.972000  1.0  -0.1076
  C  C655  1  0.798100  0.806300  0.939500  1.0  -0.1315
  C  C656  1  0.192400  0.677900  0.032570  1.0  0.1712
  C  C657  1  0.113800  0.699000  0.007400  1.0  -0.1823
  C  C658  1  0.053900  0.736800  0.014390  1.0  0.0409
  C  C659  1  0.080400  0.751700  0.047500  1.0  -0.1877
  C  C660  1  0.158200  0.728500  0.071400  1.0  0.1643
  C  C661  1  0.708100  0.331000  0.414210  1.0  0.6867
  C  C662  1  0.857500  0.268800  0.430900  1.0  -0.0511
  C  C663  1  0.941600  0.246200  0.455300  1.0  -0.1033
  C  C664  1  0.965900  0.260900  0.488260  1.0  -0.0051
  C  C665  1  0.902500  0.298200  0.496560  1.0  -0.1102
  C  C666  1  0.819800  0.320900  0.472000  1.0  -0.108
  C  C667  1  0.798100  0.306300  0.439500  1.0  -0.1315
  C  C668  1  0.192400  0.177900  0.532570  1.0  0.1712
  C  C669  1  0.113800  0.199000  0.507400  1.0  -0.1823
  C  C670  1  0.053900  0.236800  0.514390  1.0  0.0409
  C  C671  1  0.080400  0.251700  0.547500  1.0  -0.1877
  C  C672  1  0.158200  0.228500  0.571400  1.0  0.1643
  N  N673  1  0.286900  0.441670  0.314510  1.0  -0.3674
  N  N674  1  0.286900  0.941670  0.814510  1.0  -0.3674
  N  N675  1  0.786900  0.441670  0.814510  1.0  -0.3674
  N  N676  1  0.786900  0.941670  0.314510  1.0  -0.3674
  N  N677  1  0.463100  0.308330  0.314510  1.0  -0.3668
  N  N678  1  0.463100  0.808330  0.814510  1.0  -0.3668
  N  N679  1  0.963100  0.308330  0.814510  1.0  -0.3668
  N  N680  1  0.963100  0.808330  0.314510  1.0  -0.3668
  N  N681  1  0.463100  0.441670  0.435490  1.0  -0.3703
  N  N682  1  0.463100  0.941670  0.935490  1.0  -0.3703
  N  N683  1  0.963100  0.441670  0.935490  1.0  -0.3703
  N  N684  1  0.963100  0.941670  0.435490  1.0  -0.3703
  N  N685  1  0.286900  0.308330  0.435490  1.0  -0.3676
  N  N686  1  0.286900  0.808330  0.935490  1.0  -0.3676
  N  N687  1  0.786900  0.308330  0.935490  1.0  -0.3676
  N  N688  1  0.786900  0.808330  0.435490  1.0  -0.3676
  N  N689  1  0.713100  0.558330  0.685490  1.0  -0.3684
  N  N690  1  0.713100  0.058330  0.185490  1.0  -0.3695
  N  N691  1  0.213100  0.558330  0.185490  1.0  -0.3684
  N  N692  1  0.213100  0.058330  0.685490  1.0  -0.3695
  N  N693  1  0.536900  0.691670  0.685490  1.0  -0.3692
  N  N694  1  0.536900  0.191670  0.185490  1.0  -0.3692
  N  N695  1  0.036900  0.691670  0.185490  1.0  -0.3692
  N  N696  1  0.036900  0.191670  0.685490  1.0  -0.3692
  N  N697  1  0.536900  0.558330  0.564510  1.0  -0.3668
  N  N698  1  0.536900  0.058330  0.064510  1.0  -0.3669
  N  N699  1  0.036900  0.558330  0.064510  1.0  -0.3668
  N  N700  1  0.036900  0.058330  0.564510  1.0  -0.3669
  N  N701  1  0.713100  0.691670  0.564510  1.0  -0.369
  N  N702  1  0.713100  0.191670  0.064510  1.0  -0.369
  N  N703  1  0.213100  0.691670  0.064510  1.0  -0.369
  N  N704  1  0.213100  0.191670  0.564510  1.0  -0.369
  O  O705  1  0.828100  0.615820  0.173180  1.0  -0.6089
  O  O706  1  0.830400  0.565590  0.135690  1.0  -0.611
  O  O707  1  0.828100  0.115820  0.673180  1.0  -0.6089
  O  O708  1  0.830400  0.065590  0.635690  1.0  -0.611
  O  O709  1  0.328100  0.615820  0.673180  1.0  -0.6089
  O  O710  1  0.330400  0.565590  0.635690  1.0  -0.611
  O  O711  1  0.328100  0.115820  0.173180  1.0  -0.6089
  O  O712  1  0.330400  0.065590  0.135690  1.0  -0.611
  O  O713  1  0.921900  0.134180  0.173180  1.0  -0.6086
  O  O714  1  0.919600  0.184410  0.135690  1.0  -0.6105
  O  O715  1  0.921900  0.634180  0.673180  1.0  -0.6086
  O  O716  1  0.919600  0.684410  0.635690  1.0  -0.6105
  O  O717  1  0.421900  0.134180  0.673180  1.0  -0.6086
  O  O718  1  0.419600  0.184410  0.635690  1.0  -0.6105
  O  O719  1  0.421900  0.634180  0.173180  1.0  -0.6086
  O  O720  1  0.419600  0.684410  0.135690  1.0  -0.6105
  O  O721  1  0.921900  0.615820  0.576820  1.0  -0.608
  O  O722  1  0.919600  0.565590  0.614310  1.0  -0.6112
  O  O723  1  0.921900  0.115820  0.076820  1.0  -0.608
  O  O724  1  0.919600  0.065590  0.114310  1.0  -0.6112
  O  O725  1  0.421900  0.615820  0.076820  1.0  -0.608
  O  O726  1  0.419600  0.565590  0.114310  1.0  -0.6112
  O  O727  1  0.421900  0.115820  0.576820  1.0  -0.608
  O  O728  1  0.419600  0.065590  0.614310  1.0  -0.6112
  O  O729  1  0.828100  0.134180  0.576820  1.0  -0.6083
  O  O730  1  0.830400  0.184410  0.614310  1.0  -0.6116
  O  O731  1  0.828100  0.634180  0.076820  1.0  -0.6083
  O  O732  1  0.830400  0.684410  0.114310  1.0  -0.6116
  O  O733  1  0.328100  0.134180  0.076820  1.0  -0.6083
  O  O734  1  0.330400  0.184410  0.114310  1.0  -0.6116
  O  O735  1  0.328100  0.634180  0.576820  1.0  -0.6083
  O  O736  1  0.330400  0.684410  0.614310  1.0  -0.6116
  O  O737  1  0.171900  0.384180  0.826820  1.0  -0.608
  O  O738  1  0.169600  0.434410  0.864310  1.0  -0.611
  O  O739  1  0.171900  0.884180  0.326820  1.0  -0.608
  O  O740  1  0.169600  0.934410  0.364310  1.0  -0.611
  O  O741  1  0.671900  0.384180  0.326820  1.0  -0.608
  O  O742  1  0.669600  0.434410  0.364310  1.0  -0.611
  O  O743  1  0.671900  0.884180  0.826820  1.0  -0.608
  O  O744  1  0.669600  0.934410  0.864310  1.0  -0.611
  O  O745  1  0.078100  0.865820  0.826820  1.0  -0.6085
  O  O746  1  0.080400  0.815590  0.864310  1.0  -0.6116
  O  O747  1  0.078100  0.365820  0.326820  1.0  -0.6085
  O  O748  1  0.080400  0.315590  0.364310  1.0  -0.6116
  O  O749  1  0.578100  0.865820  0.326820  1.0  -0.6085
  O  O750  1  0.580400  0.815590  0.364310  1.0  -0.6116
  O  O751  1  0.578100  0.365820  0.826820  1.0  -0.6085
  O  O752  1  0.580400  0.315590  0.864310  1.0  -0.6116
  O  O753  1  0.078100  0.384180  0.423180  1.0  -0.6089
  O  O754  1  0.080400  0.434410  0.385690  1.0  -0.611
  O  O755  1  0.078100  0.884180  0.923180  1.0  -0.6089
  O  O756  1  0.080400  0.934410  0.885690  1.0  -0.611
  O  O757  1  0.578100  0.384180  0.923180  1.0  -0.6089
  O  O758  1  0.580400  0.434410  0.885690  1.0  -0.611
  O  O759  1  0.578100  0.884180  0.423180  1.0  -0.6089
  O  O760  1  0.580400  0.934410  0.385690  1.0  -0.611
  O  O761  1  0.171900  0.865820  0.423180  1.0  -0.6084
  O  O762  1  0.169600  0.815590  0.385690  1.0  -0.6106
  O  O763  1  0.171900  0.365820  0.923180  1.0  -0.6084
  O  O764  1  0.169600  0.315590  0.885690  1.0  -0.6106
  O  O765  1  0.671900  0.865820  0.923180  1.0  -0.6084
  O  O766  1  0.669600  0.815590  0.885690  1.0  -0.6106
  O  O767  1  0.671900  0.365820  0.423180  1.0  -0.6084
  O  O768  1  0.669600  0.315590  0.385690  1.0  -0.6106
  O  O769  1  0.375000  0.375000  0.375000  1.0  -0.9658
  O  O770  1  0.375000  0.875000  0.875000  1.0  -0.9658
  O  O771  1  0.875000  0.375000  0.875000  1.0  -0.9658
  O  O772  1  0.875000  0.875000  0.375000  1.0  -0.9658
  O  O773  1  0.625000  0.625000  0.625000  1.0  -0.9658
  O  O774  1  0.625000  0.125000  0.125000  1.0  -0.9658
  O  O775  1  0.125000  0.625000  0.125000  1.0  -0.9658
  O  O776  1  0.125000  0.125000  0.625000  1.0  -0.9658
