# generated using pymatgen
data_Mn3H39C42N8O9
_symmetry_space_group_name_H-M   'P 1'
_cell_length_a   17.61710000
_cell_length_b   30.05160000
_cell_length_c   30.05160000
_cell_angle_alpha   85.07130000
_cell_angle_beta   72.95550000
_cell_angle_gamma   72.95550000
_symmetry_Int_Tables_number   1
_chemical_formula_structural   Mn3H39C42N8O9
_chemical_formula_sum   'Mn24 H312 C336 N64 O72'
_cell_volume   14543.05729054
_cell_formula_units_Z   8
loop_
 _symmetry_equiv_pos_site_id
 _symmetry_equiv_pos_as_xyz
  1  'x, y, z'
loop_
 _atom_site_type_symbol
 _atom_site_label
 _atom_site_symmetry_multiplicity
 _atom_site_fract_x
 _atom_site_fract_y
 _atom_site_fract_z
 _atom_site_occupancy
 _atom_site_charge
  Mn  Mn1  1  0.994830  0.085660  0.857200  1.0  0.9764
  Mn  Mn2  1  0.120040  0.121210  0.969790  1.0  0.9891
  Mn  Mn3  1  0.788580  0.003190  0.925270  1.0  1.0136
  Mn  Mn4  1  0.437690  0.414340  0.642800  1.0  0.9784
  Mn  Mn5  1  0.711040  0.378790  0.530210  1.0  0.9869
  Mn  Mn6  1  0.217040  0.496810  0.574730  1.0  1.0134
  Mn  Mn7  1  0.852030  0.142800  0.585660  1.0  0.9754
  Mn  Mn8  1  0.089830  0.030210  0.621210  1.0  0.9861
  Mn  Mn9  1  0.713850  0.074730  0.503190  1.0  1.0161
  Mn  Mn10  1  0.080490  0.357200  0.914340  1.0  0.9745
  Mn  Mn11  1  0.241250  0.469790  0.878790  1.0  0.9892
  Mn  Mn12  1  0.791770  0.425270  0.996810  1.0  1.0134
  Mn  Mn13  1  0.005170  0.914340  0.142800  1.0  0.9781
  Mn  Mn14  1  0.879960  0.878790  0.030210  1.0  0.9845
  Mn  Mn15  1  0.211420  0.996810  0.074730  1.0  1.0149
  Mn  Mn16  1  0.562310  0.585660  0.357200  1.0  0.9756
  Mn  Mn17  1  0.288960  0.621210  0.469790  1.0  0.9873
  Mn  Mn18  1  0.782960  0.503190  0.425270  1.0  1.0127
  Mn  Mn19  1  0.147970  0.857200  0.414340  1.0  0.9753
  Mn  Mn20  1  0.910170  0.969790  0.378790  1.0  0.9839
  Mn  Mn21  1  0.286150  0.925270  0.496810  1.0  1.0118
  Mn  Mn22  1  0.919510  0.642800  0.085660  1.0  0.9745
  Mn  Mn23  1  0.758750  0.530210  0.121210  1.0  0.9873
  Mn  Mn24  1  0.208230  0.574730  0.003190  1.0  1.0144
  H  H25  1  0.011500  0.246400  0.904800  1.0  0.097
  H  H26  1  0.948000  0.308200  0.862400  1.0  0.1148
  H  H27  1  0.886200  0.292700  0.808500  1.0  0.1034
  H  H28  1  0.878300  0.217100  0.800700  1.0  0.1178
  H  H29  1  0.134800  0.010600  0.968600  1.0  0.0735
  H  H30  1  0.099100  0.976100  0.947700  1.0  0.0892
  H  H31  1  0.256100  0.996600  0.907400  1.0  0.1243
  H  H32  1  0.239600  0.946800  0.909400  1.0  0.1281
  H  H33  1  0.213100  0.984400  0.871800  1.0  0.1198
  H  H34  1  0.182900  0.077100  0.839300  1.0  0.0806
  H  H35  1  0.309400  0.068100  0.779900  1.0  0.1052
  H  H36  1  0.184300  0.076800  0.685400  1.0  0.1084
  H  H37  1  0.062200  0.086700  0.746900  1.0  0.0743
  H  H38  1  0.328000  0.053300  0.659700  1.0  0.0986
  H  H39  1  0.376400  0.028300  0.696500  1.0  0.0732
  H  H40  1  0.421800  0.015300  0.968300  1.0  0.1255
  H  H41  1  0.519100  0.028000  0.896800  1.0  0.1082
  H  H42  1  0.474600  0.074300  0.841700  1.0  0.0994
  H  H43  1  0.336400  0.114300  0.851100  1.0  0.1387
  H  H44  1  0.015800  0.079100  0.124700  1.0  0.1202
  H  H45  1  0.985800  0.046800  0.098000  1.0  0.1125
  H  H46  1  0.880700  0.106900  0.086700  1.0  0.1165
  H  H47  1  0.878500  0.109700  0.140100  1.0  0.1167
  H  H48  1  0.916700  0.144100  0.102500  1.0  0.106
  H  H49  1  0.959600  0.013800  0.750000  1.0  0.0967
  H  H50  1  0.931600  0.967400  0.701000  1.0  0.1211
  H  H51  1  0.840500  0.924200  0.733200  1.0  0.0992
  H  H52  1  0.772800  0.925900  0.811500  1.0  0.123
  H  H53  1  0.885900  0.091700  0.997500  1.0  0.1004
  H  H54  1  0.870400  0.130100  0.958500  1.0  0.1033
  H  H55  1  0.732500  0.152000  0.993800  1.0  0.1019
  H  H56  1  0.779500  0.151500  0.032100  1.0  0.1121
  H  H57  1  0.741400  0.109800  0.030000  1.0  0.1155
  H  H58  1  0.610900  0.011900  0.571100  1.0  0.1041
  H  H59  1  0.498300  0.017200  0.635800  1.0  0.1122
  H  H60  1  0.445600  0.152700  0.633700  1.0  0.0952
  H  H61  1  0.557600  0.148200  0.566200  1.0  0.0964
  H  H62  1  0.401900  0.094000  0.709000  1.0  0.1085
  H  H63  1  0.342600  0.123600  0.679400  1.0  0.1005
  H  H64  1  0.662700  0.253600  0.595200  1.0  0.0959
  H  H65  1  0.618600  0.191800  0.637600  1.0  0.1158
  H  H66  1  0.487400  0.207300  0.691500  1.0  0.1032
  H  H67  1  0.396100  0.282900  0.699300  1.0  0.1175
  H  H68  1  0.614000  0.489400  0.531400  1.0  0.0739
  H  H69  1  0.522900  0.523900  0.552300  1.0  0.0847
  H  H70  1  0.660100  0.503400  0.592600  1.0  0.1205
  H  H71  1  0.595800  0.553200  0.590600  1.0  0.1266
  H  H72  1  0.569300  0.515600  0.628200  1.0  0.1175
  H  H73  1  0.599300  0.422900  0.660700  1.0  0.0806
  H  H74  1  0.657400  0.431900  0.720100  1.0  0.1062
  H  H75  1  0.446500  0.423200  0.814600  1.0  0.1075
  H  H76  1  0.395800  0.413300  0.753100  1.0  0.0741
  H  H77  1  0.541000  0.446700  0.840300  1.0  0.0963
  H  H78  1  0.601200  0.471700  0.803500  1.0  0.0748
  H  H79  1  0.905400  0.484700  0.531700  1.0  0.1237
  H  H80  1  0.943900  0.472000  0.603200  1.0  0.1084
  H  H81  1  0.890600  0.425700  0.658300  1.0  0.1002
  H  H82  1  0.801800  0.385700  0.648900  1.0  0.1391
  H  H83  1  0.719600  0.420900  0.375300  1.0  0.1107
  H  H84  1  0.630600  0.453200  0.402000  1.0  0.1129
  H  H85  1  0.574300  0.393100  0.413300  1.0  0.1146
  H  H86  1  0.628300  0.390300  0.359900  1.0  0.1157
  H  H87  1  0.663300  0.355900  0.397500  1.0  0.1049
  H  H88  1  0.223400  0.486200  0.750000  1.0  0.0968
  H  H89  1  0.100000  0.532600  0.799000  1.0  0.1201
  H  H90  1  0.997900  0.575800  0.766800  1.0  0.0997
  H  H91  1  0.010200  0.574100  0.688500  1.0  0.1233
  H  H92  1  0.475100  0.408300  0.502500  1.0  0.0998
  H  H93  1  0.459000  0.369900  0.541500  1.0  0.1026
  H  H94  1  0.378300  0.348000  0.506200  1.0  0.0983
  H  H95  1  0.463100  0.348500  0.467900  1.0  0.1102
  H  H96  1  0.381200  0.390200  0.470000  1.0  0.1155
  H  H97  1  0.693900  0.488100  0.928900  1.0  0.1044
  H  H98  1  0.651300  0.482800  0.864200  1.0  0.113
  H  H99  1  0.732000  0.347300  0.866300  1.0  0.0958
  H  H100  1  0.772000  0.351800  0.933800  1.0  0.0956
  H  H101  1  0.704900  0.406000  0.791000  1.0  0.1034
  H  H102  1  0.645600  0.376400  0.820600  1.0  0.0976
  H  H103  1  0.916300  0.095200  0.746400  1.0  0.0961
  H  H104  1  0.810400  0.137600  0.808200  1.0  0.1127
  H  H105  1  0.694700  0.191500  0.792700  1.0  0.1044
  H  H106  1  0.679000  0.199300  0.717100  1.0  0.118
  H  H107  1  0.103400  0.031400  0.510600  1.0  0.0753
  H  H108  1  0.046800  0.052300  0.476100  1.0  0.085
  H  H109  1  0.163500  0.092600  0.496600  1.0  0.1244
  H  H110  1  0.149000  0.090600  0.446800  1.0  0.1278
  H  H111  1  0.084900  0.128200  0.484400  1.0  0.1188
  H  H112  1  0.022200  0.160700  0.577100  1.0  0.0801
  H  H113  1  0.089300  0.220100  0.568100  1.0  0.1068
  H  H114  1  0.869700  0.314600  0.576800  1.0  0.1086
  H  H115  1  0.809100  0.253100  0.586700  1.0  0.0736
  H  H116  1  0.987700  0.340300  0.553300  1.0  0.0981
  H  H117  1  0.072900  0.303500  0.528300  1.0  0.0782
  H  H118  1  0.390100  0.031700  0.515300  1.0  0.1239
  H  H119  1  0.415900  0.103200  0.528000  1.0  0.1076
  H  H120  1  0.316300  0.158300  0.574300  1.0  0.0995
  H  H121  1  0.187500  0.148900  0.614300  1.0  0.1393
  H  H122  1  0.140500  0.875300  0.579100  1.0  0.1194
  H  H123  1  0.083800  0.902000  0.546800  1.0  0.1143
  H  H124  1  0.967400  0.913300  0.606900  1.0  0.1162
  H  H125  1  0.018600  0.859900  0.609700  1.0  0.1138
  H  H126  1  0.019200  0.897500  0.644100  1.0  0.1053
  H  H127  1  0.709600  0.250000  0.513800  1.0  0.0963
  H  H128  1  0.632600  0.299000  0.467400  1.0  0.1221
  H  H129  1  0.573700  0.266800  0.424200  1.0  0.0992
  H  H130  1  0.584300  0.188500  0.425900  1.0  0.1225
  H  H131  1  0.883400  0.002500  0.591700  1.0  0.1026
  H  H132  1  0.828900  0.041500  0.630100  1.0  0.1004
  H  H133  1  0.726300  0.006200  0.652000  1.0  0.0994
  H  H134  1  0.811600  0.967900  0.651500  1.0  0.1119
  H  H135  1  0.771400  0.970000  0.609800  1.0  0.1156
  H  H136  1  0.182000  0.428900  0.511900  1.0  0.1043
  H  H137  1  0.134100  0.364200  0.517200  1.0  0.1149
  H  H138  1  0.079300  0.366300  0.652700  1.0  0.096
  H  H139  1  0.123800  0.433800  0.648200  1.0  0.096
  H  H140  1  0.110900  0.291000  0.594000  1.0  0.1063
  H  H141  1  0.022000  0.320600  0.623600  1.0  0.1066
  H  H142  1  0.257900  0.404800  0.753600  1.0  0.0957
  H  H143  1  0.256200  0.362400  0.691800  1.0  0.1131
  H  H144  1  0.178900  0.308500  0.707300  1.0  0.1039
  H  H145  1  0.095400  0.300700  0.782900  1.0  0.1171
  H  H146  1  0.145400  0.468600  0.989400  1.0  0.0759
  H  H147  1  0.075200  0.447700  0.023900  1.0  0.0856
  H  H148  1  0.252700  0.407400  0.003400  1.0  0.1231
  H  H149  1  0.186400  0.409400  0.053200  1.0  0.1257
  H  H150  1  0.197500  0.371800  0.015600  1.0  0.1157
  H  H151  1  0.260000  0.339300  0.922900  1.0  0.0798
  H  H152  1  0.377500  0.279900  0.931900  1.0  0.1065
  H  H153  1  0.261100  0.185400  0.923200  1.0  0.1087
  H  H154  1  0.148900  0.246900  0.913300  1.0  0.0737
  H  H155  1  0.381300  0.159700  0.946700  1.0  0.0985
  H  H156  1  0.404700  0.196500  0.971700  1.0  0.0793
  H  H157  1  0.437100  0.468300  0.984700  1.0  0.1241
  H  H158  1  0.547100  0.396800  0.972000  1.0  0.1073
  H  H159  1  0.548900  0.341700  0.925700  1.0  0.1013
  H  H160  1  0.450700  0.351100  0.885700  1.0  0.1386
  H  H161  1  0.094900  0.624700  0.920900  1.0  0.118
  H  H162  1  0.032600  0.598000  0.953200  1.0  0.1122
  H  H163  1  0.987600  0.586700  0.893100  1.0  0.1162
  H  H164  1  0.988200  0.640100  0.890300  1.0  0.1177
  H  H165  1  0.060800  0.602500  0.855900  1.0  0.1062
  H  H166  1  0.973400  0.250000  0.986200  1.0  0.0976
  H  H167  1  0.899000  0.201000  0.032600  1.0  0.121
  H  H168  1  0.764700  0.233200  0.075800  1.0  0.0997
  H  H169  1  0.698700  0.311500  0.074100  1.0  0.1232
  H  H170  1  0.977600  0.497500  0.908300  1.0  0.1
  H  H171  1  0.000500  0.458500  0.869900  1.0  0.1026
  H  H172  1  0.884500  0.493800  0.848000  1.0  0.1009
  H  H173  1  0.931000  0.532100  0.848500  1.0  0.112
  H  H174  1  0.851200  0.530000  0.890200  1.0  0.1167
  H  H175  1  0.622800  0.071100  0.988100  1.0  0.1034
  H  H176  1  0.515500  0.135800  0.982800  1.0  0.1138
  H  H177  1  0.598300  0.133700  0.847300  1.0  0.0966
  H  H178  1  0.705800  0.066200  0.851800  1.0  0.0956
  H  H179  1  0.495900  0.209000  0.906000  1.0  0.1044
  H  H180  1  0.466200  0.179400  0.876400  1.0  0.1077
  H  H181  1  0.988500  0.753600  0.095200  1.0  0.0975
  H  H182  1  0.052000  0.691800  0.137600  1.0  0.1147
  H  H183  1  0.113800  0.707300  0.191500  1.0  0.1039
  H  H184  1  0.121700  0.782900  0.199300  1.0  0.1184
  H  H185  1  0.865200  0.989400  0.031400  1.0  0.0729
  H  H186  1  0.900900  0.023900  0.052300  1.0  0.0887
  H  H187  1  0.743900  0.003400  0.092600  1.0  0.124
  H  H188  1  0.760400  0.053200  0.090600  1.0  0.1277
  H  H189  1  0.786900  0.015600  0.128200  1.0  0.1203
  H  H190  1  0.817100  0.922900  0.160700  1.0  0.0818
  H  H191  1  0.690600  0.931900  0.220100  1.0  0.1052
  H  H192  1  0.815700  0.923200  0.314600  1.0  0.1085
  H  H193  1  0.937800  0.913300  0.253100  1.0  0.0742
  H  H194  1  0.672000  0.946700  0.340300  1.0  0.095
  H  H195  1  0.623600  0.971700  0.303500  1.0  0.0754
  H  H196  1  0.578200  0.984700  0.031700  1.0  0.1244
  H  H197  1  0.480900  0.972000  0.103200  1.0  0.1083
  H  H198  1  0.525400  0.925700  0.158300  1.0  0.1004
  H  H199  1  0.663600  0.885700  0.148900  1.0  0.1386
  H  H200  1  0.984200  0.920900  0.875300  1.0  0.1183
  H  H201  1  0.014200  0.953200  0.902000  1.0  0.1142
  H  H202  1  0.119300  0.893100  0.913300  1.0  0.1196
  H  H203  1  0.121500  0.890300  0.859900  1.0  0.1162
  H  H204  1  0.083300  0.855900  0.897500  1.0  0.1038
  H  H205  1  0.040400  0.986200  0.250000  1.0  0.0965
  H  H206  1  0.068400  0.032600  0.299000  1.0  0.1213
  H  H207  1  0.159500  0.075800  0.266800  1.0  0.0988
  H  H208  1  0.227200  0.074100  0.188500  1.0  0.1227
  H  H209  1  0.114100  0.908300  0.002500  1.0  0.1014
  H  H210  1  0.129600  0.869900  0.041500  1.0  0.1042
  H  H211  1  0.267500  0.848000  0.006200  1.0  0.0998
  H  H212  1  0.220500  0.848500  0.967900  1.0  0.1121
  H  H213  1  0.258600  0.890200  0.970000  1.0  0.1171
  H  H214  1  0.389100  0.988100  0.428900  1.0  0.1054
  H  H215  1  0.501700  0.982800  0.364200  1.0  0.1141
  H  H216  1  0.554400  0.847300  0.366300  1.0  0.0958
  H  H217  1  0.442400  0.851800  0.433800  1.0  0.0969
  H  H218  1  0.598100  0.906000  0.291000  1.0  0.11
  H  H219  1  0.657400  0.876400  0.320600  1.0  0.0978
  H  H220  1  0.337300  0.746400  0.404800  1.0  0.0953
  H  H221  1  0.381400  0.808200  0.362400  1.0  0.1154
  H  H222  1  0.512600  0.792700  0.308500  1.0  0.103
  H  H223  1  0.603900  0.717100  0.300700  1.0  0.1175
  H  H224  1  0.386000  0.510600  0.468600  1.0  0.0733
  H  H225  1  0.477100  0.476100  0.447700  1.0  0.0855
  H  H226  1  0.339900  0.496600  0.407400  1.0  0.1213
  H  H227  1  0.404200  0.446800  0.409400  1.0  0.1257
  H  H228  1  0.430700  0.484400  0.371800  1.0  0.1159
  H  H229  1  0.400700  0.577100  0.339300  1.0  0.0814
  H  H230  1  0.342600  0.568100  0.279900  1.0  0.1055
  H  H231  1  0.553500  0.576800  0.185400  1.0  0.1083
  H  H232  1  0.604200  0.586700  0.246900  1.0  0.0741
  H  H233  1  0.459000  0.553300  0.159700  1.0  0.0975
  H  H234  1  0.398800  0.528300  0.196500  1.0  0.0726
  H  H235  1  0.094600  0.515300  0.468300  1.0  0.1235
  H  H236  1  0.056100  0.528000  0.396800  1.0  0.1084
  H  H237  1  0.109400  0.574300  0.341700  1.0  0.0999
  H  H238  1  0.198200  0.614300  0.351100  1.0  0.1394
  H  H239  1  0.280400  0.579100  0.624700  1.0  0.1153
  H  H240  1  0.369400  0.546800  0.598000  1.0  0.1119
  H  H241  1  0.425700  0.606900  0.586700  1.0  0.1154
  H  H242  1  0.371700  0.609700  0.640100  1.0  0.1172
  H  H243  1  0.336700  0.644100  0.602500  1.0  0.1055
  H  H244  1  0.776600  0.513800  0.250000  1.0  0.0961
  H  H245  1  0.900000  0.467400  0.201000  1.0  0.1203
  H  H246  1  0.002100  0.424200  0.233200  1.0  0.0994
  H  H247  1  0.989800  0.425900  0.311500  1.0  0.1236
  H  H248  1  0.524900  0.591700  0.497500  1.0  0.1005
  H  H249  1  0.541000  0.630100  0.458500  1.0  0.1012
  H  H250  1  0.621700  0.652000  0.493800  1.0  0.1005
  H  H251  1  0.536900  0.651500  0.532100  1.0  0.1116
  H  H252  1  0.618800  0.609800  0.530000  1.0  0.1156
  H  H253  1  0.306100  0.511900  0.071100  1.0  0.1034
  H  H254  1  0.348700  0.517200  0.135800  1.0  0.1114
  H  H255  1  0.268000  0.652700  0.133700  1.0  0.0953
  H  H256  1  0.228000  0.648200  0.066200  1.0  0.0959
  H  H257  1  0.295100  0.594000  0.209000  1.0  0.1045
  H  H258  1  0.354400  0.623600  0.179400  1.0  0.0981
  H  H259  1  0.083700  0.904800  0.253600  1.0  0.0964
  H  H260  1  0.189600  0.862400  0.191800  1.0  0.1128
  H  H261  1  0.305300  0.808500  0.207300  1.0  0.1037
  H  H262  1  0.321000  0.800700  0.282900  1.0  0.1183
  H  H263  1  0.896600  0.968600  0.489400  1.0  0.0748
  H  H264  1  0.953200  0.947700  0.523900  1.0  0.0865
  H  H265  1  0.836500  0.907400  0.503400  1.0  0.1241
  H  H266  1  0.851000  0.909400  0.553200  1.0  0.1267
  H  H267  1  0.915100  0.871800  0.515600  1.0  0.117
  H  H268  1  0.977800  0.839300  0.422900  1.0  0.0798
  H  H269  1  0.910700  0.779900  0.431900  1.0  0.1062
  H  H270  1  0.130300  0.685400  0.423200  1.0  0.109
  H  H271  1  0.190900  0.746900  0.413300  1.0  0.0734
  H  H272  1  0.012300  0.659700  0.446700  1.0  0.0986
  H  H273  1  0.927100  0.696500  0.471700  1.0  0.0787
  H  H274  1  0.609900  0.968300  0.484700  1.0  0.1233
  H  H275  1  0.584100  0.896800  0.472000  1.0  0.1079
  H  H276  1  0.683700  0.841700  0.425700  1.0  0.1
  H  H277  1  0.812500  0.851100  0.385700  1.0  0.1391
  H  H278  1  0.859500  0.124700  0.420900  1.0  0.1201
  H  H279  1  0.916200  0.098000  0.453200  1.0  0.1134
  H  H280  1  0.032600  0.086700  0.393100  1.0  0.1199
  H  H281  1  0.981400  0.140100  0.390300  1.0  0.1161
  H  H282  1  0.980800  0.102500  0.355900  1.0  0.1067
  H  H283  1  0.290400  0.750000  0.486200  1.0  0.096
  H  H284  1  0.367400  0.701000  0.532600  1.0  0.1219
  H  H285  1  0.426300  0.733200  0.575800  1.0  0.1002
  H  H286  1  0.415700  0.811500  0.574100  1.0  0.1231
  H  H287  1  0.116600  0.997500  0.408300  1.0  0.1037
  H  H288  1  0.171100  0.958500  0.369900  1.0  0.1002
  H  H289  1  0.273700  0.993800  0.348000  1.0  0.0996
  H  H290  1  0.188400  0.032100  0.348500  1.0  0.112
  H  H291  1  0.228600  0.030000  0.390200  1.0  0.1177
  H  H292  1  0.818000  0.571100  0.488100  1.0  0.1046
  H  H293  1  0.865900  0.635800  0.482800  1.0  0.1141
  H  H294  1  0.920700  0.633700  0.347300  1.0  0.0961
  H  H295  1  0.876200  0.566200  0.351800  1.0  0.0968
  H  H296  1  0.889100  0.709000  0.406000  1.0  0.1052
  H  H297  1  0.978000  0.679400  0.376400  1.0  0.1073
  H  H298  1  0.742100  0.595200  0.246400  1.0  0.0959
  H  H299  1  0.743800  0.637600  0.308200  1.0  0.1132
  H  H300  1  0.821100  0.691500  0.292700  1.0  0.1049
  H  H301  1  0.904600  0.699300  0.217100  1.0  0.1173
  H  H302  1  0.854600  0.531400  0.010600  1.0  0.0756
  H  H303  1  0.924800  0.552300  0.976100  1.0  0.085
  H  H304  1  0.747300  0.592600  0.996600  1.0  0.1228
  H  H305  1  0.813600  0.590600  0.946800  1.0  0.1255
  H  H306  1  0.802500  0.628200  0.984400  1.0  0.1164
  H  H307  1  0.740000  0.660700  0.077100  1.0  0.0802
  H  H308  1  0.622500  0.720100  0.068100  1.0  0.1057
  H  H309  1  0.738900  0.814600  0.076800  1.0  0.1093
  H  H310  1  0.851100  0.753100  0.086700  1.0  0.0732
  H  H311  1  0.618700  0.840300  0.053300  1.0  0.0981
  H  H312  1  0.595300  0.803500  0.028300  1.0  0.0796
  H  H313  1  0.562900  0.531700  0.015300  1.0  0.1244
  H  H314  1  0.452900  0.603200  0.028000  1.0  0.107
  H  H315  1  0.451100  0.658300  0.074300  1.0  0.1013
  H  H316  1  0.549300  0.648900  0.114300  1.0  0.1385
  H  H317  1  0.905100  0.375300  0.079100  1.0  0.1178
  H  H318  1  0.967400  0.402000  0.046800  1.0  0.1126
  H  H319  1  0.012400  0.413300  0.106900  1.0  0.1174
  H  H320  1  0.011800  0.359900  0.109700  1.0  0.115
  H  H321  1  0.939200  0.397500  0.144100  1.0  0.1052
  H  H322  1  0.026600  0.750000  0.013800  1.0  0.0978
  H  H323  1  0.101000  0.799000  0.967400  1.0  0.1209
  H  H324  1  0.235300  0.766800  0.924200  1.0  0.0989
  H  H325  1  0.301300  0.688500  0.925900  1.0  0.1222
  H  H326  1  0.022400  0.502500  0.091700  1.0  0.0999
  H  H327  1  0.999500  0.541500  0.130100  1.0  0.1034
  H  H328  1  0.115500  0.506200  0.152000  1.0  0.1019
  H  H329  1  0.069000  0.467900  0.151500  1.0  0.1143
  H  H330  1  0.148800  0.470000  0.109800  1.0  0.1162
  H  H331  1  0.377200  0.928900  0.011900  1.0  0.1036
  H  H332  1  0.484500  0.864200  0.017200  1.0  0.115
  H  H333  1  0.401700  0.866300  0.152700  1.0  0.0958
  H  H334  1  0.294200  0.933800  0.148200  1.0  0.0962
  H  H335  1  0.504100  0.791000  0.094000  1.0  0.1085
  H  H336  1  0.533800  0.820600  0.123600  1.0  0.1075
  C  C337  1  0.943680  0.186020  0.846820  1.0  0.2533
  C  C338  1  0.982650  0.195210  0.879090  1.0  -0.1511
  C  C339  1  0.984500  0.240400  0.883800  1.0  -0.0425
  C  C340  1  0.947400  0.277350  0.858250  1.0  -0.1087
  C  C341  1  0.909800  0.268100  0.826700  1.0  -0.0909
  C  C342  1  0.906100  0.222800  0.821400  1.0  -0.2215
  C  C343  1  0.025600  0.158350  0.906850  1.0  0.5952
  C  C344  1  0.085120  0.039670  0.915690  1.0  0.5504
  C  C345  1  0.129200  0.000100  0.939700  1.0  -0.2261
  C  C346  1  0.218100  0.980000  0.903600  1.0  -0.3691
  C  C347  1  0.183000  0.077100  0.807700  1.0  0.1721
  C  C348  1  0.259900  0.070900  0.771900  1.0  -0.164
  C  C349  1  0.262000  0.068700  0.726100  1.0  0.1012
  C  C350  1  0.186500  0.076100  0.716700  1.0  -0.1762
  C  C351  1  0.113100  0.082500  0.753900  1.0  0.1614
  C  C352  1  0.339600  0.058000  0.689000  1.0  -0.1184
  C  C353  1  0.295000  0.090840  0.917960  1.0  0.2971
  C  C354  1  0.318200  0.060000  0.951800  1.0  -0.1588
  C  C355  1  0.403800  0.035600  0.945200  1.0  -0.0872
  C  C356  1  0.461700  0.043100  0.902100  1.0  -0.1096
  C  C357  1  0.435100  0.070900  0.870100  1.0  -0.0744
  C  C358  1  0.353100  0.095200  0.875400  1.0  -0.2781
  C  C359  1  0.261100  0.050970  0.995230  1.0  0.5361
  C  C360  1  0.053880  0.085470  0.054170  1.0  0.4739
  C  C361  1  0.992800  0.078200  0.098600  1.0  -0.2882
  C  C362  1  0.910200  0.112700  0.107700  1.0  -0.3232
  C  C363  1  0.826900  0.972370  0.831030  1.0  0.2502
  C  C364  1  0.887180  0.996990  0.810650  1.0  -0.1565
  C  C365  1  0.922520  0.995580  0.763180  1.0  -0.0895
  C  C366  1  0.905700  0.968300  0.733500  1.0  -0.1515
  C  C367  1  0.851200  0.943200  0.753000  1.0  -0.1174
  C  C368  1  0.810800  0.943800  0.799600  1.0  -0.1328
  C  C369  1  0.905200  0.027760  0.838840  1.0  0.5563
  C  C370  1  0.843220  0.071280  0.949480  1.0  0.5165
  C  C371  1  0.846910  0.106990  0.979190  1.0  -0.188
  C  C372  1  0.768600  0.132200  0.011400  1.0  -0.3063
  C  C373  1  0.576400  0.041700  0.582700  1.0  0.1192
  C  C374  1  0.508500  0.045100  0.621100  1.0  -0.1821
  C  C375  1  0.455700  0.086900  0.638700  1.0  0.1826
  C  C376  1  0.476800  0.123200  0.620200  1.0  -0.1242
  C  C377  1  0.545900  0.120400  0.580000  1.0  0.1382
  C  C378  1  0.382600  0.093000  0.681400  1.0  -0.1884
  C  C379  1  0.476520  0.313980  0.653180  1.0  0.2534
  C  C380  1  0.556950  0.304790  0.620910  1.0  -0.1507
  C  C381  1  0.608700  0.259600  0.616200  1.0  -0.0418
  C  C382  1  0.583000  0.222650  0.641750  1.0  -0.1116
  C  C383  1  0.504600  0.231900  0.673300  1.0  -0.0929
  C  C384  1  0.450300  0.277200  0.678600  1.0  -0.2198
  C  C385  1  0.590800  0.341650  0.593150  1.0  0.5954
  C  C386  1  0.540480  0.460330  0.584310  1.0  0.5514
  C  C387  1  0.569000  0.499900  0.560300  1.0  -0.2245
  C  C388  1  0.601700  0.520000  0.596400  1.0  -0.3712
  C  C389  1  0.567800  0.422900  0.692300  1.0  0.1735
  C  C390  1  0.602700  0.429100  0.728100  1.0  -0.1654
  C  C391  1  0.556800  0.431300  0.773900  1.0  0.1034
  C  C392  1  0.479300  0.423900  0.783300  1.0  -0.1778
  C  C393  1  0.449500  0.417500  0.746100  1.0  0.1638
  C  C394  1  0.586600  0.442000  0.811000  1.0  -0.1204
  C  C395  1  0.803800  0.409160  0.582040  1.0  0.2987
  C  C396  1  0.830000  0.440000  0.548200  1.0  -0.1588
  C  C397  1  0.884600  0.464400  0.554800  1.0  -0.0863
  C  C398  1  0.906900  0.456900  0.597900  1.0  -0.1081
  C  C399  1  0.876100  0.429100  0.629900  1.0  -0.0752
  C  C400  1  0.823700  0.404800  0.624600  1.0  -0.2794
  C  C401  1  0.807300  0.449030  0.504770  1.0  0.5346
  C  C402  1  0.693520  0.414530  0.445830  1.0  0.4753
  C  C403  1  0.669600  0.421800  0.401400  1.0  -0.2829
  C  C404  1  0.630600  0.387300  0.392300  1.0  -0.3206
  C  C405  1  0.130300  0.527630  0.668970  1.0  0.2528
  C  C406  1  0.194820  0.503010  0.689350  1.0  -0.1583
  C  C407  1  0.181280  0.504420  0.736820  1.0  -0.0932
  C  C408  1  0.107500  0.531700  0.766500  1.0  -0.149
  C  C409  1  0.047400  0.556800  0.747000  1.0  -0.1165
  C  C410  1  0.054200  0.556200  0.700400  1.0  -0.1329
  C  C411  1  0.271800  0.472240  0.661160  1.0  0.5574
  C  C412  1  0.363980  0.428720  0.550520  1.0  0.5127
  C  C413  1  0.433090  0.393010  0.520810  1.0  -0.189
  C  C414  1  0.412200  0.367800  0.488600  1.0  -0.3061
  C  C415  1  0.700800  0.458300  0.917300  1.0  0.1218
  C  C416  1  0.674700  0.454900  0.878900  1.0  -0.1803
  C  C417  1  0.681300  0.413100  0.861300  1.0  0.1831
  C  C418  1  0.720200  0.376800  0.879800  1.0  -0.1272
  C  C419  1  0.746300  0.379600  0.920000  1.0  0.141
  C  C420  1  0.657000  0.407000  0.818600  1.0  -0.187
  C  C421  1  0.790500  0.153180  0.686020  1.0  0.2593
  C  C422  1  0.861740  0.120910  0.695210  1.0  -0.1497
  C  C423  1  0.868300  0.116200  0.740400  1.0  -0.0411
  C  C424  1  0.805650  0.141750  0.777350  1.0  -0.1106
  C  C425  1  0.736500  0.173300  0.768100  1.0  -0.0923
  C  C426  1  0.727500  0.178600  0.722800  1.0  -0.2179
  C  C427  1  0.932450  0.093150  0.658350  1.0  0.5958
  C  C428  1  0.000810  0.084310  0.539670  1.0  0.5505
  C  C429  1  0.068900  0.060300  0.500100  1.0  -0.2249
  C  C430  1  0.121700  0.096400  0.480000  1.0  -0.369
  C  C431  1  0.990700  0.192300  0.577100  1.0  0.1713
  C  C432  1  0.031800  0.228100  0.570900  1.0  -0.1668
  C  C433  1  0.988100  0.273900  0.568700  1.0  0.1004
  C  C434  1  0.903200  0.283300  0.576100  1.0  -0.1775
  C  C435  1  0.867000  0.246100  0.582500  1.0  0.1634
  C  C436  1  0.028600  0.311000  0.558000  1.0  -0.1208
  C  C437  1  0.212960  0.082040  0.590840  1.0  0.2956
  C  C438  1  0.270000  0.048200  0.560000  1.0  -0.1604
  C  C439  1  0.349000  0.054800  0.535600  1.0  -0.0834
  C  C440  1  0.363800  0.097900  0.543100  1.0  -0.1093
  C  C441  1  0.305200  0.129900  0.570900  1.0  -0.0756
  C  C442  1  0.228500  0.124600  0.595200  1.0  -0.2803
  C  C443  1  0.256330  0.004770  0.550970  1.0  0.5355
  C  C444  1  0.108050  0.945830  0.585470  1.0  0.4722
  C  C445  1  0.091400  0.901400  0.578200  1.0  -0.2857
  C  C446  1  0.017900  0.892300  0.612700  1.0  -0.3197
  C  C447  1  0.657930  0.168970  0.472370  1.0  0.2482
  C  C448  1  0.697830  0.189350  0.496990  1.0  -0.157
  C  C449  1  0.685700  0.236820  0.495580  1.0  -0.0905
  C  C450  1  0.639200  0.266500  0.468300  1.0  -0.1528
  C  C451  1  0.604200  0.247000  0.443200  1.0  -0.1187
  C  C452  1  0.610400  0.200400  0.443800  1.0  -0.1324
  C  C453  1  0.744040  0.161160  0.527760  1.0  0.556
  C  C454  1  0.792700  0.050520  0.571280  1.0  0.5168
  C  C455  1  0.826100  0.020810  0.606990  1.0  -0.1856
  C  C456  1  0.780000  0.988600  0.632200  1.0  -0.3073
  C  C457  1  0.159100  0.417300  0.541700  1.0  0.1217
  C  C458  1  0.129600  0.378900  0.545100  1.0  -0.1735
  C  C459  1  0.094400  0.361300  0.586900  1.0  0.1826
  C  C460  1  0.097000  0.379800  0.623200  1.0  -0.1207
  C  C461  1  0.125900  0.420000  0.620400  1.0  0.14
  C  C462  1  0.064000  0.318600  0.593000  1.0  -0.1867
  C  C463  1  0.129700  0.346820  0.813980  1.0  0.2541
  C  C464  1  0.177860  0.379090  0.804790  1.0  -0.1506
  C  C465  1  0.224900  0.383800  0.759600  1.0  -0.0407
  C  C466  1  0.224750  0.358250  0.722650  1.0  -0.1112
  C  C467  1  0.177900  0.326700  0.731900  1.0  -0.0909
  C  C468  1  0.128900  0.321400  0.777200  1.0  -0.2209
  C  C469  1  0.183950  0.406850  0.841650  1.0  0.5956
  C  C470  1  0.124790  0.415690  0.960330  1.0  0.5516
  C  C471  1  0.129300  0.439700  0.999900  1.0  -0.2268
  C  C472  1  0.198100  0.403600  0.020000  1.0  -0.3702
  C  C473  1  0.260100  0.307700  0.922900  1.0  0.1721
  C  C474  1  0.330800  0.271900  0.929100  1.0  -0.1682
  C  C475  1  0.330700  0.226100  0.931300  1.0  0.1017
  C  C476  1  0.262600  0.216700  0.923900  1.0  -0.1794
  C  C477  1  0.195600  0.253900  0.917500  1.0  0.162
  C  C478  1  0.397600  0.189000  0.942000  1.0  -0.1237
  C  C479  1  0.385840  0.417960  0.909160  1.0  0.2954
  C  C480  1  0.378200  0.451800  0.940000  1.0  -0.1597
  C  C481  1  0.439400  0.445200  0.964400  1.0  -0.0828
  C  C482  1  0.504800  0.402100  0.956900  1.0  -0.1066
  C  C483  1  0.506000  0.370100  0.929100  1.0  -0.0804
  C  C484  1  0.448300  0.375400  0.904800  1.0  -0.2781
  C  C485  1  0.312070  0.495230  0.949030  1.0  0.5368
  C  C486  1  0.139350  0.554170  0.914530  1.0  0.469
  C  C487  1  0.071000  0.598600  0.921800  1.0  -0.286
  C  C488  1  0.022900  0.607700  0.887300  1.0  -0.3217
  C  C489  1  0.799270  0.331030  0.027630  1.0  0.2489
  C  C490  1  0.884170  0.310650  0.003010  1.0  -0.1558
  C  C491  1  0.918100  0.263180  0.004420  1.0  -0.0916
  C  C492  1  0.874000  0.233500  0.031700  1.0  -0.1528
  C  C493  1  0.794400  0.253000  0.056800  1.0  -0.119
  C  C494  1  0.754600  0.299600  0.056200  1.0  -0.1349
  C  C495  1  0.932960  0.338840  0.972240  1.0  0.556
  C  C496  1  0.914500  0.449480  0.928720  1.0  0.5152
  C  C497  1  0.953900  0.479190  0.893010  1.0  -0.1865
  C  C498  1  0.900800  0.511400  0.867800  1.0  -0.3046
  C  C499  1  0.618100  0.082700  0.958300  1.0  0.1243
  C  C500  1  0.553600  0.121100  0.954900  1.0  -0.1741
  C  C501  1  0.542600  0.138700  0.913100  1.0  0.1809
  C  C502  1  0.600000  0.120200  0.876800  1.0  -0.1207
  C  C503  1  0.666300  0.080000  0.879600  1.0  0.1369
  C  C504  1  0.475600  0.181400  0.907000  1.0  -0.1849
  C  C505  1  0.056320  0.813980  0.153180  1.0  0.2531
  C  C506  1  0.017350  0.804790  0.120910  1.0  -0.1505
  C  C507  1  0.015500  0.759600  0.116200  1.0  -0.0412
  C  C508  1  0.052600  0.722650  0.141750  1.0  -0.1104
  C  C509  1  0.090200  0.731900  0.173300  1.0  -0.0913
  C  C510  1  0.093900  0.777200  0.178600  1.0  -0.2208
  C  C511  1  0.974400  0.841650  0.093150  1.0  0.596
  C  C512  1  0.914880  0.960330  0.084310  1.0  0.5509
  C  C513  1  0.870800  0.999900  0.060300  1.0  -0.2252
  C  C514  1  0.781900  0.020000  0.096400  1.0  -0.3682
  C  C515  1  0.817000  0.922900  0.192300  1.0  0.1729
  C  C516  1  0.740100  0.929100  0.228100  1.0  -0.1628
  C  C517  1  0.738000  0.931300  0.273900  1.0  0.1029
  C  C518  1  0.813500  0.923900  0.283300  1.0  -0.1763
  C  C519  1  0.886900  0.917500  0.246100  1.0  0.1628
  C  C520  1  0.660400  0.942000  0.311000  1.0  -0.1192
  C  C521  1  0.705000  0.909160  0.082040  1.0  0.2981
  C  C522  1  0.681800  0.940000  0.048200  1.0  -0.1583
  C  C523  1  0.596200  0.964400  0.054800  1.0  -0.0856
  C  C524  1  0.538300  0.956900  0.097900  1.0  -0.1098
  C  C525  1  0.564900  0.929100  0.129900  1.0  -0.0783
  C  C526  1  0.646900  0.904800  0.124600  1.0  -0.2773
  C  C527  1  0.738900  0.949030  0.004770  1.0  0.5365
  C  C528  1  0.946120  0.914530  0.945830  1.0  0.4732
  C  C529  1  0.007200  0.921800  0.901400  1.0  -0.2858
  C  C530  1  0.089800  0.887300  0.892300  1.0  -0.3233
  C  C531  1  0.173100  0.027630  0.168970  1.0  0.2504
  C  C532  1  0.112820  0.003010  0.189350  1.0  -0.1558
  C  C533  1  0.077480  0.004420  0.236820  1.0  -0.0927
  C  C534  1  0.094300  0.031700  0.266500  1.0  -0.1519
  C  C535  1  0.148800  0.056800  0.247000  1.0  -0.1194
  C  C536  1  0.189200  0.056200  0.200400  1.0  -0.1348
  C  C537  1  0.094800  0.972240  0.161160  1.0  0.5579
  C  C538  1  0.156780  0.928720  0.050520  1.0  0.5149
  C  C539  1  0.153090  0.893010  0.020810  1.0  -0.186
  C  C540  1  0.231400  0.867800  0.988600  1.0  -0.3054
  C  C541  1  0.423600  0.958300  0.417300  1.0  0.1185
  C  C542  1  0.491500  0.954900  0.378900  1.0  -0.1771
  C  C543  1  0.544300  0.913100  0.361300  1.0  0.1824
  C  C544  1  0.523200  0.876800  0.379800  1.0  -0.1285
  C  C545  1  0.454100  0.879600  0.420000  1.0  0.1383
  C  C546  1  0.617400  0.907000  0.318600  1.0  -0.1901
  C  C547  1  0.523480  0.686020  0.346820  1.0  0.2532
  C  C548  1  0.443050  0.695210  0.379090  1.0  -0.1512
  C  C549  1  0.391300  0.740400  0.383800  1.0  -0.041
  C  C550  1  0.417000  0.777350  0.358250  1.0  -0.1095
  C  C551  1  0.495400  0.768100  0.326700  1.0  -0.0911
  C  C552  1  0.549700  0.722800  0.321400  1.0  -0.2203
  C  C553  1  0.409200  0.658350  0.406850  1.0  0.5956
  C  C554  1  0.459520  0.539670  0.415690  1.0  0.5514
  C  C555  1  0.431000  0.500100  0.439700  1.0  -0.2249
  C  C556  1  0.398300  0.480000  0.403600  1.0  -0.3698
  C  C557  1  0.432200  0.577100  0.307700  1.0  0.1734
  C  C558  1  0.397300  0.570900  0.271900  1.0  -0.1674
  C  C559  1  0.443200  0.568700  0.226100  1.0  0.1026
  C  C560  1  0.520700  0.576100  0.216700  1.0  -0.1786
  C  C561  1  0.550500  0.582500  0.253900  1.0  0.1641
  C  C562  1  0.413400  0.558000  0.189000  1.0  -0.1196
  C  C563  1  0.196200  0.590840  0.417960  1.0  0.2987
  C  C564  1  0.170000  0.560000  0.451800  1.0  -0.1591
  C  C565  1  0.115400  0.535600  0.445200  1.0  -0.084
  C  C566  1  0.093100  0.543100  0.402100  1.0  -0.109
  C  C567  1  0.123900  0.570900  0.370100  1.0  -0.0743
  C  C568  1  0.176300  0.595200  0.375400  1.0  -0.28
  C  C569  1  0.192700  0.550970  0.495230  1.0  0.535
  C  C570  1  0.306480  0.585470  0.554170  1.0  0.4758
  C  C571  1  0.330400  0.578200  0.598600  1.0  -0.2838
  C  C572  1  0.369400  0.612700  0.607700  1.0  -0.3239
  C  C573  1  0.869700  0.472370  0.331030  1.0  0.2519
  C  C574  1  0.805180  0.496990  0.310650  1.0  -0.1579
  C  C575  1  0.818720  0.495580  0.263180  1.0  -0.0929
  C  C576  1  0.892500  0.468300  0.233500  1.0  -0.1499
  C  C577  1  0.952600  0.443200  0.253000  1.0  -0.1197
  C  C578  1  0.945800  0.443800  0.299600  1.0  -0.1312
  C  C579  1  0.728200  0.527760  0.338840  1.0  0.5565
  C  C580  1  0.636020  0.571280  0.449480  1.0  0.5136
  C  C581  1  0.566910  0.606990  0.479190  1.0  -0.1865
  C  C582  1  0.587800  0.632200  0.511400  1.0  -0.3065
  C  C583  1  0.299200  0.541700  0.082700  1.0  0.121
  C  C584  1  0.325300  0.545100  0.121100  1.0  -0.1821
  C  C585  1  0.318700  0.586900  0.138700  1.0  0.1824
  C  C586  1  0.279800  0.623200  0.120200  1.0  -0.1247
  C  C587  1  0.253700  0.620400  0.080000  1.0  0.1399
  C  C588  1  0.343000  0.593000  0.181400  1.0  -0.1869
  C  C589  1  0.209500  0.846820  0.313980  1.0  0.2561
  C  C590  1  0.138260  0.879090  0.304790  1.0  -0.1496
  C  C591  1  0.131700  0.883800  0.259600  1.0  -0.0405
  C  C592  1  0.194350  0.858250  0.222650  1.0  -0.1085
  C  C593  1  0.263500  0.826700  0.231900  1.0  -0.0906
  C  C594  1  0.272500  0.821400  0.277200  1.0  -0.2199
  C  C595  1  0.067550  0.906850  0.341650  1.0  0.5957
  C  C596  1  0.999190  0.915690  0.460330  1.0  0.5502
  C  C597  1  0.931100  0.939700  0.499900  1.0  -0.2244
  C  C598  1  0.878300  0.903600  0.520000  1.0  -0.3664
  C  C599  1  0.009300  0.807700  0.422900  1.0  0.1711
  C  C600  1  0.968200  0.771900  0.429100  1.0  -0.167
  C  C601  1  0.011900  0.726100  0.431300  1.0  0.1011
  C  C602  1  0.096800  0.716700  0.423900  1.0  -0.1786
  C  C603  1  0.133000  0.753900  0.417500  1.0  0.1638
  C  C604  1  0.971400  0.689000  0.442000  1.0  -0.1233
  C  C605  1  0.787040  0.917960  0.409160  1.0  0.2953
  C  C606  1  0.730000  0.951800  0.440000  1.0  -0.1597
  C  C607  1  0.651000  0.945200  0.464400  1.0  -0.0844
  C  C608  1  0.636200  0.902100  0.456900  1.0  -0.1105
  C  C609  1  0.694800  0.870100  0.429100  1.0  -0.0804
  C  C610  1  0.771500  0.875400  0.404800  1.0  -0.2812
  C  C611  1  0.743670  0.995230  0.449030  1.0  0.5369
  C  C612  1  0.891950  0.054170  0.414530  1.0  0.4714
  C  C613  1  0.908600  0.098600  0.421800  1.0  -0.2885
  C  C614  1  0.982100  0.107700  0.387300  1.0  -0.3226
  C  C615  1  0.342070  0.831030  0.527630  1.0  0.251
  C  C616  1  0.302170  0.810650  0.503010  1.0  -0.1565
  C  C617  1  0.314300  0.763180  0.504420  1.0  -0.093
  C  C618  1  0.360800  0.733500  0.531700  1.0  -0.1527
  C  C619  1  0.395800  0.753000  0.556800  1.0  -0.121
  C  C620  1  0.389600  0.799600  0.556200  1.0  -0.1343
  C  C621  1  0.255960  0.838840  0.472240  1.0  0.5565
  C  C622  1  0.207300  0.949480  0.428720  1.0  0.5161
  C  C623  1  0.173900  0.979190  0.393010  1.0  -0.1843
  C  C624  1  0.220000  0.011400  0.367800  1.0  -0.306
  C  C625  1  0.840900  0.582700  0.458300  1.0  0.1224
  C  C626  1  0.870400  0.621100  0.454900  1.0  -0.1742
  C  C627  1  0.905600  0.638700  0.413100  1.0  0.1823
  C  C628  1  0.903000  0.620200  0.376800  1.0  -0.1192
  C  C629  1  0.874100  0.580000  0.379600  1.0  0.1393
  C  C630  1  0.936000  0.681400  0.407000  1.0  -0.1861
  C  C631  1  0.870300  0.653180  0.186020  1.0  0.2561
  C  C632  1  0.822140  0.620910  0.195210  1.0  -0.1531
  C  C633  1  0.775100  0.616200  0.240400  1.0  -0.0404
  C  C634  1  0.775250  0.641750  0.277350  1.0  -0.1102
  C  C635  1  0.822100  0.673300  0.268100  1.0  -0.0914
  C  C636  1  0.871100  0.678600  0.222800  1.0  -0.22
  C  C637  1  0.816050  0.593150  0.158350  1.0  0.5964
  C  C638  1  0.875210  0.584310  0.039670  1.0  0.551
  C  C639  1  0.870700  0.560300  0.000100  1.0  -0.2285
  C  C640  1  0.801900  0.596400  0.980000  1.0  -0.3702
  C  C641  1  0.739900  0.692300  0.077100  1.0  0.1705
  C  C642  1  0.669200  0.728100  0.070900  1.0  -0.1667
  C  C643  1  0.669300  0.773900  0.068700  1.0  0.1013
  C  C644  1  0.737400  0.783300  0.076100  1.0  -0.1783
  C  C645  1  0.804400  0.746100  0.082500  1.0  0.1632
  C  C646  1  0.602400  0.811000  0.058000  1.0  -0.122
  C  C647  1  0.614160  0.582040  0.090840  1.0  0.2964
  C  C648  1  0.621800  0.548200  0.060000  1.0  -0.1597
  C  C649  1  0.560600  0.554800  0.035600  1.0  -0.0827
  C  C650  1  0.495200  0.597900  0.043100  1.0  -0.1064
  C  C651  1  0.494000  0.629900  0.070900  1.0  -0.0776
  C  C652  1  0.551700  0.624600  0.095200  1.0  -0.2772
  C  C653  1  0.687930  0.504770  0.050970  1.0  0.5357
  C  C654  1  0.860650  0.445830  0.085470  1.0  0.4688
  C  C655  1  0.929000  0.401400  0.078200  1.0  -0.2838
  C  C656  1  0.977100  0.392300  0.112700  1.0  -0.3228
  C  C657  1  0.200730  0.668970  0.972370  1.0  0.2492
  C  C658  1  0.115830  0.689350  0.996990  1.0  -0.1561
  C  C659  1  0.081900  0.736820  0.995580  1.0  -0.0927
  C  C660  1  0.126000  0.766500  0.968300  1.0  -0.1523
  C  C661  1  0.205600  0.747000  0.943200  1.0  -0.1195
  C  C662  1  0.245400  0.700400  0.943800  1.0  -0.1329
  C  C663  1  0.067040  0.661160  0.027760  1.0  0.5564
  C  C664  1  0.085500  0.550520  0.071280  1.0  0.5168
  C  C665  1  0.046100  0.520810  0.106990  1.0  -0.1854
  C  C666  1  0.099200  0.488600  0.132200  1.0  -0.3035
  C  C667  1  0.381900  0.917300  0.041700  1.0  0.1236
  C  C668  1  0.446400  0.878900  0.045100  1.0  -0.1725
  C  C669  1  0.457400  0.861300  0.086900  1.0  0.1807
  C  C670  1  0.400000  0.879800  0.123200  1.0  -0.1217
  C  C671  1  0.333700  0.920000  0.120400  1.0  0.1385
  C  C672  1  0.524400  0.818600  0.093000  1.0  -0.1865
  N  N673  1  0.031090  0.114740  0.899680  1.0  -0.2842
  N  N674  1  0.074340  0.081830  0.927690  1.0  -0.2575
  N  N675  1  0.112200  0.082860  0.797940  1.0  -0.3162
  N  N676  1  0.181450  0.073150  0.003950  1.0  -0.2716
  N  N677  1  0.132810  0.059970  0.046810  1.0  -0.2857
  N  N678  1  0.864880  0.034110  0.883730  1.0  -0.3057
  N  N679  1  0.881870  0.068470  0.905790  1.0  -0.2461
  N  N680  1  0.593900  0.079300  0.561900  1.0  -0.3071
  N  N681  1  0.545510  0.385260  0.600320  1.0  -0.2846
  N  N682  1  0.583860  0.418170  0.572310  1.0  -0.258
  N  N683  1  0.493000  0.417140  0.702060  1.0  -0.3194
  N  N684  1  0.758550  0.426850  0.496050  1.0  -0.2714
  N  N685  1  0.739590  0.440030  0.453190  1.0  -0.2886
  N  N686  1  0.282720  0.465890  0.616270  1.0  -0.3025
  N  N687  1  0.356130  0.431530  0.594210  1.0  -0.2465
  N  N688  1  0.735100  0.420700  0.938100  1.0  -0.3101
  N  N689  1  0.930770  0.100320  0.614740  1.0  -0.285
  N  N690  1  0.002030  0.072310  0.581830  1.0  -0.2573
  N  N691  1  0.910140  0.202060  0.582860  1.0  -0.3172
  N  N692  1  0.185400  0.996050  0.573150  1.0  -0.2686
  N  N693  1  0.179620  0.953190  0.559970  1.0  -0.2841
  N  N694  1  0.748610  0.116270  0.534110  1.0  -0.3027
  N  N695  1  0.787660  0.094210  0.568470  1.0  -0.2477
  N  N696  1  0.155800  0.438100  0.579300  1.0  -0.3091
  N  N697  1  0.145830  0.399680  0.885260  1.0  -0.2848
  N  N698  1  0.156170  0.427690  0.918170  1.0  -0.2593
  N  N699  1  0.195060  0.297940  0.917140  1.0  -0.3184
  N  N700  1  0.254600  0.503950  0.926850  1.0  -0.2691
  N  N701  1  0.192780  0.546810  0.940030  1.0  -0.2847
  N  N702  1  0.898990  0.383730  0.965890  1.0  -0.3034
  N  N703  1  0.950340  0.405790  0.931530  1.0  -0.2461
  N  N704  1  0.673200  0.061900  0.920700  1.0  -0.3077
  N  N705  1  0.968910  0.885260  0.100320  1.0  -0.284
  N  N706  1  0.925660  0.918170  0.072310  1.0  -0.2584
  N  N707  1  0.887800  0.917140  0.202060  1.0  -0.3192
  N  N708  1  0.818550  0.926850  0.996050  1.0  -0.2714
  N  N709  1  0.867190  0.940030  0.953190  1.0  -0.2863
  N  N710  1  0.135120  0.965890  0.116270  1.0  -0.3039
  N  N711  1  0.118130  0.931530  0.094210  1.0  -0.247
  N  N712  1  0.406100  0.920700  0.438100  1.0  -0.3074
  N  N713  1  0.454490  0.614740  0.399680  1.0  -0.2855
  N  N714  1  0.416140  0.581830  0.427690  1.0  -0.2581
  N  N715  1  0.507000  0.582860  0.297940  1.0  -0.3175
  N  N716  1  0.241450  0.573150  0.503950  1.0  -0.2713
  N  N717  1  0.260410  0.559970  0.546810  1.0  -0.2866
  N  N718  1  0.717280  0.534110  0.383730  1.0  -0.3039
  N  N719  1  0.643870  0.568470  0.405790  1.0  -0.2477
  N  N720  1  0.264900  0.579300  0.061900  1.0  -0.3111
  N  N721  1  0.069230  0.899680  0.385260  1.0  -0.2838
  N  N722  1  0.997970  0.927690  0.418170  1.0  -0.258
  N  N723  1  0.089860  0.797940  0.417140  1.0  -0.3179
  N  N724  1  0.814600  0.003950  0.426850  1.0  -0.2713
  N  N725  1  0.820380  0.046810  0.440030  1.0  -0.2838
  N  N726  1  0.251390  0.883730  0.465890  1.0  -0.3025
  N  N727  1  0.212340  0.905790  0.431530  1.0  -0.2468
  N  N728  1  0.844200  0.561900  0.420700  1.0  -0.3093
  N  N729  1  0.854170  0.600320  0.114740  1.0  -0.2872
  N  N730  1  0.843830  0.572310  0.081830  1.0  -0.2575
  N  N731  1  0.804940  0.702060  0.082860  1.0  -0.3183
  N  N732  1  0.745400  0.496050  0.073150  1.0  -0.2682
  N  N733  1  0.807220  0.453190  0.059970  1.0  -0.2813
  N  N734  1  0.101010  0.616270  0.034110  1.0  -0.304
  N  N735  1  0.049660  0.594210  0.068470  1.0  -0.247
  N  N736  1  0.326800  0.938100  0.079300  1.0  -0.3098
  O  O737  1  0.939260  0.143520  0.838960  1.0  -0.5487
  O  O738  1  0.052840  0.169930  0.937390  1.0  -0.5714
  O  O739  1  0.057020  0.030480  0.882480  1.0  -0.5796
  O  O740  1  0.216780  0.117850  0.922190  1.0  -0.5627
  O  O741  1  0.291000  0.022150  0.024050  1.0  -0.562
  O  O742  1  0.030630  0.116070  0.024470  1.0  -0.5877
  O  O743  1  0.787140  0.971370  0.875550  1.0  -0.5742
  O  O744  1  0.960080  0.049620  0.818220  1.0  -0.5582
  O  O745  1  0.798940  0.042850  0.969470  1.0  -0.5767
  O  O746  1  0.421740  0.356480  0.661040  1.0  -0.5503
  O  O747  1  0.660160  0.330070  0.562610  1.0  -0.5718
  O  O748  1  0.469980  0.469520  0.617520  1.0  -0.5801
  O  O749  1  0.756820  0.382150  0.577810  1.0  -0.5626
  O  O750  1  0.837200  0.477850  0.475950  1.0  -0.5604
  O  O751  1  0.671170  0.383930  0.475530  1.0  -0.5856
  O  O752  1  0.134060  0.528630  0.624450  1.0  -0.5774
  O  O753  1  0.327920  0.450380  0.681780  1.0  -0.5616
  O  O754  1  0.311260  0.457150  0.530530  1.0  -0.5761
  O  O755  1  0.778220  0.161040  0.643520  1.0  -0.5531
  O  O756  1  0.990230  0.062610  0.669930  1.0  -0.5716
  O  O757  1  0.939500  0.117520  0.530480  1.0  -0.581
  O  O758  1  0.138970  0.077810  0.617850  1.0  -0.5627
  O  O759  1  0.315050  0.975950  0.522150  1.0  -0.5613
  O  O760  1  0.055100  0.975530  0.616070  1.0  -0.5842
  O  O761  1  0.662690  0.124450  0.471370  1.0  -0.5757
  O  O762  1  0.778300  0.181780  0.549620  1.0  -0.5611
  O  O763  1  0.768410  0.030530  0.542850  1.0  -0.5765
  O  O764  1  0.082780  0.338960  0.856480  1.0  -0.5527
  O  O765  1  0.222770  0.437390  0.830070  1.0  -0.571
  O  O766  1  0.087500  0.382480  0.969520  1.0  -0.5796
  O  O767  1  0.334630  0.422190  0.882150  1.0  -0.565
  O  O768  1  0.313150  0.524050  0.977850  1.0  -0.5602
  O  O769  1  0.146700  0.524470  0.883930  1.0  -0.5862
  O  O770  1  0.758510  0.375550  0.028630  1.0  -0.5693
  O  O771  1  0.009700  0.318220  0.950380  1.0  -0.5585
  O  O772  1  0.841790  0.469470  0.957150  1.0  -0.5771
  O  O773  1  0.060740  0.856480  0.161040  1.0  -0.5511
  O  O774  1  0.947160  0.830070  0.062610  1.0  -0.5721
  O  O775  1  0.942980  0.969520  0.117520  1.0  -0.5817
  O  O776  1  0.783220  0.882150  0.077810  1.0  -0.5645
  O  O777  1  0.709000  0.977850  0.975950  1.0  -0.5605
  O  O778  1  0.969370  0.883930  0.975530  1.0  -0.5878
  O  O779  1  0.212860  0.028630  0.124450  1.0  -0.5727
  O  O780  1  0.039920  0.950380  0.181780  1.0  -0.5596
  O  O781  1  0.201060  0.957150  0.030530  1.0  -0.5762
  O  O782  1  0.578260  0.643520  0.338960  1.0  -0.5503
  O  O783  1  0.339840  0.669930  0.437390  1.0  -0.571
  O  O784  1  0.530020  0.530480  0.382480  1.0  -0.5779
  O  O785  1  0.243180  0.617850  0.422190  1.0  -0.5628
  O  O786  1  0.162800  0.522150  0.524050  1.0  -0.5591
  O  O787  1  0.328830  0.616070  0.524470  1.0  -0.5871
  O  O788  1  0.865940  0.471370  0.375550  1.0  -0.5759
  O  O789  1  0.672080  0.549620  0.318220  1.0  -0.5598
  O  O790  1  0.688740  0.542850  0.469470  1.0  -0.5757
  O  O791  1  0.221780  0.838960  0.356480  1.0  -0.5514
  O  O792  1  0.009770  0.937390  0.330070  1.0  -0.5715
  O  O793  1  0.060500  0.882480  0.469520  1.0  -0.5793
  O  O794  1  0.861030  0.922190  0.382150  1.0  -0.5626
  O  O795  1  0.684950  0.024050  0.477850  1.0  -0.5594
  O  O796  1  0.944900  0.024470  0.383930  1.0  -0.5851
  O  O797  1  0.337310  0.875550  0.528630  1.0  -0.5674
  O  O798  1  0.221700  0.818220  0.450380  1.0  -0.56
  O  O799  1  0.231590  0.969470  0.457150  1.0  -0.5767
  O  O800  1  0.917220  0.661040  0.143520  1.0  -0.5511
  O  O801  1  0.777230  0.562610  0.169930  1.0  -0.5694
  O  O802  1  0.912500  0.617520  0.030480  1.0  -0.5802
  O  O803  1  0.665370  0.577810  0.117850  1.0  -0.566
  O  O804  1  0.686850  0.475950  0.022150  1.0  -0.5608
  O  O805  1  0.853300  0.475530  0.116070  1.0  -0.5854
  O  O806  1  0.241490  0.624450  0.971370  1.0  -0.571
  O  O807  1  0.990300  0.681780  0.049620  1.0  -0.5594
  O  O808  1  0.158210  0.530530  0.042850  1.0  -0.5766
