# generated using pymatgen
data_Mn3H33C39N8O9
_symmetry_space_group_name_H-M   'P 1'
_cell_length_a   17.77030000
_cell_length_b   29.79000000
_cell_length_c   29.79000000
_cell_angle_alpha   84.89630000
_cell_angle_beta   72.64690000
_cell_angle_gamma   72.64690000
_symmetry_Int_Tables_number   1
_chemical_formula_structural   Mn3H33C39N8O9
_chemical_formula_sum   'Mn24 H264 C312 N64 O72'
_cell_volume   14367.25472811
_cell_formula_units_Z   8
loop_
 _symmetry_equiv_pos_site_id
 _symmetry_equiv_pos_as_xyz
  1  'x, y, z'
loop_
 _atom_site_type_symbol
 _atom_site_label
 _atom_site_symmetry_multiplicity
 _atom_site_fract_x
 _atom_site_fract_y
 _atom_site_fract_z
 _atom_site_occupancy
 _atom_site_charge
  Mn  Mn1  1  0.784960  0.005000  0.925940  1.0  0.9735
  Mn  Mn2  1  0.993260  0.084960  0.858000  1.0  0.9615
  Mn  Mn3  1  0.878390  0.879780  0.031160  1.0  0.9863
  Mn  Mn4  1  0.215900  0.495000  0.574060  1.0  0.9743
  Mn  Mn5  1  0.436220  0.415040  0.642000  1.0  0.9612
  Mn  Mn6  1  0.289330  0.620220  0.468840  1.0  0.9883
  Mn  Mn7  1  0.710890  0.074070  0.505000  1.0  0.9791
  Mn  Mn8  1  0.851260  0.142000  0.584960  1.0  0.9576
  Mn  Mn9  1  0.909550  0.968840  0.379780  1.0  0.9857
  Mn  Mn10  1  0.789970  0.425930  0.995000  1.0  0.9745
  Mn  Mn11  1  0.078220  0.358000  0.915040  1.0  0.9572
  Mn  Mn12  1  0.758170  0.531160  0.120220  1.0  0.9865
  Mn  Mn13  1  0.215040  0.995000  0.074070  1.0  0.9749
  Mn  Mn14  1  0.006740  0.915040  0.142000  1.0  0.9595
  Mn  Mn15  1  0.121610  0.120220  0.968840  1.0  0.9892
  Mn  Mn16  1  0.784100  0.505000  0.425940  1.0  0.9735
  Mn  Mn17  1  0.563780  0.584960  0.358000  1.0  0.958
  Mn  Mn18  1  0.710670  0.379780  0.531160  1.0  0.9861
  Mn  Mn19  1  0.289110  0.925930  0.495000  1.0  0.9784
  Mn  Mn20  1  0.148740  0.858000  0.415040  1.0  0.9575
  Mn  Mn21  1  0.090450  0.031160  0.620220  1.0  0.9866
  Mn  Mn22  1  0.210030  0.574070  0.005000  1.0  0.9757
  Mn  Mn23  1  0.921780  0.642000  0.084960  1.0  0.9567
  Mn  Mn24  1  0.241830  0.468840  0.879780  1.0  0.989
  H  H25  1  0.766100  0.931100  0.812700  1.0  0.1129
  H  H26  1  0.826600  0.929900  0.733500  1.0  0.1077
  H  H27  1  0.922300  0.971700  0.699500  1.0  0.1161
  H  H28  1  0.960000  0.012800  0.749400  1.0  0.0976
  H  H29  1  0.888300  0.087300  0.000500  1.0  0.1323
  H  H30  1  0.879000  0.127000  0.961000  1.0  0.1405
  H  H31  1  0.799300  0.121300  0.001100  1.0  0.1389
  H  H32  1  0.701800  0.069300  0.851700  1.0  0.0904
  H  H33  1  0.592600  0.134400  0.848200  1.0  0.0951
  H  H34  1  0.506200  0.132600  0.986800  1.0  0.1209
  H  H35  1  0.620500  0.068200  0.988600  1.0  0.0903
  H  H36  1  0.465900  0.181200  0.873800  1.0  0.0707
  H  H37  1  0.481800  0.212100  0.909500  1.0  0.0822
  H  H38  1  0.873500  0.218900  0.804500  1.0  0.1059
  H  H39  1  0.880900  0.293600  0.811800  1.0  0.1078
  H  H40  1  0.947600  0.308600  0.862000  1.0  0.1148
  H  H41  1  0.011800  0.247600  0.903600  1.0  0.0904
  H  H42  1  0.135600  0.008600  0.968200  1.0  0.125
  H  H43  1  0.073600  0.981800  0.961800  1.0  0.1192
  H  H44  1  0.161700  0.974700  0.923900  1.0  0.1251
  H  H45  1  0.147700  0.247500  0.910900  1.0  0.0766
  H  H46  1  0.260600  0.186200  0.913000  1.0  0.1015
  H  H47  1  0.371400  0.279900  0.930900  1.0  0.1152
  H  H48  1  0.259500  0.338800  0.921400  1.0  0.0786
  H  H49  1  0.389000  0.153500  0.932100  1.0  0.0757
  H  H50  1  0.403100  0.186300  0.966700  1.0  0.0957
  H  H51  1  0.667800  0.887400  0.152200  1.0  0.1091
  H  H52  1  0.531600  0.925500  0.163700  1.0  0.105
  H  H53  1  0.484300  0.971400  0.103600  1.0  0.1187
  H  H54  1  0.581400  0.983200  0.034200  1.0  0.1027
  H  H55  1  0.038800  0.938800  0.907600  1.0  0.123
  H  H56  1  0.976400  0.939600  0.878200  1.0  0.1371
  H  H57  1  0.037500  0.890700  0.888300  1.0  0.1417
  H  H58  1  0.009900  0.568900  0.687300  1.0  0.1115
  H  H59  1  0.990000  0.570100  0.766500  1.0  0.1083
  H  H60  1  0.093500  0.528300  0.800500  1.0  0.1156
  H  H61  1  0.222200  0.487200  0.750600  1.0  0.0982
  H  H62  1  0.476100  0.412700  0.499500  1.0  0.1305
  H  H63  1  0.467000  0.373000  0.539000  1.0  0.1397
  H  H64  1  0.421700  0.378700  0.498900  1.0  0.1399
  H  H65  1  0.122800  0.430700  0.648300  1.0  0.0911
  H  H66  1  0.075200  0.365600  0.651800  1.0  0.0941
  H  H67  1  0.125600  0.367400  0.513200  1.0  0.1213
  H  H68  1  0.177300  0.431800  0.511400  1.0  0.0904
  H  H69  1  0.020900  0.318800  0.626200  1.0  0.0693
  H  H70  1  0.103400  0.287900  0.590500  1.0  0.0821
  H  H71  1  0.396900  0.281100  0.695500  1.0  0.1049
  H  H72  1  0.486300  0.206400  0.688200  1.0  0.1076
  H  H73  1  0.618200  0.191400  0.638000  1.0  0.1152
  H  H74  1  0.663000  0.252400  0.596400  1.0  0.0895
  H  H75  1  0.612400  0.491400  0.531800  1.0  0.1247
  H  H76  1  0.517200  0.518200  0.538200  1.0  0.1196
  H  H77  1  0.560300  0.525300  0.576100  1.0  0.1276
  H  H78  1  0.806100  0.252500  0.589100  1.0  0.077
  H  H79  1  0.859800  0.313800  0.587000  1.0  0.1023
  H  H80  1  0.082200  0.220100  0.569100  1.0  0.1151
  H  H81  1  0.019700  0.161200  0.578600  1.0  0.0786
  H  H82  1  0.974600  0.346500  0.567900  1.0  0.078
  H  H83  1  0.056100  0.313700  0.533300  1.0  0.0971
  H  H84  1  0.207400  0.612600  0.347800  1.0  0.1097
  H  H85  1  0.120800  0.574500  0.336300  1.0  0.104
  H  H86  1  0.059300  0.528600  0.396400  1.0  0.119
  H  H87  1  0.098800  0.516800  0.465800  1.0  0.1025
  H  H88  1  0.385200  0.561200  0.592400  1.0  0.1236
  H  H89  1  0.294200  0.560400  0.621800  1.0  0.1371
  H  H90  1  0.316500  0.609300  0.611700  1.0  0.1417
  H  H91  1  0.578800  0.187300  0.431100  1.0  0.1117
  H  H92  1  0.560100  0.266500  0.429900  1.0  0.1076
  H  H93  1  0.621800  0.300500  0.471700  1.0  0.1166
  H  H94  1  0.709400  0.250600  0.512800  1.0  0.0988
  H  H95  1  0.888800  0.999500  0.587300  1.0  0.1355
  H  H96  1  0.840000  0.039000  0.627000  1.0  0.1409
  H  H97  1  0.800400  0.998900  0.621300  1.0  0.1392
  H  H98  1  0.553500  0.148300  0.569300  1.0  0.0908
  H  H99  1  0.440800  0.151800  0.634400  1.0  0.0943
  H  H100  1  0.493000  0.013200  0.632600  1.0  0.1196
  H  H101  1  0.609100  0.011400  0.568200  1.0  0.0894
  H  H102  1  0.339700  0.126200  0.681200  1.0  0.0682
  H  H103  1  0.391300  0.090500  0.712100  1.0  0.0852
  H  H104  1  0.678000  0.195500  0.718900  1.0  0.1049
  H  H105  1  0.692700  0.188200  0.793600  1.0  0.1075
  H  H106  1  0.809600  0.138000  0.808600  1.0  0.1125
  H  H107  1  0.915400  0.096400  0.747600  1.0  0.0902
  H  H108  1  0.103800  0.031800  0.508600  1.0  0.1242
  H  H109  1  0.035400  0.038200  0.481800  1.0  0.1208
  H  H110  1  0.085600  0.076100  0.474700  1.0  0.1251
  H  H111  1  0.058600  0.089100  0.747500  1.0  0.0762
  H  H112  1  0.173600  0.087000  0.686200  1.0  0.1024
  H  H113  1  0.302300  0.069100  0.779900  1.0  0.1162
  H  H114  1  0.180900  0.078600  0.838800  1.0  0.0786
  H  H115  1  0.321100  0.067900  0.653500  1.0  0.0758
  H  H116  1  0.369800  0.033300  0.686300  1.0  0.0901
  H  H117  1  0.820000  0.847800  0.387400  1.0  0.1088
  H  H118  1  0.695300  0.836300  0.425500  1.0  0.1053
  H  H119  1  0.587900  0.896400  0.471400  1.0  0.1192
  H  H120  1  0.615600  0.965800  0.483200  1.0  0.1022
  H  H121  1  0.946400  0.092400  0.438800  1.0  0.1224
  H  H122  1  0.854600  0.121800  0.439600  1.0  0.1395
  H  H123  1  0.925800  0.111700  0.390700  1.0  0.1409
  H  H124  1  0.697200  0.312700  0.068900  1.0  0.1138
  H  H125  1  0.756500  0.233500  0.070100  1.0  0.1081
  H  H126  1  0.894000  0.199500  0.028300  1.0  0.1168
  H  H127  1  0.972800  0.249400  0.987200  1.0  0.0999
  H  H128  1  0.975600  0.500500  0.912700  1.0  0.1338
  H  H129  1  0.006000  0.461000  0.873000  1.0  0.1418
  H  H130  1  0.920600  0.501100  0.878700  1.0  0.1398
  H  H131  1  0.771100  0.351700  0.930700  1.0  0.0901
  H  H132  1  0.727000  0.348200  0.865600  1.0  0.0949
  H  H133  1  0.638800  0.486800  0.867400  1.0  0.1198
  H  H134  1  0.688700  0.488600  0.931800  1.0  0.0894
  H  H135  1  0.647100  0.373800  0.818800  1.0  0.064
  H  H136  1  0.693900  0.409500  0.787900  1.0  0.086
  H  H137  1  0.092400  0.304500  0.781100  1.0  0.1041
  H  H138  1  0.174500  0.311800  0.706400  1.0  0.1084
  H  H139  1  0.256200  0.362000  0.691400  1.0  0.1116
  H  H140  1  0.259400  0.403600  0.752400  1.0  0.0895
  H  H141  1  0.144200  0.468200  0.991400  1.0  0.1249
  H  H142  1  0.055400  0.461800  0.018200  1.0  0.1217
  H  H143  1  0.136400  0.423900  0.025300  1.0  0.1275
  H  H144  1  0.395200  0.410900  0.752500  1.0  0.0766
  H  H145  1  0.446800  0.413000  0.813800  1.0  0.1013
  H  H146  1  0.651300  0.430900  0.720100  1.0  0.1155
  H  H147  1  0.598300  0.421400  0.661200  1.0  0.0778
  H  H148  1  0.542500  0.432100  0.846500  1.0  0.0751
  H  H149  1  0.589400  0.466700  0.813700  1.0  0.0896
  H  H150  1  0.555200  0.652200  0.112600  1.0  0.1082
  H  H151  1  0.457100  0.663700  0.074500  1.0  0.107
  H  H152  1  0.455700  0.603600  0.028600  1.0  0.1169
  H  H153  1  0.564600  0.534200  0.016800  1.0  0.1029
  H  H154  1  0.977600  0.407600  0.061200  1.0  0.1218
  H  H155  1  0.916000  0.378200  0.060400  1.0  0.1382
  H  H156  1  0.928200  0.388300  0.109300  1.0  0.1389
  H  H157  1  0.233900  0.068900  0.187300  1.0  0.1135
  H  H158  1  0.173400  0.070100  0.266500  1.0  0.1099
  H  H159  1  0.077700  0.028300  0.300500  1.0  0.1157
  H  H160  1  0.040000  0.987200  0.250600  1.0  0.0976
  H  H161  1  0.111700  0.912700  0.999500  1.0  0.1292
  H  H162  1  0.121000  0.873000  0.039000  1.0  0.1419
  H  H163  1  0.200700  0.878700  0.998900  1.0  0.1389
  H  H164  1  0.298200  0.930700  0.148300  1.0  0.0905
  H  H165  1  0.407400  0.865600  0.151800  1.0  0.0941
  H  H166  1  0.493800  0.867400  0.013200  1.0  0.1223
  H  H167  1  0.379500  0.931800  0.011400  1.0  0.0904
  H  H168  1  0.534100  0.818800  0.126200  1.0  0.07
  H  H169  1  0.518200  0.787900  0.090500  1.0  0.0814
  H  H170  1  0.126500  0.781100  0.195500  1.0  0.1061
  H  H171  1  0.119100  0.706400  0.188200  1.0  0.1084
  H  H172  1  0.052400  0.691400  0.138000  1.0  0.1148
  H  H173  1  0.988200  0.752400  0.096400  1.0  0.0912
  H  H174  1  0.864400  0.991400  0.031800  1.0  0.1242
  H  H175  1  0.926400  0.018200  0.038200  1.0  0.1209
  H  H176  1  0.838300  0.025300  0.076100  1.0  0.1252
  H  H177  1  0.852300  0.752500  0.089100  1.0  0.0761
  H  H178  1  0.739400  0.813800  0.087000  1.0  0.1028
  H  H179  1  0.628600  0.720100  0.069100  1.0  0.1153
  H  H180  1  0.740500  0.661200  0.078600  1.0  0.0785
  H  H181  1  0.611000  0.846500  0.067900  1.0  0.0787
  H  H182  1  0.596900  0.813700  0.033300  1.0  0.0964
  H  H183  1  0.332200  0.112600  0.847800  1.0  0.1098
  H  H184  1  0.468400  0.074500  0.836300  1.0  0.1042
  H  H185  1  0.515700  0.028600  0.896400  1.0  0.1187
  H  H186  1  0.418600  0.016800  0.965800  1.0  0.1029
  H  H187  1  0.961200  0.061200  0.092400  1.0  0.1223
  H  H188  1  0.023600  0.060400  0.121800  1.0  0.1361
  H  H189  1  0.962500  0.109300  0.111700  1.0  0.141
  H  H190  1  0.990100  0.431100  0.312700  1.0  0.112
  H  H191  1  0.010000  0.429900  0.233500  1.0  0.1082
  H  H192  1  0.906500  0.471700  0.199500  1.0  0.1161
  H  H193  1  0.777800  0.512800  0.249400  1.0  0.0974
  H  H194  1  0.523900  0.587300  0.500500  1.0  0.1322
  H  H195  1  0.533000  0.627000  0.461000  1.0  0.1393
  H  H196  1  0.578300  0.621300  0.501100  1.0  0.1401
  H  H197  1  0.877200  0.569300  0.351700  1.0  0.0914
  H  H198  1  0.924800  0.634400  0.348200  1.0  0.0932
  H  H199  1  0.874400  0.632600  0.486800  1.0  0.1193
  H  H200  1  0.822700  0.568200  0.488600  1.0  0.0904
  H  H201  1  0.979100  0.681200  0.373800  1.0  0.0702
  H  H202  1  0.896600  0.712100  0.409500  1.0  0.0814
  H  H203  1  0.603100  0.718900  0.304500  1.0  0.1049
  H  H204  1  0.513700  0.793600  0.311800  1.0  0.1073
  H  H205  1  0.381800  0.808600  0.362000  1.0  0.1163
  H  H206  1  0.337000  0.747600  0.403600  1.0  0.0897
  H  H207  1  0.387600  0.508600  0.468200  1.0  0.1234
  H  H208  1  0.482800  0.481800  0.461800  1.0  0.119
  H  H209  1  0.439700  0.474700  0.423900  1.0  0.1249
  H  H210  1  0.193900  0.747500  0.410900  1.0  0.0765
  H  H211  1  0.140200  0.686200  0.413000  1.0  0.1029
  H  H212  1  0.917800  0.779900  0.430900  1.0  0.1148
  H  H213  1  0.980300  0.838800  0.421400  1.0  0.0786
  H  H214  1  0.025400  0.653500  0.432100  1.0  0.0764
  H  H215  1  0.943900  0.686300  0.466700  1.0  0.0967
  H  H216  1  0.792600  0.387400  0.652200  1.0  0.1095
  H  H217  1  0.879200  0.425500  0.663700  1.0  0.1039
  H  H218  1  0.940700  0.471400  0.603600  1.0  0.1196
  H  H219  1  0.901200  0.483200  0.534200  1.0  0.1023
  H  H220  1  0.614800  0.438800  0.407600  1.0  0.1251
  H  H221  1  0.705800  0.439600  0.378200  1.0  0.1368
  H  H222  1  0.683500  0.390700  0.388300  1.0  0.1406
  H  H223  1  0.421200  0.812700  0.568900  1.0  0.1118
  H  H224  1  0.439900  0.733500  0.570100  1.0  0.109
  H  H225  1  0.378200  0.699500  0.528300  1.0  0.1167
  H  H226  1  0.290600  0.749400  0.487200  1.0  0.0988
  H  H227  1  0.111200  0.000500  0.412700  1.0  0.1349
  H  H228  1  0.160000  0.961000  0.373000  1.0  0.1405
  H  H229  1  0.199600  0.001100  0.378700  1.0  0.1388
  H  H230  1  0.446500  0.851700  0.430700  1.0  0.0907
  H  H231  1  0.559200  0.848200  0.365600  1.0  0.0951
  H  H232  1  0.507000  0.986800  0.367400  1.0  0.1206
  H  H233  1  0.390900  0.988600  0.431800  1.0  0.0894
  H  H234  1  0.660300  0.873800  0.318800  1.0  0.0647
  H  H235  1  0.608700  0.909500  0.287900  1.0  0.0835
  H  H236  1  0.322000  0.804500  0.281100  1.0  0.1042
  H  H237  1  0.307300  0.811800  0.206400  1.0  0.1071
  H  H238  1  0.190400  0.862000  0.191400  1.0  0.1124
  H  H239  1  0.084600  0.903600  0.252400  1.0  0.0906
  H  H240  1  0.896200  0.968200  0.491400  1.0  0.1241
  H  H241  1  0.964600  0.961800  0.518200  1.0  0.1208
  H  H242  1  0.914400  0.923900  0.525300  1.0  0.1249
  H  H243  1  0.941400  0.910900  0.252500  1.0  0.0762
  H  H244  1  0.826400  0.913000  0.313800  1.0  0.103
  H  H245  1  0.697700  0.930900  0.220100  1.0  0.1157
  H  H246  1  0.819100  0.921400  0.161200  1.0  0.08
  H  H247  1  0.678900  0.932100  0.346500  1.0  0.0759
  H  H248  1  0.630200  0.966700  0.313700  1.0  0.0906
  H  H249  1  0.180000  0.152200  0.612600  1.0  0.1085
  H  H250  1  0.304700  0.163700  0.574500  1.0  0.1058
  H  H251  1  0.412100  0.103600  0.528600  1.0  0.1182
  H  H252  1  0.384400  0.034200  0.516800  1.0  0.1023
  H  H253  1  0.053600  0.907600  0.561200  1.0  0.1221
  H  H254  1  0.145400  0.878200  0.560400  1.0  0.1403
  H  H255  1  0.074200  0.888300  0.609300  1.0  0.1401
  H  H256  1  0.302800  0.687300  0.931100  1.0  0.1132
  H  H257  1  0.243500  0.766500  0.929900  1.0  0.1085
  H  H258  1  0.106000  0.800500  0.971700  1.0  0.1165
  H  H259  1  0.027200  0.750600  0.012800  1.0  0.0992
  H  H260  1  0.024400  0.499500  0.087300  1.0  0.1338
  H  H261  1  0.994000  0.539000  0.127000  1.0  0.1415
  H  H262  1  0.079400  0.498900  0.121300  1.0  0.141
  H  H263  1  0.228900  0.648300  0.069300  1.0  0.0905
  H  H264  1  0.273000  0.651800  0.134400  1.0  0.0941
  H  H265  1  0.361200  0.513200  0.132600  1.0  0.1182
  H  H266  1  0.311300  0.511400  0.068200  1.0  0.0887
  H  H267  1  0.352900  0.626200  0.181200  1.0  0.0675
  H  H268  1  0.306100  0.590500  0.212100  1.0  0.0853
  H  H269  1  0.907600  0.695500  0.218900  1.0  0.1042
  H  H270  1  0.825500  0.688200  0.293600  1.0  0.1091
  H  H271  1  0.743800  0.638000  0.308600  1.0  0.1129
  H  H272  1  0.740600  0.596400  0.247600  1.0  0.0899
  H  H273  1  0.855800  0.531800  0.008600  1.0  0.1244
  H  H274  1  0.944600  0.538200  0.981800  1.0  0.12
  H  H275  1  0.863600  0.576100  0.974700  1.0  0.1255
  H  H276  1  0.604800  0.589100  0.247500  1.0  0.076
  H  H277  1  0.553200  0.587000  0.186200  1.0  0.1025
  H  H278  1  0.348700  0.569100  0.279900  1.0  0.115
  H  H279  1  0.401700  0.578600  0.338800  1.0  0.0774
  H  H280  1  0.457500  0.567900  0.153500  1.0  0.0781
  H  H281  1  0.410600  0.533300  0.186300  1.0  0.0874
  H  H282  1  0.444800  0.347800  0.887400  1.0  0.1082
  H  H283  1  0.542900  0.336300  0.925500  1.0  0.1062
  H  H284  1  0.544300  0.396400  0.971400  1.0  0.1188
  H  H285  1  0.435400  0.465800  0.983200  1.0  0.1026
  H  H286  1  0.022400  0.592400  0.938800  1.0  0.1232
  H  H287  1  0.084000  0.621800  0.939600  1.0  0.1356
  H  H288  1  0.071800  0.611700  0.890700  1.0  0.139
  C  C289  1  0.823280  0.973260  0.830040  1.0  0.2702
  C  C290  1  0.805010  0.948280  0.800100  1.0  -0.1894
  C  C291  1  0.840930  0.947530  0.753010  1.0  -0.1015
  C  C292  1  0.898230  0.971960  0.732580  1.0  -0.1153
  C  C293  1  0.919250  0.996870  0.762410  1.0  -0.0018
  C  C294  1  0.882140  0.998830  0.810110  1.0  -0.155
  C  C295  1  0.903070  0.029060  0.839180  1.0  0.5544
  C  C296  1  0.843570  0.070700  0.950800  1.0  0.565
  C  C297  1  0.853380  0.104410  0.980890  1.0  -0.4758
  C  C298  1  0.661800  0.082140  0.880140  1.0  0.1369
  C  C299  1  0.595430  0.121190  0.878150  1.0  -0.1314
  C  C300  1  0.538230  0.140090  0.914850  1.0  0.1138
  C  C301  1  0.546300  0.120060  0.958340  1.0  -0.1925
  C  C302  1  0.614720  0.081200  0.959160  1.0  0.1532
  C  C303  1  0.468720  0.182640  0.906320  1.0  -0.1013
  C  C304  1  0.941900  0.186070  0.848190  1.0  0.3189
  C  C305  1  0.903050  0.224040  0.824440  1.0  -0.2279
  C  C306  1  0.906530  0.268560  0.829160  1.0  -0.119
  C  C307  1  0.946270  0.277480  0.858580  1.0  -0.1031
  C  C308  1  0.984240  0.241260  0.883040  1.0  -0.0586
  C  C309  1  0.983330  0.194620  0.878500  1.0  -0.108
  C  C310  1  0.024230  0.158280  0.906360  1.0  0.5527
  C  C311  1  0.078710  0.038990  0.916870  1.0  0.5864
  C  C312  1  0.115750  0.997320  0.945240  1.0  -0.4135
  C  C313  1  0.194670  0.254100  0.914500  1.0  0.1893
  C  C314  1  0.260600  0.217540  0.916860  1.0  -0.2004
  C  C315  1  0.327430  0.225940  0.924800  1.0  0.0886
  C  C316  1  0.325940  0.272260  0.926460  1.0  -0.2335
  C  C317  1  0.258880  0.307010  0.921590  1.0  0.1787
  C  C318  1  0.400770  0.183550  0.934310  1.0  -0.1114
  C  C319  1  0.709330  0.909370  0.084970  1.0  0.3251
  C  C320  1  0.650500  0.906090  0.127510  1.0  -0.1923
  C  C321  1  0.569820  0.928730  0.134430  1.0  -0.1048
  C  C322  1  0.541400  0.956830  0.099170  1.0  -0.1275
  C  C323  1  0.599340  0.962700  0.057620  1.0  -0.0705
  C  C324  1  0.682260  0.939770  0.049310  1.0  -0.1577
  C  C325  1  0.738710  0.949810  0.005750  1.0  0.5844
  C  C326  1  0.941270  0.916420  0.944940  1.0  0.511
  C  C327  1  0.003710  0.921830  0.901130  1.0  -0.4462
  C  C328  1  0.126580  0.526740  0.669960  1.0  0.273
  C  C329  1  0.053390  0.551720  0.699900  1.0  -0.1871
  C  C330  1  0.041470  0.552470  0.746990  1.0  -0.1009
  C  C331  1  0.102770  0.528040  0.767420  1.0  -0.1162
  C  C332  1  0.178530  0.503130  0.737590  1.0  -0.0017
  C  C333  1  0.191080  0.501170  0.689890  1.0  -0.1557
  C  C334  1  0.271310  0.470940  0.660820  1.0  0.5555
  C  C335  1  0.365070  0.429300  0.549200  1.0  0.5657
  C  C336  1  0.438680  0.395590  0.519110  1.0  -0.4776
  C  C337  1  0.124080  0.417860  0.619860  1.0  0.1359
  C  C338  1  0.094770  0.378810  0.621850  1.0  -0.1276
  C  C339  1  0.093170  0.359910  0.585150  1.0  0.1139
  C  C340  1  0.124700  0.379940  0.541660  1.0  -0.2017
  C  C341  1  0.155080  0.418800  0.540840  1.0  0.1521
  C  C342  1  0.057680  0.317360  0.593680  1.0  -0.1032
  C  C343  1  0.476160  0.313930  0.651810  1.0  0.319
  C  C344  1  0.451530  0.275960  0.675560  1.0  -0.2253
  C  C345  1  0.504250  0.231440  0.670840  1.0  -0.1219
  C  C346  1  0.582330  0.222520  0.641420  1.0  -0.1054
  C  C347  1  0.608540  0.258740  0.616960  1.0  -0.0593
  C  C348  1  0.556450  0.305380  0.621500  1.0  -0.108
  C  C349  1  0.588870  0.341720  0.593640  1.0  0.5526
  C  C350  1  0.534570  0.461010  0.583130  1.0  0.5855
  C  C351  1  0.558310  0.502680  0.554760  1.0  -0.415
  C  C352  1  0.863270  0.245900  0.585500  1.0  0.1884
  C  C353  1  0.895000  0.282460  0.583140  1.0  -0.2004
  C  C354  1  0.978170  0.274060  0.575200  1.0  0.0883
  C  C355  1  0.024660  0.227740  0.573540  1.0  -0.2326
  C  C356  1  0.987480  0.192990  0.578410  1.0  0.1788
  C  C357  1  0.018630  0.316450  0.565690  1.0  -0.109
  C  C358  1  0.203670  0.590630  0.415030  1.0  0.3267
  C  C359  1  0.184100  0.593910  0.372490  1.0  -0.1984
  C  C360  1  0.132980  0.571270  0.365570  1.0  -0.1047
  C  C361  1  0.097400  0.543170  0.400830  1.0  -0.1285
  C  C362  1  0.119660  0.537300  0.442380  1.0  -0.0686
  C  C363  1  0.171340  0.560230  0.450690  1.0  -0.1583
  C  C364  1  0.194270  0.550190  0.494250  1.0  0.5838
  C  C365  1  0.302630  0.583580  0.555060  1.0  0.5094
  C  C366  1  0.326670  0.578170  0.598870  1.0  -0.448
  C  C367  1  0.653320  0.169960  0.473260  1.0  0.2703
  C  C368  1  0.605110  0.199900  0.448280  1.0  -0.1856
  C  C369  1  0.593940  0.246990  0.447530  1.0  -0.1005
  C  C370  1  0.630810  0.267420  0.471960  1.0  -0.1163
  C  C371  1  0.681660  0.237590  0.496870  1.0  0.0004
  C  C372  1  0.692250  0.189890  0.498830  1.0  -0.1554
  C  C373  1  0.742250  0.160820  0.529060  1.0  0.5543
  C  C374  1  0.794370  0.049200  0.570700  1.0  0.566
  C  C375  1  0.834270  0.019110  0.604410  1.0  -0.4767
  C  C376  1  0.541940  0.119860  0.582140  1.0  0.1362
  C  C377  1  0.473580  0.121850  0.621190  1.0  -0.1339
  C  C378  1  0.453080  0.085150  0.640090  1.0  0.1144
  C  C379  1  0.504640  0.041660  0.620060  1.0  -0.2044
  C  C380  1  0.573880  0.040840  0.581200  1.0  0.15
  C  C381  1  0.375040  0.093680  0.682640  1.0  -0.1069
  C  C382  1  0.790090  0.151810  0.686070  1.0  0.3261
  C  C383  1  0.727490  0.175560  0.724040  1.0  -0.2254
  C  C384  1  0.735690  0.170840  0.768560  1.0  -0.1216
  C  C385  1  0.804850  0.141420  0.777480  1.0  -0.1036
  C  C386  1  0.867280  0.116960  0.741260  1.0  -0.0592
  C  C387  1  0.861830  0.121500  0.694620  1.0  -0.1072
  C  C388  1  0.930590  0.093640  0.658280  1.0  0.553
  C  C389  1  0.995580  0.083130  0.538990  1.0  0.5853
  C  C390  1  0.060990  0.054760  0.497320  1.0  -0.4125
  C  C391  1  0.109170  0.085500  0.754100  1.0  0.1881
  C  C392  1  0.177460  0.083140  0.717540  1.0  -0.2004
  C  C393  1  0.252230  0.075200  0.725940  1.0  0.0875
  C  C394  1  0.252400  0.073540  0.772260  1.0  -0.2306
  C  C395  1  0.180470  0.078410  0.807010  1.0  0.1799
  C  C396  1  0.335080  0.065690  0.683550  1.0  -0.1109
  C  C397  1  0.794300  0.915030  0.409370  1.0  0.3244
  C  C398  1  0.778010  0.872490  0.406090  1.0  -0.1966
  C  C399  1  0.704250  0.865570  0.428730  1.0  -0.1123
  C  C400  1  0.640570  0.900830  0.456830  1.0  -0.1247
  C  C401  1  0.656960  0.942380  0.462700  1.0  -0.0702
  C  C402  1  0.731570  0.950690  0.439770  1.0  -0.1572
  C  C403  1  0.744460  0.994250  0.449810  1.0  0.583
  C  C404  1  0.886210  0.055060  0.416420  1.0  0.5107
  C  C405  1  0.904840  0.098870  0.421830  1.0  -0.4473
  C  C406  1  0.796540  0.330040  0.026740  1.0  0.2672
  C  C407  1  0.753290  0.300100  0.051720  1.0  -0.1917
  C  C408  1  0.788460  0.253010  0.052470  1.0  -0.1017
  C  C409  1  0.870190  0.232580  0.028040  1.0  -0.1164
  C  C410  1  0.916120  0.262410  0.003130  1.0  -0.002
  C  C411  1  0.880970  0.310110  0.001170  1.0  -0.1545
  C  C412  1  0.932130  0.339180  0.970940  1.0  0.5545
  C  C413  1  0.914270  0.450800  0.929300  1.0  0.5645
  C  C414  1  0.957790  0.480890  0.895590  1.0  -0.4762
  C  C415  1  0.743940  0.380140  0.917860  1.0  0.1396
  C  C416  1  0.716620  0.378150  0.878810  1.0  -0.13
  C  C417  1  0.678320  0.414850  0.859910  1.0  0.1147
  C  C418  1  0.666360  0.458340  0.879940  1.0  -0.2035
  C  C419  1  0.695920  0.459160  0.918800  1.0  0.1518
  C  C420  1  0.651360  0.406320  0.817360  1.0  -0.103
  C  C421  1  0.127970  0.348190  0.813930  1.0  0.322
  C  C422  1  0.127090  0.324440  0.775960  1.0  -0.2275
  C  C423  1  0.175090  0.329160  0.731440  1.0  -0.1225
  C  C424  1  0.223750  0.358580  0.722520  1.0  -0.1063
  C  C425  1  0.225500  0.383040  0.758740  1.0  -0.058
  C  C426  1  0.177950  0.378500  0.805380  1.0  -0.1081
  C  C427  1  0.182510  0.406360  0.841720  1.0  0.5523
  C  C428  1  0.117700  0.416870  0.961010  1.0  0.5855
  C  C429  1  0.113070  0.445240  0.002680  1.0  -0.4117
  C  C430  1  0.448770  0.414500  0.745900  1.0  0.19
  C  C431  1  0.478140  0.416860  0.782460  1.0  -0.2015
  C  C432  1  0.553370  0.424800  0.774060  1.0  0.0888
  C  C433  1  0.598200  0.426460  0.727740  1.0  -0.2313
  C  C434  1  0.565890  0.421590  0.692990  1.0  0.182
  C  C435  1  0.584320  0.434310  0.816450  1.0  -0.1143
  C  C436  1  0.618700  0.584970  0.090630  1.0  0.3253
  C  C437  1  0.556590  0.627510  0.093910  1.0  -0.1934
  C  C438  1  0.498550  0.634430  0.071270  1.0  -0.1104
  C  C439  1  0.498230  0.599170  0.043170  1.0  -0.1223
  C  C440  1  0.562040  0.557620  0.037300  1.0  -0.0694
  C  C441  1  0.622030  0.549310  0.060230  1.0  -0.1561
  C  C442  1  0.688520  0.505750  0.050190  1.0  0.5833
  C  C443  1  0.857690  0.444940  0.083580  1.0  0.5081
  C  C444  1  0.925540  0.401130  0.078170  1.0  -0.4455
  C  C445  1  0.176720  0.026740  0.169960  1.0  0.2739
  C  C446  1  0.194990  0.051720  0.199900  1.0  -0.1881
  C  C447  1  0.159070  0.052470  0.246990  1.0  -0.1005
  C  C448  1  0.101770  0.028040  0.267420  1.0  -0.1159
  C  C449  1  0.080750  0.003130  0.237590  1.0  -0.002
  C  C450  1  0.117860  0.001170  0.189890  1.0  -0.1549
  C  C451  1  0.096930  0.970940  0.160820  1.0  0.5548
  C  C452  1  0.156430  0.929300  0.049200  1.0  0.565
  C  C453  1  0.146620  0.895590  0.019110  1.0  -0.4763
  C  C454  1  0.338200  0.917860  0.119860  1.0  0.1358
  C  C455  1  0.404570  0.878810  0.121850  1.0  -0.1311
  C  C456  1  0.461770  0.859910  0.085150  1.0  0.1108
  C  C457  1  0.453700  0.879940  0.041660  1.0  -0.1955
  C  C458  1  0.385280  0.918800  0.040840  1.0  0.1539
  C  C459  1  0.531280  0.817360  0.093680  1.0  -0.1028
  C  C460  1  0.058100  0.813930  0.151810  1.0  0.3201
  C  C461  1  0.096950  0.775960  0.175560  1.0  -0.2256
  C  C462  1  0.093470  0.731440  0.170840  1.0  -0.1217
  C  C463  1  0.053730  0.722520  0.141420  1.0  -0.1049
  C  C464  1  0.015760  0.758740  0.116960  1.0  -0.058
  C  C465  1  0.016670  0.805380  0.121500  1.0  -0.1079
  C  C466  1  0.975770  0.841720  0.093640  1.0  0.5531
  C  C467  1  0.921290  0.961010  0.083130  1.0  0.5852
  C  C468  1  0.884250  0.002680  0.054760  1.0  -0.4117
  C  C469  1  0.805330  0.745900  0.085500  1.0  0.1895
  C  C470  1  0.739400  0.782460  0.083140  1.0  -0.1993
  C  C471  1  0.672570  0.774060  0.075200  1.0  0.0876
  C  C472  1  0.674060  0.727740  0.073540  1.0  -0.2323
  C  C473  1  0.741120  0.692990  0.078410  1.0  0.1788
  C  C474  1  0.599230  0.816450  0.065690  1.0  -0.1077
  C  C475  1  0.290670  0.090630  0.915030  1.0  0.324
  C  C476  1  0.349500  0.093910  0.872490  1.0  -0.1928
  C  C477  1  0.430180  0.071270  0.865570  1.0  -0.1062
  C  C478  1  0.458600  0.043170  0.900830  1.0  -0.1264
  C  C479  1  0.400660  0.037300  0.942380  1.0  -0.072
  C  C480  1  0.317740  0.060230  0.950690  1.0  -0.1573
  C  C481  1  0.261290  0.050190  0.994250  1.0  0.5837
  C  C482  1  0.058730  0.083580  0.055060  1.0  0.5112
  C  C483  1  0.996290  0.078170  0.098870  1.0  -0.4459
  C  C484  1  0.873420  0.473260  0.330040  1.0  0.2722
  C  C485  1  0.946610  0.448280  0.300100  1.0  -0.1872
  C  C486  1  0.958530  0.447530  0.253010  1.0  -0.1005
  C  C487  1  0.897230  0.471960  0.232580  1.0  -0.1159
  C  C488  1  0.821470  0.496870  0.262410  1.0  -0.0009
  C  C489  1  0.808920  0.498830  0.310110  1.0  -0.1545
  C  C490  1  0.728690  0.529060  0.339180  1.0  0.5561
  C  C491  1  0.634930  0.570700  0.450800  1.0  0.5647
  C  C492  1  0.561320  0.604410  0.480890  1.0  -0.4794
  C  C493  1  0.875920  0.582140  0.380140  1.0  0.1364
  C  C494  1  0.905230  0.621190  0.378150  1.0  -0.1281
  C  C495  1  0.906830  0.640090  0.414850  1.0  0.1124
  C  C496  1  0.875300  0.620060  0.458340  1.0  -0.2011
  C  C497  1  0.844920  0.581200  0.459160  1.0  0.1527
  C  C498  1  0.942320  0.682640  0.406320  1.0  -0.1035
  C  C499  1  0.523840  0.686070  0.348190  1.0  0.319
  C  C500  1  0.548470  0.724040  0.324440  1.0  -0.2248
  C  C501  1  0.495750  0.768560  0.329160  1.0  -0.1217
  C  C502  1  0.417670  0.777480  0.358580  1.0  -0.104
  C  C503  1  0.391460  0.741260  0.383040  1.0  -0.0576
  C  C504  1  0.443550  0.694620  0.378500  1.0  -0.1074
  C  C505  1  0.411130  0.658280  0.406360  1.0  0.5525
  C  C506  1  0.465430  0.538990  0.416870  1.0  0.5843
  C  C507  1  0.441690  0.497320  0.445240  1.0  -0.4135
  C  C508  1  0.136730  0.754100  0.414500  1.0  0.1898
  C  C509  1  0.105000  0.717540  0.416860  1.0  -0.2004
  C  C510  1  0.021830  0.725940  0.424800  1.0  0.0893
  C  C511  1  0.975340  0.772260  0.426460  1.0  -0.2322
  C  C512  1  0.012520  0.807010  0.421590  1.0  0.1786
  C  C513  1  0.981370  0.683550  0.434310  1.0  -0.1103
  C  C514  1  0.796330  0.409370  0.584970  1.0  0.3257
  C  C515  1  0.815900  0.406090  0.627510  1.0  -0.1977
  C  C516  1  0.867020  0.428730  0.634430  1.0  -0.1048
  C  C517  1  0.902600  0.456830  0.599170  1.0  -0.1268
  C  C518  1  0.880340  0.462700  0.557620  1.0  -0.0674
  C  C519  1  0.828660  0.439770  0.549310  1.0  -0.1579
  C  C520  1  0.805730  0.449810  0.505750  1.0  0.5839
  C  C521  1  0.697370  0.416420  0.444940  1.0  0.5096
  C  C522  1  0.673330  0.421830  0.401130  1.0  -0.4479
  C  C523  1  0.346680  0.830040  0.526740  1.0  0.2708
  C  C524  1  0.394890  0.800100  0.551720  1.0  -0.1866
  C  C525  1  0.406060  0.753010  0.552470  1.0  -0.0984
  C  C526  1  0.369190  0.732580  0.528040  1.0  -0.1157
  C  C527  1  0.318340  0.762410  0.503130  1.0  -0.0019
  C  C528  1  0.307750  0.810110  0.501170  1.0  -0.1565
  C  C529  1  0.257750  0.839180  0.470940  1.0  0.5543
  C  C530  1  0.205630  0.950800  0.429300  1.0  0.5656
  C  C531  1  0.165730  0.980890  0.395590  1.0  -0.4777
  C  C532  1  0.458060  0.880140  0.417860  1.0  0.1362
  C  C533  1  0.526420  0.878150  0.378810  1.0  -0.1329
  C  C534  1  0.546920  0.914850  0.359910  1.0  0.112
  C  C535  1  0.495360  0.958340  0.379940  1.0  -0.2008
  C  C536  1  0.426120  0.959160  0.418800  1.0  0.1499
  C  C537  1  0.624960  0.906320  0.317360  1.0  -0.1024
  C  C538  1  0.209910  0.848190  0.313930  1.0  0.3257
  C  C539  1  0.272510  0.824440  0.275960  1.0  -0.2251
  C  C540  1  0.264310  0.829160  0.231440  1.0  -0.1226
  C  C541  1  0.195150  0.858580  0.222520  1.0  -0.1037
  C  C542  1  0.132720  0.883040  0.258740  1.0  -0.0577
  C  C543  1  0.138170  0.878500  0.305380  1.0  -0.108
  C  C544  1  0.069410  0.906360  0.341720  1.0  0.5525
  C  C545  1  0.004420  0.916870  0.461010  1.0  0.5837
  C  C546  1  0.939010  0.945240  0.502680  1.0  -0.4103
  C  C547  1  0.890830  0.914500  0.245900  1.0  0.1895
  C  C548  1  0.822540  0.916860  0.282460  1.0  -0.198
  C  C549  1  0.747770  0.924800  0.274060  1.0  0.0868
  C  C550  1  0.747600  0.926460  0.227740  1.0  -0.2298
  C  C551  1  0.819530  0.921590  0.192990  1.0  0.1791
  C  C552  1  0.664920  0.934310  0.316450  1.0  -0.1118
  C  C553  1  0.205700  0.084970  0.590630  1.0  0.3241
  C  C554  1  0.221990  0.127510  0.593910  1.0  -0.1976
  C  C555  1  0.295750  0.134430  0.571270  1.0  -0.1108
  C  C556  1  0.359430  0.099170  0.543170  1.0  -0.1247
  C  C557  1  0.343040  0.057620  0.537300  1.0  -0.0692
  C  C558  1  0.268430  0.049310  0.560230  1.0  -0.1566
  C  C559  1  0.255540  0.005750  0.550190  1.0  0.5825
  C  C560  1  0.113790  0.944940  0.583580  1.0  0.5124
  C  C561  1  0.095160  0.901130  0.578170  1.0  -0.4465
  C  C562  1  0.203460  0.669960  0.973260  1.0  0.27
  C  C563  1  0.246710  0.699900  0.948280  1.0  -0.1912
  C  C564  1  0.211540  0.746990  0.947530  1.0  -0.1022
  C  C565  1  0.129810  0.767420  0.971960  1.0  -0.1161
  C  C566  1  0.083880  0.737590  0.996870  1.0  -0.0008
  C  C567  1  0.119030  0.689890  0.998830  1.0  -0.1538
  C  C568  1  0.067870  0.660820  0.029060  1.0  0.5554
  C  C569  1  0.085730  0.549200  0.070700  1.0  0.5647
  C  C570  1  0.042210  0.519110  0.104410  1.0  -0.4774
  C  C571  1  0.256060  0.619860  0.082140  1.0  0.1378
  C  C572  1  0.283380  0.621850  0.121190  1.0  -0.1337
  C  C573  1  0.321680  0.585150  0.140090  1.0  0.1124
  C  C574  1  0.333640  0.541660  0.120060  1.0  -0.2055
  C  C575  1  0.304080  0.540840  0.081200  1.0  0.1515
  C  C576  1  0.348640  0.593680  0.182640  1.0  -0.1069
  C  C577  1  0.872030  0.651810  0.186070  1.0  0.3241
  C  C578  1  0.872910  0.675560  0.224040  1.0  -0.2261
  C  C579  1  0.824910  0.670840  0.268560  1.0  -0.1215
  C  C580  1  0.776250  0.641420  0.277480  1.0  -0.1038
  C  C581  1  0.774500  0.616960  0.241260  1.0  -0.0574
  C  C582  1  0.822050  0.621500  0.194620  1.0  -0.1077
  C  C583  1  0.817490  0.593640  0.158280  1.0  0.5535
  C  C584  1  0.882300  0.583130  0.038990  1.0  0.5858
  C  C585  1  0.886930  0.554760  0.997320  1.0  -0.4081
  C  C586  1  0.551230  0.585500  0.254100  1.0  0.1908
  C  C587  1  0.521860  0.583140  0.217540  1.0  -0.1992
  C  C588  1  0.446630  0.575200  0.225940  1.0  0.0883
  C  C589  1  0.401800  0.573540  0.272260  1.0  -0.2317
  C  C590  1  0.434110  0.578410  0.307010  1.0  0.1837
  C  C591  1  0.415680  0.565690  0.183550  1.0  -0.1143
  C  C592  1  0.381300  0.415030  0.909370  1.0  0.3242
  C  C593  1  0.443410  0.372490  0.906090  1.0  -0.1937
  C  C594  1  0.501450  0.365570  0.928730  1.0  -0.1136
  C  C595  1  0.501770  0.400830  0.956830  1.0  -0.1184
  C  C596  1  0.437960  0.442380  0.962700  1.0  -0.069
  C  C597  1  0.377970  0.450690  0.939770  1.0  -0.1568
  C  C598  1  0.311480  0.494250  0.949810  1.0  0.5833
  C  C599  1  0.142310  0.555060  0.916420  1.0  0.5077
  C  C600  1  0.074460  0.598870  0.921830  1.0  -0.448
  N  N601  1  0.861190  0.035570  0.884230  1.0  -0.2964
  N  N602  1  0.881200  0.068570  0.906490  1.0  -0.2522
  N  N603  1  0.670160  0.062560  0.920880  1.0  -0.3134
  N  N604  1  0.030350  0.113550  0.900330  1.0  -0.2529
  N  N605  1  0.071700  0.081640  0.928920  1.0  -0.2742
  N  N606  1  0.192640  0.298080  0.917020  1.0  -0.3145
  N  N607  1  0.817110  0.928260  0.997340  1.0  -0.2312
  N  N608  1  0.864910  0.941400  0.953780  1.0  -0.2851
  N  N609  1  0.280990  0.464430  0.615770  1.0  -0.2942
  N  N610  1  0.356260  0.431430  0.593510  1.0  -0.2502
  N  N611  1  0.153600  0.437440  0.579120  1.0  -0.3136
  N  N612  1  0.544230  0.386450  0.599670  1.0  -0.2536
  N  N613  1  0.582260  0.418360  0.571080  1.0  -0.2741
  N  N614  1  0.907740  0.201920  0.582980  1.0  -0.3145
  N  N615  1  0.242710  0.571740  0.502660  1.0  -0.2298
  N  N616  1  0.260090  0.558600  0.546220  1.0  -0.2857
  N  N617  1  0.745420  0.115770  0.535570  1.0  -0.2944
  N  N618  1  0.787690  0.093510  0.568570  1.0  -0.2509
  N  N619  1  0.591040  0.079120  0.562560  1.0  -0.3132
  N  N620  1  0.930680  0.099670  0.613550  1.0  -0.2547
  N  N621  1  0.000620  0.071080  0.581640  1.0  -0.2739
  N  N622  1  0.109660  0.082980  0.798080  1.0  -0.3126
  N  N623  1  0.814450  0.002660  0.428260  1.0  -0.2307
  N  N624  1  0.818690  0.046220  0.441400  1.0  -0.2841
  N  N625  1  0.896760  0.384230  0.964430  1.0  -0.2954
  N  N626  1  0.949770  0.406490  0.931430  1.0  -0.2504
  N  N627  1  0.732720  0.420880  0.937440  1.0  -0.316
  N  N628  1  0.143900  0.400330  0.886450  1.0  -0.2537
  N  N629  1  0.153340  0.428920  0.918360  1.0  -0.2748
  N  N630  1  0.490720  0.417020  0.701920  1.0  -0.3173
  N  N631  1  0.745370  0.497340  0.071740  1.0  -0.2301
  N  N632  1  0.806310  0.453780  0.058600  1.0  -0.2847
  N  N633  1  0.138810  0.964430  0.115770  1.0  -0.2952
  N  N634  1  0.118800  0.931430  0.093510  1.0  -0.2519
  N  N635  1  0.329840  0.937440  0.079120  1.0  -0.313
  N  N636  1  0.969650  0.886450  0.099670  1.0  -0.2526
  N  N637  1  0.928300  0.918360  0.071080  1.0  -0.2724
  N  N638  1  0.807360  0.701920  0.082980  1.0  -0.3133
  N  N639  1  0.182890  0.071740  0.002660  1.0  -0.2301
  N  N640  1  0.135090  0.058600  0.046220  1.0  -0.2848
  N  N641  1  0.719010  0.535570  0.384230  1.0  -0.295
  N  N642  1  0.643740  0.568570  0.406490  1.0  -0.2521
  N  N643  1  0.846400  0.562560  0.420880  1.0  -0.3136
  N  N644  1  0.455770  0.613550  0.400330  1.0  -0.2535
  N  N645  1  0.417740  0.581640  0.428920  1.0  -0.274
  N  N646  1  0.092260  0.798080  0.417020  1.0  -0.3124
  N  N647  1  0.757290  0.428260  0.497340  1.0  -0.2305
  N  N648  1  0.739910  0.441400  0.453780  1.0  -0.2843
  N  N649  1  0.254580  0.884230  0.464430  1.0  -0.2938
  N  N650  1  0.212310  0.906490  0.431430  1.0  -0.2512
  N  N651  1  0.408960  0.920880  0.437440  1.0  -0.3128
  N  N652  1  0.069320  0.900330  0.386450  1.0  -0.2531
  N  N653  1  0.999380  0.928920  0.418360  1.0  -0.2729
  N  N654  1  0.890340  0.917020  0.201920  1.0  -0.3118
  N  N655  1  0.185550  0.997340  0.571740  1.0  -0.2311
  N  N656  1  0.181310  0.953780  0.558600  1.0  -0.2828
  N  N657  1  0.103240  0.615770  0.035570  1.0  -0.2947
  N  N658  1  0.050230  0.593510  0.068570  1.0  -0.2507
  N  N659  1  0.267280  0.579120  0.062560  1.0  -0.3166
  N  N660  1  0.856100  0.599670  0.113550  1.0  -0.2548
  N  N661  1  0.846660  0.571080  0.081640  1.0  -0.2734
  N  N662  1  0.509280  0.582980  0.298080  1.0  -0.3163
  N  N663  1  0.254630  0.502660  0.928260  1.0  -0.2301
  N  N664  1  0.193690  0.546220  0.941400  1.0  -0.2838
  O  O665  1  0.783300  0.972980  0.875840  1.0  -0.5832
  O  O666  1  0.958540  0.049350  0.818930  1.0  -0.5871
  O  O667  1  0.795240  0.044180  0.970460  1.0  -0.573
  O  O668  1  0.937550  0.143330  0.840330  1.0  -0.5659
  O  O669  1  0.054110  0.169830  0.936750  1.0  -0.5801
  O  O670  1  0.053750  0.029020  0.883840  1.0  -0.5942
  O  O671  1  0.784100  0.884670  0.081210  1.0  -0.5968
  O  O672  1  0.708680  0.979350  0.976710  1.0  -0.5837
  O  O673  1  0.966190  0.883880  0.974980  1.0  -0.5811
  O  O674  1  0.132120  0.527020  0.624160  1.0  -0.5854
  O  O675  1  0.326820  0.450650  0.681070  1.0  -0.5897
  O  O676  1  0.309880  0.455820  0.529540  1.0  -0.5756
  O  O677  1  0.421210  0.356670  0.659670  1.0  -0.5662
  O  O678  1  0.660690  0.330170  0.563250  1.0  -0.5798
  O  O679  1  0.466610  0.470980  0.616160  1.0  -0.5942
  O  O680  1  0.249980  0.615330  0.418790  1.0  -0.5954
  O  O681  1  0.164740  0.520650  0.523290  1.0  -0.5811
  O  O682  1  0.325050  0.616120  0.525020  1.0  -0.5809
  O  O683  1  0.659140  0.124160  0.472980  1.0  -0.5809
  O  O684  1  0.777470  0.181070  0.549350  1.0  -0.5884
  O  O685  1  0.765700  0.029540  0.544180  1.0  -0.5758
  O  O686  1  0.777880  0.159670  0.643330  1.0  -0.5676
  O  O687  1  0.990860  0.063250  0.669830  1.0  -0.581
  O  O688  1  0.937590  0.116160  0.529020  1.0  -0.5952
  O  O689  1  0.865310  0.918790  0.384670  1.0  -0.5949
  O  O690  1  0.685390  0.023290  0.479350  1.0  -0.5814
  O  O691  1  0.941170  0.025020  0.383880  1.0  -0.5818
  O  O692  1  0.756280  0.375840  0.027020  1.0  -0.5763
  O  O693  1  0.007890  0.318930  0.950650  1.0  -0.588
  O  O694  1  0.839420  0.470460  0.955820  1.0  -0.5745
  O  O695  1  0.080880  0.340330  0.856670  1.0  -0.566
  O  O696  1  0.223940  0.436750  0.830170  1.0  -0.5786
  O  O697  1  0.082770  0.383840  0.970980  1.0  -0.593
  O  O698  1  0.668770  0.581210  0.115330  1.0  -0.5968
  O  O699  1  0.688030  0.476710  0.020650  1.0  -0.5839
  O  O700  1  0.850070  0.474980  0.116120  1.0  -0.5837
  O  O701  1  0.216700  0.027020  0.124160  1.0  -0.5815
  O  O702  1  0.041460  0.950650  0.181070  1.0  -0.5875
  O  O703  1  0.204760  0.955820  0.029540  1.0  -0.5741
  O  O704  1  0.062450  0.856670  0.159670  1.0  -0.5664
  O  O705  1  0.945890  0.830170  0.063250  1.0  -0.5799
  O  O706  1  0.946250  0.970980  0.116160  1.0  -0.5959
  O  O707  1  0.215900  0.115330  0.918790  1.0  -0.5953
  O  O708  1  0.291320  0.020650  0.023290  1.0  -0.5845
  O  O709  1  0.033810  0.116120  0.025020  1.0  -0.5817
  O  O710  1  0.867880  0.472980  0.375840  1.0  -0.5865
  O  O711  1  0.673180  0.549350  0.318930  1.0  -0.5899
  O  O712  1  0.690120  0.544180  0.470460  1.0  -0.5755
  O  O713  1  0.578790  0.643330  0.340330  1.0  -0.5658
  O  O714  1  0.339310  0.669830  0.436750  1.0  -0.5793
  O  O715  1  0.533390  0.529020  0.383840  1.0  -0.5935
  O  O716  1  0.750020  0.384670  0.581210  1.0  -0.5969
  O  O717  1  0.835260  0.479350  0.476710  1.0  -0.583
  O  O718  1  0.674950  0.383880  0.474980  1.0  -0.581
  O  O719  1  0.340860  0.875840  0.527020  1.0  -0.5726
  O  O720  1  0.222530  0.818930  0.450650  1.0  -0.5888
  O  O721  1  0.234300  0.970460  0.455820  1.0  -0.5751
  O  O722  1  0.222120  0.840330  0.356670  1.0  -0.5666
  O  O723  1  0.009140  0.936750  0.330170  1.0  -0.5799
  O  O724  1  0.062410  0.883840  0.470980  1.0  -0.5934
  O  O725  1  0.134690  0.081210  0.615330  1.0  -0.596
  O  O726  1  0.314610  0.976710  0.520650  1.0  -0.5836
  O  O727  1  0.058830  0.974980  0.616120  1.0  -0.5809
  O  O728  1  0.243720  0.624160  0.972980  1.0  -0.5783
  O  O729  1  0.992110  0.681070  0.049350  1.0  -0.5887
  O  O730  1  0.160580  0.529540  0.044180  1.0  -0.5729
  O  O731  1  0.919120  0.659670  0.143330  1.0  -0.566
  O  O732  1  0.776060  0.563250  0.169830  1.0  -0.5785
  O  O733  1  0.917230  0.616160  0.029020  1.0  -0.5948
  O  O734  1  0.331230  0.418790  0.884670  1.0  -0.5973
  O  O735  1  0.311970  0.523290  0.979350  1.0  -0.5842
  O  O736  1  0.149930  0.525020  0.883880  1.0  -0.5846
