# generated using pymatgen
data_Mn3H39C42N8O9
_symmetry_space_group_name_H-M   'P 1'
_cell_length_a   40.70900000
_cell_length_b   40.70900000
_cell_length_c   17.46800000
_cell_angle_alpha   90.00000000
_cell_angle_beta   90.00000000
_cell_angle_gamma   90.00000000
_symmetry_Int_Tables_number   1
_chemical_formula_structural   Mn3H39C42N8O9
_chemical_formula_sum   'Mn48 H624 C672 N128 O144'
_cell_volume   28948.36579171
_cell_formula_units_Z   16
loop_
 _symmetry_equiv_pos_site_id
 _symmetry_equiv_pos_as_xyz
  1  'x, y, z'
loop_
 _atom_site_type_symbol
 _atom_site_label
 _atom_site_symmetry_multiplicity
 _atom_site_fract_x
 _atom_site_fract_y
 _atom_site_fract_z
 _atom_site_occupancy
 _atom_site_charge
  Mn  Mn1  1  0.295820  0.824200  0.078560  1.0  0.9899
  Mn  Mn2  1  0.289130  0.709120  0.004610  1.0  0.9994
  Mn  Mn3  1  0.220440  0.863390  0.276200  1.0  0.9924
  Mn  Mn4  1  0.795820  0.324200  0.578560  1.0  0.9899
  Mn  Mn5  1  0.789130  0.209120  0.504610  1.0  0.9994
  Mn  Mn6  1  0.720440  0.363390  0.776200  1.0  0.9924
  Mn  Mn7  1  0.204180  0.175800  0.578560  1.0  0.9914
  Mn  Mn8  1  0.210870  0.290880  0.504610  1.0  1.0004
  Mn  Mn9  1  0.279560  0.136610  0.776200  1.0  0.9951
  Mn  Mn10  1  0.704180  0.675800  0.078560  1.0  0.9914
  Mn  Mn11  1  0.710870  0.790880  0.004610  1.0  1.0004
  Mn  Mn12  1  0.779560  0.636610  0.276200  1.0  0.9951
  Mn  Mn13  1  0.925800  0.545820  0.328560  1.0  0.9927
  Mn  Mn14  1  0.040880  0.539130  0.254610  1.0  0.9987
  Mn  Mn15  1  0.886610  0.470440  0.526200  1.0  0.9948
  Mn  Mn16  1  0.425800  0.045820  0.828560  1.0  0.9927
  Mn  Mn17  1  0.540880  0.039130  0.754610  1.0  0.9987
  Mn  Mn18  1  0.386610  0.970440  0.026200  1.0  0.9948
  Mn  Mn19  1  0.574200  0.454180  0.828560  1.0  0.9891
  Mn  Mn20  1  0.459120  0.460870  0.754610  1.0  1.0005
  Mn  Mn21  1  0.613390  0.529560  0.026200  1.0  0.9948
  Mn  Mn22  1  0.074200  0.954180  0.328560  1.0  0.9891
  Mn  Mn23  1  0.959120  0.960870  0.254610  1.0  1.0005
  Mn  Mn24  1  0.113390  0.029560  0.526200  1.0  0.9948
  Mn  Mn25  1  0.704180  0.175800  0.921440  1.0  0.9896
  Mn  Mn26  1  0.710870  0.290880  0.995390  1.0  0.9936
  Mn  Mn27  1  0.779560  0.136610  0.723800  1.0  0.9952
  Mn  Mn28  1  0.204180  0.675800  0.421440  1.0  0.9896
  Mn  Mn29  1  0.210870  0.790880  0.495390  1.0  0.9936
  Mn  Mn30  1  0.279560  0.636610  0.223800  1.0  0.9952
  Mn  Mn31  1  0.795820  0.824200  0.421440  1.0  0.9863
  Mn  Mn32  1  0.789130  0.709120  0.495390  1.0  0.9931
  Mn  Mn33  1  0.720440  0.863390  0.223800  1.0  0.9922
  Mn  Mn34  1  0.295820  0.324200  0.921440  1.0  0.9863
  Mn  Mn35  1  0.289130  0.209120  0.995390  1.0  0.9931
  Mn  Mn36  1  0.220440  0.363390  0.723800  1.0  0.9922
  Mn  Mn37  1  0.074200  0.454180  0.671440  1.0  0.9865
  Mn  Mn38  1  0.959120  0.460870  0.745390  1.0  0.9928
  Mn  Mn39  1  0.113390  0.529560  0.473800  1.0  0.9949
  Mn  Mn40  1  0.574200  0.954180  0.171440  1.0  0.9865
  Mn  Mn41  1  0.459120  0.960870  0.245390  1.0  0.9928
  Mn  Mn42  1  0.613390  0.029560  0.973800  1.0  0.9949
  Mn  Mn43  1  0.425800  0.545820  0.171440  1.0  0.9906
  Mn  Mn44  1  0.540880  0.539130  0.245390  1.0  0.9921
  Mn  Mn45  1  0.386610  0.470440  0.973800  1.0  0.9945
  Mn  Mn46  1  0.925800  0.045820  0.671440  1.0  0.9906
  Mn  Mn47  1  0.040880  0.039130  0.745390  1.0  0.9921
  Mn  Mn48  1  0.886610  0.970440  0.473800  1.0  0.9945
  H  H49  1  0.231300  0.875900  0.918900  1.0  0.1037
  H  H50  1  0.208100  0.860200  0.807800  1.0  0.1016
  H  H51  1  0.215800  0.807600  0.758400  1.0  0.1213
  H  H52  1  0.246300  0.768800  0.831500  1.0  0.1055
  H  H53  1  0.350300  0.725600  0.140000  1.0  0.1344
  H  H54  1  0.320600  0.726300  0.199500  1.0  0.1174
  H  H55  1  0.376000  0.768200  0.213200  1.0  0.1119
  H  H56  1  0.372400  0.734200  0.258500  1.0  0.1157
  H  H57  1  0.347600  0.763800  0.275700  1.0  0.1212
  H  H58  1  0.385000  0.690500  0.902700  1.0  0.1175
  H  H59  1  0.424400  0.650900  0.929100  1.0  0.1019
  H  H60  1  0.418400  0.615500  0.032700  1.0  0.1127
  H  H61  1  0.370800  0.618400  0.106500  1.0  0.1041
  H  H62  1  0.208900  0.666000  0.172800  1.0  0.1101
  H  H63  1  0.207800  0.705000  0.182700  1.0  0.0991
  H  H64  1  0.183600  0.707500  0.057700  1.0  0.1198
  H  H65  1  0.161000  0.691200  0.122400  1.0  0.1081
  H  H66  1  0.179900  0.668400  0.062200  1.0  0.1164
  H  H67  1  0.225300  0.706200  0.908600  1.0  0.1011
  H  H68  1  0.191500  0.671100  0.835600  1.0  0.1309
  H  H69  1  0.261100  0.604100  0.847400  1.0  0.1062
  H  H70  1  0.291300  0.638900  0.922500  1.0  0.0673
  H  H71  1  0.227500  0.602900  0.730700  1.0  0.0918
  H  H72  1  0.200100  0.593900  0.792500  1.0  0.1059
  H  H73  1  0.258900  0.956400  0.355400  1.0  0.1033
  H  H74  1  0.300800  0.989100  0.311100  1.0  0.1181
  H  H75  1  0.335000  0.970700  0.210200  1.0  0.1209
  H  H76  1  0.326200  0.918800  0.159400  1.0  0.0862
  H  H77  1  0.236800  0.771000  0.113900  1.0  0.0913
  H  H78  1  0.207900  0.764900  0.174900  1.0  0.0905
  H  H79  1  0.197300  0.808900  0.041900  1.0  0.1223
  H  H80  1  0.186500  0.771100  0.038100  1.0  0.112
  H  H81  1  0.168700  0.795600  0.096700  1.0  0.1145
  H  H82  1  0.171200  0.580800  0.483900  1.0  0.0805
  H  H83  1  0.198000  0.615900  0.569000  1.0  0.1067
  H  H84  1  0.141400  0.580700  0.737400  1.0  0.1164
  H  H85  1  0.118400  0.545200  0.652800  1.0  0.0809
  H  H86  1  0.197200  0.644900  0.690200  1.0  0.079
  H  H87  1  0.169700  0.636200  0.752400  1.0  0.0644
  H  H88  1  0.731300  0.375900  0.418900  1.0  0.1037
  H  H89  1  0.708100  0.360200  0.307800  1.0  0.1016
  H  H90  1  0.715800  0.307600  0.258400  1.0  0.1213
  H  H91  1  0.746300  0.268800  0.331500  1.0  0.1055
  H  H92  1  0.850300  0.225600  0.640000  1.0  0.1344
  H  H93  1  0.820600  0.226300  0.699500  1.0  0.1174
  H  H94  1  0.876000  0.268200  0.713200  1.0  0.1119
  H  H95  1  0.872400  0.234200  0.758500  1.0  0.1157
  H  H96  1  0.847600  0.263800  0.775700  1.0  0.1212
  H  H97  1  0.885000  0.190500  0.402700  1.0  0.1175
  H  H98  1  0.924400  0.150900  0.429100  1.0  0.1019
  H  H99  1  0.918400  0.115500  0.532700  1.0  0.1127
  H  H100  1  0.870800  0.118400  0.606500  1.0  0.1041
  H  H101  1  0.708900  0.166000  0.672800  1.0  0.1101
  H  H102  1  0.707800  0.205000  0.682700  1.0  0.0991
  H  H103  1  0.683600  0.207500  0.557700  1.0  0.1198
  H  H104  1  0.661000  0.191200  0.622400  1.0  0.1081
  H  H105  1  0.679900  0.168400  0.562200  1.0  0.1164
  H  H106  1  0.725300  0.206200  0.408600  1.0  0.1011
  H  H107  1  0.691500  0.171100  0.335600  1.0  0.1309
  H  H108  1  0.761100  0.104100  0.347400  1.0  0.1062
  H  H109  1  0.791300  0.138900  0.422500  1.0  0.0673
  H  H110  1  0.727500  0.102900  0.230700  1.0  0.0918
  H  H111  1  0.700100  0.093900  0.292500  1.0  0.1059
  H  H112  1  0.758900  0.456400  0.855400  1.0  0.1033
  H  H113  1  0.800800  0.489100  0.811100  1.0  0.1181
  H  H114  1  0.835000  0.470700  0.710200  1.0  0.1209
  H  H115  1  0.826200  0.418800  0.659400  1.0  0.0862
  H  H116  1  0.736800  0.271000  0.613900  1.0  0.0913
  H  H117  1  0.707900  0.264900  0.674900  1.0  0.0905
  H  H118  1  0.697300  0.308900  0.541900  1.0  0.1223
  H  H119  1  0.686500  0.271100  0.538100  1.0  0.112
  H  H120  1  0.668700  0.295600  0.596700  1.0  0.1145
  H  H121  1  0.671200  0.080800  0.983900  1.0  0.0805
  H  H122  1  0.698000  0.115900  0.069000  1.0  0.1067
  H  H123  1  0.641400  0.080700  0.237400  1.0  0.1164
  H  H124  1  0.618400  0.045200  0.152800  1.0  0.0809
  H  H125  1  0.697200  0.144900  0.190200  1.0  0.079
  H  H126  1  0.669700  0.136200  0.252400  1.0  0.0644
  H  H127  1  0.268700  0.124100  0.418900  1.0  0.105
  H  H128  1  0.291900  0.139800  0.307800  1.0  0.1007
  H  H129  1  0.284200  0.192400  0.258400  1.0  0.1222
  H  H130  1  0.253700  0.231200  0.331500  1.0  0.1058
  H  H131  1  0.149700  0.274400  0.640000  1.0  0.1353
  H  H132  1  0.179400  0.273700  0.699500  1.0  0.1183
  H  H133  1  0.124000  0.231800  0.713200  1.0  0.11
  H  H134  1  0.127600  0.265800  0.758500  1.0  0.1151
  H  H135  1  0.152400  0.236200  0.775700  1.0  0.1205
  H  H136  1  0.115000  0.309500  0.402700  1.0  0.1169
  H  H137  1  0.075600  0.349100  0.429100  1.0  0.1024
  H  H138  1  0.081600  0.384500  0.532700  1.0  0.1126
  H  H139  1  0.129200  0.381600  0.606500  1.0  0.1045
  H  H140  1  0.291100  0.334000  0.672800  1.0  0.1086
  H  H141  1  0.292200  0.295000  0.682700  1.0  0.0989
  H  H142  1  0.316400  0.292500  0.557700  1.0  0.1197
  H  H143  1  0.339000  0.308800  0.622400  1.0  0.11
  H  H144  1  0.320100  0.331600  0.562200  1.0  0.1191
  H  H145  1  0.274700  0.293800  0.408600  1.0  0.096
  H  H146  1  0.308500  0.328900  0.335600  1.0  0.131
  H  H147  1  0.238900  0.395900  0.347400  1.0  0.1059
  H  H148  1  0.208700  0.361100  0.422500  1.0  0.0668
  H  H149  1  0.272500  0.397100  0.230700  1.0  0.0932
  H  H150  1  0.299900  0.406100  0.292500  1.0  0.1041
  H  H151  1  0.241100  0.043600  0.855400  1.0  0.103
  H  H152  1  0.199200  0.010900  0.811100  1.0  0.1186
  H  H153  1  0.165000  0.029300  0.710200  1.0  0.1226
  H  H154  1  0.173800  0.081200  0.659400  1.0  0.0863
  H  H155  1  0.263200  0.229000  0.613900  1.0  0.0909
  H  H156  1  0.292100  0.235100  0.674900  1.0  0.0904
  H  H157  1  0.302700  0.191100  0.541900  1.0  0.1227
  H  H158  1  0.313500  0.228900  0.538100  1.0  0.1137
  H  H159  1  0.331300  0.204400  0.596700  1.0  0.1135
  H  H160  1  0.328800  0.419200  0.983900  1.0  0.0807
  H  H161  1  0.302000  0.384100  0.069000  1.0  0.1067
  H  H162  1  0.358600  0.419300  0.237400  1.0  0.1161
  H  H163  1  0.381600  0.454800  0.152800  1.0  0.0805
  H  H164  1  0.302800  0.355100  0.190200  1.0  0.0812
  H  H165  1  0.330300  0.363800  0.252400  1.0  0.0653
  H  H166  1  0.768700  0.624100  0.918900  1.0  0.105
  H  H167  1  0.791900  0.639800  0.807800  1.0  0.1007
  H  H168  1  0.784200  0.692400  0.758400  1.0  0.1222
  H  H169  1  0.753700  0.731200  0.831500  1.0  0.1058
  H  H170  1  0.649700  0.774400  0.140000  1.0  0.1353
  H  H171  1  0.679400  0.773700  0.199500  1.0  0.1183
  H  H172  1  0.624000  0.731800  0.213200  1.0  0.11
  H  H173  1  0.627600  0.765800  0.258500  1.0  0.1151
  H  H174  1  0.652400  0.736200  0.275700  1.0  0.1205
  H  H175  1  0.615000  0.809500  0.902700  1.0  0.1169
  H  H176  1  0.575600  0.849100  0.929100  1.0  0.1024
  H  H177  1  0.581600  0.884500  0.032700  1.0  0.1126
  H  H178  1  0.629200  0.881600  0.106500  1.0  0.1045
  H  H179  1  0.791100  0.834000  0.172800  1.0  0.1086
  H  H180  1  0.792200  0.795000  0.182700  1.0  0.0989
  H  H181  1  0.816400  0.792500  0.057700  1.0  0.1197
  H  H182  1  0.839000  0.808800  0.122400  1.0  0.11
  H  H183  1  0.820100  0.831600  0.062200  1.0  0.1191
  H  H184  1  0.774700  0.793800  0.908600  1.0  0.096
  H  H185  1  0.808500  0.828900  0.835600  1.0  0.131
  H  H186  1  0.738900  0.895900  0.847400  1.0  0.1059
  H  H187  1  0.708700  0.861100  0.922500  1.0  0.0668
  H  H188  1  0.772500  0.897100  0.730700  1.0  0.0932
  H  H189  1  0.799900  0.906100  0.792500  1.0  0.1041
  H  H190  1  0.741100  0.543600  0.355400  1.0  0.103
  H  H191  1  0.699200  0.510900  0.311100  1.0  0.1186
  H  H192  1  0.665000  0.529300  0.210200  1.0  0.1226
  H  H193  1  0.673800  0.581200  0.159400  1.0  0.0863
  H  H194  1  0.763200  0.729000  0.113900  1.0  0.0909
  H  H195  1  0.792100  0.735100  0.174900  1.0  0.0904
  H  H196  1  0.802700  0.691100  0.041900  1.0  0.1227
  H  H197  1  0.813500  0.728900  0.038100  1.0  0.1137
  H  H198  1  0.831300  0.704400  0.096700  1.0  0.1135
  H  H199  1  0.828800  0.919200  0.483900  1.0  0.0807
  H  H200  1  0.802000  0.884100  0.569000  1.0  0.1067
  H  H201  1  0.858600  0.919300  0.737400  1.0  0.1161
  H  H202  1  0.881600  0.954800  0.652800  1.0  0.0805
  H  H203  1  0.802800  0.855100  0.690200  1.0  0.0812
  H  H204  1  0.830300  0.863800  0.752400  1.0  0.0653
  H  H205  1  0.874100  0.481300  0.168900  1.0  0.1052
  H  H206  1  0.889800  0.458100  0.057800  1.0  0.1015
  H  H207  1  0.942400  0.465800  0.008400  1.0  0.1222
  H  H208  1  0.981200  0.496300  0.081500  1.0  0.105
  H  H209  1  0.024400  0.600300  0.390000  1.0  0.1358
  H  H210  1  0.023700  0.570600  0.449500  1.0  0.1189
  H  H211  1  0.981800  0.626000  0.463200  1.0  0.1099
  H  H212  1  0.015800  0.622400  0.508500  1.0  0.1133
  H  H213  1  0.986200  0.597600  0.525700  1.0  0.1171
  H  H214  1  0.059500  0.635000  0.152700  1.0  0.1179
  H  H215  1  0.099100  0.674400  0.179100  1.0  0.1008
  H  H216  1  0.134500  0.668400  0.282700  1.0  0.1115
  H  H217  1  0.131600  0.620800  0.356500  1.0  0.1035
  H  H218  1  0.084000  0.458900  0.422800  1.0  0.1085
  H  H219  1  0.045000  0.457800  0.432700  1.0  0.0995
  H  H220  1  0.042500  0.433600  0.307700  1.0  0.1195
  H  H221  1  0.058800  0.411000  0.372400  1.0  0.1069
  H  H222  1  0.081600  0.429900  0.312200  1.0  0.1174
  H  H223  1  0.043800  0.475300  0.158600  1.0  0.0995
  H  H224  1  0.078900  0.441500  0.085600  1.0  0.131
  H  H225  1  0.145900  0.511100  0.097400  1.0  0.1076
  H  H226  1  0.111100  0.541300  0.172500  1.0  0.0664
  H  H227  1  0.147100  0.477500  0.980700  1.0  0.0929
  H  H228  1  0.156100  0.450100  0.042500  1.0  0.1032
  H  H229  1  0.793600  0.508900  0.605400  1.0  0.1025
  H  H230  1  0.760900  0.550800  0.561100  1.0  0.1184
  H  H231  1  0.779300  0.585000  0.460200  1.0  0.1231
  H  H232  1  0.831200  0.576200  0.409400  1.0  0.0862
  H  H233  1  0.979000  0.486800  0.363900  1.0  0.0908
  H  H234  1  0.985100  0.457900  0.424900  1.0  0.0918
  H  H235  1  0.941100  0.447300  0.291900  1.0  0.1207
  H  H236  1  0.978900  0.436500  0.288100  1.0  0.1103
  H  H237  1  0.954400  0.418700  0.346700  1.0  0.1164
  H  H238  1  0.169200  0.421200  0.733900  1.0  0.0805
  H  H239  1  0.134100  0.448000  0.819000  1.0  0.1064
  H  H240  1  0.169300  0.391400  0.987400  1.0  0.1158
  H  H241  1  0.204800  0.368400  0.902800  1.0  0.0811
  H  H242  1  0.105100  0.447200  0.940200  1.0  0.0793
  H  H243  1  0.113800  0.419700  0.002400  1.0  0.0676
  H  H244  1  0.374100  0.981300  0.668900  1.0  0.1052
  H  H245  1  0.389800  0.958100  0.557800  1.0  0.1015
  H  H246  1  0.442400  0.965800  0.508400  1.0  0.1222
  H  H247  1  0.481200  0.996300  0.581500  1.0  0.105
  H  H248  1  0.524400  0.100300  0.890000  1.0  0.1358
  H  H249  1  0.523700  0.070600  0.949500  1.0  0.1189
  H  H250  1  0.481800  0.126000  0.963200  1.0  0.1099
  H  H251  1  0.515800  0.122400  0.008500  1.0  0.1133
  H  H252  1  0.486200  0.097600  0.025700  1.0  0.1171
  H  H253  1  0.559500  0.135000  0.652700  1.0  0.1172
  H  H254  1  0.599100  0.174400  0.679100  1.0  0.1008
  H  H255  1  0.634500  0.168400  0.782700  1.0  0.1115
  H  H256  1  0.631600  0.120800  0.856500  1.0  0.1035
  H  H257  1  0.584000  0.958900  0.922800  1.0  0.1085
  H  H258  1  0.545000  0.957800  0.932700  1.0  0.0995
  H  H259  1  0.542500  0.933600  0.807700  1.0  0.1195
  H  H260  1  0.558800  0.911000  0.872400  1.0  0.1069
  H  H261  1  0.581600  0.929900  0.812200  1.0  0.1174
  H  H262  1  0.543800  0.975300  0.658600  1.0  0.0995
  H  H263  1  0.578900  0.941500  0.585600  1.0  0.131
  H  H264  1  0.645900  0.011100  0.597400  1.0  0.1076
  H  H265  1  0.611100  0.041300  0.672500  1.0  0.0664
  H  H266  1  0.647100  0.977500  0.480700  1.0  0.0929
  H  H267  1  0.656100  0.950100  0.542500  1.0  0.1032
  H  H268  1  0.293600  0.008900  0.105400  1.0  0.1025
  H  H269  1  0.260900  0.050800  0.061100  1.0  0.1184
  H  H270  1  0.279300  0.085000  0.960200  1.0  0.1231
  H  H271  1  0.331200  0.076200  0.909400  1.0  0.0862
  H  H272  1  0.479000  0.986800  0.863900  1.0  0.0908
  H  H273  1  0.485100  0.957900  0.924900  1.0  0.0918
  H  H274  1  0.441100  0.947300  0.791900  1.0  0.1207
  H  H275  1  0.478900  0.936500  0.788100  1.0  0.1103
  H  H276  1  0.454400  0.918700  0.846700  1.0  0.1164
  H  H277  1  0.669200  0.921200  0.233900  1.0  0.0805
  H  H278  1  0.634100  0.948000  0.319000  1.0  0.1064
  H  H279  1  0.669300  0.891400  0.487400  1.0  0.1158
  H  H280  1  0.704800  0.868400  0.402800  1.0  0.0811
  H  H281  1  0.605100  0.947200  0.440200  1.0  0.0793
  H  H282  1  0.613800  0.919700  0.502400  1.0  0.0676
  H  H283  1  0.625900  0.518700  0.668900  1.0  0.1044
  H  H284  1  0.610200  0.541900  0.557800  1.0  0.1025
  H  H285  1  0.557600  0.534200  0.508400  1.0  0.1225
  H  H286  1  0.518800  0.503700  0.581500  1.0  0.1051
  H  H287  1  0.475600  0.399700  0.890000  1.0  0.1339
  H  H288  1  0.476300  0.429400  0.949500  1.0  0.1171
  H  H289  1  0.518200  0.374000  0.963200  1.0  0.1098
  H  H290  1  0.484200  0.377600  0.008500  1.0  0.1134
  H  H291  1  0.513800  0.402400  0.025700  1.0  0.1177
  H  H292  1  0.440500  0.365000  0.652700  1.0  0.1177
  H  H293  1  0.400900  0.325600  0.679100  1.0  0.1003
  H  H294  1  0.365500  0.331600  0.782700  1.0  0.1118
  H  H295  1  0.368400  0.379200  0.856500  1.0  0.1039
  H  H296  1  0.416000  0.541100  0.922800  1.0  0.1083
  H  H297  1  0.455000  0.542200  0.932700  1.0  0.0995
  H  H298  1  0.457500  0.566400  0.807700  1.0  0.1174
  H  H299  1  0.441200  0.589000  0.872400  1.0  0.1077
  H  H300  1  0.418400  0.570100  0.812200  1.0  0.1165
  H  H301  1  0.456200  0.524700  0.658600  1.0  0.096
  H  H302  1  0.421100  0.558500  0.585600  1.0  0.1309
  H  H303  1  0.354100  0.488900  0.597400  1.0  0.1087
  H  H304  1  0.388900  0.458700  0.672500  1.0  0.0663
  H  H305  1  0.352900  0.522500  0.480700  1.0  0.0923
  H  H306  1  0.343900  0.549900  0.542500  1.0  0.1049
  H  H307  1  0.706400  0.491100  0.105400  1.0  0.1018
  H  H308  1  0.739100  0.449200  0.061100  1.0  0.1183
  H  H309  1  0.720700  0.415000  0.960200  1.0  0.1227
  H  H310  1  0.668800  0.423800  0.909400  1.0  0.0863
  H  H311  1  0.521000  0.513200  0.863900  1.0  0.0911
  H  H312  1  0.514900  0.542100  0.924900  1.0  0.0908
  H  H313  1  0.558900  0.552700  0.791900  1.0  0.1202
  H  H314  1  0.521100  0.563500  0.788100  1.0  0.1134
  H  H315  1  0.545600  0.581300  0.846700  1.0  0.1156
  H  H316  1  0.330800  0.578800  0.233900  1.0  0.0807
  H  H317  1  0.365900  0.552000  0.319000  1.0  0.1068
  H  H318  1  0.330700  0.608600  0.487400  1.0  0.1154
  H  H319  1  0.295200  0.631600  0.402800  1.0  0.0813
  H  H320  1  0.394900  0.552800  0.440200  1.0  0.0784
  H  H321  1  0.386200  0.580300  0.502400  1.0  0.066
  H  H322  1  0.125900  0.018700  0.168900  1.0  0.1044
  H  H323  1  0.110200  0.041900  0.057800  1.0  0.1025
  H  H324  1  0.057600  0.034200  0.008400  1.0  0.1225
  H  H325  1  0.018800  0.003700  0.081500  1.0  0.1051
  H  H326  1  0.975600  0.899700  0.390000  1.0  0.1339
  H  H327  1  0.976300  0.929400  0.449500  1.0  0.1171
  H  H328  1  0.018200  0.874000  0.463200  1.0  0.1098
  H  H329  1  0.984200  0.877600  0.508500  1.0  0.1134
  H  H330  1  0.013800  0.902400  0.525700  1.0  0.1177
  H  H331  1  0.940500  0.865000  0.152700  1.0  0.1185
  H  H332  1  0.900900  0.825600  0.179100  1.0  0.1003
  H  H333  1  0.865500  0.831600  0.282700  1.0  0.1118
  H  H334  1  0.868400  0.879200  0.356500  1.0  0.1039
  H  H335  1  0.916000  0.041100  0.422800  1.0  0.1083
  H  H336  1  0.955000  0.042200  0.432700  1.0  0.0995
  H  H337  1  0.957500  0.066400  0.307700  1.0  0.1174
  H  H338  1  0.941200  0.089000  0.372400  1.0  0.1077
  H  H339  1  0.918400  0.070100  0.312200  1.0  0.1165
  H  H340  1  0.956200  0.024700  0.158600  1.0  0.096
  H  H341  1  0.921100  0.058500  0.085600  1.0  0.1309
  H  H342  1  0.854100  0.988900  0.097400  1.0  0.1087
  H  H343  1  0.888900  0.958700  0.172500  1.0  0.0663
  H  H344  1  0.852900  0.022500  0.980700  1.0  0.0923
  H  H345  1  0.843900  0.049900  0.042500  1.0  0.1049
  H  H346  1  0.206400  0.991100  0.605400  1.0  0.1018
  H  H347  1  0.239100  0.949200  0.561100  1.0  0.1183
  H  H348  1  0.220700  0.915000  0.460200  1.0  0.1227
  H  H349  1  0.168800  0.923800  0.409400  1.0  0.0863
  H  H350  1  0.021000  0.013200  0.363900  1.0  0.0911
  H  H351  1  0.014900  0.042100  0.424900  1.0  0.0908
  H  H352  1  0.058900  0.052700  0.291900  1.0  0.1202
  H  H353  1  0.021100  0.063500  0.288100  1.0  0.1134
  H  H354  1  0.045600  0.081300  0.346700  1.0  0.1156
  H  H355  1  0.830800  0.078800  0.733900  1.0  0.0807
  H  H356  1  0.865900  0.052000  0.819000  1.0  0.1068
  H  H357  1  0.830700  0.108600  0.987400  1.0  0.1154
  H  H358  1  0.795200  0.131600  0.902800  1.0  0.0813
  H  H359  1  0.894900  0.052800  0.940200  1.0  0.0784
  H  H360  1  0.886200  0.080300  0.002400  1.0  0.066
  H  H361  1  0.768700  0.124100  0.081100  1.0  0.1051
  H  H362  1  0.791900  0.139800  0.192200  1.0  0.101
  H  H363  1  0.784200  0.192400  0.241600  1.0  0.1214
  H  H364  1  0.753700  0.231200  0.168500  1.0  0.1059
  H  H365  1  0.649700  0.274400  0.860000  1.0  0.136
  H  H366  1  0.679400  0.273700  0.800500  1.0  0.1179
  H  H367  1  0.624000  0.231800  0.786800  1.0  0.1101
  H  H368  1  0.627600  0.265800  0.741500  1.0  0.1156
  H  H369  1  0.652400  0.236200  0.724300  1.0  0.1215
  H  H370  1  0.615000  0.309500  0.097300  1.0  0.1194
  H  H371  1  0.575600  0.349100  0.070900  1.0  0.1029
  H  H372  1  0.581600  0.384500  0.967300  1.0  0.1138
  H  H373  1  0.629200  0.381600  0.893500  1.0  0.1043
  H  H374  1  0.791100  0.334000  0.827200  1.0  0.1087
  H  H375  1  0.792200  0.295000  0.817300  1.0  0.0999
  H  H376  1  0.816400  0.292500  0.942300  1.0  0.121
  H  H377  1  0.839000  0.308800  0.877600  1.0  0.1092
  H  H378  1  0.820100  0.331600  0.937800  1.0  0.1185
  H  H379  1  0.774700  0.293800  0.091400  1.0  0.0958
  H  H380  1  0.808500  0.328900  0.164400  1.0  0.1308
  H  H381  1  0.738900  0.395900  0.152600  1.0  0.1059
  H  H382  1  0.708700  0.361100  0.077500  1.0  0.0669
  H  H383  1  0.772500  0.397100  0.269300  1.0  0.0931
  H  H384  1  0.799900  0.406100  0.207500  1.0  0.1046
  H  H385  1  0.741100  0.043600  0.644600  1.0  0.1024
  H  H386  1  0.699200  0.010900  0.688900  1.0  0.1182
  H  H387  1  0.665000  0.029300  0.789800  1.0  0.1225
  H  H388  1  0.673800  0.081200  0.840600  1.0  0.0865
  H  H389  1  0.763200  0.229000  0.886100  1.0  0.0915
  H  H390  1  0.792100  0.235100  0.825100  1.0  0.0903
  H  H391  1  0.802700  0.191100  0.958100  1.0  0.1225
  H  H392  1  0.813500  0.228900  0.961900  1.0  0.1131
  H  H393  1  0.831300  0.204400  0.903300  1.0  0.1131
  H  H394  1  0.828800  0.419200  0.516100  1.0  0.0798
  H  H395  1  0.802000  0.384100  0.431000  1.0  0.1074
  H  H396  1  0.858600  0.419300  0.262600  1.0  0.1159
  H  H397  1  0.881600  0.454800  0.347200  1.0  0.0808
  H  H398  1  0.802800  0.355100  0.309800  1.0  0.0813
  H  H399  1  0.830300  0.363800  0.247600  1.0  0.0665
  H  H400  1  0.268700  0.624100  0.581100  1.0  0.1051
  H  H401  1  0.291900  0.639800  0.692200  1.0  0.101
  H  H402  1  0.284200  0.692400  0.741600  1.0  0.1214
  H  H403  1  0.253700  0.731200  0.668500  1.0  0.1059
  H  H404  1  0.149700  0.774400  0.360000  1.0  0.136
  H  H405  1  0.179400  0.773700  0.300500  1.0  0.1179
  H  H406  1  0.124000  0.731800  0.286800  1.0  0.1101
  H  H407  1  0.127600  0.765800  0.241500  1.0  0.1156
  H  H408  1  0.152400  0.736200  0.224300  1.0  0.1215
  H  H409  1  0.115000  0.809500  0.597300  1.0  0.1194
  H  H410  1  0.075600  0.849100  0.570900  1.0  0.1029
  H  H411  1  0.081600  0.884500  0.467300  1.0  0.1138
  H  H412  1  0.129200  0.881600  0.393500  1.0  0.1043
  H  H413  1  0.291100  0.834000  0.327200  1.0  0.1087
  H  H414  1  0.292200  0.795000  0.317300  1.0  0.0999
  H  H415  1  0.316400  0.792500  0.442300  1.0  0.121
  H  H416  1  0.339000  0.808800  0.377600  1.0  0.1092
  H  H417  1  0.320100  0.831600  0.437800  1.0  0.1185
  H  H418  1  0.274700  0.793800  0.591400  1.0  0.0958
  H  H419  1  0.308500  0.828900  0.664400  1.0  0.1308
  H  H420  1  0.238900  0.895900  0.652600  1.0  0.1059
  H  H421  1  0.208700  0.861100  0.577500  1.0  0.0669
  H  H422  1  0.272500  0.897100  0.769300  1.0  0.0931
  H  H423  1  0.299900  0.906100  0.707500  1.0  0.1046
  H  H424  1  0.241100  0.543600  0.144600  1.0  0.1024
  H  H425  1  0.199200  0.510900  0.188900  1.0  0.1182
  H  H426  1  0.165000  0.529300  0.289800  1.0  0.1225
  H  H427  1  0.173800  0.581200  0.340600  1.0  0.0865
  H  H428  1  0.263200  0.729000  0.386100  1.0  0.0915
  H  H429  1  0.292100  0.735100  0.325100  1.0  0.0903
  H  H430  1  0.302700  0.691100  0.458100  1.0  0.1225
  H  H431  1  0.313500  0.728900  0.461900  1.0  0.1131
  H  H432  1  0.331300  0.704400  0.403300  1.0  0.1131
  H  H433  1  0.328800  0.919200  0.016100  1.0  0.0798
  H  H434  1  0.302000  0.884100  0.931000  1.0  0.1074
  H  H435  1  0.358600  0.919300  0.762600  1.0  0.1159
  H  H436  1  0.381600  0.954800  0.847200  1.0  0.0808
  H  H437  1  0.302800  0.855100  0.809800  1.0  0.0813
  H  H438  1  0.330300  0.863800  0.747600  1.0  0.0665
  H  H439  1  0.731300  0.875900  0.581100  1.0  0.1038
  H  H440  1  0.708100  0.860200  0.692200  1.0  0.1016
  H  H441  1  0.715800  0.807600  0.741600  1.0  0.1216
  H  H442  1  0.746300  0.768800  0.668500  1.0  0.1056
  H  H443  1  0.850300  0.725600  0.360000  1.0  0.1356
  H  H444  1  0.820600  0.726300  0.300500  1.0  0.1173
  H  H445  1  0.876000  0.768200  0.286800  1.0  0.1113
  H  H446  1  0.872400  0.734200  0.241500  1.0  0.1155
  H  H447  1  0.847600  0.763800  0.224300  1.0  0.1224
  H  H448  1  0.885000  0.690500  0.597300  1.0  0.1183
  H  H449  1  0.924400  0.650900  0.570900  1.0  0.1029
  H  H450  1  0.918400  0.615500  0.467300  1.0  0.1143
  H  H451  1  0.870800  0.618400  0.393500  1.0  0.1041
  H  H452  1  0.708900  0.666000  0.327200  1.0  0.1094
  H  H453  1  0.707800  0.705000  0.317300  1.0  0.1002
  H  H454  1  0.683600  0.707500  0.442300  1.0  0.1215
  H  H455  1  0.661000  0.691200  0.377600  1.0  0.1099
  H  H456  1  0.679900  0.668400  0.437800  1.0  0.1181
  H  H457  1  0.725300  0.706200  0.591400  1.0  0.1002
  H  H458  1  0.691500  0.671100  0.664400  1.0  0.1307
  H  H459  1  0.761100  0.604100  0.652600  1.0  0.1062
  H  H460  1  0.791300  0.638900  0.577500  1.0  0.0677
  H  H461  1  0.727500  0.602900  0.769300  1.0  0.0927
  H  H462  1  0.700100  0.593900  0.707500  1.0  0.1055
  H  H463  1  0.758900  0.956400  0.144600  1.0  0.1027
  H  H464  1  0.800800  0.989100  0.188900  1.0  0.1177
  H  H465  1  0.835000  0.970700  0.289800  1.0  0.1208
  H  H466  1  0.826200  0.918800  0.340600  1.0  0.0866
  H  H467  1  0.736800  0.771000  0.386100  1.0  0.0919
  H  H468  1  0.707900  0.764900  0.325100  1.0  0.0896
  H  H469  1  0.697300  0.808900  0.458100  1.0  0.1217
  H  H470  1  0.686500  0.771100  0.461900  1.0  0.1134
  H  H471  1  0.668700  0.795600  0.403300  1.0  0.1152
  H  H472  1  0.671200  0.580800  0.016100  1.0  0.0796
  H  H473  1  0.698000  0.615900  0.931000  1.0  0.107
  H  H474  1  0.641400  0.580700  0.762600  1.0  0.1161
  H  H475  1  0.618400  0.545200  0.847200  1.0  0.0812
  H  H476  1  0.697200  0.644900  0.809800  1.0  0.0791
  H  H477  1  0.669700  0.636200  0.747600  1.0  0.0655
  H  H478  1  0.231300  0.375900  0.081100  1.0  0.1038
  H  H479  1  0.208100  0.360200  0.192200  1.0  0.1016
  H  H480  1  0.215800  0.307600  0.241600  1.0  0.1216
  H  H481  1  0.246300  0.268800  0.168500  1.0  0.1056
  H  H482  1  0.350300  0.225600  0.860000  1.0  0.1356
  H  H483  1  0.320600  0.226300  0.800500  1.0  0.1173
  H  H484  1  0.376000  0.268200  0.786800  1.0  0.1113
  H  H485  1  0.372400  0.234200  0.741500  1.0  0.1155
  H  H486  1  0.347600  0.263800  0.724300  1.0  0.1224
  H  H487  1  0.385000  0.190500  0.097300  1.0  0.1183
  H  H488  1  0.424400  0.150900  0.070900  1.0  0.1029
  H  H489  1  0.418400  0.115500  0.967300  1.0  0.1143
  H  H490  1  0.370800  0.118400  0.893500  1.0  0.1041
  H  H491  1  0.208900  0.166000  0.827200  1.0  0.1094
  H  H492  1  0.207800  0.205000  0.817300  1.0  0.1002
  H  H493  1  0.183600  0.207500  0.942300  1.0  0.1215
  H  H494  1  0.161000  0.191200  0.877600  1.0  0.1099
  H  H495  1  0.179900  0.168400  0.937800  1.0  0.1181
  H  H496  1  0.225300  0.206200  0.091400  1.0  0.1002
  H  H497  1  0.191500  0.171100  0.164400  1.0  0.1307
  H  H498  1  0.261100  0.104100  0.152600  1.0  0.1062
  H  H499  1  0.291300  0.138900  0.077500  1.0  0.0677
  H  H500  1  0.227500  0.102900  0.269300  1.0  0.0927
  H  H501  1  0.200100  0.093900  0.207500  1.0  0.1055
  H  H502  1  0.258900  0.456400  0.644600  1.0  0.1027
  H  H503  1  0.300800  0.489100  0.688900  1.0  0.1177
  H  H504  1  0.335000  0.470700  0.789800  1.0  0.1208
  H  H505  1  0.326200  0.418800  0.840600  1.0  0.0866
  H  H506  1  0.236800  0.271000  0.886100  1.0  0.0919
  H  H507  1  0.207900  0.264900  0.825100  1.0  0.0896
  H  H508  1  0.197300  0.308900  0.958100  1.0  0.1217
  H  H509  1  0.186500  0.271100  0.961900  1.0  0.1134
  H  H510  1  0.168700  0.295600  0.903300  1.0  0.1152
  H  H511  1  0.171200  0.080800  0.516100  1.0  0.0796
  H  H512  1  0.198000  0.115900  0.431000  1.0  0.107
  H  H513  1  0.141400  0.080700  0.262600  1.0  0.1161
  H  H514  1  0.118400  0.045200  0.347200  1.0  0.0812
  H  H515  1  0.197200  0.144900  0.309800  1.0  0.0791
  H  H516  1  0.169700  0.136200  0.247600  1.0  0.0655
  H  H517  1  0.125900  0.518700  0.831100  1.0  0.1047
  H  H518  1  0.110200  0.541900  0.942200  1.0  0.1021
  H  H519  1  0.057600  0.534200  0.991600  1.0  0.1224
  H  H520  1  0.018800  0.503700  0.918500  1.0  0.1052
  H  H521  1  0.975600  0.399700  0.610000  1.0  0.1363
  H  H522  1  0.976300  0.429400  0.550500  1.0  0.1169
  H  H523  1  0.018200  0.374000  0.536800  1.0  0.1102
  H  H524  1  0.984200  0.377600  0.491500  1.0  0.1131
  H  H525  1  0.013800  0.402400  0.474300  1.0  0.1176
  H  H526  1  0.940500  0.365000  0.847300  1.0  0.1187
  H  H527  1  0.900900  0.325600  0.820900  1.0  0.101
  H  H528  1  0.865500  0.331600  0.717300  1.0  0.1132
  H  H529  1  0.868400  0.379200  0.643500  1.0  0.104
  H  H530  1  0.916000  0.541100  0.577200  1.0  0.1088
  H  H531  1  0.955000  0.542200  0.567300  1.0  0.1005
  H  H532  1  0.957500  0.566400  0.692300  1.0  0.1197
  H  H533  1  0.941200  0.589000  0.627600  1.0  0.1083
  H  H534  1  0.918400  0.570100  0.687800  1.0  0.1181
  H  H535  1  0.956200  0.524700  0.841400  1.0  0.0956
  H  H536  1  0.921100  0.558500  0.914400  1.0  0.131
  H  H537  1  0.854100  0.488900  0.902600  1.0  0.1087
  H  H538  1  0.888900  0.458700  0.827500  1.0  0.0665
  H  H539  1  0.852900  0.522500  0.019300  1.0  0.0934
  H  H540  1  0.843900  0.549900  0.957500  1.0  0.1051
  H  H541  1  0.206400  0.491100  0.394600  1.0  0.1013
  H  H542  1  0.239100  0.449200  0.438900  1.0  0.1182
  H  H543  1  0.220700  0.415000  0.539800  1.0  0.1225
  H  H544  1  0.168800  0.423800  0.590600  1.0  0.0867
  H  H545  1  0.021000  0.513200  0.636100  1.0  0.0918
  H  H546  1  0.014900  0.542100  0.575100  1.0  0.0912
  H  H547  1  0.058900  0.552700  0.708100  1.0  0.1202
  H  H548  1  0.021100  0.563500  0.711900  1.0  0.1129
  H  H549  1  0.045600  0.581300  0.653300  1.0  0.1166
  H  H550  1  0.830800  0.578800  0.266100  1.0  0.0798
  H  H551  1  0.865900  0.552000  0.181000  1.0  0.1072
  H  H552  1  0.830700  0.608600  0.012600  1.0  0.1154
  H  H553  1  0.795200  0.631600  0.097200  1.0  0.0816
  H  H554  1  0.894900  0.552800  0.059800  1.0  0.0782
  H  H555  1  0.886200  0.580300  0.997600  1.0  0.0679
  H  H556  1  0.625900  0.018700  0.331100  1.0  0.1047
  H  H557  1  0.610200  0.041900  0.442200  1.0  0.1021
  H  H558  1  0.557600  0.034200  0.491600  1.0  0.1224
  H  H559  1  0.518800  0.003700  0.418500  1.0  0.1052
  H  H560  1  0.475600  0.899700  0.110000  1.0  0.1363
  H  H561  1  0.476300  0.929400  0.050500  1.0  0.1169
  H  H562  1  0.518200  0.874000  0.036800  1.0  0.1102
  H  H563  1  0.484200  0.877600  0.991500  1.0  0.1131
  H  H564  1  0.513800  0.902400  0.974300  1.0  0.1176
  H  H565  1  0.440500  0.865000  0.347300  1.0  0.1185
  H  H566  1  0.400900  0.825600  0.320900  1.0  0.101
  H  H567  1  0.365500  0.831600  0.217300  1.0  0.1132
  H  H568  1  0.368400  0.879200  0.143500  1.0  0.104
  H  H569  1  0.416000  0.041100  0.077200  1.0  0.1088
  H  H570  1  0.455000  0.042200  0.067300  1.0  0.1005
  H  H571  1  0.457500  0.066400  0.192300  1.0  0.1197
  H  H572  1  0.441200  0.089000  0.127600  1.0  0.1083
  H  H573  1  0.418400  0.070100  0.187800  1.0  0.1181
  H  H574  1  0.456200  0.024700  0.341400  1.0  0.0956
  H  H575  1  0.421100  0.058500  0.414400  1.0  0.131
  H  H576  1  0.354100  0.988900  0.402600  1.0  0.1087
  H  H577  1  0.388900  0.958700  0.327500  1.0  0.0665
  H  H578  1  0.352900  0.022500  0.519300  1.0  0.0934
  H  H579  1  0.343900  0.049900  0.457500  1.0  0.1051
  H  H580  1  0.706400  0.991100  0.894600  1.0  0.1013
  H  H581  1  0.739100  0.949200  0.938900  1.0  0.1182
  H  H582  1  0.720700  0.915000  0.039800  1.0  0.1225
  H  H583  1  0.668800  0.923800  0.090600  1.0  0.0867
  H  H584  1  0.521000  0.013200  0.136100  1.0  0.0918
  H  H585  1  0.514900  0.042100  0.075100  1.0  0.0912
  H  H586  1  0.558900  0.052700  0.208100  1.0  0.1202
  H  H587  1  0.521100  0.063500  0.211900  1.0  0.1129
  H  H588  1  0.545600  0.081300  0.153300  1.0  0.1166
  H  H589  1  0.330800  0.078800  0.766100  1.0  0.0798
  H  H590  1  0.365900  0.052000  0.681000  1.0  0.1072
  H  H591  1  0.330700  0.108600  0.512600  1.0  0.1154
  H  H592  1  0.295200  0.131600  0.597200  1.0  0.0816
  H  H593  1  0.394900  0.052800  0.559800  1.0  0.0782
  H  H594  1  0.386200  0.080300  0.497600  1.0  0.0679
  H  H595  1  0.374100  0.481300  0.331100  1.0  0.1051
  H  H596  1  0.389800  0.458100  0.442200  1.0  0.102
  H  H597  1  0.442400  0.465800  0.491600  1.0  0.122
  H  H598  1  0.481200  0.496300  0.418500  1.0  0.1054
  H  H599  1  0.524400  0.600300  0.110000  1.0  0.1362
  H  H600  1  0.523700  0.570600  0.050500  1.0  0.1188
  H  H601  1  0.481800  0.626000  0.036800  1.0  0.1093
  H  H602  1  0.515800  0.622400  0.991500  1.0  0.1139
  H  H603  1  0.486200  0.597600  0.974300  1.0  0.1174
  H  H604  1  0.559500  0.635000  0.347300  1.0  0.1186
  H  H605  1  0.599100  0.674400  0.320900  1.0  0.102
  H  H606  1  0.634500  0.668400  0.217300  1.0  0.1132
  H  H607  1  0.631600  0.620800  0.143500  1.0  0.1034
  H  H608  1  0.584000  0.458900  0.077200  1.0  0.1077
  H  H609  1  0.545000  0.457800  0.067300  1.0  0.1005
  H  H610  1  0.542500  0.433600  0.192300  1.0  0.121
  H  H611  1  0.558800  0.411000  0.127600  1.0  0.1076
  H  H612  1  0.581600  0.429900  0.187800  1.0  0.1159
  H  H613  1  0.543800  0.475300  0.341400  1.0  0.099
  H  H614  1  0.578900  0.441500  0.414400  1.0  0.1311
  H  H615  1  0.645900  0.511100  0.402600  1.0  0.1075
  H  H616  1  0.611100  0.541300  0.327500  1.0  0.0663
  H  H617  1  0.647100  0.477500  0.519300  1.0  0.0926
  H  H618  1  0.656100  0.450100  0.457500  1.0  0.1039
  H  H619  1  0.293600  0.508900  0.894600  1.0  0.1015
  H  H620  1  0.260900  0.550800  0.938900  1.0  0.1178
  H  H621  1  0.279300  0.585000  0.039800  1.0  0.123
  H  H622  1  0.331200  0.576200  0.090600  1.0  0.0865
  H  H623  1  0.479000  0.486800  0.136100  1.0  0.0914
  H  H624  1  0.485100  0.457900  0.075100  1.0  0.0911
  H  H625  1  0.441100  0.447300  0.208100  1.0  0.1206
  H  H626  1  0.478900  0.436500  0.211900  1.0  0.1121
  H  H627  1  0.454400  0.418700  0.153300  1.0  0.1165
  H  H628  1  0.669200  0.421200  0.766100  1.0  0.0796
  H  H629  1  0.634100  0.448000  0.681000  1.0  0.1067
  H  H630  1  0.669300  0.391400  0.512600  1.0  0.1157
  H  H631  1  0.704800  0.368400  0.597200  1.0  0.0815
  H  H632  1  0.605100  0.447200  0.559800  1.0  0.0782
  H  H633  1  0.613800  0.419700  0.497600  1.0  0.0677
  H  H634  1  0.874100  0.981300  0.831100  1.0  0.1051
  H  H635  1  0.889800  0.958100  0.942200  1.0  0.102
  H  H636  1  0.942400  0.965800  0.991600  1.0  0.122
  H  H637  1  0.981200  0.996300  0.918500  1.0  0.1054
  H  H638  1  0.024400  0.100300  0.610000  1.0  0.1362
  H  H639  1  0.023700  0.070600  0.550500  1.0  0.1188
  H  H640  1  0.981800  0.126000  0.536800  1.0  0.1093
  H  H641  1  0.015800  0.122400  0.491500  1.0  0.1139
  H  H642  1  0.986200  0.097600  0.474300  1.0  0.1174
  H  H643  1  0.059500  0.135000  0.847300  1.0  0.1188
  H  H644  1  0.099100  0.174400  0.820900  1.0  0.102
  H  H645  1  0.134500  0.168400  0.717300  1.0  0.1132
  H  H646  1  0.131600  0.120800  0.643500  1.0  0.1034
  H  H647  1  0.084000  0.958900  0.577200  1.0  0.1077
  H  H648  1  0.045000  0.957800  0.567300  1.0  0.1005
  H  H649  1  0.042500  0.933600  0.692300  1.0  0.121
  H  H650  1  0.058800  0.911000  0.627600  1.0  0.1076
  H  H651  1  0.081600  0.929900  0.687800  1.0  0.1159
  H  H652  1  0.043800  0.975300  0.841400  1.0  0.099
  H  H653  1  0.078900  0.941500  0.914400  1.0  0.1311
  H  H654  1  0.145900  0.011100  0.902600  1.0  0.1075
  H  H655  1  0.111100  0.041300  0.827500  1.0  0.0663
  H  H656  1  0.147100  0.977500  0.019300  1.0  0.0926
  H  H657  1  0.156100  0.950100  0.957500  1.0  0.1039
  H  H658  1  0.793600  0.008900  0.394600  1.0  0.1015
  H  H659  1  0.760900  0.050800  0.438900  1.0  0.1178
  H  H660  1  0.779300  0.085000  0.539800  1.0  0.123
  H  H661  1  0.831200  0.076200  0.590600  1.0  0.0865
  H  H662  1  0.979000  0.986800  0.636100  1.0  0.0914
  H  H663  1  0.985100  0.957900  0.575100  1.0  0.0911
  H  H664  1  0.941100  0.947300  0.708100  1.0  0.1206
  H  H665  1  0.978900  0.936500  0.711900  1.0  0.1121
  H  H666  1  0.954400  0.918700  0.653300  1.0  0.1165
  H  H667  1  0.169200  0.921200  0.266100  1.0  0.0796
  H  H668  1  0.134100  0.948000  0.181000  1.0  0.1067
  H  H669  1  0.169300  0.891400  0.012600  1.0  0.1157
  H  H670  1  0.204800  0.868400  0.097200  1.0  0.0815
  H  H671  1  0.105100  0.947200  0.059800  1.0  0.0782
  H  H672  1  0.113800  0.919700  0.997600  1.0  0.0677
  C  C673  1  0.255130  0.832650  0.945700  1.0  0.3145
  C  C674  1  0.234970  0.854140  0.901000  1.0  -0.1769
  C  C675  1  0.221100  0.844900  0.835300  1.0  -0.1281
  C  C676  1  0.225200  0.813600  0.806200  1.0  -0.1402
  C  C677  1  0.243800  0.790660  0.849700  1.0  -0.0651
  C  C678  1  0.258290  0.799850  0.918400  1.0  -0.1425
  C  C679  1  0.276000  0.774730  0.961100  1.0  0.5435
  C  C680  1  0.320210  0.765290  0.125900  1.0  0.4949
  C  C681  1  0.337490  0.740040  0.174500  1.0  -0.3346
  C  C682  1  0.360400  0.752680  0.235900  1.0  -0.2933
  C  C683  1  0.352360  0.677030  0.986100  1.0  0.3329
  C  C684  1  0.381530  0.675420  0.943500  1.0  -0.2306
  C  C685  1  0.405280  0.652220  0.960200  1.0  -0.0994
  C  C686  1  0.401750  0.631090  0.020800  1.0  -0.1222
  C  C687  1  0.373420  0.632930  0.064300  1.0  -0.0343
  C  C688  1  0.348500  0.655620  0.047700  1.0  -0.1402
  C  C689  1  0.318880  0.654470  0.095800  1.0  0.5614
  C  C690  1  0.242780  0.689750  0.107200  1.0  0.4959
  C  C691  1  0.209810  0.687070  0.144600  1.0  -0.2537
  C  C692  1  0.181140  0.688700  0.092300  1.0  -0.3101
  C  C693  1  0.233400  0.685190  0.894000  1.0  0.1425
  C  C694  1  0.213300  0.665000  0.848500  1.0  -0.2344
  C  C695  1  0.227300  0.634850  0.822800  1.0  0.1446
  C  C696  1  0.253400  0.625870  0.855000  1.0  -0.151
  C  C697  1  0.271400  0.646890  0.901300  1.0  0.1891
  C  C698  1  0.210400  0.612330  0.764400  1.0  -0.1674
  C  C699  1  0.265710  0.917760  0.283300  1.0  0.3357
  C  C700  1  0.272250  0.948700  0.314600  1.0  -0.2002
  C  C701  1  0.297240  0.968170  0.288700  1.0  -0.114
  C  C702  1  0.317690  0.957220  0.229000  1.0  -0.1547
  C  C703  1  0.312020  0.926650  0.198700  1.0  -0.0337
  C  C704  1  0.286340  0.906620  0.223100  1.0  -0.1471
  C  C705  1  0.281770  0.874750  0.186000  1.0  0.5506
  C  C706  1  0.226250  0.811870  0.178300  1.0  0.5776
  C  C707  1  0.217170  0.780920  0.138000  1.0  -0.291
  C  C708  1  0.189600  0.790100  0.072000  1.0  -0.3304
  C  C709  1  0.165080  0.580660  0.536400  1.0  0.1408
  C  C710  1  0.180840  0.602070  0.586800  1.0  -0.1853
  C  C711  1  0.171300  0.603050  0.663600  1.0  0.1394
  C  C712  1  0.148120  0.581350  0.685400  1.0  -0.1874
  C  C713  1  0.134280  0.560450  0.634700  1.0  0.1645
  C  C714  1  0.187000  0.626700  0.719300  1.0  -0.1295
  C  C715  1  0.755130  0.332650  0.445700  1.0  0.3145
  C  C716  1  0.734970  0.354140  0.401000  1.0  -0.1769
  C  C717  1  0.721100  0.344900  0.335300  1.0  -0.1281
  C  C718  1  0.725200  0.313600  0.306200  1.0  -0.1402
  C  C719  1  0.743800  0.290660  0.349700  1.0  -0.0651
  C  C720  1  0.758290  0.299850  0.418400  1.0  -0.1425
  C  C721  1  0.776000  0.274730  0.461100  1.0  0.5435
  C  C722  1  0.820210  0.265290  0.625900  1.0  0.4949
  C  C723  1  0.837490  0.240040  0.674500  1.0  -0.3346
  C  C724  1  0.860400  0.252680  0.735900  1.0  -0.2933
  C  C725  1  0.852360  0.177030  0.486100  1.0  0.3329
  C  C726  1  0.881530  0.175420  0.443500  1.0  -0.2306
  C  C727  1  0.905280  0.152220  0.460200  1.0  -0.0994
  C  C728  1  0.901750  0.131090  0.520800  1.0  -0.1222
  C  C729  1  0.873420  0.132930  0.564300  1.0  -0.0343
  C  C730  1  0.848500  0.155620  0.547700  1.0  -0.1402
  C  C731  1  0.818880  0.154470  0.595800  1.0  0.5614
  C  C732  1  0.742780  0.189750  0.607200  1.0  0.4959
  C  C733  1  0.709810  0.187070  0.644600  1.0  -0.2537
  C  C734  1  0.681140  0.188700  0.592300  1.0  -0.3101
  C  C735  1  0.733400  0.185190  0.394000  1.0  0.1425
  C  C736  1  0.713300  0.165000  0.348500  1.0  -0.2344
  C  C737  1  0.727300  0.134850  0.322800  1.0  0.1446
  C  C738  1  0.753400  0.125870  0.355000  1.0  -0.151
  C  C739  1  0.771400  0.146890  0.401300  1.0  0.1891
  C  C740  1  0.710400  0.112330  0.264400  1.0  -0.1674
  C  C741  1  0.765710  0.417760  0.783300  1.0  0.3357
  C  C742  1  0.772250  0.448700  0.814600  1.0  -0.2002
  C  C743  1  0.797240  0.468170  0.788700  1.0  -0.114
  C  C744  1  0.817690  0.457220  0.729000  1.0  -0.1547
  C  C745  1  0.812020  0.426650  0.698700  1.0  -0.0337
  C  C746  1  0.786340  0.406620  0.723100  1.0  -0.1471
  C  C747  1  0.781770  0.374750  0.686000  1.0  0.5506
  C  C748  1  0.726250  0.311870  0.678300  1.0  0.5776
  C  C749  1  0.717170  0.280920  0.638000  1.0  -0.291
  C  C750  1  0.689600  0.290100  0.572000  1.0  -0.3304
  C  C751  1  0.665080  0.080660  0.036400  1.0  0.1408
  C  C752  1  0.680840  0.102070  0.086800  1.0  -0.1853
  C  C753  1  0.671300  0.103050  0.163600  1.0  0.1394
  C  C754  1  0.648120  0.081350  0.185400  1.0  -0.1874
  C  C755  1  0.634280  0.060450  0.134700  1.0  0.1645
  C  C756  1  0.687000  0.126700  0.219300  1.0  -0.1295
  C  C757  1  0.244870  0.167350  0.445700  1.0  0.3144
  C  C758  1  0.265030  0.145860  0.401000  1.0  -0.1757
  C  C759  1  0.278900  0.155100  0.335300  1.0  -0.1287
  C  C760  1  0.274800  0.186400  0.306200  1.0  -0.1394
  C  C761  1  0.256200  0.209340  0.349700  1.0  -0.0648
  C  C762  1  0.241710  0.200150  0.418400  1.0  -0.1425
  C  C763  1  0.224000  0.225270  0.461100  1.0  0.5449
  C  C764  1  0.179790  0.234710  0.625900  1.0  0.4922
  C  C765  1  0.162510  0.259960  0.674500  1.0  -0.3342
  C  C766  1  0.139600  0.247320  0.735900  1.0  -0.2921
  C  C767  1  0.147640  0.322970  0.486100  1.0  0.3333
  C  C768  1  0.118470  0.324580  0.443500  1.0  -0.2273
  C  C769  1  0.094720  0.347780  0.460200  1.0  -0.0996
  C  C770  1  0.098250  0.368910  0.520800  1.0  -0.123
  C  C771  1  0.126580  0.367070  0.564300  1.0  -0.0355
  C  C772  1  0.151500  0.344380  0.547700  1.0  -0.1412
  C  C773  1  0.181120  0.345530  0.595800  1.0  0.5616
  C  C774  1  0.257220  0.310250  0.607200  1.0  0.4972
  C  C775  1  0.290190  0.312930  0.644600  1.0  -0.2533
  C  C776  1  0.318860  0.311300  0.592300  1.0  -0.309
  C  C777  1  0.266600  0.314810  0.394000  1.0  0.1439
  C  C778  1  0.286700  0.335000  0.348500  1.0  -0.2324
  C  C779  1  0.272700  0.365150  0.322800  1.0  0.1445
  C  C780  1  0.246600  0.374130  0.355000  1.0  -0.1534
  C  C781  1  0.228600  0.353110  0.401300  1.0  0.1897
  C  C782  1  0.289600  0.387670  0.264400  1.0  -0.1678
  C  C783  1  0.234290  0.082240  0.783300  1.0  0.3357
  C  C784  1  0.227750  0.051300  0.814600  1.0  -0.1998
  C  C785  1  0.202760  0.031830  0.788700  1.0  -0.115
  C  C786  1  0.182310  0.042780  0.729000  1.0  -0.1533
  C  C787  1  0.187980  0.073350  0.698700  1.0  -0.0321
  C  C788  1  0.213660  0.093380  0.723100  1.0  -0.1474
  C  C789  1  0.218230  0.125250  0.686000  1.0  0.5508
  C  C790  1  0.273750  0.188130  0.678300  1.0  0.5774
  C  C791  1  0.282830  0.219080  0.638000  1.0  -0.2866
  C  C792  1  0.310400  0.209900  0.572000  1.0  -0.33
  C  C793  1  0.334920  0.419340  0.036400  1.0  0.1395
  C  C794  1  0.319160  0.397930  0.086800  1.0  -0.1847
  C  C795  1  0.328700  0.396950  0.163600  1.0  0.1399
  C  C796  1  0.351880  0.418650  0.185400  1.0  -0.1892
  C  C797  1  0.365720  0.439550  0.134700  1.0  0.1636
  C  C798  1  0.313000  0.373300  0.219300  1.0  -0.1305
  C  C799  1  0.744870  0.667350  0.945700  1.0  0.3144
  C  C800  1  0.765030  0.645860  0.901000  1.0  -0.1757
  C  C801  1  0.778900  0.655100  0.835300  1.0  -0.1287
  C  C802  1  0.774800  0.686400  0.806200  1.0  -0.1394
  C  C803  1  0.756200  0.709340  0.849700  1.0  -0.0648
  C  C804  1  0.741710  0.700150  0.918400  1.0  -0.1425
  C  C805  1  0.724000  0.725270  0.961100  1.0  0.5449
  C  C806  1  0.679790  0.734710  0.125900  1.0  0.4922
  C  C807  1  0.662510  0.759960  0.174500  1.0  -0.3342
  C  C808  1  0.639600  0.747320  0.235900  1.0  -0.2921
  C  C809  1  0.647640  0.822970  0.986100  1.0  0.3333
  C  C810  1  0.618470  0.824580  0.943500  1.0  -0.2273
  C  C811  1  0.594720  0.847780  0.960200  1.0  -0.0996
  C  C812  1  0.598250  0.868910  0.020800  1.0  -0.123
  C  C813  1  0.626580  0.867070  0.064300  1.0  -0.0355
  C  C814  1  0.651500  0.844380  0.047700  1.0  -0.1412
  C  C815  1  0.681120  0.845530  0.095800  1.0  0.5616
  C  C816  1  0.757220  0.810250  0.107200  1.0  0.4972
  C  C817  1  0.790190  0.812930  0.144600  1.0  -0.2533
  C  C818  1  0.818860  0.811300  0.092300  1.0  -0.309
  C  C819  1  0.766600  0.814810  0.894000  1.0  0.1439
  C  C820  1  0.786700  0.835000  0.848500  1.0  -0.2324
  C  C821  1  0.772700  0.865150  0.822800  1.0  0.1445
  C  C822  1  0.746600  0.874130  0.855000  1.0  -0.1534
  C  C823  1  0.728600  0.853110  0.901300  1.0  0.1897
  C  C824  1  0.789600  0.887670  0.764400  1.0  -0.1678
  C  C825  1  0.734290  0.582240  0.283300  1.0  0.3357
  C  C826  1  0.727750  0.551300  0.314600  1.0  -0.1998
  C  C827  1  0.702760  0.531830  0.288700  1.0  -0.115
  C  C828  1  0.682310  0.542780  0.229000  1.0  -0.1533
  C  C829  1  0.687980  0.573350  0.198700  1.0  -0.0321
  C  C830  1  0.713660  0.593380  0.223100  1.0  -0.1474
  C  C831  1  0.718230  0.625250  0.186000  1.0  0.5508
  C  C832  1  0.773750  0.688130  0.178300  1.0  0.5774
  C  C833  1  0.782830  0.719080  0.138000  1.0  -0.2866
  C  C834  1  0.810400  0.709900  0.072000  1.0  -0.33
  C  C835  1  0.834920  0.919340  0.536400  1.0  0.1395
  C  C836  1  0.819160  0.897930  0.586800  1.0  -0.1847
  C  C837  1  0.828700  0.896950  0.663600  1.0  0.1399
  C  C838  1  0.851880  0.918650  0.685400  1.0  -0.1892
  C  C839  1  0.865720  0.939550  0.634700  1.0  0.1636
  C  C840  1  0.813000  0.873300  0.719300  1.0  -0.1305
  C  C841  1  0.917350  0.505130  0.195700  1.0  0.3136
  C  C842  1  0.895860  0.484970  0.151000  1.0  -0.1749
  C  C843  1  0.905100  0.471100  0.085300  1.0  -0.1226
  C  C844  1  0.936400  0.475200  0.056200  1.0  -0.1388
  C  C845  1  0.959340  0.493800  0.099700  1.0  -0.0636
  C  C846  1  0.950150  0.508290  0.168400  1.0  -0.1415
  C  C847  1  0.975270  0.526000  0.211100  1.0  0.5442
  C  C848  1  0.984710  0.570210  0.375900  1.0  0.4927
  C  C849  1  0.009960  0.587490  0.424500  1.0  -0.3354
  C  C850  1  0.997320  0.610400  0.485900  1.0  -0.2928
  C  C851  1  0.072970  0.602360  0.236100  1.0  0.3329
  C  C852  1  0.074580  0.631530  0.193500  1.0  -0.228
  C  C853  1  0.097780  0.655280  0.210200  1.0  -0.0963
  C  C854  1  0.118910  0.651750  0.270800  1.0  -0.1219
  C  C855  1  0.117070  0.623420  0.314300  1.0  -0.0349
  C  C856  1  0.094380  0.598500  0.297700  1.0  -0.142
  C  C857  1  0.095530  0.568880  0.345800  1.0  0.5627
  C  C858  1  0.060250  0.492780  0.357200  1.0  0.4978
  C  C859  1  0.062930  0.459810  0.394600  1.0  -0.2529
  C  C860  1  0.061300  0.431140  0.342300  1.0  -0.3102
  C  C861  1  0.064810  0.483400  0.144000  1.0  0.1429
  C  C862  1  0.085000  0.463300  0.098500  1.0  -0.2343
  C  C863  1  0.115150  0.477300  0.072800  1.0  0.1462
  C  C864  1  0.124130  0.503400  0.105000  1.0  -0.15
  C  C865  1  0.103110  0.521400  0.151300  1.0  0.1884
  C  C866  1  0.137670  0.460400  0.014400  1.0  -0.165
  C  C867  1  0.832240  0.515710  0.533300  1.0  0.3361
  C  C868  1  0.801300  0.522250  0.564600  1.0  -0.2001
  C  C869  1  0.781830  0.547240  0.538700  1.0  -0.1155
  C  C870  1  0.792780  0.567690  0.479000  1.0  -0.1563
  C  C871  1  0.823350  0.562020  0.448700  1.0  -0.0343
  C  C872  1  0.843380  0.536340  0.473100  1.0  -0.1456
  C  C873  1  0.875250  0.531770  0.436000  1.0  0.5507
  C  C874  1  0.938130  0.476250  0.428300  1.0  0.5767
  C  C875  1  0.969080  0.467170  0.388000  1.0  -0.2865
  C  C876  1  0.959900  0.439600  0.322000  1.0  -0.3303
  C  C877  1  0.169340  0.415080  0.786400  1.0  0.1411
  C  C878  1  0.147930  0.430840  0.836800  1.0  -0.1856
  C  C879  1  0.146950  0.421300  0.913600  1.0  0.1408
  C  C880  1  0.168650  0.398120  0.935400  1.0  -0.1891
  C  C881  1  0.189550  0.384280  0.884700  1.0  0.1623
  C  C882  1  0.123300  0.437000  0.969300  1.0  -0.1273
  C  C883  1  0.417350  0.005130  0.695700  1.0  0.3136
  C  C884  1  0.395860  0.984970  0.651000  1.0  -0.1749
  C  C885  1  0.405100  0.971100  0.585300  1.0  -0.1226
  C  C886  1  0.436400  0.975200  0.556200  1.0  -0.1388
  C  C887  1  0.459340  0.993800  0.599700  1.0  -0.0636
  C  C888  1  0.450150  0.008290  0.668400  1.0  -0.1415
  C  C889  1  0.475270  0.026000  0.711100  1.0  0.5442
  C  C890  1  0.484710  0.070210  0.875900  1.0  0.4927
  C  C891  1  0.509960  0.087490  0.924500  1.0  -0.3354
  C  C892  1  0.497320  0.110400  0.985900  1.0  -0.2928
  C  C893  1  0.572970  0.102360  0.736100  1.0  0.3329
  C  C894  1  0.574580  0.131530  0.693500  1.0  -0.228
  C  C895  1  0.597780  0.155280  0.710200  1.0  -0.0963
  C  C896  1  0.618910  0.151750  0.770800  1.0  -0.1219
  C  C897  1  0.617070  0.123420  0.814300  1.0  -0.0349
  C  C898  1  0.594380  0.098500  0.797700  1.0  -0.142
  C  C899  1  0.595530  0.068880  0.845800  1.0  0.5627
  C  C900  1  0.560250  0.992780  0.857200  1.0  0.4978
  C  C901  1  0.562930  0.959810  0.894600  1.0  -0.2529
  C  C902  1  0.561300  0.931140  0.842300  1.0  -0.3102
  C  C903  1  0.564810  0.983400  0.644000  1.0  0.1429
  C  C904  1  0.585000  0.963300  0.598500  1.0  -0.2343
  C  C905  1  0.615150  0.977300  0.572800  1.0  0.1462
  C  C906  1  0.624130  0.003400  0.605000  1.0  -0.15
  C  C907  1  0.603110  0.021400  0.651300  1.0  0.1884
  C  C908  1  0.637670  0.960400  0.514400  1.0  -0.165
  C  C909  1  0.332240  0.015710  0.033300  1.0  0.3361
  C  C910  1  0.301300  0.022250  0.064600  1.0  -0.2001
  C  C911  1  0.281830  0.047240  0.038700  1.0  -0.1155
  C  C912  1  0.292780  0.067690  0.979000  1.0  -0.1563
  C  C913  1  0.323350  0.062020  0.948700  1.0  -0.0343
  C  C914  1  0.343380  0.036340  0.973100  1.0  -0.1456
  C  C915  1  0.375250  0.031770  0.936000  1.0  0.5507
  C  C916  1  0.438130  0.976250  0.928300  1.0  0.5767
  C  C917  1  0.469080  0.967170  0.888000  1.0  -0.2865
  C  C918  1  0.459900  0.939600  0.822000  1.0  -0.3303
  C  C919  1  0.669340  0.915080  0.286400  1.0  0.1411
  C  C920  1  0.647930  0.930840  0.336800  1.0  -0.1856
  C  C921  1  0.646950  0.921300  0.413600  1.0  0.1408
  C  C922  1  0.668650  0.898120  0.435400  1.0  -0.1891
  C  C923  1  0.689550  0.884280  0.384700  1.0  0.1623
  C  C924  1  0.623300  0.937000  0.469300  1.0  -0.1273
  C  C925  1  0.582650  0.494870  0.695700  1.0  0.3146
  C  C926  1  0.604140  0.515030  0.651000  1.0  -0.179
  C  C927  1  0.594900  0.528900  0.585300  1.0  -0.1223
  C  C928  1  0.563600  0.524800  0.556200  1.0  -0.1413
  C  C929  1  0.540660  0.506200  0.599700  1.0  -0.0636
  C  C930  1  0.549850  0.491710  0.668400  1.0  -0.1419
  C  C931  1  0.524730  0.474000  0.711100  1.0  0.5437
  C  C932  1  0.515290  0.429790  0.875900  1.0  0.4932
  C  C933  1  0.490040  0.412510  0.924500  1.0  -0.3348
  C  C934  1  0.502680  0.389600  0.985900  1.0  -0.2911
  C  C935  1  0.427030  0.397640  0.736100  1.0  0.3325
  C  C936  1  0.425420  0.368470  0.693500  1.0  -0.2274
  C  C937  1  0.402220  0.344720  0.710200  1.0  -0.0956
  C  C938  1  0.381090  0.348250  0.770800  1.0  -0.1194
  C  C939  1  0.382930  0.376580  0.814300  1.0  -0.0329
  C  C940  1  0.405620  0.401500  0.797700  1.0  -0.1412
  C  C941  1  0.404470  0.431120  0.845800  1.0  0.5632
  C  C942  1  0.439750  0.507220  0.857200  1.0  0.4966
  C  C943  1  0.437070  0.540190  0.894600  1.0  -0.2531
  C  C944  1  0.438700  0.568860  0.842300  1.0  -0.3081
  C  C945  1  0.435190  0.516600  0.644000  1.0  0.1428
  C  C946  1  0.415000  0.536700  0.598500  1.0  -0.2324
  C  C947  1  0.384850  0.522700  0.572800  1.0  0.1458
  C  C948  1  0.375870  0.496600  0.605000  1.0  -0.1478
  C  C949  1  0.396890  0.478600  0.651300  1.0  0.1886
  C  C950  1  0.362330  0.539600  0.514400  1.0  -0.1673
  C  C951  1  0.667760  0.484290  0.033300  1.0  0.336
  C  C952  1  0.698700  0.477750  0.064600  1.0  -0.197
  C  C953  1  0.718170  0.452760  0.038700  1.0  -0.1146
  C  C954  1  0.707220  0.432310  0.979000  1.0  -0.1568
  C  C955  1  0.676650  0.437980  0.948700  1.0  -0.0352
  C  C956  1  0.656620  0.463660  0.973100  1.0  -0.1444
  C  C957  1  0.624750  0.468230  0.936000  1.0  0.5507
  C  C958  1  0.561870  0.523750  0.928300  1.0  0.5779
  C  C959  1  0.530920  0.532830  0.888000  1.0  -0.2877
  C  C960  1  0.540100  0.560400  0.822000  1.0  -0.3317
  C  C961  1  0.330660  0.584920  0.286400  1.0  0.1406
  C  C962  1  0.352070  0.569160  0.336800  1.0  -0.1858
  C  C963  1  0.353050  0.578700  0.413600  1.0  0.1412
  C  C964  1  0.331350  0.601880  0.435400  1.0  -0.1912
  C  C965  1  0.310450  0.615720  0.384700  1.0  0.1629
  C  C966  1  0.376700  0.563000  0.469300  1.0  -0.1266
  C  C967  1  0.082650  0.994870  0.195700  1.0  0.3146
  C  C968  1  0.104140  0.015030  0.151000  1.0  -0.179
  C  C969  1  0.094900  0.028900  0.085300  1.0  -0.1223
  C  C970  1  0.063600  0.024800  0.056200  1.0  -0.1413
  C  C971  1  0.040660  0.006200  0.099700  1.0  -0.0636
  C  C972  1  0.049850  0.991710  0.168400  1.0  -0.1419
  C  C973  1  0.024730  0.974000  0.211100  1.0  0.5437
  C  C974  1  0.015290  0.929790  0.375900  1.0  0.4932
  C  C975  1  0.990040  0.912510  0.424500  1.0  -0.3348
  C  C976  1  0.002680  0.889600  0.485900  1.0  -0.2911
  C  C977  1  0.927030  0.897640  0.236100  1.0  0.3325
  C  C978  1  0.925420  0.868470  0.193500  1.0  -0.2274
  C  C979  1  0.902220  0.844720  0.210200  1.0  -0.0956
  C  C980  1  0.881090  0.848250  0.270800  1.0  -0.1194
  C  C981  1  0.882930  0.876580  0.314300  1.0  -0.0329
  C  C982  1  0.905620  0.901500  0.297700  1.0  -0.1412
  C  C983  1  0.904470  0.931120  0.345800  1.0  0.5632
  C  C984  1  0.939750  0.007220  0.357200  1.0  0.4966
  C  C985  1  0.937070  0.040190  0.394600  1.0  -0.2531
  C  C986  1  0.938700  0.068860  0.342300  1.0  -0.3081
  C  C987  1  0.935190  0.016600  0.144000  1.0  0.1428
  C  C988  1  0.915000  0.036700  0.098500  1.0  -0.2324
  C  C989  1  0.884850  0.022700  0.072800  1.0  0.1458
  C  C990  1  0.875870  0.996600  0.105000  1.0  -0.1478
  C  C991  1  0.896890  0.978600  0.151300  1.0  0.1886
  C  C992  1  0.862330  0.039600  0.014400  1.0  -0.1673
  C  C993  1  0.167760  0.984290  0.533300  1.0  0.336
  C  C994  1  0.198700  0.977750  0.564600  1.0  -0.197
  C  C995  1  0.218170  0.952760  0.538700  1.0  -0.1146
  C  C996  1  0.207220  0.932310  0.479000  1.0  -0.1568
  C  C997  1  0.176650  0.937980  0.448700  1.0  -0.0352
  C  C998  1  0.156620  0.963660  0.473100  1.0  -0.1444
  C  C999  1  0.124750  0.968230  0.436000  1.0  0.5507
  C  C1000  1  0.061870  0.023750  0.428300  1.0  0.5779
  C  C1001  1  0.030920  0.032830  0.388000  1.0  -0.2877
  C  C1002  1  0.040100  0.060400  0.322000  1.0  -0.3317
  C  C1003  1  0.830660  0.084920  0.786400  1.0  0.1406
  C  C1004  1  0.852070  0.069160  0.836800  1.0  -0.1858
  C  C1005  1  0.853050  0.078700  0.913600  1.0  0.1412
  C  C1006  1  0.831350  0.101880  0.935400  1.0  -0.1912
  C  C1007  1  0.810450  0.115720  0.884700  1.0  0.1629
  C  C1008  1  0.876700  0.063000  0.969300  1.0  -0.1266
  C  C1009  1  0.744870  0.167350  0.054300  1.0  0.3152
  C  C1010  1  0.765030  0.145860  0.099000  1.0  -0.1762
  C  C1011  1  0.778900  0.155100  0.164700  1.0  -0.1291
  C  C1012  1  0.774800  0.186400  0.193800  1.0  -0.1386
  C  C1013  1  0.756200  0.209340  0.150300  1.0  -0.0638
  C  C1014  1  0.741710  0.200150  0.081600  1.0  -0.1429
  C  C1015  1  0.724000  0.225270  0.038900  1.0  0.5456
  C  C1016  1  0.679790  0.234710  0.874100  1.0  0.4917
  C  C1017  1  0.662510  0.259960  0.825500  1.0  -0.3343
  C  C1018  1  0.639600  0.247320  0.764100  1.0  -0.2915
  C  C1019  1  0.647640  0.322970  0.013900  1.0  0.3343
  C  C1020  1  0.618470  0.324580  0.056500  1.0  -0.2281
  C  C1021  1  0.594720  0.347780  0.039800  1.0  -0.1012
  C  C1022  1  0.598250  0.368910  0.979200  1.0  -0.1225
  C  C1023  1  0.626580  0.367070  0.935700  1.0  -0.0356
  C  C1024  1  0.651500  0.344380  0.952300  1.0  -0.1416
  C  C1025  1  0.681120  0.345530  0.904200  1.0  0.5615
  C  C1026  1  0.757220  0.310250  0.892800  1.0  0.4977
  C  C1027  1  0.790190  0.312930  0.855400  1.0  -0.2525
  C  C1028  1  0.818860  0.311300  0.907700  1.0  -0.3095
  C  C1029  1  0.766600  0.314810  0.106000  1.0  0.144
  C  C1030  1  0.786700  0.335000  0.151500  1.0  -0.2328
  C  C1031  1  0.772700  0.365150  0.177200  1.0  0.1454
  C  C1032  1  0.746600  0.374130  0.145000  1.0  -0.1544
  C  C1033  1  0.728600  0.353110  0.098700  1.0  0.1894
  C  C1034  1  0.789600  0.387670  0.235600  1.0  -0.1663
  C  C1035  1  0.734290  0.082240  0.716700  1.0  0.3354
  C  C1036  1  0.727750  0.051300  0.685400  1.0  -0.201
  C  C1037  1  0.702760  0.031830  0.711300  1.0  -0.1154
  C  C1038  1  0.682310  0.042780  0.771000  1.0  -0.154
  C  C1039  1  0.687980  0.073350  0.801300  1.0  -0.0318
  C  C1040  1  0.713660  0.093380  0.776900  1.0  -0.1474
  C  C1041  1  0.718230  0.125250  0.814000  1.0  0.551
  C  C1042  1  0.773750  0.188130  0.821700  1.0  0.579
  C  C1043  1  0.782830  0.219080  0.862000  1.0  -0.2867
  C  C1044  1  0.810400  0.209900  0.928000  1.0  -0.329
  C  C1045  1  0.834920  0.419340  0.463600  1.0  0.1405
  C  C1046  1  0.819160  0.397930  0.413200  1.0  -0.1858
  C  C1047  1  0.828700  0.396950  0.336400  1.0  0.1399
  C  C1048  1  0.851880  0.418650  0.314600  1.0  -0.1875
  C  C1049  1  0.865720  0.439550  0.365300  1.0  0.1636
  C  C1050  1  0.813000  0.373300  0.280700  1.0  -0.1315
  C  C1051  1  0.244870  0.667350  0.554300  1.0  0.3152
  C  C1052  1  0.265030  0.645860  0.599000  1.0  -0.1762
  C  C1053  1  0.278900  0.655100  0.664700  1.0  -0.1291
  C  C1054  1  0.274800  0.686400  0.693800  1.0  -0.1386
  C  C1055  1  0.256200  0.709340  0.650300  1.0  -0.0638
  C  C1056  1  0.241710  0.700150  0.581600  1.0  -0.1429
  C  C1057  1  0.224000  0.725270  0.538900  1.0  0.5456
  C  C1058  1  0.179790  0.734710  0.374100  1.0  0.4917
  C  C1059  1  0.162510  0.759960  0.325500  1.0  -0.3343
  C  C1060  1  0.139600  0.747320  0.264100  1.0  -0.2915
  C  C1061  1  0.147640  0.822970  0.513900  1.0  0.3343
  C  C1062  1  0.118470  0.824580  0.556500  1.0  -0.2281
  C  C1063  1  0.094720  0.847780  0.539800  1.0  -0.1012
  C  C1064  1  0.098250  0.868910  0.479200  1.0  -0.1225
  C  C1065  1  0.126580  0.867070  0.435700  1.0  -0.0356
  C  C1066  1  0.151500  0.844380  0.452300  1.0  -0.1416
  C  C1067  1  0.181120  0.845530  0.404200  1.0  0.5615
  C  C1068  1  0.257220  0.810250  0.392800  1.0  0.4977
  C  C1069  1  0.290190  0.812930  0.355400  1.0  -0.2525
  C  C1070  1  0.318860  0.811300  0.407700  1.0  -0.3095
  C  C1071  1  0.266600  0.814810  0.606000  1.0  0.144
  C  C1072  1  0.286700  0.835000  0.651500  1.0  -0.2328
  C  C1073  1  0.272700  0.865150  0.677200  1.0  0.1454
  C  C1074  1  0.246600  0.874130  0.645000  1.0  -0.1544
  C  C1075  1  0.228600  0.853110  0.598700  1.0  0.1894
  C  C1076  1  0.289600  0.887670  0.735600  1.0  -0.1663
  C  C1077  1  0.234290  0.582240  0.216700  1.0  0.3354
  C  C1078  1  0.227750  0.551300  0.185400  1.0  -0.201
  C  C1079  1  0.202760  0.531830  0.211300  1.0  -0.1154
  C  C1080  1  0.182310  0.542780  0.271000  1.0  -0.154
  C  C1081  1  0.187980  0.573350  0.301300  1.0  -0.0318
  C  C1082  1  0.213660  0.593380  0.276900  1.0  -0.1474
  C  C1083  1  0.218230  0.625250  0.314000  1.0  0.551
  C  C1084  1  0.273750  0.688130  0.321700  1.0  0.579
  C  C1085  1  0.282830  0.719080  0.362000  1.0  -0.2867
  C  C1086  1  0.310400  0.709900  0.428000  1.0  -0.329
  C  C1087  1  0.334920  0.919340  0.963600  1.0  0.1405
  C  C1088  1  0.319160  0.897930  0.913200  1.0  -0.1858
  C  C1089  1  0.328700  0.896950  0.836400  1.0  0.1399
  C  C1090  1  0.351880  0.918650  0.814600  1.0  -0.1875
  C  C1091  1  0.365720  0.939550  0.865300  1.0  0.1636
  C  C1092  1  0.313000  0.873300  0.780700  1.0  -0.1315
  C  C1093  1  0.755130  0.832650  0.554300  1.0  0.3152
  C  C1094  1  0.734970  0.854140  0.599000  1.0  -0.1766
  C  C1095  1  0.721100  0.844900  0.664700  1.0  -0.1288
  C  C1096  1  0.725200  0.813600  0.693800  1.0  -0.1392
  C  C1097  1  0.743800  0.790660  0.650300  1.0  -0.0645
  C  C1098  1  0.758290  0.799850  0.581600  1.0  -0.1432
  C  C1099  1  0.776000  0.774730  0.538900  1.0  0.5438
  C  C1100  1  0.820210  0.765290  0.374100  1.0  0.4937
  C  C1101  1  0.837490  0.740040  0.325500  1.0  -0.3355
  C  C1102  1  0.860400  0.752680  0.264100  1.0  -0.2931
  C  C1103  1  0.852360  0.677030  0.513900  1.0  0.3327
  C  C1104  1  0.881530  0.675420  0.556500  1.0  -0.2276
  C  C1105  1  0.905280  0.652220  0.539800  1.0  -0.0993
  C  C1106  1  0.901750  0.631090  0.479200  1.0  -0.1221
  C  C1107  1  0.873420  0.632930  0.435700  1.0  -0.0341
  C  C1108  1  0.848500  0.655620  0.452300  1.0  -0.1403
  C  C1109  1  0.818880  0.654470  0.404200  1.0  0.5612
  C  C1110  1  0.742780  0.689750  0.392800  1.0  0.4962
  C  C1111  1  0.709810  0.687070  0.355400  1.0  -0.2508
  C  C1112  1  0.681140  0.688700  0.407700  1.0  -0.3107
  C  C1113  1  0.733400  0.685190  0.606000  1.0  0.1427
  C  C1114  1  0.713300  0.665000  0.651500  1.0  -0.235
  C  C1115  1  0.727300  0.634850  0.677200  1.0  0.145
  C  C1116  1  0.753400  0.625870  0.645000  1.0  -0.1521
  C  C1117  1  0.771400  0.646890  0.598700  1.0  0.1885
  C  C1118  1  0.710400  0.612330  0.735600  1.0  -0.1668
  C  C1119  1  0.765710  0.917760  0.216700  1.0  0.3354
  C  C1120  1  0.772250  0.948700  0.185400  1.0  -0.2016
  C  C1121  1  0.797240  0.968170  0.211300  1.0  -0.1131
  C  C1122  1  0.817690  0.957220  0.271000  1.0  -0.1549
  C  C1123  1  0.812020  0.926650  0.301300  1.0  -0.0329
  C  C1124  1  0.786340  0.906620  0.276900  1.0  -0.1472
  C  C1125  1  0.781770  0.874750  0.314000  1.0  0.5503
  C  C1126  1  0.726250  0.811870  0.321700  1.0  0.5794
  C  C1127  1  0.717170  0.780920  0.362000  1.0  -0.2911
  C  C1128  1  0.689600  0.790100  0.428000  1.0  -0.3301
  C  C1129  1  0.665080  0.580660  0.963600  1.0  0.1418
  C  C1130  1  0.680840  0.602070  0.913200  1.0  -0.1861
  C  C1131  1  0.671300  0.603050  0.836400  1.0  0.1391
  C  C1132  1  0.648120  0.581350  0.814600  1.0  -0.1856
  C  C1133  1  0.634280  0.560450  0.865300  1.0  0.1642
  C  C1134  1  0.687000  0.626700  0.780700  1.0  -0.1306
  C  C1135  1  0.255130  0.332650  0.054300  1.0  0.3152
  C  C1136  1  0.234970  0.354140  0.099000  1.0  -0.1766
  C  C1137  1  0.221100  0.344900  0.164700  1.0  -0.1288
  C  C1138  1  0.225200  0.313600  0.193800  1.0  -0.1392
  C  C1139  1  0.243800  0.290660  0.150300  1.0  -0.0645
  C  C1140  1  0.258290  0.299850  0.081600  1.0  -0.1432
  C  C1141  1  0.276000  0.274730  0.038900  1.0  0.5438
  C  C1142  1  0.320210  0.265290  0.874100  1.0  0.4937
  C  C1143  1  0.337490  0.240040  0.825500  1.0  -0.3355
  C  C1144  1  0.360400  0.252680  0.764100  1.0  -0.2931
  C  C1145  1  0.352360  0.177030  0.013900  1.0  0.3327
  C  C1146  1  0.381530  0.175420  0.056500  1.0  -0.2276
  C  C1147  1  0.405280  0.152220  0.039800  1.0  -0.0993
  C  C1148  1  0.401750  0.131090  0.979200  1.0  -0.1221
  C  C1149  1  0.373420  0.132930  0.935700  1.0  -0.0341
  C  C1150  1  0.348500  0.155620  0.952300  1.0  -0.1403
  C  C1151  1  0.318880  0.154470  0.904200  1.0  0.5612
  C  C1152  1  0.242780  0.189750  0.892800  1.0  0.4962
  C  C1153  1  0.209810  0.187070  0.855400  1.0  -0.2508
  C  C1154  1  0.181140  0.188700  0.907700  1.0  -0.3107
  C  C1155  1  0.233400  0.185190  0.106000  1.0  0.1427
  C  C1156  1  0.213300  0.165000  0.151500  1.0  -0.235
  C  C1157  1  0.227300  0.134850  0.177200  1.0  0.145
  C  C1158  1  0.253400  0.125870  0.145000  1.0  -0.1521
  C  C1159  1  0.271400  0.146890  0.098700  1.0  0.1885
  C  C1160  1  0.210400  0.112330  0.235600  1.0  -0.1668
  C  C1161  1  0.265710  0.417760  0.716700  1.0  0.3354
  C  C1162  1  0.272250  0.448700  0.685400  1.0  -0.2016
  C  C1163  1  0.297240  0.468170  0.711300  1.0  -0.1131
  C  C1164  1  0.317690  0.457220  0.771000  1.0  -0.1549
  C  C1165  1  0.312020  0.426650  0.801300  1.0  -0.0329
  C  C1166  1  0.286340  0.406620  0.776900  1.0  -0.1472
  C  C1167  1  0.281770  0.374750  0.814000  1.0  0.5503
  C  C1168  1  0.226250  0.311870  0.821700  1.0  0.5794
  C  C1169  1  0.217170  0.280920  0.862000  1.0  -0.2911
  C  C1170  1  0.189600  0.290100  0.928000  1.0  -0.3301
  C  C1171  1  0.165080  0.080660  0.463600  1.0  0.1418
  C  C1172  1  0.180840  0.102070  0.413200  1.0  -0.1861
  C  C1173  1  0.171300  0.103050  0.336400  1.0  0.1391
  C  C1174  1  0.148120  0.081350  0.314600  1.0  -0.1856
  C  C1175  1  0.134280  0.060450  0.365300  1.0  0.1642
  C  C1176  1  0.187000  0.126700  0.280700  1.0  -0.1306
  C  C1177  1  0.082650  0.494870  0.804300  1.0  0.3151
  C  C1178  1  0.104140  0.515030  0.849000  1.0  -0.1788
  C  C1179  1  0.094900  0.528900  0.914700  1.0  -0.1237
  C  C1180  1  0.063600  0.524800  0.943800  1.0  -0.1405
  C  C1181  1  0.040660  0.506200  0.900300  1.0  -0.063
  C  C1182  1  0.049850  0.491710  0.831600  1.0  -0.1423
  C  C1183  1  0.024730  0.474000  0.788900  1.0  0.5443
  C  C1184  1  0.015290  0.429790  0.624100  1.0  0.4924
  C  C1185  1  0.990040  0.412510  0.575500  1.0  -0.3354
  C  C1186  1  0.002680  0.389600  0.514100  1.0  -0.2907
  C  C1187  1  0.927030  0.397640  0.763900  1.0  0.3334
  C  C1188  1  0.925420  0.368470  0.806500  1.0  -0.2266
  C  C1189  1  0.902220  0.344720  0.789800  1.0  -0.0963
  C  C1190  1  0.881090  0.348250  0.729200  1.0  -0.1192
  C  C1191  1  0.882930  0.376580  0.685700  1.0  -0.0331
  C  C1192  1  0.905620  0.401500  0.702300  1.0  -0.1413
  C  C1193  1  0.904470  0.431120  0.654200  1.0  0.5631
  C  C1194  1  0.939750  0.507220  0.642800  1.0  0.497
  C  C1195  1  0.937070  0.540190  0.605400  1.0  -0.2524
  C  C1196  1  0.938700  0.568860  0.657700  1.0  -0.3104
  C  C1197  1  0.935190  0.516600  0.856000  1.0  0.1429
  C  C1198  1  0.915000  0.536700  0.901500  1.0  -0.2323
  C  C1199  1  0.884850  0.522700  0.927200  1.0  0.1467
  C  C1200  1  0.875870  0.496600  0.895000  1.0  -0.1494
  C  C1201  1  0.896890  0.478600  0.848700  1.0  0.1879
  C  C1202  1  0.862330  0.539600  0.985600  1.0  -0.1663
  C  C1203  1  0.167760  0.484290  0.466700  1.0  0.3359
  C  C1204  1  0.198700  0.477750  0.435400  1.0  -0.1988
  C  C1205  1  0.218170  0.452760  0.461300  1.0  -0.1144
  C  C1206  1  0.207220  0.432310  0.521000  1.0  -0.1569
  C  C1207  1  0.176650  0.437980  0.551300  1.0  -0.0344
  C  C1208  1  0.156620  0.463660  0.526900  1.0  -0.1444
  C  C1209  1  0.124750  0.468230  0.564000  1.0  0.5506
  C  C1210  1  0.061870  0.523750  0.571700  1.0  0.5791
  C  C1211  1  0.030920  0.532830  0.612000  1.0  -0.2878
  C  C1212  1  0.040100  0.560400  0.678000  1.0  -0.3312
  C  C1213  1  0.830660  0.584920  0.213600  1.0  0.1418
  C  C1214  1  0.852070  0.569160  0.163200  1.0  -0.1866
  C  C1215  1  0.853050  0.578700  0.086400  1.0  0.1405
  C  C1216  1  0.831350  0.601880  0.064600  1.0  -0.1891
  C  C1217  1  0.810450  0.615720  0.115300  1.0  0.1625
  C  C1218  1  0.876700  0.563000  0.030700  1.0  -0.1275
  C  C1219  1  0.582650  0.994870  0.304300  1.0  0.3151
  C  C1220  1  0.604140  0.015030  0.349000  1.0  -0.1788
  C  C1221  1  0.594900  0.028900  0.414700  1.0  -0.1237
  C  C1222  1  0.563600  0.024800  0.443800  1.0  -0.1405
  C  C1223  1  0.540660  0.006200  0.400300  1.0  -0.063
  C  C1224  1  0.549850  0.991710  0.331600  1.0  -0.1423
  C  C1225  1  0.524730  0.974000  0.288900  1.0  0.5443
  C  C1226  1  0.515290  0.929790  0.124100  1.0  0.4924
  C  C1227  1  0.490040  0.912510  0.075500  1.0  -0.3354
  C  C1228  1  0.502680  0.889600  0.014100  1.0  -0.2907
  C  C1229  1  0.427030  0.897640  0.263900  1.0  0.3334
  C  C1230  1  0.425420  0.868470  0.306500  1.0  -0.2266
  C  C1231  1  0.402220  0.844720  0.289800  1.0  -0.0963
  C  C1232  1  0.381090  0.848250  0.229200  1.0  -0.1192
  C  C1233  1  0.382930  0.876580  0.185700  1.0  -0.0331
  C  C1234  1  0.405620  0.901500  0.202300  1.0  -0.1413
  C  C1235  1  0.404470  0.931120  0.154200  1.0  0.5631
  C  C1236  1  0.439750  0.007220  0.142800  1.0  0.497
  C  C1237  1  0.437070  0.040190  0.105400  1.0  -0.2524
  C  C1238  1  0.438700  0.068860  0.157700  1.0  -0.3104
  C  C1239  1  0.435190  0.016600  0.356000  1.0  0.1429
  C  C1240  1  0.415000  0.036700  0.401500  1.0  -0.2323
  C  C1241  1  0.384850  0.022700  0.427200  1.0  0.1467
  C  C1242  1  0.375870  0.996600  0.395000  1.0  -0.1494
  C  C1243  1  0.396890  0.978600  0.348700  1.0  0.1879
  C  C1244  1  0.362330  0.039600  0.485600  1.0  -0.1663
  C  C1245  1  0.667760  0.984290  0.966700  1.0  0.3359
  C  C1246  1  0.698700  0.977750  0.935400  1.0  -0.1988
  C  C1247  1  0.718170  0.952760  0.961300  1.0  -0.1144
  C  C1248  1  0.707220  0.932310  0.021000  1.0  -0.1569
  C  C1249  1  0.676650  0.937980  0.051300  1.0  -0.0344
  C  C1250  1  0.656620  0.963660  0.026900  1.0  -0.1444
  C  C1251  1  0.624750  0.968230  0.064000  1.0  0.5506
  C  C1252  1  0.561870  0.023750  0.071700  1.0  0.5791
  C  C1253  1  0.530920  0.032830  0.112000  1.0  -0.2878
  C  C1254  1  0.540100  0.060400  0.178000  1.0  -0.3312
  C  C1255  1  0.330660  0.084920  0.713600  1.0  0.1418
  C  C1256  1  0.352070  0.069160  0.663200  1.0  -0.1866
  C  C1257  1  0.353050  0.078700  0.586400  1.0  0.1405
  C  C1258  1  0.331350  0.101880  0.564600  1.0  -0.1891
  C  C1259  1  0.310450  0.115720  0.615300  1.0  0.1625
  C  C1260  1  0.376700  0.063000  0.530700  1.0  -0.1275
  C  C1261  1  0.417350  0.505130  0.304300  1.0  0.3143
  C  C1262  1  0.395860  0.484970  0.349000  1.0  -0.1752
  C  C1263  1  0.405100  0.471100  0.414700  1.0  -0.1239
  C  C1264  1  0.436400  0.475200  0.443800  1.0  -0.1381
  C  C1265  1  0.459340  0.493800  0.400300  1.0  -0.0633
  C  C1266  1  0.450150  0.508290  0.331600  1.0  -0.1421
  C  C1267  1  0.475270  0.526000  0.288900  1.0  0.5441
  C  C1268  1  0.484710  0.570210  0.124100  1.0  0.491
  C  C1269  1  0.509960  0.587490  0.075500  1.0  -0.3362
  C  C1270  1  0.497320  0.610400  0.014100  1.0  -0.2922
  C  C1271  1  0.572970  0.602360  0.263900  1.0  0.333
  C  C1272  1  0.574580  0.631530  0.306500  1.0  -0.2278
  C  C1273  1  0.597780  0.655280  0.289800  1.0  -0.0968
  C  C1274  1  0.618910  0.651750  0.229200  1.0  -0.1213
  C  C1275  1  0.617070  0.623420  0.185700  1.0  -0.0345
  C  C1276  1  0.594380  0.598500  0.202300  1.0  -0.1421
  C  C1277  1  0.595530  0.568880  0.154200  1.0  0.5626
  C  C1278  1  0.560250  0.492780  0.142800  1.0  0.4983
  C  C1279  1  0.562930  0.459810  0.105400  1.0  -0.2518
  C  C1280  1  0.561300  0.431140  0.157700  1.0  -0.3105
  C  C1281  1  0.564810  0.483400  0.356000  1.0  0.143
  C  C1282  1  0.585000  0.463300  0.401500  1.0  -0.2356
  C  C1283  1  0.615150  0.477300  0.427200  1.0  0.1467
  C  C1284  1  0.624130  0.503400  0.395000  1.0  -0.1508
  C  C1285  1  0.603110  0.521400  0.348700  1.0  0.1881
  C  C1286  1  0.637670  0.460400  0.485600  1.0  -0.1647
  C  C1287  1  0.332240  0.515710  0.966700  1.0  0.3359
  C  C1288  1  0.301300  0.522250  0.935400  1.0  -0.2007
  C  C1289  1  0.281830  0.547240  0.961300  1.0  -0.1151
  C  C1290  1  0.292780  0.567690  0.021000  1.0  -0.1568
  C  C1291  1  0.323350  0.562020  0.051300  1.0  -0.034
  C  C1292  1  0.343380  0.536340  0.026900  1.0  -0.1456
  C  C1293  1  0.375250  0.531770  0.064000  1.0  0.5509
  C  C1294  1  0.438130  0.476250  0.071700  1.0  0.5787
  C  C1295  1  0.469080  0.467170  0.112000  1.0  -0.2869
  C  C1296  1  0.459900  0.439600  0.178000  1.0  -0.3303
  C  C1297  1  0.669340  0.415080  0.713600  1.0  0.1413
  C  C1298  1  0.647930  0.430840  0.663200  1.0  -0.1865
  C  C1299  1  0.646950  0.421300  0.586400  1.0  0.1409
  C  C1300  1  0.668650  0.398120  0.564600  1.0  -0.188
  C  C1301  1  0.689550  0.384280  0.615300  1.0  0.1621
  C  C1302  1  0.623300  0.437000  0.530700  1.0  -0.1286
  C  C1303  1  0.917350  0.005130  0.804300  1.0  0.3143
  C  C1304  1  0.895860  0.984970  0.849000  1.0  -0.1752
  C  C1305  1  0.905100  0.971100  0.914700  1.0  -0.1239
  C  C1306  1  0.936400  0.975200  0.943800  1.0  -0.1381
  C  C1307  1  0.959340  0.993800  0.900300  1.0  -0.0633
  C  C1308  1  0.950150  0.008290  0.831600  1.0  -0.1421
  C  C1309  1  0.975270  0.026000  0.788900  1.0  0.5441
  C  C1310  1  0.984710  0.070210  0.624100  1.0  0.491
  C  C1311  1  0.009960  0.087490  0.575500  1.0  -0.3362
  C  C1312  1  0.997320  0.110400  0.514100  1.0  -0.2922
  C  C1313  1  0.072970  0.102360  0.763900  1.0  0.333
  C  C1314  1  0.074580  0.131530  0.806500  1.0  -0.2278
  C  C1315  1  0.097780  0.155280  0.789800  1.0  -0.0968
  C  C1316  1  0.118910  0.151750  0.729200  1.0  -0.1213
  C  C1317  1  0.117070  0.123420  0.685700  1.0  -0.0345
  C  C1318  1  0.094380  0.098500  0.702300  1.0  -0.1421
  C  C1319  1  0.095530  0.068880  0.654200  1.0  0.5626
  C  C1320  1  0.060250  0.992780  0.642800  1.0  0.4983
  C  C1321  1  0.062930  0.959810  0.605400  1.0  -0.2518
  C  C1322  1  0.061300  0.931140  0.657700  1.0  -0.3105
  C  C1323  1  0.064810  0.983400  0.856000  1.0  0.143
  C  C1324  1  0.085000  0.963300  0.901500  1.0  -0.2356
  C  C1325  1  0.115150  0.977300  0.927200  1.0  0.1467
  C  C1326  1  0.124130  0.003400  0.895000  1.0  -0.1508
  C  C1327  1  0.103110  0.021400  0.848700  1.0  0.1881
  C  C1328  1  0.137670  0.960400  0.985600  1.0  -0.1647
  C  C1329  1  0.832240  0.015710  0.466700  1.0  0.3359
  C  C1330  1  0.801300  0.022250  0.435400  1.0  -0.2007
  C  C1331  1  0.781830  0.047240  0.461300  1.0  -0.1151
  C  C1332  1  0.792780  0.067690  0.521000  1.0  -0.1568
  C  C1333  1  0.823350  0.062020  0.551300  1.0  -0.034
  C  C1334  1  0.843380  0.036340  0.526900  1.0  -0.1456
  C  C1335  1  0.875250  0.031770  0.564000  1.0  0.5509
  C  C1336  1  0.938130  0.976250  0.571700  1.0  0.5787
  C  C1337  1  0.969080  0.967170  0.612000  1.0  -0.2869
  C  C1338  1  0.959900  0.939600  0.678000  1.0  -0.3303
  C  C1339  1  0.169340  0.915080  0.213600  1.0  0.1413
  C  C1340  1  0.147930  0.930840  0.163200  1.0  -0.1865
  C  C1341  1  0.146950  0.921300  0.086400  1.0  0.1409
  C  C1342  1  0.168650  0.898120  0.064600  1.0  -0.188
  C  C1343  1  0.189550  0.884280  0.115300  1.0  0.1621
  C  C1344  1  0.123300  0.937000  0.030700  1.0  -0.1286
  N  N1345  1  0.290190  0.782620  0.026400  1.0  -0.2392
  N  N1346  1  0.305900  0.755530  0.063900  1.0  -0.2969
  N  N1347  1  0.293700  0.674170  0.079270  1.0  -0.2952
  N  N1348  1  0.265500  0.668810  0.124500  1.0  -0.2541
  N  N1349  1  0.262910  0.676190  0.917400  1.0  -0.2907
  N  N1350  1  0.256180  0.856040  0.204260  1.0  -0.2864
  N  N1351  1  0.253590  0.826640  0.162300  1.0  -0.2373
  N  N1352  1  0.141990  0.560180  0.559400  1.0  -0.3448
  N  N1353  1  0.790190  0.282620  0.526400  1.0  -0.2392
  N  N1354  1  0.805900  0.255530  0.563900  1.0  -0.2969
  N  N1355  1  0.793700  0.174170  0.579270  1.0  -0.2952
  N  N1356  1  0.765500  0.168810  0.624500  1.0  -0.2541
  N  N1357  1  0.762910  0.176190  0.417400  1.0  -0.2907
  N  N1358  1  0.756180  0.356040  0.704260  1.0  -0.2864
  N  N1359  1  0.753590  0.326640  0.662300  1.0  -0.2373
  N  N1360  1  0.641990  0.060180  0.059400  1.0  -0.3448
  N  N1361  1  0.209810  0.217380  0.526400  1.0  -0.2388
  N  N1362  1  0.194100  0.244470  0.563900  1.0  -0.2976
  N  N1363  1  0.206300  0.325830  0.579270  1.0  -0.2953
  N  N1364  1  0.234500  0.331190  0.624500  1.0  -0.2553
  N  N1365  1  0.237090  0.323810  0.417400  1.0  -0.2887
  N  N1366  1  0.243820  0.143960  0.704260  1.0  -0.2854
  N  N1367  1  0.246410  0.173360  0.662300  1.0  -0.2368
  N  N1368  1  0.358010  0.439820  0.059400  1.0  -0.3429
  N  N1369  1  0.709810  0.717380  0.026400  1.0  -0.2388
  N  N1370  1  0.694100  0.744470  0.063900  1.0  -0.2976
  N  N1371  1  0.706300  0.825830  0.079270  1.0  -0.2953
  N  N1372  1  0.734500  0.831190  0.124500  1.0  -0.2553
  N  N1373  1  0.737090  0.823810  0.917400  1.0  -0.2887
  N  N1374  1  0.743820  0.643960  0.204260  1.0  -0.2854
  N  N1375  1  0.746410  0.673360  0.162300  1.0  -0.2368
  N  N1376  1  0.858010  0.939820  0.559400  1.0  -0.3429
  N  N1377  1  0.967380  0.540190  0.276400  1.0  -0.2397
  N  N1378  1  0.994470  0.555900  0.313900  1.0  -0.2978
  N  N1379  1  0.075830  0.543700  0.329270  1.0  -0.2953
  N  N1380  1  0.081190  0.515500  0.374500  1.0  -0.2554
  N  N1381  1  0.073810  0.512910  0.167400  1.0  -0.2907
  N  N1382  1  0.893960  0.506180  0.454260  1.0  -0.2862
  N  N1383  1  0.923360  0.503590  0.412300  1.0  -0.2385
  N  N1384  1  0.189820  0.391990  0.809400  1.0  -0.3423
  N  N1385  1  0.467380  0.040190  0.776400  1.0  -0.2397
  N  N1386  1  0.494470  0.055900  0.813900  1.0  -0.2978
  N  N1387  1  0.575830  0.043700  0.829270  1.0  -0.2953
  N  N1388  1  0.581190  0.015500  0.874500  1.0  -0.2554
  N  N1389  1  0.573810  0.012910  0.667400  1.0  -0.2907
  N  N1390  1  0.393960  0.006180  0.954260  1.0  -0.2862
  N  N1391  1  0.423360  0.003590  0.912300  1.0  -0.2385
  N  N1392  1  0.689820  0.891990  0.309400  1.0  -0.3423
  N  N1393  1  0.532620  0.459810  0.776400  1.0  -0.2397
  N  N1394  1  0.505530  0.444100  0.813900  1.0  -0.2996
  N  N1395  1  0.424170  0.456300  0.829270  1.0  -0.2954
  N  N1396  1  0.418810  0.484500  0.874500  1.0  -0.255
  N  N1397  1  0.426190  0.487090  0.667400  1.0  -0.2882
  N  N1398  1  0.606040  0.493820  0.954260  1.0  -0.2871
  N  N1399  1  0.576640  0.496410  0.912300  1.0  -0.2372
  N  N1400  1  0.310180  0.608010  0.309400  1.0  -0.3435
  N  N1401  1  0.032620  0.959810  0.276400  1.0  -0.2397
  N  N1402  1  0.005530  0.944100  0.313900  1.0  -0.2996
  N  N1403  1  0.924170  0.956300  0.329270  1.0  -0.2954
  N  N1404  1  0.918810  0.984500  0.374500  1.0  -0.255
  N  N1405  1  0.926190  0.987090  0.167400  1.0  -0.2882
  N  N1406  1  0.106040  0.993820  0.454260  1.0  -0.2871
  N  N1407  1  0.076640  0.996410  0.412300  1.0  -0.2372
  N  N1408  1  0.810180  0.108010  0.809400  1.0  -0.3435
  N  N1409  1  0.709810  0.217380  0.973600  1.0  -0.2383
  N  N1410  1  0.694100  0.244470  0.936100  1.0  -0.2984
  N  N1411  1  0.706300  0.325830  0.920730  1.0  -0.2964
  N  N1412  1  0.734500  0.331190  0.875500  1.0  -0.2554
  N  N1413  1  0.737090  0.323810  0.082600  1.0  -0.2881
  N  N1414  1  0.743820  0.143960  0.795740  1.0  -0.2858
  N  N1415  1  0.746410  0.173360  0.837700  1.0  -0.2369
  N  N1416  1  0.858010  0.439820  0.440600  1.0  -0.3429
  N  N1417  1  0.209810  0.717380  0.473600  1.0  -0.2383
  N  N1418  1  0.194100  0.744470  0.436100  1.0  -0.2984
  N  N1419  1  0.206300  0.825830  0.420730  1.0  -0.2964
  N  N1420  1  0.234500  0.831190  0.375500  1.0  -0.2554
  N  N1421  1  0.237090  0.823810  0.582600  1.0  -0.2881
  N  N1422  1  0.243820  0.643960  0.295740  1.0  -0.2858
  N  N1423  1  0.246410  0.673360  0.337700  1.0  -0.2369
  N  N1424  1  0.358010  0.939820  0.940600  1.0  -0.3429
  N  N1425  1  0.790190  0.782620  0.473600  1.0  -0.2393
  N  N1426  1  0.805900  0.755530  0.436100  1.0  -0.2974
  N  N1427  1  0.793700  0.674170  0.420730  1.0  -0.2967
  N  N1428  1  0.765500  0.668810  0.375500  1.0  -0.2542
  N  N1429  1  0.762910  0.676190  0.582600  1.0  -0.2909
  N  N1430  1  0.756180  0.856040  0.295740  1.0  -0.2863
  N  N1431  1  0.753590  0.826640  0.337700  1.0  -0.2372
  N  N1432  1  0.641990  0.560180  0.940600  1.0  -0.3441
  N  N1433  1  0.290190  0.282620  0.973600  1.0  -0.2393
  N  N1434  1  0.305900  0.255530  0.936100  1.0  -0.2974
  N  N1435  1  0.293700  0.174170  0.920730  1.0  -0.2967
  N  N1436  1  0.265500  0.168810  0.875500  1.0  -0.2542
  N  N1437  1  0.262910  0.176190  0.082600  1.0  -0.2909
  N  N1438  1  0.256180  0.356040  0.795740  1.0  -0.2863
  N  N1439  1  0.253590  0.326640  0.837700  1.0  -0.2372
  N  N1440  1  0.141990  0.060180  0.440600  1.0  -0.3441
  N  N1441  1  0.032620  0.459810  0.723600  1.0  -0.2396
  N  N1442  1  0.005530  0.444100  0.686100  1.0  -0.3006
  N  N1443  1  0.924170  0.456300  0.670730  1.0  -0.2969
  N  N1444  1  0.918810  0.484500  0.625500  1.0  -0.2549
  N  N1445  1  0.926190  0.487090  0.832600  1.0  -0.2883
  N  N1446  1  0.106040  0.493820  0.545740  1.0  -0.2869
  N  N1447  1  0.076640  0.496410  0.587700  1.0  -0.2371
  N  N1448  1  0.810180  0.608010  0.190600  1.0  -0.3435
  N  N1449  1  0.532620  0.959810  0.223600  1.0  -0.2396
  N  N1450  1  0.505530  0.944100  0.186100  1.0  -0.3006
  N  N1451  1  0.424170  0.956300  0.170730  1.0  -0.2969
  N  N1452  1  0.418810  0.984500  0.125500  1.0  -0.2549
  N  N1453  1  0.426190  0.987090  0.332600  1.0  -0.2883
  N  N1454  1  0.606040  0.993820  0.045740  1.0  -0.2869
  N  N1455  1  0.576640  0.996410  0.087700  1.0  -0.2371
  N  N1456  1  0.310180  0.108010  0.690600  1.0  -0.3435
  N  N1457  1  0.467380  0.540190  0.223600  1.0  -0.2397
  N  N1458  1  0.494470  0.555900  0.186100  1.0  -0.2985
  N  N1459  1  0.575830  0.543700  0.170730  1.0  -0.2971
  N  N1460  1  0.581190  0.515500  0.125500  1.0  -0.2556
  N  N1461  1  0.573810  0.512910  0.332600  1.0  -0.2902
  N  N1462  1  0.393960  0.506180  0.045740  1.0  -0.2861
  N  N1463  1  0.423360  0.503590  0.087700  1.0  -0.2385
  N  N1464  1  0.689820  0.391990  0.690600  1.0  -0.3424
  N  N1465  1  0.967380  0.040190  0.723600  1.0  -0.2397
  N  N1466  1  0.994470  0.055900  0.686100  1.0  -0.2985
  N  N1467  1  0.075830  0.043700  0.670730  1.0  -0.2971
  N  N1468  1  0.081190  0.015500  0.625500  1.0  -0.2556
  N  N1469  1  0.073810  0.012910  0.832600  1.0  -0.2902
  N  N1470  1  0.893960  0.006180  0.545740  1.0  -0.2861
  N  N1471  1  0.923360  0.003590  0.587700  1.0  -0.2385
  N  N1472  1  0.189820  0.891990  0.190600  1.0  -0.3424
  O  O1473  1  0.270790  0.844930  0.003600  1.0  -0.5827
  O  O1474  1  0.277510  0.745270  0.934350  1.0  -0.5782
  O  O1475  1  0.320310  0.795780  0.147420  1.0  -0.5933
  O  O1476  1  0.330590  0.699690  0.964930  1.0  -0.5728
  O  O1477  1  0.317440  0.634380  0.152140  1.0  -0.575
  O  O1478  1  0.246930  0.712620  0.055710  1.0  -0.5752
  O  O1479  1  0.240600  0.901050  0.312630  1.0  -0.5526
  O  O1480  1  0.302920  0.865180  0.135730  1.0  -0.5839
  O  O1481  1  0.205260  0.823410  0.227360  1.0  -0.5817
  O  O1482  1  0.770790  0.344930  0.503600  1.0  -0.5827
  O  O1483  1  0.777510  0.245270  0.434350  1.0  -0.5782
  O  O1484  1  0.820310  0.295780  0.647420  1.0  -0.5933
  O  O1485  1  0.830590  0.199690  0.464930  1.0  -0.5728
  O  O1486  1  0.817440  0.134380  0.652140  1.0  -0.575
  O  O1487  1  0.746930  0.212620  0.555710  1.0  -0.5752
  O  O1488  1  0.740600  0.401050  0.812630  1.0  -0.5526
  O  O1489  1  0.802920  0.365180  0.635730  1.0  -0.5839
  O  O1490  1  0.705260  0.323410  0.727360  1.0  -0.5817
  O  O1491  1  0.229210  0.155070  0.503600  1.0  -0.5812
  O  O1492  1  0.222490  0.254730  0.434350  1.0  -0.5772
  O  O1493  1  0.179690  0.204220  0.647420  1.0  -0.5919
  O  O1494  1  0.169410  0.300310  0.464930  1.0  -0.5761
  O  O1495  1  0.182560  0.365620  0.652140  1.0  -0.5746
  O  O1496  1  0.253070  0.287380  0.555710  1.0  -0.5737
  O  O1497  1  0.259400  0.098950  0.812630  1.0  -0.5518
  O  O1498  1  0.197080  0.134820  0.635730  1.0  -0.5832
  O  O1499  1  0.294740  0.176590  0.727360  1.0  -0.5815
  O  O1500  1  0.729210  0.655070  0.003600  1.0  -0.5812
  O  O1501  1  0.722490  0.754730  0.934350  1.0  -0.5772
  O  O1502  1  0.679690  0.704220  0.147420  1.0  -0.5919
  O  O1503  1  0.669410  0.800310  0.964930  1.0  -0.5761
  O  O1504  1  0.682560  0.865620  0.152140  1.0  -0.5746
  O  O1505  1  0.753070  0.787380  0.055710  1.0  -0.5737
  O  O1506  1  0.759400  0.598950  0.312630  1.0  -0.5518
  O  O1507  1  0.697080  0.634820  0.135730  1.0  -0.5832
  O  O1508  1  0.794740  0.676590  0.227360  1.0  -0.5815
  O  O1509  1  0.905070  0.520790  0.253600  1.0  -0.5808
  O  O1510  1  0.004730  0.527510  0.184350  1.0  -0.5788
  O  O1511  1  0.954220  0.570310  0.397420  1.0  -0.5918
  O  O1512  1  0.050310  0.580590  0.214930  1.0  -0.5737
  O  O1513  1  0.115620  0.567440  0.402140  1.0  -0.5748
  O  O1514  1  0.037380  0.496930  0.305710  1.0  -0.5746
  O  O1515  1  0.848950  0.490600  0.562630  1.0  -0.5533
  O  O1516  1  0.884820  0.552920  0.385730  1.0  -0.5853
  O  O1517  1  0.926590  0.455260  0.477360  1.0  -0.5843
  O  O1518  1  0.405070  0.020790  0.753600  1.0  -0.5808
  O  O1519  1  0.504730  0.027510  0.684350  1.0  -0.5788
  O  O1520  1  0.454220  0.070310  0.897420  1.0  -0.5918
  O  O1521  1  0.550310  0.080590  0.714930  1.0  -0.5737
  O  O1522  1  0.615620  0.067440  0.902140  1.0  -0.5748
  O  O1523  1  0.537380  0.996930  0.805710  1.0  -0.5746
  O  O1524  1  0.348950  0.990600  0.062630  1.0  -0.5533
  O  O1525  1  0.384820  0.052920  0.885730  1.0  -0.5853
  O  O1526  1  0.426590  0.955260  0.977360  1.0  -0.5843
  O  O1527  1  0.594930  0.479210  0.753600  1.0  -0.5815
  O  O1528  1  0.495270  0.472490  0.684350  1.0  -0.5756
  O  O1529  1  0.545780  0.429690  0.897420  1.0  -0.5919
  O  O1530  1  0.449690  0.419410  0.714930  1.0  -0.5733
  O  O1531  1  0.384380  0.432560  0.902140  1.0  -0.575
  O  O1532  1  0.462620  0.503070  0.805710  1.0  -0.5745
  O  O1533  1  0.651050  0.509400  0.062630  1.0  -0.5536
  O  O1534  1  0.615180  0.447080  0.885730  1.0  -0.5846
  O  O1535  1  0.573410  0.544740  0.977360  1.0  -0.5855
  O  O1536  1  0.094930  0.979210  0.253600  1.0  -0.5815
  O  O1537  1  0.995270  0.972490  0.184350  1.0  -0.5756
  O  O1538  1  0.045780  0.929690  0.397420  1.0  -0.5919
  O  O1539  1  0.949690  0.919410  0.214930  1.0  -0.5733
  O  O1540  1  0.884380  0.932560  0.402140  1.0  -0.575
  O  O1541  1  0.962620  0.003070  0.305710  1.0  -0.5745
  O  O1542  1  0.151050  0.009400  0.562630  1.0  -0.5536
  O  O1543  1  0.115180  0.947080  0.385730  1.0  -0.5846
  O  O1544  1  0.073410  0.044740  0.477360  1.0  -0.5855
  O  O1545  1  0.729210  0.155070  0.996400  1.0  -0.5824
  O  O1546  1  0.722490  0.254730  0.065650  1.0  -0.5782
  O  O1547  1  0.679690  0.204220  0.852580  1.0  -0.5921
  O  O1548  1  0.669410  0.300310  0.035070  1.0  -0.575
  O  O1549  1  0.682560  0.365620  0.847860  1.0  -0.5734
  O  O1550  1  0.753070  0.287380  0.944290  1.0  -0.5744
  O  O1551  1  0.759400  0.098950  0.687370  1.0  -0.5505
  O  O1552  1  0.697080  0.134820  0.864270  1.0  -0.5828
  O  O1553  1  0.794740  0.176590  0.772640  1.0  -0.5813
  O  O1554  1  0.229210  0.655070  0.496400  1.0  -0.5824
  O  O1555  1  0.222490  0.754730  0.565650  1.0  -0.5782
  O  O1556  1  0.179690  0.704220  0.352580  1.0  -0.5921
  O  O1557  1  0.169410  0.800310  0.535070  1.0  -0.575
  O  O1558  1  0.182560  0.865620  0.347860  1.0  -0.5734
  O  O1559  1  0.253070  0.787380  0.444290  1.0  -0.5744
  O  O1560  1  0.259400  0.598950  0.187370  1.0  -0.5505
  O  O1561  1  0.197080  0.634820  0.364270  1.0  -0.5828
  O  O1562  1  0.294740  0.676590  0.272640  1.0  -0.5813
  O  O1563  1  0.770790  0.844930  0.496400  1.0  -0.5832
  O  O1564  1  0.777510  0.745270  0.565650  1.0  -0.5772
  O  O1565  1  0.820310  0.795780  0.352580  1.0  -0.5941
  O  O1566  1  0.830590  0.699690  0.535070  1.0  -0.5732
  O  O1567  1  0.817440  0.634380  0.347860  1.0  -0.5744
  O  O1568  1  0.746930  0.712620  0.444290  1.0  -0.5756
  O  O1569  1  0.740600  0.901050  0.187370  1.0  -0.5513
  O  O1570  1  0.802920  0.865180  0.364270  1.0  -0.5838
  O  O1571  1  0.705260  0.823410  0.272640  1.0  -0.5818
  O  O1572  1  0.270790  0.344930  0.996400  1.0  -0.5832
  O  O1573  1  0.277510  0.245270  0.065650  1.0  -0.5772
  O  O1574  1  0.320310  0.295780  0.852580  1.0  -0.5941
  O  O1575  1  0.330590  0.199690  0.035070  1.0  -0.5732
  O  O1576  1  0.317440  0.134380  0.847860  1.0  -0.5744
  O  O1577  1  0.246930  0.212620  0.944290  1.0  -0.5756
  O  O1578  1  0.240600  0.401050  0.687370  1.0  -0.5513
  O  O1579  1  0.302920  0.365180  0.864270  1.0  -0.5838
  O  O1580  1  0.205260  0.323410  0.772640  1.0  -0.5818
  O  O1581  1  0.094930  0.479210  0.746400  1.0  -0.5823
  O  O1582  1  0.995270  0.472490  0.815650  1.0  -0.5756
  O  O1583  1  0.045780  0.429690  0.602580  1.0  -0.5922
  O  O1584  1  0.949690  0.419410  0.785070  1.0  -0.5738
  O  O1585  1  0.884380  0.432560  0.597860  1.0  -0.5746
  O  O1586  1  0.962620  0.503070  0.694290  1.0  -0.5754
  O  O1587  1  0.151050  0.509400  0.437370  1.0  -0.5522
  O  O1588  1  0.115180  0.447080  0.614270  1.0  -0.5851
  O  O1589  1  0.073410  0.544740  0.522640  1.0  -0.5853
  O  O1590  1  0.594930  0.979210  0.246400  1.0  -0.5823
  O  O1591  1  0.495270  0.972490  0.315650  1.0  -0.5756
  O  O1592  1  0.545780  0.929690  0.102580  1.0  -0.5922
  O  O1593  1  0.449690  0.919410  0.285070  1.0  -0.5738
  O  O1594  1  0.384380  0.932560  0.097860  1.0  -0.5746
  O  O1595  1  0.462620  0.003070  0.194290  1.0  -0.5754
  O  O1596  1  0.651050  0.009400  0.937370  1.0  -0.5522
  O  O1597  1  0.615180  0.947080  0.114270  1.0  -0.5851
  O  O1598  1  0.573410  0.044740  0.022640  1.0  -0.5853
  O  O1599  1  0.405070  0.520790  0.246400  1.0  -0.5815
  O  O1600  1  0.504730  0.527510  0.315650  1.0  -0.5777
  O  O1601  1  0.454220  0.570310  0.102580  1.0  -0.592
  O  O1602  1  0.550310  0.580590  0.285070  1.0  -0.5717
  O  O1603  1  0.615620  0.567440  0.097860  1.0  -0.5744
  O  O1604  1  0.537380  0.496930  0.194290  1.0  -0.5752
  O  O1605  1  0.348950  0.490600  0.937370  1.0  -0.552
  O  O1606  1  0.384820  0.552920  0.114270  1.0  -0.5852
  O  O1607  1  0.426590  0.455260  0.022640  1.0  -0.5833
  O  O1608  1  0.905070  0.020790  0.746400  1.0  -0.5815
  O  O1609  1  0.004730  0.027510  0.815650  1.0  -0.5777
  O  O1610  1  0.954220  0.070310  0.602580  1.0  -0.592
  O  O1611  1  0.050310  0.080590  0.785070  1.0  -0.5717
  O  O1612  1  0.115620  0.067440  0.597860  1.0  -0.5744
  O  O1613  1  0.037380  0.996930  0.694290  1.0  -0.5752
  O  O1614  1  0.848950  0.990600  0.437370  1.0  -0.552
  O  O1615  1  0.884820  0.052920  0.614270  1.0  -0.5852
  O  O1616  1  0.926590  0.955260  0.522640  1.0  -0.5833
