# generated using pymatgen
data_Mn3H33C39N8O9
_symmetry_space_group_name_H-M   'P 1'
_cell_length_a   39.91600000
_cell_length_b   39.91600000
_cell_length_c   18.03300000
_cell_angle_alpha   90.00000000
_cell_angle_beta   90.00000000
_cell_angle_gamma   90.00000000
_symmetry_Int_Tables_number   1
_chemical_formula_structural   Mn3H33C39N8O9
_chemical_formula_sum   'Mn48 H528 C624 N128 O144'
_cell_volume   28731.74548085
_cell_formula_units_Z   16
loop_
 _symmetry_equiv_pos_site_id
 _symmetry_equiv_pos_as_xyz
  1  'x, y, z'
loop_
 _atom_site_type_symbol
 _atom_site_label
 _atom_site_symmetry_multiplicity
 _atom_site_fract_x
 _atom_site_fract_y
 _atom_site_fract_z
 _atom_site_occupancy
 _atom_site_charge
  Mn  Mn1  1  0.074000  0.042480  0.168390  1.0  1.0011
  Mn  Mn2  1  0.958490  0.032590  0.253080  1.0  0.9981
  Mn  Mn3  1  0.112260  0.971750  0.964030  1.0  0.9859
  Mn  Mn4  1  0.574000  0.542480  0.668390  1.0  1.0011
  Mn  Mn5  1  0.458490  0.532590  0.753080  1.0  0.9981
  Mn  Mn6  1  0.612260  0.471750  0.464030  1.0  0.9859
  Mn  Mn7  1  0.426000  0.957520  0.668390  1.0  0.9991
  Mn  Mn8  1  0.541510  0.967410  0.753080  1.0  0.9976
  Mn  Mn9  1  0.387740  0.028250  0.464030  1.0  0.9848
  Mn  Mn10  1  0.926000  0.457520  0.168390  1.0  0.9991
  Mn  Mn11  1  0.041510  0.467410  0.253080  1.0  0.9976
  Mn  Mn12  1  0.887740  0.528250  0.964030  1.0  0.9848
  Mn  Mn13  1  0.707520  0.324000  0.418390  1.0  1.0005
  Mn  Mn14  1  0.717410  0.208490  0.503080  1.0  0.9981
  Mn  Mn15  1  0.778250  0.362260  0.214030  1.0  0.985
  Mn  Mn16  1  0.207520  0.824000  0.918390  1.0  1.0005
  Mn  Mn17  1  0.217410  0.708490  0.003080  1.0  0.9981
  Mn  Mn18  1  0.278250  0.862260  0.714030  1.0  0.985
  Mn  Mn19  1  0.792480  0.676000  0.918390  1.0  0.9987
  Mn  Mn20  1  0.782590  0.791510  0.003080  1.0  0.9972
  Mn  Mn21  1  0.721750  0.637740  0.714030  1.0  0.9838
  Mn  Mn22  1  0.292480  0.176000  0.418390  1.0  0.9987
  Mn  Mn23  1  0.282590  0.291510  0.503080  1.0  0.9972
  Mn  Mn24  1  0.221750  0.137740  0.214030  1.0  0.9838
  Mn  Mn25  1  0.926000  0.957520  0.831610  1.0  1.001
  Mn  Mn26  1  0.041510  0.967410  0.746920  1.0  1.0039
  Mn  Mn27  1  0.887740  0.028250  0.035970  1.0  0.9854
  Mn  Mn28  1  0.426000  0.457520  0.331610  1.0  1.001
  Mn  Mn29  1  0.541510  0.467410  0.246920  1.0  1.0039
  Mn  Mn30  1  0.387740  0.528250  0.535970  1.0  0.9854
  Mn  Mn31  1  0.574000  0.042480  0.331610  1.0  1.0032
  Mn  Mn32  1  0.458490  0.032590  0.246920  1.0  1.0042
  Mn  Mn33  1  0.612260  0.971750  0.535970  1.0  0.9864
  Mn  Mn34  1  0.074000  0.542480  0.831610  1.0  1.0032
  Mn  Mn35  1  0.958490  0.532590  0.746920  1.0  1.0042
  Mn  Mn36  1  0.112260  0.471750  0.035970  1.0  0.9864
  Mn  Mn37  1  0.292480  0.676000  0.581610  1.0  1.0008
  Mn  Mn38  1  0.282590  0.791510  0.496920  1.0  1.0041
  Mn  Mn39  1  0.221750  0.637740  0.785970  1.0  0.9845
  Mn  Mn40  1  0.792480  0.176000  0.081610  1.0  1.0008
  Mn  Mn41  1  0.782590  0.291510  0.996920  1.0  1.0041
  Mn  Mn42  1  0.721750  0.137740  0.285970  1.0  0.9845
  Mn  Mn43  1  0.207520  0.324000  0.081610  1.0  1.0022
  Mn  Mn44  1  0.217410  0.208490  0.996920  1.0  1.0046
  Mn  Mn45  1  0.278250  0.362260  0.285970  1.0  0.9856
  Mn  Mn46  1  0.707520  0.824000  0.581610  1.0  1.0022
  Mn  Mn47  1  0.717410  0.708490  0.496920  1.0  1.0046
  Mn  Mn48  1  0.778250  0.862260  0.785970  1.0  0.9856
  H  H49  1  0.131500  0.975200  0.309500  1.0  0.1317
  H  H50  1  0.118100  0.953400  0.426400  1.0  0.0983
  H  H51  1  0.066500  0.965600  0.482100  1.0  0.1124
  H  H52  1  0.024800  0.990100  0.411700  1.0  0.0984
  H  H53  1  0.977800  0.076000  0.052500  1.0  0.1238
  H  H54  1  0.997600  0.109500  0.074200  1.0  0.1346
  H  H55  1  0.969200  0.095100  0.128100  1.0  0.1398
  H  H56  1  0.939700  0.127400  0.363800  1.0  0.1139
  H  H57  1  0.901100  0.169900  0.339900  1.0  0.1087
  H  H58  1  0.866200  0.166800  0.236200  1.0  0.1107
  H  H59  1  0.868200  0.119800  0.160400  1.0  0.1015
  H  H60  1  0.950000  0.955200  0.067600  1.0  0.1426
  H  H61  1  0.911800  0.951800  0.093600  1.0  0.1333
  H  H62  1  0.941200  0.936400  0.143500  1.0  0.1362
  H  H63  1  0.959900  0.969700  0.358300  1.0  0.1022
  H  H64  1  0.926700  0.939300  0.441600  1.0  0.1228
  H  H65  1  0.886200  0.030300  0.326300  1.0  0.0539
  H  H66  1  0.852600  0.999100  0.401300  1.0  0.0988
  H  H67  1  0.849200  0.971500  0.517200  1.0  0.0986
  H  H68  1  0.850300  0.938000  0.469200  1.0  0.0982
  H  H69  1  0.208900  0.010800  0.897300  1.0  0.1055
  H  H70  1  0.241500  0.054000  0.944200  1.0  0.111
  H  H71  1  0.221900  0.086300  0.044800  1.0  0.1155
  H  H72  1  0.170100  0.075200  0.093700  1.0  0.0861
  H  H73  1  0.024000  0.951300  0.114400  1.0  0.1338
  H  H74  1  0.015600  0.990500  0.111300  1.0  0.1229
  H  H75  1  0.008100  0.967200  0.040900  1.0  0.1233
  H  H76  1  0.821400  0.928300  0.769300  1.0  0.076
  H  H77  1  0.857800  0.955800  0.691100  1.0  0.1231
  H  H78  1  0.807800  0.857000  0.623600  1.0  0.0705
  H  H79  1  0.844700  0.882000  0.541400  1.0  0.1254
  H  H80  1  0.894500  0.954200  0.582200  1.0  0.0848
  H  H81  1  0.895900  0.920600  0.533800  1.0  0.0752
  H  H82  1  0.631500  0.475200  0.809500  1.0  0.1317
  H  H83  1  0.618100  0.453400  0.926400  1.0  0.0983
  H  H84  1  0.566500  0.465600  0.982100  1.0  0.1124
  H  H85  1  0.524800  0.490100  0.911700  1.0  0.0984
  H  H86  1  0.477800  0.576000  0.552500  1.0  0.1238
  H  H87  1  0.497600  0.609500  0.574200  1.0  0.1346
  H  H88  1  0.469200  0.595100  0.628100  1.0  0.1398
  H  H89  1  0.439700  0.627400  0.863800  1.0  0.1139
  H  H90  1  0.401100  0.669900  0.839900  1.0  0.1087
  H  H91  1  0.366200  0.666800  0.736200  1.0  0.1107
  H  H92  1  0.368200  0.619800  0.660400  1.0  0.1015
  H  H93  1  0.450000  0.455200  0.567600  1.0  0.1426
  H  H94  1  0.411800  0.451800  0.593600  1.0  0.1333
  H  H95  1  0.441200  0.436400  0.643500  1.0  0.1362
  H  H96  1  0.459900  0.469700  0.858300  1.0  0.1022
  H  H97  1  0.426700  0.439300  0.941600  1.0  0.1228
  H  H98  1  0.386200  0.530300  0.826300  1.0  0.0539
  H  H99  1  0.352600  0.499100  0.901300  1.0  0.0988
  H  H100  1  0.349200  0.471500  0.017200  1.0  0.0986
  H  H101  1  0.350300  0.438000  0.969200  1.0  0.0982
  H  H102  1  0.708900  0.510800  0.397300  1.0  0.1055
  H  H103  1  0.741500  0.554000  0.444200  1.0  0.111
  H  H104  1  0.721900  0.586300  0.544800  1.0  0.1155
  H  H105  1  0.670100  0.575200  0.593700  1.0  0.0861
  H  H106  1  0.524000  0.451300  0.614400  1.0  0.1338
  H  H107  1  0.515600  0.490500  0.611300  1.0  0.1229
  H  H108  1  0.508100  0.467200  0.540900  1.0  0.1233
  H  H109  1  0.321400  0.428300  0.269300  1.0  0.076
  H  H110  1  0.357800  0.455800  0.191100  1.0  0.1231
  H  H111  1  0.307800  0.357000  0.123600  1.0  0.0705
  H  H112  1  0.344700  0.382000  0.041400  1.0  0.1254
  H  H113  1  0.394500  0.454200  0.082200  1.0  0.0848
  H  H114  1  0.395900  0.420600  0.033800  1.0  0.0752
  H  H115  1  0.368500  0.024800  0.809500  1.0  0.1322
  H  H116  1  0.381900  0.046600  0.926400  1.0  0.0991
  H  H117  1  0.433500  0.034400  0.982100  1.0  0.1121
  H  H118  1  0.475200  0.009900  0.911700  1.0  0.0986
  H  H119  1  0.522200  0.924000  0.552500  1.0  0.1249
  H  H120  1  0.502400  0.890500  0.574200  1.0  0.1334
  H  H121  1  0.530800  0.904900  0.628100  1.0  0.1399
  H  H122  1  0.560300  0.872600  0.863800  1.0  0.114
  H  H123  1  0.598900  0.830100  0.839900  1.0  0.1096
  H  H124  1  0.633800  0.833200  0.736200  1.0  0.1087
  H  H125  1  0.631800  0.880200  0.660400  1.0  0.1004
  H  H126  1  0.550000  0.044800  0.567600  1.0  0.1425
  H  H127  1  0.588200  0.048200  0.593600  1.0  0.1298
  H  H128  1  0.558800  0.063600  0.643500  1.0  0.1352
  H  H129  1  0.540100  0.030300  0.858300  1.0  0.1023
  H  H130  1  0.573300  0.060700  0.941600  1.0  0.1234
  H  H131  1  0.613800  0.969700  0.826300  1.0  0.0538
  H  H132  1  0.647400  0.000900  0.901300  1.0  0.0985
  H  H133  1  0.650800  0.028500  0.017200  1.0  0.0981
  H  H134  1  0.649700  0.062000  0.969200  1.0  0.0958
  H  H135  1  0.291100  0.989200  0.397300  1.0  0.106
  H  H136  1  0.258500  0.946000  0.444200  1.0  0.1104
  H  H137  1  0.278100  0.913700  0.544800  1.0  0.1161
  H  H138  1  0.329900  0.924800  0.593700  1.0  0.0861
  H  H139  1  0.476000  0.048700  0.614400  1.0  0.1327
  H  H140  1  0.484400  0.009500  0.611300  1.0  0.1234
  H  H141  1  0.491900  0.032800  0.540900  1.0  0.1232
  H  H142  1  0.678600  0.071700  0.269300  1.0  0.0766
  H  H143  1  0.642200  0.044200  0.191100  1.0  0.1228
  H  H144  1  0.692200  0.143000  0.123600  1.0  0.0701
  H  H145  1  0.655300  0.118000  0.041400  1.0  0.1255
  H  H146  1  0.605500  0.045800  0.082200  1.0  0.085
  H  H147  1  0.604100  0.079400  0.033800  1.0  0.0756
  H  H148  1  0.868500  0.524800  0.309500  1.0  0.1322
  H  H149  1  0.881900  0.546600  0.426400  1.0  0.0991
  H  H150  1  0.933500  0.534400  0.482100  1.0  0.1121
  H  H151  1  0.975200  0.509900  0.411700  1.0  0.0986
  H  H152  1  0.022200  0.424000  0.052500  1.0  0.1249
  H  H153  1  0.002400  0.390500  0.074200  1.0  0.1334
  H  H154  1  0.030800  0.404900  0.128100  1.0  0.1399
  H  H155  1  0.060300  0.372600  0.363800  1.0  0.114
  H  H156  1  0.098900  0.330100  0.339900  1.0  0.1096
  H  H157  1  0.133800  0.333200  0.236200  1.0  0.1087
  H  H158  1  0.131800  0.380200  0.160400  1.0  0.1004
  H  H159  1  0.050000  0.544800  0.067600  1.0  0.1425
  H  H160  1  0.088200  0.548200  0.093600  1.0  0.1298
  H  H161  1  0.058800  0.563600  0.143500  1.0  0.1352
  H  H162  1  0.040100  0.530300  0.358300  1.0  0.1023
  H  H163  1  0.073300  0.560700  0.441600  1.0  0.1234
  H  H164  1  0.113800  0.469700  0.326300  1.0  0.0538
  H  H165  1  0.147400  0.500900  0.401300  1.0  0.0985
  H  H166  1  0.150800  0.528500  0.517200  1.0  0.0981
  H  H167  1  0.149700  0.562000  0.469200  1.0  0.0958
  H  H168  1  0.791100  0.489200  0.897300  1.0  0.106
  H  H169  1  0.758500  0.446000  0.944200  1.0  0.1104
  H  H170  1  0.778100  0.413700  0.044800  1.0  0.1161
  H  H171  1  0.829900  0.424800  0.093700  1.0  0.0861
  H  H172  1  0.976000  0.548700  0.114400  1.0  0.1327
  H  H173  1  0.984400  0.509500  0.111300  1.0  0.1234
  H  H174  1  0.991900  0.532800  0.040900  1.0  0.1232
  H  H175  1  0.178600  0.571700  0.769300  1.0  0.0766
  H  H176  1  0.142200  0.544200  0.691100  1.0  0.1228
  H  H177  1  0.192200  0.643000  0.623600  1.0  0.0701
  H  H178  1  0.155300  0.618000  0.541400  1.0  0.1255
  H  H179  1  0.105500  0.545800  0.582200  1.0  0.085
  H  H180  1  0.104100  0.579400  0.533800  1.0  0.0756
  H  H181  1  0.774800  0.381500  0.559500  1.0  0.1324
  H  H182  1  0.796600  0.368100  0.676400  1.0  0.0974
  H  H183  1  0.784400  0.316500  0.732100  1.0  0.111
  H  H184  1  0.759900  0.274800  0.661700  1.0  0.0992
  H  H185  1  0.674000  0.227800  0.302500  1.0  0.1254
  H  H186  1  0.640500  0.247600  0.324200  1.0  0.1333
  H  H187  1  0.654900  0.219200  0.378100  1.0  0.1395
  H  H188  1  0.622600  0.189700  0.613800  1.0  0.1141
  H  H189  1  0.580100  0.151100  0.589900  1.0  0.1084
  H  H190  1  0.583200  0.116200  0.486200  1.0  0.109
  H  H191  1  0.630200  0.118200  0.410400  1.0  0.1019
  H  H192  1  0.794800  0.200000  0.317600  1.0  0.143
  H  H193  1  0.798200  0.161800  0.343600  1.0  0.1326
  H  H194  1  0.813600  0.191200  0.393500  1.0  0.1336
  H  H195  1  0.780300  0.209900  0.608300  1.0  0.1028
  H  H196  1  0.810700  0.176700  0.691600  1.0  0.1225
  H  H197  1  0.719700  0.136200  0.576300  1.0  0.0544
  H  H198  1  0.750900  0.102600  0.651300  1.0  0.0986
  H  H199  1  0.778500  0.099200  0.767200  1.0  0.0974
  H  H200  1  0.812000  0.100300  0.719200  1.0  0.0955
  H  H201  1  0.739200  0.458900  0.147300  1.0  0.1056
  H  H202  1  0.696000  0.491500  0.194200  1.0  0.11
  H  H203  1  0.663700  0.471900  0.294800  1.0  0.1161
  H  H204  1  0.674800  0.420100  0.343700  1.0  0.0867
  H  H205  1  0.798700  0.274000  0.364400  1.0  0.1322
  H  H206  1  0.759500  0.265600  0.361300  1.0  0.1223
  H  H207  1  0.782800  0.258100  0.290900  1.0  0.1242
  H  H208  1  0.821700  0.071400  0.019300  1.0  0.0761
  H  H209  1  0.794200  0.107800  0.941100  1.0  0.1229
  H  H210  1  0.893000  0.057800  0.873600  1.0  0.0694
  H  H211  1  0.868000  0.094700  0.791400  1.0  0.1263
  H  H212  1  0.795800  0.144500  0.832200  1.0  0.0858
  H  H213  1  0.829400  0.145900  0.783800  1.0  0.076
  H  H214  1  0.274800  0.881500  0.059500  1.0  0.1324
  H  H215  1  0.296600  0.868100  0.176400  1.0  0.0974
  H  H216  1  0.284400  0.816500  0.232100  1.0  0.111
  H  H217  1  0.259900  0.774800  0.161700  1.0  0.0992
  H  H218  1  0.174000  0.727800  0.802500  1.0  0.1254
  H  H219  1  0.140500  0.747600  0.824200  1.0  0.1333
  H  H220  1  0.154900  0.719200  0.878100  1.0  0.1395
  H  H221  1  0.122600  0.689700  0.113800  1.0  0.1141
  H  H222  1  0.080100  0.651100  0.089900  1.0  0.1087
  H  H223  1  0.083200  0.616200  0.986200  1.0  0.109
  H  H224  1  0.130200  0.618200  0.910400  1.0  0.1019
  H  H225  1  0.294800  0.700000  0.817600  1.0  0.143
  H  H226  1  0.298200  0.661800  0.843600  1.0  0.1326
  H  H227  1  0.313600  0.691200  0.893500  1.0  0.1336
  H  H228  1  0.280300  0.709900  0.108300  1.0  0.1028
  H  H229  1  0.310700  0.676700  0.191600  1.0  0.1225
  H  H230  1  0.219700  0.636200  0.076300  1.0  0.0544
  H  H231  1  0.250900  0.602600  0.151300  1.0  0.0986
  H  H232  1  0.278500  0.599200  0.267200  1.0  0.0974
  H  H233  1  0.312000  0.600300  0.219200  1.0  0.0955
  H  H234  1  0.239200  0.958900  0.647300  1.0  0.1056
  H  H235  1  0.196000  0.991500  0.694200  1.0  0.11
  H  H236  1  0.163700  0.971900  0.794800  1.0  0.1161
  H  H237  1  0.174800  0.920100  0.843700  1.0  0.0867
  H  H238  1  0.298700  0.774000  0.864400  1.0  0.1322
  H  H239  1  0.259500  0.765600  0.861300  1.0  0.1223
  H  H240  1  0.282800  0.758100  0.790900  1.0  0.1242
  H  H241  1  0.321700  0.571400  0.519300  1.0  0.0761
  H  H242  1  0.294200  0.607800  0.441100  1.0  0.1229
  H  H243  1  0.393000  0.557800  0.373600  1.0  0.0694
  H  H244  1  0.368000  0.594700  0.291400  1.0  0.1263
  H  H245  1  0.295800  0.644500  0.332200  1.0  0.0858
  H  H246  1  0.329400  0.645900  0.283800  1.0  0.076
  H  H247  1  0.725200  0.618500  0.059500  1.0  0.1329
  H  H248  1  0.703400  0.631900  0.176400  1.0  0.0979
  H  H249  1  0.715600  0.683500  0.232100  1.0  0.1112
  H  H250  1  0.740100  0.725200  0.161700  1.0  0.0992
  H  H251  1  0.826000  0.772200  0.802500  1.0  0.1262
  H  H252  1  0.859500  0.752400  0.824200  1.0  0.1342
  H  H253  1  0.845100  0.780800  0.878100  1.0  0.1404
  H  H254  1  0.877400  0.810300  0.113800  1.0  0.1135
  H  H255  1  0.919900  0.848900  0.089900  1.0  0.1084
  H  H256  1  0.916800  0.883800  0.986200  1.0  0.1097
  H  H257  1  0.869800  0.881800  0.910400  1.0  0.1013
  H  H258  1  0.705200  0.800000  0.817600  1.0  0.1433
  H  H259  1  0.701800  0.838200  0.843600  1.0  0.1351
  H  H260  1  0.686400  0.808800  0.893500  1.0  0.1338
  H  H261  1  0.719700  0.790100  0.108300  1.0  0.1022
  H  H262  1  0.689300  0.823300  0.191600  1.0  0.1215
  H  H263  1  0.780300  0.863800  0.076300  1.0  0.0542
  H  H264  1  0.749100  0.897400  0.151300  1.0  0.0985
  H  H265  1  0.721500  0.900800  0.267200  1.0  0.0968
  H  H266  1  0.688000  0.899700  0.219200  1.0  0.0975
  H  H267  1  0.760800  0.541100  0.647300  1.0  0.1062
  H  H268  1  0.804000  0.508500  0.694200  1.0  0.1095
  H  H269  1  0.836300  0.528100  0.794800  1.0  0.1152
  H  H270  1  0.825200  0.579900  0.843700  1.0  0.0865
  H  H271  1  0.701300  0.726000  0.864400  1.0  0.1336
  H  H272  1  0.740500  0.734400  0.861300  1.0  0.1222
  H  H273  1  0.717200  0.741900  0.790900  1.0  0.1253
  H  H274  1  0.678300  0.928600  0.519300  1.0  0.0759
  H  H275  1  0.705800  0.892200  0.441100  1.0  0.1227
  H  H276  1  0.607000  0.942200  0.373600  1.0  0.0696
  H  H277  1  0.632000  0.905300  0.291400  1.0  0.1256
  H  H278  1  0.704200  0.855500  0.332200  1.0  0.0867
  H  H279  1  0.670600  0.854100  0.283800  1.0  0.0746
  H  H280  1  0.225200  0.118500  0.559500  1.0  0.1329
  H  H281  1  0.203400  0.131900  0.676400  1.0  0.0979
  H  H282  1  0.215600  0.183500  0.732100  1.0  0.1112
  H  H283  1  0.240100  0.225200  0.661700  1.0  0.0992
  H  H284  1  0.326000  0.272200  0.302500  1.0  0.1262
  H  H285  1  0.359500  0.252400  0.324200  1.0  0.1342
  H  H286  1  0.345100  0.280800  0.378100  1.0  0.1404
  H  H287  1  0.377400  0.310300  0.613800  1.0  0.1135
  H  H288  1  0.419900  0.348900  0.589900  1.0  0.1082
  H  H289  1  0.416800  0.383800  0.486200  1.0  0.1097
  H  H290  1  0.369800  0.381800  0.410400  1.0  0.1013
  H  H291  1  0.205200  0.300000  0.317600  1.0  0.1433
  H  H292  1  0.201800  0.338200  0.343600  1.0  0.1351
  H  H293  1  0.186400  0.308800  0.393500  1.0  0.1338
  H  H294  1  0.219700  0.290100  0.608300  1.0  0.1022
  H  H295  1  0.189300  0.323300  0.691600  1.0  0.1215
  H  H296  1  0.280300  0.363800  0.576300  1.0  0.0542
  H  H297  1  0.249100  0.397400  0.651300  1.0  0.0985
  H  H298  1  0.221500  0.400800  0.767200  1.0  0.0968
  H  H299  1  0.188000  0.399700  0.719200  1.0  0.0975
  H  H300  1  0.260800  0.041100  0.147300  1.0  0.1062
  H  H301  1  0.304000  0.008500  0.194200  1.0  0.1095
  H  H302  1  0.336300  0.028100  0.294800  1.0  0.1152
  H  H303  1  0.325200  0.079900  0.343700  1.0  0.0865
  H  H304  1  0.201300  0.226000  0.364400  1.0  0.1336
  H  H305  1  0.240500  0.234400  0.361300  1.0  0.1222
  H  H306  1  0.217200  0.241900  0.290900  1.0  0.1253
  H  H307  1  0.178300  0.428600  0.019300  1.0  0.0759
  H  H308  1  0.205800  0.392200  0.941100  1.0  0.1227
  H  H309  1  0.107000  0.442200  0.873600  1.0  0.0696
  H  H310  1  0.132000  0.405300  0.791400  1.0  0.1256
  H  H311  1  0.204200  0.355500  0.832200  1.0  0.0867
  H  H312  1  0.170600  0.354100  0.783800  1.0  0.0746
  H  H313  1  0.868500  0.024800  0.690500  1.0  0.1319
  H  H314  1  0.881900  0.046600  0.573600  1.0  0.1001
  H  H315  1  0.933500  0.034400  0.517900  1.0  0.1122
  H  H316  1  0.975200  0.009900  0.588300  1.0  0.0984
  H  H317  1  0.022200  0.924000  0.947500  1.0  0.125
  H  H318  1  0.002400  0.890500  0.925800  1.0  0.1343
  H  H319  1  0.030800  0.904900  0.871900  1.0  0.1398
  H  H320  1  0.060300  0.872600  0.636200  1.0  0.1133
  H  H321  1  0.098900  0.830100  0.660100  1.0  0.1082
  H  H322  1  0.133800  0.833200  0.763800  1.0  0.109
  H  H323  1  0.131800  0.880200  0.839600  1.0  0.1009
  H  H324  1  0.050000  0.044800  0.932400  1.0  0.1421
  H  H325  1  0.088200  0.048200  0.906400  1.0  0.13
  H  H326  1  0.058800  0.063600  0.856500  1.0  0.1358
  H  H327  1  0.040100  0.030300  0.641700  1.0  0.1024
  H  H328  1  0.073300  0.060700  0.558400  1.0  0.1238
  H  H329  1  0.113800  0.969700  0.673700  1.0  0.0536
  H  H330  1  0.147400  0.000900  0.598700  1.0  0.0983
  H  H331  1  0.150800  0.028500  0.482800  1.0  0.0973
  H  H332  1  0.149700  0.062000  0.530800  1.0  0.0957
  H  H333  1  0.791100  0.989200  0.102700  1.0  0.1065
  H  H334  1  0.758500  0.946000  0.055800  1.0  0.1107
  H  H335  1  0.778100  0.913700  0.955200  1.0  0.1159
  H  H336  1  0.829900  0.924800  0.906300  1.0  0.0857
  H  H337  1  0.976000  0.048700  0.885600  1.0  0.1334
  H  H338  1  0.984400  0.009500  0.888700  1.0  0.1238
  H  H339  1  0.991900  0.032800  0.959100  1.0  0.1229
  H  H340  1  0.178600  0.071700  0.230700  1.0  0.0766
  H  H341  1  0.142200  0.044200  0.308900  1.0  0.1225
  H  H342  1  0.192200  0.143000  0.376400  1.0  0.0696
  H  H343  1  0.155300  0.118000  0.458600  1.0  0.1254
  H  H344  1  0.105500  0.045800  0.417800  1.0  0.0851
  H  H345  1  0.104100  0.079400  0.466200  1.0  0.0756
  H  H346  1  0.368500  0.524800  0.190500  1.0  0.1319
  H  H347  1  0.381900  0.546600  0.073600  1.0  0.1001
  H  H348  1  0.433500  0.534400  0.017900  1.0  0.1122
  H  H349  1  0.475200  0.509900  0.088300  1.0  0.0984
  H  H350  1  0.522200  0.424000  0.447500  1.0  0.125
  H  H351  1  0.502400  0.390500  0.425800  1.0  0.1343
  H  H352  1  0.530800  0.404900  0.371900  1.0  0.1398
  H  H353  1  0.560300  0.372600  0.136200  1.0  0.1133
  H  H354  1  0.598900  0.330100  0.160100  1.0  0.1082
  H  H355  1  0.633800  0.333200  0.263800  1.0  0.109
  H  H356  1  0.631800  0.380200  0.339600  1.0  0.1009
  H  H357  1  0.550000  0.544800  0.432400  1.0  0.1421
  H  H358  1  0.588200  0.548200  0.406400  1.0  0.13
  H  H359  1  0.558800  0.563600  0.356500  1.0  0.1358
  H  H360  1  0.540100  0.530300  0.141700  1.0  0.1024
  H  H361  1  0.573300  0.560700  0.058400  1.0  0.1238
  H  H362  1  0.613800  0.469700  0.173700  1.0  0.0536
  H  H363  1  0.647400  0.500900  0.098700  1.0  0.0983
  H  H364  1  0.650800  0.528500  0.982800  1.0  0.0973
  H  H365  1  0.649700  0.562000  0.030800  1.0  0.0957
  H  H366  1  0.291100  0.489200  0.602700  1.0  0.1065
  H  H367  1  0.258500  0.446000  0.555800  1.0  0.1107
  H  H368  1  0.278100  0.413700  0.455200  1.0  0.1159
  H  H369  1  0.329900  0.424800  0.406300  1.0  0.0857
  H  H370  1  0.476000  0.548700  0.385600  1.0  0.1334
  H  H371  1  0.484400  0.509500  0.388700  1.0  0.1238
  H  H372  1  0.491900  0.532800  0.459100  1.0  0.1229
  H  H373  1  0.678600  0.571700  0.730700  1.0  0.0766
  H  H374  1  0.642200  0.544200  0.808900  1.0  0.1225
  H  H375  1  0.692200  0.643000  0.876400  1.0  0.0696
  H  H376  1  0.655300  0.618000  0.958600  1.0  0.1254
  H  H377  1  0.605500  0.545800  0.917800  1.0  0.0851
  H  H378  1  0.604100  0.579400  0.966200  1.0  0.0756
  H  H379  1  0.631500  0.975200  0.190500  1.0  0.1315
  H  H380  1  0.618100  0.953400  0.073600  1.0  0.0986
  H  H381  1  0.566500  0.965600  0.017900  1.0  0.1124
  H  H382  1  0.524800  0.990100  0.088300  1.0  0.0981
  H  H383  1  0.477800  0.076000  0.447500  1.0  0.1242
  H  H384  1  0.497600  0.109500  0.425800  1.0  0.1346
  H  H385  1  0.469200  0.095100  0.371900  1.0  0.1413
  H  H386  1  0.439700  0.127400  0.136200  1.0  0.1145
  H  H387  1  0.401100  0.169900  0.160100  1.0  0.1092
  H  H388  1  0.366200  0.166800  0.263800  1.0  0.1108
  H  H389  1  0.368200  0.119800  0.339600  1.0  0.1015
  H  H390  1  0.450000  0.955200  0.432400  1.0  0.1422
  H  H391  1  0.411800  0.951800  0.406400  1.0  0.1322
  H  H392  1  0.441200  0.936400  0.356500  1.0  0.1349
  H  H393  1  0.459900  0.969700  0.141700  1.0  0.1022
  H  H394  1  0.426700  0.939300  0.058400  1.0  0.1235
  H  H395  1  0.386200  0.030300  0.173700  1.0  0.0537
  H  H396  1  0.352600  0.999100  0.098700  1.0  0.0986
  H  H397  1  0.349200  0.971500  0.982800  1.0  0.0983
  H  H398  1  0.350300  0.938000  0.030800  1.0  0.0992
  H  H399  1  0.708900  0.010800  0.602700  1.0  0.1059
  H  H400  1  0.741500  0.054000  0.555800  1.0  0.1112
  H  H401  1  0.721900  0.086300  0.455200  1.0  0.1156
  H  H402  1  0.670100  0.075200  0.406300  1.0  0.0858
  H  H403  1  0.524000  0.951300  0.385600  1.0  0.1325
  H  H404  1  0.515600  0.990500  0.388700  1.0  0.1234
  H  H405  1  0.508100  0.967200  0.459100  1.0  0.1235
  H  H406  1  0.321400  0.928300  0.730700  1.0  0.0765
  H  H407  1  0.357800  0.955800  0.808900  1.0  0.1232
  H  H408  1  0.307800  0.857000  0.876400  1.0  0.0702
  H  H409  1  0.344700  0.882000  0.958600  1.0  0.1251
  H  H410  1  0.394500  0.954200  0.917800  1.0  0.085
  H  H411  1  0.395900  0.920600  0.966200  1.0  0.075
  H  H412  1  0.131500  0.475200  0.690500  1.0  0.1315
  H  H413  1  0.118100  0.453400  0.573600  1.0  0.0986
  H  H414  1  0.066500  0.465600  0.517900  1.0  0.1124
  H  H415  1  0.024800  0.490100  0.588300  1.0  0.0981
  H  H416  1  0.977800  0.576000  0.947500  1.0  0.1242
  H  H417  1  0.997600  0.609500  0.925800  1.0  0.1346
  H  H418  1  0.969200  0.595100  0.871900  1.0  0.1413
  H  H419  1  0.939700  0.627400  0.636200  1.0  0.1145
  H  H420  1  0.901100  0.669900  0.660100  1.0  0.1092
  H  H421  1  0.866200  0.666800  0.763800  1.0  0.1108
  H  H422  1  0.868200  0.619800  0.839600  1.0  0.1015
  H  H423  1  0.950000  0.455200  0.932400  1.0  0.1422
  H  H424  1  0.911800  0.451800  0.906400  1.0  0.1322
  H  H425  1  0.941200  0.436400  0.856500  1.0  0.1349
  H  H426  1  0.959900  0.469700  0.641700  1.0  0.1022
  H  H427  1  0.926700  0.439300  0.558400  1.0  0.1235
  H  H428  1  0.886200  0.530300  0.673700  1.0  0.0537
  H  H429  1  0.852600  0.499100  0.598700  1.0  0.0986
  H  H430  1  0.849200  0.471500  0.482800  1.0  0.0983
  H  H431  1  0.850300  0.438000  0.530800  1.0  0.0992
  H  H432  1  0.208900  0.510800  0.102700  1.0  0.1059
  H  H433  1  0.241500  0.554000  0.055800  1.0  0.1112
  H  H434  1  0.221900  0.586300  0.955200  1.0  0.1156
  H  H435  1  0.170100  0.575200  0.906300  1.0  0.0858
  H  H436  1  0.024000  0.451300  0.885600  1.0  0.1325
  H  H437  1  0.015600  0.490500  0.888700  1.0  0.1234
  H  H438  1  0.008100  0.467200  0.959100  1.0  0.1235
  H  H439  1  0.821400  0.428300  0.230700  1.0  0.0765
  H  H440  1  0.857800  0.455800  0.308900  1.0  0.1232
  H  H441  1  0.807800  0.357000  0.376400  1.0  0.0702
  H  H442  1  0.844700  0.382000  0.458600  1.0  0.1251
  H  H443  1  0.894500  0.454200  0.417800  1.0  0.085
  H  H444  1  0.895900  0.420600  0.466200  1.0  0.075
  H  H445  1  0.225200  0.618500  0.440500  1.0  0.1328
  H  H446  1  0.203400  0.631900  0.323600  1.0  0.0979
  H  H447  1  0.215600  0.683500  0.267900  1.0  0.1113
  H  H448  1  0.240100  0.725200  0.338300  1.0  0.0991
  H  H449  1  0.326000  0.772200  0.697500  1.0  0.1256
  H  H450  1  0.359500  0.752400  0.675800  1.0  0.1342
  H  H451  1  0.345100  0.780800  0.621900  1.0  0.141
  H  H452  1  0.377400  0.810300  0.386200  1.0  0.1138
  H  H453  1  0.419900  0.848900  0.410100  1.0  0.108
  H  H454  1  0.416800  0.883800  0.513800  1.0  0.1097
  H  H455  1  0.369800  0.881800  0.589600  1.0  0.1014
  H  H456  1  0.205200  0.800000  0.682400  1.0  0.1431
  H  H457  1  0.201800  0.838200  0.656400  1.0  0.1343
  H  H458  1  0.186400  0.808800  0.606500  1.0  0.133
  H  H459  1  0.219700  0.790100  0.391700  1.0  0.1024
  H  H460  1  0.189300  0.823300  0.308400  1.0  0.122
  H  H461  1  0.280300  0.863800  0.423700  1.0  0.0541
  H  H462  1  0.249100  0.897400  0.348700  1.0  0.0982
  H  H463  1  0.221500  0.900800  0.232800  1.0  0.0963
  H  H464  1  0.188000  0.899700  0.280800  1.0  0.0975
  H  H465  1  0.260800  0.541100  0.852700  1.0  0.1068
  H  H466  1  0.304000  0.508500  0.805800  1.0  0.1102
  H  H467  1  0.336300  0.528100  0.705200  1.0  0.1151
  H  H468  1  0.325200  0.579900  0.656300  1.0  0.0861
  H  H469  1  0.201300  0.726000  0.635600  1.0  0.1322
  H  H470  1  0.240500  0.734400  0.638700  1.0  0.122
  H  H471  1  0.217200  0.741900  0.709100  1.0  0.1244
  H  H472  1  0.178300  0.928600  0.980700  1.0  0.0761
  H  H473  1  0.205800  0.892200  0.058900  1.0  0.1226
  H  H474  1  0.107000  0.942200  0.126400  1.0  0.0693
  H  H475  1  0.132000  0.905300  0.208600  1.0  0.1257
  H  H476  1  0.204200  0.855500  0.167800  1.0  0.0861
  H  H477  1  0.170600  0.854100  0.216200  1.0  0.0746
  H  H478  1  0.725200  0.118500  0.940500  1.0  0.1328
  H  H479  1  0.703400  0.131900  0.823600  1.0  0.0979
  H  H480  1  0.715600  0.183500  0.767900  1.0  0.1113
  H  H481  1  0.740100  0.225200  0.838300  1.0  0.0991
  H  H482  1  0.826000  0.272200  0.197500  1.0  0.1256
  H  H483  1  0.859500  0.252400  0.175800  1.0  0.1342
  H  H484  1  0.845100  0.280800  0.121900  1.0  0.141
  H  H485  1  0.877400  0.310300  0.886200  1.0  0.1138
  H  H486  1  0.919900  0.348900  0.910100  1.0  0.1083
  H  H487  1  0.916800  0.383800  0.013800  1.0  0.1097
  H  H488  1  0.869800  0.381800  0.089600  1.0  0.1014
  H  H489  1  0.705200  0.300000  0.182400  1.0  0.1431
  H  H490  1  0.701800  0.338200  0.156400  1.0  0.1343
  H  H491  1  0.686400  0.308800  0.106500  1.0  0.133
  H  H492  1  0.719700  0.290100  0.891700  1.0  0.1024
  H  H493  1  0.689300  0.323300  0.808400  1.0  0.122
  H  H494  1  0.780300  0.363800  0.923700  1.0  0.0541
  H  H495  1  0.749100  0.397400  0.848700  1.0  0.0982
  H  H496  1  0.721500  0.400800  0.732800  1.0  0.0963
  H  H497  1  0.688000  0.399700  0.780800  1.0  0.0975
  H  H498  1  0.760800  0.041100  0.352700  1.0  0.1068
  H  H499  1  0.804000  0.008500  0.305800  1.0  0.1102
  H  H500  1  0.836300  0.028100  0.205200  1.0  0.1151
  H  H501  1  0.825200  0.079900  0.156300  1.0  0.0861
  H  H502  1  0.701300  0.226000  0.135600  1.0  0.1322
  H  H503  1  0.740500  0.234400  0.138700  1.0  0.122
  H  H504  1  0.717200  0.241900  0.209100  1.0  0.1244
  H  H505  1  0.678300  0.428600  0.480700  1.0  0.0761
  H  H506  1  0.705800  0.392200  0.558900  1.0  0.1226
  H  H507  1  0.607000  0.442200  0.626400  1.0  0.0693
  H  H508  1  0.632000  0.405300  0.708600  1.0  0.1257
  H  H509  1  0.704200  0.355500  0.667800  1.0  0.0861
  H  H510  1  0.670600  0.354100  0.716200  1.0  0.0746
  H  H511  1  0.274800  0.381500  0.940500  1.0  0.1323
  H  H512  1  0.296600  0.368100  0.823600  1.0  0.0986
  H  H513  1  0.284400  0.316500  0.767900  1.0  0.1113
  H  H514  1  0.259900  0.274800  0.838300  1.0  0.0992
  H  H515  1  0.174000  0.227800  0.197500  1.0  0.1252
  H  H516  1  0.140500  0.247600  0.175800  1.0  0.134
  H  H517  1  0.154900  0.219200  0.121900  1.0  0.1396
  H  H518  1  0.122600  0.189700  0.886200  1.0  0.1139
  H  H519  1  0.080100  0.151100  0.910100  1.0  0.1083
  H  H520  1  0.083200  0.116200  0.013800  1.0  0.109
  H  H521  1  0.130200  0.118200  0.089600  1.0  0.1019
  H  H522  1  0.294800  0.200000  0.182400  1.0  0.1434
  H  H523  1  0.298200  0.161800  0.156400  1.0  0.1331
  H  H524  1  0.313600  0.191200  0.106500  1.0  0.1342
  H  H525  1  0.280300  0.209900  0.891700  1.0  0.1026
  H  H526  1  0.310700  0.176700  0.808400  1.0  0.123
  H  H527  1  0.219700  0.136200  0.923700  1.0  0.0541
  H  H528  1  0.250900  0.102600  0.848700  1.0  0.0985
  H  H529  1  0.278500  0.099200  0.732800  1.0  0.0968
  H  H530  1  0.312000  0.100300  0.780800  1.0  0.0964
  H  H531  1  0.239200  0.458900  0.352700  1.0  0.1064
  H  H532  1  0.196000  0.491500  0.305800  1.0  0.1104
  H  H533  1  0.163700  0.471900  0.205200  1.0  0.1162
  H  H534  1  0.174800  0.420100  0.156300  1.0  0.0864
  H  H535  1  0.298700  0.274000  0.135600  1.0  0.1329
  H  H536  1  0.259500  0.265600  0.138700  1.0  0.1231
  H  H537  1  0.282800  0.258100  0.209100  1.0  0.1247
  H  H538  1  0.321700  0.071400  0.480700  1.0  0.0762
  H  H539  1  0.294200  0.107800  0.558900  1.0  0.1225
  H  H540  1  0.393000  0.057800  0.626400  1.0  0.0693
  H  H541  1  0.368000  0.094700  0.708600  1.0  0.1251
  H  H542  1  0.295800  0.144500  0.667800  1.0  0.0861
  H  H543  1  0.329400  0.145900  0.716200  1.0  0.0758
  H  H544  1  0.774800  0.881500  0.440500  1.0  0.1323
  H  H545  1  0.796600  0.868100  0.323600  1.0  0.0986
  H  H546  1  0.784400  0.816500  0.267900  1.0  0.1113
  H  H547  1  0.759900  0.774800  0.338300  1.0  0.0992
  H  H548  1  0.674000  0.727800  0.697500  1.0  0.1252
  H  H549  1  0.640500  0.747600  0.675800  1.0  0.134
  H  H550  1  0.654900  0.719200  0.621900  1.0  0.1396
  H  H551  1  0.622600  0.689700  0.386200  1.0  0.1139
  H  H552  1  0.580100  0.651100  0.410100  1.0  0.1079
  H  H553  1  0.583200  0.616200  0.513800  1.0  0.109
  H  H554  1  0.630200  0.618200  0.589600  1.0  0.1019
  H  H555  1  0.794800  0.700000  0.682400  1.0  0.1434
  H  H556  1  0.798200  0.661800  0.656400  1.0  0.1331
  H  H557  1  0.813600  0.691200  0.606500  1.0  0.1342
  H  H558  1  0.780300  0.709900  0.391700  1.0  0.1026
  H  H559  1  0.810700  0.676700  0.308400  1.0  0.123
  H  H560  1  0.719700  0.636200  0.423700  1.0  0.0541
  H  H561  1  0.750900  0.602600  0.348700  1.0  0.0985
  H  H562  1  0.778500  0.599200  0.232800  1.0  0.0968
  H  H563  1  0.812000  0.600300  0.280800  1.0  0.0964
  H  H564  1  0.739200  0.958900  0.852700  1.0  0.1064
  H  H565  1  0.696000  0.991500  0.805800  1.0  0.1104
  H  H566  1  0.663700  0.971900  0.705200  1.0  0.1162
  H  H567  1  0.674800  0.920100  0.656300  1.0  0.0864
  H  H568  1  0.798700  0.774000  0.635600  1.0  0.1329
  H  H569  1  0.759500  0.765600  0.638700  1.0  0.1231
  H  H570  1  0.782800  0.758100  0.709100  1.0  0.1247
  H  H571  1  0.821700  0.571400  0.980700  1.0  0.0762
  H  H572  1  0.794200  0.607800  0.058900  1.0  0.1225
  H  H573  1  0.893000  0.557800  0.126400  1.0  0.0693
  H  H574  1  0.868000  0.594700  0.208600  1.0  0.1251
  H  H575  1  0.795800  0.644500  0.167800  1.0  0.0861
  H  H576  1  0.829400  0.645900  0.216200  1.0  0.0758
  C  C577  1  0.086000  0.998970  0.292900  1.0  0.3494
  C  C578  1  0.110170  0.979400  0.331000  1.0  -0.2127
  C  C579  1  0.102070  0.966600  0.400500  1.0  -0.1116
  C  C580  1  0.070910  0.972600  0.432700  1.0  -0.09
  C  C581  1  0.046910  0.988600  0.392300  1.0  -0.03
  C  C582  1  0.053910  0.002930  0.323200  1.0  -0.1182
  C  C583  1  0.026490  0.019750  0.285000  1.0  0.5801
  C  C584  1  0.012990  0.068510  0.133480  1.0  0.5092
  C  C585  1  0.987180  0.089060  0.093600  1.0  -0.469
  C  C586  1  0.927320  0.097650  0.276400  1.0  0.2793
  C  C587  1  0.925290  0.125660  0.322200  1.0  -0.2179
  C  C588  1  0.902360  0.151110  0.307700  1.0  -0.1072
  C  C589  1  0.881390  0.149170  0.246800  1.0  -0.1079
  C  C590  1  0.882850  0.121380  0.201700  1.0  -0.0407
  C  C591  1  0.905590  0.095210  0.215500  1.0  -0.1733
  C  C592  1  0.904360  0.065630  0.165950  1.0  0.5124
  C  C593  1  0.937730  0.987110  0.151100  1.0  0.5527
  C  C594  1  0.934970  0.954900  0.110500  1.0  -0.4686
  C  C595  1  0.938280  0.977700  0.371100  1.0  0.1591
  C  C596  1  0.918600  0.959600  0.420700  1.0  -0.2141
  C  C597  1  0.896220  0.012200  0.352200  1.0  0.1909
  C  C598  1  0.875830  0.994000  0.399600  1.0  -0.1598
  C  C599  1  0.886610  0.971600  0.439500  1.0  0.2673
  C  C600  1  0.864400  0.954500  0.495700  1.0  -0.1813
  C  C601  1  0.168400  0.016900  0.965700  1.0  0.3332
  C  C602  1  0.200540  0.023980  0.937000  1.0  -0.2236
  C  C603  1  0.220100  0.049510  0.965200  1.0  -0.1026
  C  C604  1  0.208530  0.068870  0.024800  1.0  -0.1441
  C  C605  1  0.177870  0.062220  0.053100  1.0  -0.055
  C  C606  1  0.157260  0.036970  0.025000  1.0  -0.1419
  C  C607  1  0.123870  0.032100  0.059900  1.0  0.5535
  C  C608  1  0.057820  0.978020  0.053400  1.0  0.5905
  C  C609  1  0.023390  0.971140  0.082500  1.0  -0.4457
  C  C610  1  0.826410  0.918480  0.722500  1.0  0.1844
  C  C611  1  0.848280  0.935060  0.676500  1.0  -0.2035
  C  C612  1  0.818650  0.877140  0.638200  1.0  0.1785
  C  C613  1  0.840600  0.891900  0.588400  1.0  -0.2146
  C  C614  1  0.856210  0.921020  0.608100  1.0  0.1094
  C  C615  1  0.880600  0.937800  0.554500  1.0  -0.2022
  C  C616  1  0.586000  0.498970  0.792900  1.0  0.3494
  C  C617  1  0.610170  0.479400  0.831000  1.0  -0.2127
  C  C618  1  0.602070  0.466600  0.900500  1.0  -0.1116
  C  C619  1  0.570910  0.472600  0.932700  1.0  -0.09
  C  C620  1  0.546910  0.488600  0.892300  1.0  -0.03
  C  C621  1  0.553910  0.502930  0.823200  1.0  -0.1182
  C  C622  1  0.526490  0.519750  0.785000  1.0  0.5801
  C  C623  1  0.512990  0.568510  0.633480  1.0  0.5092
  C  C624  1  0.487180  0.589060  0.593600  1.0  -0.469
  C  C625  1  0.427320  0.597650  0.776400  1.0  0.2793
  C  C626  1  0.425290  0.625660  0.822200  1.0  -0.2179
  C  C627  1  0.402360  0.651110  0.807700  1.0  -0.1072
  C  C628  1  0.381390  0.649170  0.746800  1.0  -0.1079
  C  C629  1  0.382850  0.621380  0.701700  1.0  -0.0407
  C  C630  1  0.405590  0.595210  0.715500  1.0  -0.1733
  C  C631  1  0.404360  0.565630  0.665950  1.0  0.5124
  C  C632  1  0.437730  0.487110  0.651100  1.0  0.5527
  C  C633  1  0.434970  0.454900  0.610500  1.0  -0.4686
  C  C634  1  0.438280  0.477700  0.871100  1.0  0.1591
  C  C635  1  0.418600  0.459600  0.920700  1.0  -0.2141
  C  C636  1  0.396220  0.512200  0.852200  1.0  0.1909
  C  C637  1  0.375830  0.494000  0.899600  1.0  -0.1598
  C  C638  1  0.386610  0.471600  0.939500  1.0  0.2673
  C  C639  1  0.364400  0.454500  0.995700  1.0  -0.1813
  C  C640  1  0.668400  0.516900  0.465700  1.0  0.3332
  C  C641  1  0.700540  0.523980  0.437000  1.0  -0.2236
  C  C642  1  0.720100  0.549510  0.465200  1.0  -0.1026
  C  C643  1  0.708530  0.568870  0.524800  1.0  -0.1441
  C  C644  1  0.677870  0.562220  0.553100  1.0  -0.055
  C  C645  1  0.657260  0.536970  0.525000  1.0  -0.1419
  C  C646  1  0.623870  0.532100  0.559900  1.0  0.5535
  C  C647  1  0.557820  0.478020  0.553400  1.0  0.5905
  C  C648  1  0.523390  0.471140  0.582500  1.0  -0.4457
  C  C649  1  0.326410  0.418480  0.222500  1.0  0.1844
  C  C650  1  0.348280  0.435060  0.176500  1.0  -0.2035
  C  C651  1  0.318650  0.377140  0.138200  1.0  0.1785
  C  C652  1  0.340600  0.391900  0.088400  1.0  -0.2146
  C  C653  1  0.356210  0.421020  0.108100  1.0  0.1094
  C  C654  1  0.380600  0.437800  0.054500  1.0  -0.2022
  C  C655  1  0.414000  0.001030  0.792900  1.0  0.3497
  C  C656  1  0.389830  0.020600  0.831000  1.0  -0.2138
  C  C657  1  0.397930  0.033400  0.900500  1.0  -0.113
  C  C658  1  0.429090  0.027400  0.932700  1.0  -0.0883
  C  C659  1  0.453090  0.011400  0.892300  1.0  -0.0308
  C  C660  1  0.446090  0.997070  0.823200  1.0  -0.1183
  C  C661  1  0.473510  0.980250  0.785000  1.0  0.58
  C  C662  1  0.487010  0.931490  0.633480  1.0  0.5065
  C  C663  1  0.512820  0.910940  0.593600  1.0  -0.4667
  C  C664  1  0.572680  0.902350  0.776400  1.0  0.2796
  C  C665  1  0.574710  0.874340  0.822200  1.0  -0.2194
  C  C666  1  0.597640  0.848890  0.807700  1.0  -0.1105
  C  C667  1  0.618610  0.850830  0.746800  1.0  -0.1089
  C  C668  1  0.617150  0.878620  0.701700  1.0  -0.0421
  C  C669  1  0.594410  0.904790  0.715500  1.0  -0.1747
  C  C670  1  0.595640  0.934370  0.665950  1.0  0.5127
  C  C671  1  0.562270  0.012890  0.651100  1.0  0.5531
  C  C672  1  0.565030  0.045100  0.610500  1.0  -0.4704
  C  C673  1  0.561720  0.022300  0.871100  1.0  0.1586
  C  C674  1  0.581400  0.040400  0.920700  1.0  -0.2142
  C  C675  1  0.603780  0.987800  0.852200  1.0  0.1919
  C  C676  1  0.624170  0.006000  0.899600  1.0  -0.1592
  C  C677  1  0.613390  0.028400  0.939500  1.0  0.2671
  C  C678  1  0.635600  0.045500  0.995700  1.0  -0.1799
  C  C679  1  0.331600  0.983100  0.465700  1.0  0.3347
  C  C680  1  0.299460  0.976020  0.437000  1.0  -0.222
  C  C681  1  0.279900  0.950490  0.465200  1.0  -0.1042
  C  C682  1  0.291470  0.931130  0.524800  1.0  -0.1465
  C  C683  1  0.322130  0.937780  0.553100  1.0  -0.055
  C  C684  1  0.342740  0.963030  0.525000  1.0  -0.1411
  C  C685  1  0.376130  0.967900  0.559900  1.0  0.5534
  C  C686  1  0.442180  0.021980  0.553400  1.0  0.5909
  C  C687  1  0.476610  0.028860  0.582500  1.0  -0.4453
  C  C688  1  0.673590  0.081520  0.222500  1.0  0.1849
  C  C689  1  0.651720  0.064940  0.176500  1.0  -0.2056
  C  C690  1  0.681350  0.122860  0.138200  1.0  0.1783
  C  C691  1  0.659400  0.108100  0.088400  1.0  -0.2128
  C  C692  1  0.643790  0.078980  0.108100  1.0  0.1092
  C  C693  1  0.619400  0.062200  0.054500  1.0  -0.2061
  C  C694  1  0.914000  0.501030  0.292900  1.0  0.3497
  C  C695  1  0.889830  0.520600  0.331000  1.0  -0.2138
  C  C696  1  0.897930  0.533400  0.400500  1.0  -0.113
  C  C697  1  0.929090  0.527400  0.432700  1.0  -0.0883
  C  C698  1  0.953090  0.511400  0.392300  1.0  -0.0308
  C  C699  1  0.946090  0.497070  0.323200  1.0  -0.1183
  C  C700  1  0.973510  0.480250  0.285000  1.0  0.58
  C  C701  1  0.987010  0.431490  0.133480  1.0  0.5065
  C  C702  1  0.012820  0.410940  0.093600  1.0  -0.4667
  C  C703  1  0.072680  0.402350  0.276400  1.0  0.2796
  C  C704  1  0.074710  0.374340  0.322200  1.0  -0.2194
  C  C705  1  0.097640  0.348890  0.307700  1.0  -0.1105
  C  C706  1  0.118610  0.350830  0.246800  1.0  -0.1089
  C  C707  1  0.117150  0.378620  0.201700  1.0  -0.0421
  C  C708  1  0.094410  0.404790  0.215500  1.0  -0.1747
  C  C709  1  0.095640  0.434370  0.165950  1.0  0.5127
  C  C710  1  0.062270  0.512890  0.151100  1.0  0.5531
  C  C711  1  0.065030  0.545100  0.110500  1.0  -0.4704
  C  C712  1  0.061720  0.522300  0.371100  1.0  0.1586
  C  C713  1  0.081400  0.540400  0.420700  1.0  -0.2142
  C  C714  1  0.103780  0.487800  0.352200  1.0  0.1919
  C  C715  1  0.124170  0.506000  0.399600  1.0  -0.1592
  C  C716  1  0.113390  0.528400  0.439500  1.0  0.2671
  C  C717  1  0.135600  0.545500  0.495700  1.0  -0.1799
  C  C718  1  0.831600  0.483100  0.965700  1.0  0.3347
  C  C719  1  0.799460  0.476020  0.937000  1.0  -0.222
  C  C720  1  0.779900  0.450490  0.965200  1.0  -0.1042
  C  C721  1  0.791470  0.431130  0.024800  1.0  -0.1465
  C  C722  1  0.822130  0.437780  0.053100  1.0  -0.055
  C  C723  1  0.842740  0.463030  0.025000  1.0  -0.1411
  C  C724  1  0.876130  0.467900  0.059900  1.0  0.5534
  C  C725  1  0.942180  0.521980  0.053400  1.0  0.5909
  C  C726  1  0.976610  0.528860  0.082500  1.0  -0.4453
  C  C727  1  0.173590  0.581520  0.722500  1.0  0.1849
  C  C728  1  0.151720  0.564940  0.676500  1.0  -0.2056
  C  C729  1  0.181350  0.622860  0.638200  1.0  0.1783
  C  C730  1  0.159400  0.608100  0.588400  1.0  -0.2128
  C  C731  1  0.143790  0.578980  0.608100  1.0  0.1092
  C  C732  1  0.119400  0.562200  0.554500  1.0  -0.2061
  C  C733  1  0.751030  0.336000  0.542900  1.0  0.3488
  C  C734  1  0.770600  0.360170  0.581000  1.0  -0.2129
  C  C735  1  0.783400  0.352070  0.650500  1.0  -0.115
  C  C736  1  0.777400  0.320910  0.682700  1.0  -0.0888
  C  C737  1  0.761400  0.296910  0.642300  1.0  -0.0355
  C  C738  1  0.747070  0.303910  0.573200  1.0  -0.1181
  C  C739  1  0.730250  0.276490  0.535000  1.0  0.5789
  C  C740  1  0.681490  0.262990  0.383480  1.0  0.5033
  C  C741  1  0.660940  0.237180  0.343600  1.0  -0.467
  C  C742  1  0.652350  0.177320  0.526400  1.0  0.2806
  C  C743  1  0.624340  0.175290  0.572200  1.0  -0.2146
  C  C744  1  0.598890  0.152360  0.557700  1.0  -0.1102
  C  C745  1  0.600830  0.131390  0.496800  1.0  -0.1091
  C  C746  1  0.628620  0.132850  0.451700  1.0  -0.0378
  C  C747  1  0.654790  0.155590  0.465500  1.0  -0.1736
  C  C748  1  0.684370  0.154360  0.415950  1.0  0.5131
  C  C749  1  0.762890  0.187730  0.401100  1.0  0.5558
  C  C750  1  0.795100  0.184970  0.360500  1.0  -0.4711
  C  C751  1  0.772300  0.188280  0.621100  1.0  0.1588
  C  C752  1  0.790400  0.168600  0.670700  1.0  -0.2145
  C  C753  1  0.737800  0.146220  0.602200  1.0  0.1924
  C  C754  1  0.756000  0.125830  0.649600  1.0  -0.1643
  C  C755  1  0.778400  0.136610  0.689500  1.0  0.2683
  C  C756  1  0.795500  0.114400  0.745700  1.0  -0.1853
  C  C757  1  0.733100  0.418400  0.215700  1.0  0.3336
  C  C758  1  0.726020  0.450540  0.187000  1.0  -0.2262
  C  C759  1  0.700490  0.470100  0.215200  1.0  -0.1017
  C  C760  1  0.681130  0.458530  0.274800  1.0  -0.1425
  C  C761  1  0.687780  0.427870  0.303100  1.0  -0.0522
  C  C762  1  0.713030  0.407260  0.275000  1.0  -0.1428
  C  C763  1  0.717900  0.373870  0.309900  1.0  0.5533
  C  C764  1  0.771980  0.307820  0.303400  1.0  0.5901
  C  C765  1  0.778860  0.273390  0.332500  1.0  -0.449
  C  C766  1  0.831520  0.076410  0.972500  1.0  0.1857
  C  C767  1  0.814940  0.098280  0.926500  1.0  -0.205
  C  C768  1  0.872860  0.068650  0.888200  1.0  0.1791
  C  C769  1  0.858100  0.090600  0.838400  1.0  -0.2099
  C  C770  1  0.828980  0.106210  0.858100  1.0  0.1076
  C  C771  1  0.812200  0.130600  0.804500  1.0  -0.2063
  C  C772  1  0.251030  0.836000  0.042900  1.0  0.3488
  C  C773  1  0.270600  0.860170  0.081000  1.0  -0.2129
  C  C774  1  0.283400  0.852070  0.150500  1.0  -0.115
  C  C775  1  0.277400  0.820910  0.182700  1.0  -0.0888
  C  C776  1  0.261400  0.796910  0.142300  1.0  -0.0355
  C  C777  1  0.247070  0.803910  0.073200  1.0  -0.1181
  C  C778  1  0.230250  0.776490  0.035000  1.0  0.5789
  C  C779  1  0.181490  0.762990  0.883480  1.0  0.5033
  C  C780  1  0.160940  0.737180  0.843600  1.0  -0.467
  C  C781  1  0.152350  0.677320  0.026400  1.0  0.2806
  C  C782  1  0.124340  0.675290  0.072200  1.0  -0.2146
  C  C783  1  0.098890  0.652360  0.057700  1.0  -0.1102
  C  C784  1  0.100830  0.631390  0.996800  1.0  -0.1091
  C  C785  1  0.128620  0.632850  0.951700  1.0  -0.0378
  C  C786  1  0.154790  0.655590  0.965500  1.0  -0.1736
  C  C787  1  0.184370  0.654360  0.915950  1.0  0.5131
  C  C788  1  0.262890  0.687730  0.901100  1.0  0.5558
  C  C789  1  0.295100  0.684970  0.860500  1.0  -0.4711
  C  C790  1  0.272300  0.688280  0.121100  1.0  0.1588
  C  C791  1  0.290400  0.668600  0.170700  1.0  -0.2145
  C  C792  1  0.237800  0.646220  0.102200  1.0  0.1924
  C  C793  1  0.256000  0.625830  0.149600  1.0  -0.1643
  C  C794  1  0.278400  0.636610  0.189500  1.0  0.2683
  C  C795  1  0.295500  0.614400  0.245700  1.0  -0.1853
  C  C796  1  0.233100  0.918400  0.715700  1.0  0.3336
  C  C797  1  0.226020  0.950540  0.687000  1.0  -0.2262
  C  C798  1  0.200490  0.970100  0.715200  1.0  -0.1017
  C  C799  1  0.181130  0.958530  0.774800  1.0  -0.1425
  C  C800  1  0.187780  0.927870  0.803100  1.0  -0.0522
  C  C801  1  0.213030  0.907260  0.775000  1.0  -0.1428
  C  C802  1  0.217900  0.873870  0.809900  1.0  0.5533
  C  C803  1  0.271980  0.807820  0.803400  1.0  0.5901
  C  C804  1  0.278860  0.773390  0.832500  1.0  -0.449
  C  C805  1  0.331520  0.576410  0.472500  1.0  0.1857
  C  C806  1  0.314940  0.598280  0.426500  1.0  -0.205
  C  C807  1  0.372860  0.568650  0.388200  1.0  0.1791
  C  C808  1  0.358100  0.590600  0.338400  1.0  -0.2099
  C  C809  1  0.328980  0.606210  0.358100  1.0  0.1076
  C  C810  1  0.312200  0.630600  0.304500  1.0  -0.2063
  C  C811  1  0.748970  0.664000  0.042900  1.0  0.3494
  C  C812  1  0.729400  0.639830  0.081000  1.0  -0.2136
  C  C813  1  0.716600  0.647930  0.150500  1.0  -0.1186
  C  C814  1  0.722600  0.679090  0.182700  1.0  -0.0897
  C  C815  1  0.738600  0.703090  0.142300  1.0  -0.0336
  C  C816  1  0.752930  0.696090  0.073200  1.0  -0.1184
  C  C817  1  0.769750  0.723510  0.035000  1.0  0.5787
  C  C818  1  0.818510  0.737010  0.883480  1.0  0.5037
  C  C819  1  0.839060  0.762820  0.843600  1.0  -0.4684
  C  C820  1  0.847650  0.822680  0.026400  1.0  0.2829
  C  C821  1  0.875660  0.824710  0.072200  1.0  -0.2154
  C  C822  1  0.901110  0.847640  0.057700  1.0  -0.1054
  C  C823  1  0.899170  0.868610  0.996800  1.0  -0.1074
  C  C824  1  0.871380  0.867150  0.951700  1.0  -0.0379
  C  C825  1  0.845210  0.844410  0.965500  1.0  -0.1722
  C  C826  1  0.815630  0.845640  0.915950  1.0  0.5132
  C  C827  1  0.737110  0.812270  0.901100  1.0  0.5542
  C  C828  1  0.704900  0.815030  0.860500  1.0  -0.47
  C  C829  1  0.727700  0.811720  0.121100  1.0  0.1589
  C  C830  1  0.709600  0.831400  0.170700  1.0  -0.2156
  C  C831  1  0.762200  0.853780  0.102200  1.0  0.1934
  C  C832  1  0.744000  0.874170  0.149600  1.0  -0.1634
  C  C833  1  0.721600  0.863390  0.189500  1.0  0.267
  C  C834  1  0.704500  0.885600  0.245700  1.0  -0.185
  C  C835  1  0.766900  0.581600  0.715700  1.0  0.3349
  C  C836  1  0.773980  0.549460  0.687000  1.0  -0.227
  C  C837  1  0.799510  0.529900  0.715200  1.0  -0.1047
  C  C838  1  0.818870  0.541470  0.774800  1.0  -0.1441
  C  C839  1  0.812220  0.572130  0.803100  1.0  -0.0544
  C  C840  1  0.786970  0.592740  0.775000  1.0  -0.1436
  C  C841  1  0.782100  0.626130  0.809900  1.0  0.5539
  C  C842  1  0.728020  0.692180  0.803400  1.0  0.5909
  C  C843  1  0.721140  0.726610  0.832500  1.0  -0.4456
  C  C844  1  0.668480  0.923590  0.472500  1.0  0.184
  C  C845  1  0.685060  0.901720  0.426500  1.0  -0.2037
  C  C846  1  0.627140  0.931350  0.388200  1.0  0.1793
  C  C847  1  0.641900  0.909400  0.338400  1.0  -0.2119
  C  C848  1  0.671020  0.893790  0.358100  1.0  0.1073
  C  C849  1  0.687800  0.869400  0.304500  1.0  -0.2056
  C  C850  1  0.248970  0.164000  0.542900  1.0  0.3494
  C  C851  1  0.229400  0.139830  0.581000  1.0  -0.2136
  C  C852  1  0.216600  0.147930  0.650500  1.0  -0.1186
  C  C853  1  0.222600  0.179090  0.682700  1.0  -0.0897
  C  C854  1  0.238600  0.203090  0.642300  1.0  -0.0336
  C  C855  1  0.252930  0.196090  0.573200  1.0  -0.1184
  C  C856  1  0.269750  0.223510  0.535000  1.0  0.5787
  C  C857  1  0.318510  0.237010  0.383480  1.0  0.5037
  C  C858  1  0.339060  0.262820  0.343600  1.0  -0.4684
  C  C859  1  0.347650  0.322680  0.526400  1.0  0.2829
  C  C860  1  0.375660  0.324710  0.572200  1.0  -0.2154
  C  C861  1  0.401110  0.347640  0.557700  1.0  -0.1054
  C  C862  1  0.399170  0.368610  0.496800  1.0  -0.1074
  C  C863  1  0.371380  0.367150  0.451700  1.0  -0.0379
  C  C864  1  0.345210  0.344410  0.465500  1.0  -0.1722
  C  C865  1  0.315630  0.345640  0.415950  1.0  0.5132
  C  C866  1  0.237110  0.312270  0.401100  1.0  0.5542
  C  C867  1  0.204900  0.315030  0.360500  1.0  -0.47
  C  C868  1  0.227700  0.311720  0.621100  1.0  0.1589
  C  C869  1  0.209600  0.331400  0.670700  1.0  -0.2156
  C  C870  1  0.262200  0.353780  0.602200  1.0  0.1934
  C  C871  1  0.244000  0.374170  0.649600  1.0  -0.1634
  C  C872  1  0.221600  0.363390  0.689500  1.0  0.267
  C  C873  1  0.204500  0.385600  0.745700  1.0  -0.185
  C  C874  1  0.266900  0.081600  0.215700  1.0  0.3349
  C  C875  1  0.273980  0.049460  0.187000  1.0  -0.227
  C  C876  1  0.299510  0.029900  0.215200  1.0  -0.1047
  C  C877  1  0.318870  0.041470  0.274800  1.0  -0.1441
  C  C878  1  0.312220  0.072130  0.303100  1.0  -0.0544
  C  C879  1  0.286970  0.092740  0.275000  1.0  -0.1436
  C  C880  1  0.282100  0.126130  0.309900  1.0  0.5539
  C  C881  1  0.228020  0.192180  0.303400  1.0  0.5909
  C  C882  1  0.221140  0.226610  0.332500  1.0  -0.4456
  C  C883  1  0.168480  0.423590  0.972500  1.0  0.184
  C  C884  1  0.185060  0.401720  0.926500  1.0  -0.2037
  C  C885  1  0.127140  0.431350  0.888200  1.0  0.1793
  C  C886  1  0.141900  0.409400  0.838400  1.0  -0.2119
  C  C887  1  0.171020  0.393790  0.858100  1.0  0.1073
  C  C888  1  0.187800  0.369400  0.804500  1.0  -0.2056
  C  C889  1  0.914000  0.001030  0.707100  1.0  0.3468
  C  C890  1  0.889830  0.020600  0.669000  1.0  -0.2141
  C  C891  1  0.897930  0.033400  0.599500  1.0  -0.1126
  C  C892  1  0.929090  0.027400  0.567300  1.0  -0.0876
  C  C893  1  0.953090  0.011400  0.607700  1.0  -0.0304
  C  C894  1  0.946090  0.997070  0.676800  1.0  -0.1174
  C  C895  1  0.973510  0.980250  0.715000  1.0  0.5803
  C  C896  1  0.987010  0.931490  0.866520  1.0  0.5062
  C  C897  1  0.012820  0.910940  0.906400  1.0  -0.4657
  C  C898  1  0.072680  0.902350  0.723600  1.0  0.2787
  C  C899  1  0.074710  0.874340  0.677800  1.0  -0.2195
  C  C900  1  0.097640  0.848890  0.692300  1.0  -0.1092
  C  C901  1  0.118610  0.850830  0.753200  1.0  -0.1095
  C  C902  1  0.117150  0.878620  0.798300  1.0  -0.0416
  C  C903  1  0.094410  0.904790  0.784500  1.0  -0.1746
  C  C904  1  0.095640  0.934370  0.834050  1.0  0.5127
  C  C905  1  0.062270  0.012890  0.848900  1.0  0.553
  C  C906  1  0.065030  0.045100  0.889500  1.0  -0.4694
  C  C907  1  0.061720  0.022300  0.628900  1.0  0.1587
  C  C908  1  0.081400  0.040400  0.579300  1.0  -0.2132
  C  C909  1  0.103780  0.987800  0.647800  1.0  0.1936
  C  C910  1  0.124170  0.006000  0.600400  1.0  -0.1584
  C  C911  1  0.113390  0.028400  0.560500  1.0  0.268
  C  C912  1  0.135600  0.045500  0.504300  1.0  -0.18
  C  C913  1  0.831600  0.983100  0.034300  1.0  0.3347
  C  C914  1  0.799460  0.976020  0.063000  1.0  -0.2224
  C  C915  1  0.779900  0.950490  0.034800  1.0  -0.1043
  C  C916  1  0.791470  0.931130  0.975200  1.0  -0.1463
  C  C917  1  0.822130  0.937780  0.946900  1.0  -0.0551
  C  C918  1  0.842740  0.963030  0.975000  1.0  -0.141
  C  C919  1  0.876130  0.967900  0.940100  1.0  0.5533
  C  C920  1  0.942180  0.021980  0.946600  1.0  0.59
  C  C921  1  0.976610  0.028860  0.917500  1.0  -0.4439
  C  C922  1  0.173590  0.081520  0.277500  1.0  0.1841
  C  C923  1  0.151720  0.064940  0.323500  1.0  -0.2052
  C  C924  1  0.181350  0.122860  0.361800  1.0  0.1778
  C  C925  1  0.159400  0.108100  0.411600  1.0  -0.2146
  C  C926  1  0.143790  0.078980  0.391900  1.0  0.1108
  C  C927  1  0.119400  0.062200  0.445500  1.0  -0.204
  C  C928  1  0.414000  0.501030  0.207100  1.0  0.3468
  C  C929  1  0.389830  0.520600  0.169000  1.0  -0.2141
  C  C930  1  0.397930  0.533400  0.099500  1.0  -0.1126
  C  C931  1  0.429090  0.527400  0.067300  1.0  -0.0876
  C  C932  1  0.453090  0.511400  0.107700  1.0  -0.0304
  C  C933  1  0.446090  0.497070  0.176800  1.0  -0.1174
  C  C934  1  0.473510  0.480250  0.215000  1.0  0.5803
  C  C935  1  0.487010  0.431490  0.366520  1.0  0.5062
  C  C936  1  0.512820  0.410940  0.406400  1.0  -0.4657
  C  C937  1  0.572680  0.402350  0.223600  1.0  0.2787
  C  C938  1  0.574710  0.374340  0.177800  1.0  -0.2195
  C  C939  1  0.597640  0.348890  0.192300  1.0  -0.1092
  C  C940  1  0.618610  0.350830  0.253200  1.0  -0.1095
  C  C941  1  0.617150  0.378620  0.298300  1.0  -0.0416
  C  C942  1  0.594410  0.404790  0.284500  1.0  -0.1746
  C  C943  1  0.595640  0.434370  0.334050  1.0  0.5127
  C  C944  1  0.562270  0.512890  0.348900  1.0  0.553
  C  C945  1  0.565030  0.545100  0.389500  1.0  -0.4694
  C  C946  1  0.561720  0.522300  0.128900  1.0  0.1587
  C  C947  1  0.581400  0.540400  0.079300  1.0  -0.2132
  C  C948  1  0.603780  0.487800  0.147800  1.0  0.1936
  C  C949  1  0.624170  0.506000  0.100400  1.0  -0.1584
  C  C950  1  0.613390  0.528400  0.060500  1.0  0.268
  C  C951  1  0.635600  0.545500  0.004300  1.0  -0.18
  C  C952  1  0.331600  0.483100  0.534300  1.0  0.3347
  C  C953  1  0.299460  0.476020  0.563000  1.0  -0.2224
  C  C954  1  0.279900  0.450490  0.534800  1.0  -0.1043
  C  C955  1  0.291470  0.431130  0.475200  1.0  -0.1463
  C  C956  1  0.322130  0.437780  0.446900  1.0  -0.0551
  C  C957  1  0.342740  0.463030  0.475000  1.0  -0.141
  C  C958  1  0.376130  0.467900  0.440100  1.0  0.5533
  C  C959  1  0.442180  0.521980  0.446600  1.0  0.59
  C  C960  1  0.476610  0.528860  0.417500  1.0  -0.4439
  C  C961  1  0.673590  0.581520  0.777500  1.0  0.1841
  C  C962  1  0.651720  0.564940  0.823500  1.0  -0.2052
  C  C963  1  0.681350  0.622860  0.861800  1.0  0.1778
  C  C964  1  0.659400  0.608100  0.911600  1.0  -0.2146
  C  C965  1  0.643790  0.578980  0.891900  1.0  0.1108
  C  C966  1  0.619400  0.562200  0.945500  1.0  -0.204
  C  C967  1  0.586000  0.998970  0.207100  1.0  0.3479
  C  C968  1  0.610170  0.979400  0.169000  1.0  -0.213
  C  C969  1  0.602070  0.966600  0.099500  1.0  -0.1115
  C  C970  1  0.570910  0.972600  0.067300  1.0  -0.0891
  C  C971  1  0.546910  0.988600  0.107700  1.0  -0.0302
  C  C972  1  0.553910  0.002930  0.176800  1.0  -0.1167
  C  C973  1  0.526490  0.019750  0.215000  1.0  0.5806
  C  C974  1  0.512990  0.068510  0.366520  1.0  0.5094
  C  C975  1  0.487180  0.089060  0.406400  1.0  -0.4684
  C  C976  1  0.427320  0.097650  0.223600  1.0  0.2774
  C  C977  1  0.425290  0.125660  0.177800  1.0  -0.2216
  C  C978  1  0.402360  0.151110  0.192300  1.0  -0.1064
  C  C979  1  0.381390  0.149170  0.253200  1.0  -0.1085
  C  C980  1  0.382850  0.121380  0.298300  1.0  -0.0412
  C  C981  1  0.405590  0.095210  0.284500  1.0  -0.1732
  C  C982  1  0.404360  0.065630  0.334050  1.0  0.5125
  C  C983  1  0.437730  0.987110  0.348900  1.0  0.5531
  C  C984  1  0.434970  0.954900  0.389500  1.0  -0.4688
  C  C985  1  0.438280  0.977700  0.128900  1.0  0.1589
  C  C986  1  0.418600  0.959600  0.079300  1.0  -0.2127
  C  C987  1  0.396220  0.012200  0.147800  1.0  0.1908
  C  C988  1  0.375830  0.994000  0.100400  1.0  -0.1592
  C  C989  1  0.386610  0.971600  0.060500  1.0  0.2687
  C  C990  1  0.364400  0.954500  0.004300  1.0  -0.181
  C  C991  1  0.668400  0.016900  0.534300  1.0  0.3335
  C  C992  1  0.700540  0.023980  0.563000  1.0  -0.2223
  C  C993  1  0.720100  0.049510  0.534800  1.0  -0.1024
  C  C994  1  0.708530  0.068870  0.475200  1.0  -0.1436
  C  C995  1  0.677870  0.062220  0.446900  1.0  -0.0553
  C  C996  1  0.657260  0.036970  0.475000  1.0  -0.1418
  C  C997  1  0.623870  0.032100  0.440100  1.0  0.5534
  C  C998  1  0.557820  0.978020  0.446600  1.0  0.5894
  C  C999  1  0.523390  0.971140  0.417500  1.0  -0.4451
  C  C1000  1  0.326410  0.918480  0.777500  1.0  0.1846
  C  C1001  1  0.348280  0.935060  0.823500  1.0  -0.2026
  C  C1002  1  0.318650  0.877140  0.861800  1.0  0.179
  C  C1003  1  0.340600  0.891900  0.911600  1.0  -0.2151
  C  C1004  1  0.356210  0.921020  0.891900  1.0  0.1103
  C  C1005  1  0.380600  0.937800  0.945500  1.0  -0.2012
  C  C1006  1  0.086000  0.498970  0.707100  1.0  0.3479
  C  C1007  1  0.110170  0.479400  0.669000  1.0  -0.213
  C  C1008  1  0.102070  0.466600  0.599500  1.0  -0.1115
  C  C1009  1  0.070910  0.472600  0.567300  1.0  -0.0891
  C  C1010  1  0.046910  0.488600  0.607700  1.0  -0.0302
  C  C1011  1  0.053910  0.502930  0.676800  1.0  -0.1167
  C  C1012  1  0.026490  0.519750  0.715000  1.0  0.5806
  C  C1013  1  0.012990  0.568510  0.866520  1.0  0.5094
  C  C1014  1  0.987180  0.589060  0.906400  1.0  -0.4684
  C  C1015  1  0.927320  0.597650  0.723600  1.0  0.2774
  C  C1016  1  0.925290  0.625660  0.677800  1.0  -0.2216
  C  C1017  1  0.902360  0.651110  0.692300  1.0  -0.1064
  C  C1018  1  0.881390  0.649170  0.753200  1.0  -0.1085
  C  C1019  1  0.882850  0.621380  0.798300  1.0  -0.0412
  C  C1020  1  0.905590  0.595210  0.784500  1.0  -0.1732
  C  C1021  1  0.904360  0.565630  0.834050  1.0  0.5125
  C  C1022  1  0.937730  0.487110  0.848900  1.0  0.5531
  C  C1023  1  0.934970  0.454900  0.889500  1.0  -0.4688
  C  C1024  1  0.938280  0.477700  0.628900  1.0  0.1589
  C  C1025  1  0.918600  0.459600  0.579300  1.0  -0.2127
  C  C1026  1  0.896220  0.512200  0.647800  1.0  0.1908
  C  C1027  1  0.875830  0.494000  0.600400  1.0  -0.1592
  C  C1028  1  0.886610  0.471600  0.560500  1.0  0.2687
  C  C1029  1  0.864400  0.454500  0.504300  1.0  -0.181
  C  C1030  1  0.168400  0.516900  0.034300  1.0  0.3335
  C  C1031  1  0.200540  0.523980  0.063000  1.0  -0.2223
  C  C1032  1  0.220100  0.549510  0.034800  1.0  -0.1024
  C  C1033  1  0.208530  0.568870  0.975200  1.0  -0.1436
  C  C1034  1  0.177870  0.562220  0.946900  1.0  -0.0553
  C  C1035  1  0.157260  0.536970  0.975000  1.0  -0.1418
  C  C1036  1  0.123870  0.532100  0.940100  1.0  0.5534
  C  C1037  1  0.057820  0.478020  0.946600  1.0  0.5894
  C  C1038  1  0.023390  0.471140  0.917500  1.0  -0.4451
  C  C1039  1  0.826410  0.418480  0.277500  1.0  0.1846
  C  C1040  1  0.848280  0.435060  0.323500  1.0  -0.2026
  C  C1041  1  0.818650  0.377140  0.361800  1.0  0.179
  C  C1042  1  0.840600  0.391900  0.411600  1.0  -0.2151
  C  C1043  1  0.856210  0.421020  0.391900  1.0  0.1103
  C  C1044  1  0.880600  0.437800  0.445500  1.0  -0.2012
  C  C1045  1  0.248970  0.664000  0.457100  1.0  0.3465
  C  C1046  1  0.229400  0.639830  0.419000  1.0  -0.2135
  C  C1047  1  0.216600  0.647930  0.349500  1.0  -0.1189
  C  C1048  1  0.222600  0.679090  0.317300  1.0  -0.0893
  C  C1049  1  0.238600  0.703090  0.357700  1.0  -0.0334
  C  C1050  1  0.252930  0.696090  0.426800  1.0  -0.1176
  C  C1051  1  0.269750  0.723510  0.465000  1.0  0.5792
  C  C1052  1  0.318510  0.737010  0.616520  1.0  0.5035
  C  C1053  1  0.339060  0.762820  0.656400  1.0  -0.4674
  C  C1054  1  0.347650  0.822680  0.473600  1.0  0.2815
  C  C1055  1  0.375660  0.824710  0.427800  1.0  -0.2177
  C  C1056  1  0.401110  0.847640  0.442300  1.0  -0.1054
  C  C1057  1  0.399170  0.868610  0.503200  1.0  -0.1075
  C  C1058  1  0.371380  0.867150  0.548300  1.0  -0.0378
  C  C1059  1  0.345210  0.844410  0.534500  1.0  -0.1721
  C  C1060  1  0.315630  0.845640  0.584050  1.0  0.5132
  C  C1061  1  0.237110  0.812270  0.598900  1.0  0.5538
  C  C1062  1  0.204900  0.815030  0.639500  1.0  -0.4699
  C  C1063  1  0.227700  0.811720  0.378900  1.0  0.1591
  C  C1064  1  0.209600  0.831400  0.329300  1.0  -0.2138
  C  C1065  1  0.262200  0.853780  0.397800  1.0  0.1943
  C  C1066  1  0.244000  0.874170  0.350400  1.0  -0.1632
  C  C1067  1  0.221600  0.863390  0.310500  1.0  0.2687
  C  C1068  1  0.204500  0.885600  0.254300  1.0  -0.1859
  C  C1069  1  0.266900  0.581600  0.784300  1.0  0.335
  C  C1070  1  0.273980  0.549460  0.813000  1.0  -0.2272
  C  C1071  1  0.299510  0.529900  0.784800  1.0  -0.1041
  C  C1072  1  0.318870  0.541470  0.725200  1.0  -0.1434
  C  C1073  1  0.312220  0.572130  0.696900  1.0  -0.0543
  C  C1074  1  0.286970  0.592740  0.725000  1.0  -0.1434
  C  C1075  1  0.282100  0.626130  0.690100  1.0  0.5533
  C  C1076  1  0.228020  0.692180  0.696600  1.0  0.59
  C  C1077  1  0.221140  0.726610  0.667500  1.0  -0.4454
  C  C1078  1  0.168480  0.923590  0.027500  1.0  0.1839
  C  C1079  1  0.185060  0.901720  0.073500  1.0  -0.2027
  C  C1080  1  0.127140  0.931350  0.111800  1.0  0.1793
  C  C1081  1  0.141900  0.909400  0.161600  1.0  -0.2128
  C  C1082  1  0.171020  0.893790  0.141900  1.0  0.1086
  C  C1083  1  0.187800  0.869400  0.195500  1.0  -0.2049
  C  C1084  1  0.748970  0.164000  0.957100  1.0  0.3465
  C  C1085  1  0.729400  0.139830  0.919000  1.0  -0.2135
  C  C1086  1  0.716600  0.147930  0.849500  1.0  -0.1189
  C  C1087  1  0.722600  0.179090  0.817300  1.0  -0.0893
  C  C1088  1  0.738600  0.203090  0.857700  1.0  -0.0334
  C  C1089  1  0.752930  0.196090  0.926800  1.0  -0.1176
  C  C1090  1  0.769750  0.223510  0.965000  1.0  0.5792
  C  C1091  1  0.818510  0.237010  0.116520  1.0  0.5035
  C  C1092  1  0.839060  0.262820  0.156400  1.0  -0.4674
  C  C1093  1  0.847650  0.322680  0.973600  1.0  0.2815
  C  C1094  1  0.875660  0.324710  0.927800  1.0  -0.2177
  C  C1095  1  0.901110  0.347640  0.942300  1.0  -0.1054
  C  C1096  1  0.899170  0.368610  0.003200  1.0  -0.1075
  C  C1097  1  0.871380  0.367150  0.048300  1.0  -0.0378
  C  C1098  1  0.845210  0.344410  0.034500  1.0  -0.1721
  C  C1099  1  0.815630  0.345640  0.084050  1.0  0.5132
  C  C1100  1  0.737110  0.312270  0.098900  1.0  0.5538
  C  C1101  1  0.704900  0.315030  0.139500  1.0  -0.4699
  C  C1102  1  0.727700  0.311720  0.878900  1.0  0.1591
  C  C1103  1  0.709600  0.331400  0.829300  1.0  -0.2138
  C  C1104  1  0.762200  0.353780  0.897800  1.0  0.1943
  C  C1105  1  0.744000  0.374170  0.850400  1.0  -0.1632
  C  C1106  1  0.721600  0.363390  0.810500  1.0  0.2687
  C  C1107  1  0.704500  0.385600  0.754300  1.0  -0.1859
  C  C1108  1  0.766900  0.081600  0.284300  1.0  0.335
  C  C1109  1  0.773980  0.049460  0.313000  1.0  -0.2272
  C  C1110  1  0.799510  0.029900  0.284800  1.0  -0.1041
  C  C1111  1  0.818870  0.041470  0.225200  1.0  -0.1434
  C  C1112  1  0.812220  0.072130  0.196900  1.0  -0.0543
  C  C1113  1  0.786970  0.092740  0.225000  1.0  -0.1434
  C  C1114  1  0.782100  0.126130  0.190100  1.0  0.5533
  C  C1115  1  0.728020  0.192180  0.196600  1.0  0.59
  C  C1116  1  0.721140  0.226610  0.167500  1.0  -0.4454
  C  C1117  1  0.668480  0.423590  0.527500  1.0  0.1839
  C  C1118  1  0.685060  0.401720  0.573500  1.0  -0.2027
  C  C1119  1  0.627140  0.431350  0.611800  1.0  0.1793
  C  C1120  1  0.641900  0.409400  0.661600  1.0  -0.2128
  C  C1121  1  0.671020  0.393790  0.641900  1.0  0.1086
  C  C1122  1  0.687800  0.369400  0.695500  1.0  -0.2049
  C  C1123  1  0.251030  0.336000  0.957100  1.0  0.3467
  C  C1124  1  0.270600  0.360170  0.919000  1.0  -0.2131
  C  C1125  1  0.283400  0.352070  0.849500  1.0  -0.1154
  C  C1126  1  0.277400  0.320910  0.817300  1.0  -0.089
  C  C1127  1  0.261400  0.296910  0.857700  1.0  -0.0356
  C  C1128  1  0.247070  0.303910  0.926800  1.0  -0.1172
  C  C1129  1  0.230250  0.276490  0.965000  1.0  0.5801
  C  C1130  1  0.181490  0.262990  0.116520  1.0  0.5035
  C  C1131  1  0.160940  0.237180  0.156400  1.0  -0.4666
  C  C1132  1  0.152350  0.177320  0.973600  1.0  0.2807
  C  C1133  1  0.124340  0.175290  0.927800  1.0  -0.2152
  C  C1134  1  0.098890  0.152360  0.942300  1.0  -0.1083
  C  C1135  1  0.100830  0.131390  0.003200  1.0  -0.1094
  C  C1136  1  0.128620  0.132850  0.048300  1.0  -0.0382
  C  C1137  1  0.154790  0.155590  0.034500  1.0  -0.1736
  C  C1138  1  0.184370  0.154360  0.084050  1.0  0.5134
  C  C1139  1  0.262890  0.187730  0.098900  1.0  0.5562
  C  C1140  1  0.295100  0.184970  0.139500  1.0  -0.471
  C  C1141  1  0.272300  0.188280  0.878900  1.0  0.1588
  C  C1142  1  0.290400  0.168600  0.829300  1.0  -0.2147
  C  C1143  1  0.237800  0.146220  0.897800  1.0  0.1935
  C  C1144  1  0.256000  0.125830  0.850400  1.0  -0.1623
  C  C1145  1  0.278400  0.136610  0.810500  1.0  0.2697
  C  C1146  1  0.295500  0.114400  0.754300  1.0  -0.1849
  C  C1147  1  0.233100  0.418400  0.284300  1.0  0.3337
  C  C1148  1  0.226020  0.450540  0.313000  1.0  -0.2246
  C  C1149  1  0.200490  0.470100  0.284800  1.0  -0.1018
  C  C1150  1  0.181130  0.458530  0.225200  1.0  -0.1419
  C  C1151  1  0.187780  0.427870  0.196900  1.0  -0.0524
  C  C1152  1  0.213030  0.407260  0.225000  1.0  -0.1428
  C  C1153  1  0.217900  0.373870  0.190100  1.0  0.5532
  C  C1154  1  0.271980  0.307820  0.196600  1.0  0.5892
  C  C1155  1  0.278860  0.273390  0.167500  1.0  -0.4486
  C  C1156  1  0.331520  0.076410  0.527500  1.0  0.1855
  C  C1157  1  0.314940  0.098280  0.573500  1.0  -0.2049
  C  C1158  1  0.372860  0.068650  0.611800  1.0  0.1791
  C  C1159  1  0.358100  0.090600  0.661600  1.0  -0.2106
  C  C1160  1  0.328980  0.106210  0.641900  1.0  0.109
  C  C1161  1  0.312200  0.130600  0.695500  1.0  -0.2038
  C  C1162  1  0.751030  0.836000  0.457100  1.0  0.3467
  C  C1163  1  0.770600  0.860170  0.419000  1.0  -0.2131
  C  C1164  1  0.783400  0.852070  0.349500  1.0  -0.1154
  C  C1165  1  0.777400  0.820910  0.317300  1.0  -0.089
  C  C1166  1  0.761400  0.796910  0.357700  1.0  -0.0356
  C  C1167  1  0.747070  0.803910  0.426800  1.0  -0.1172
  C  C1168  1  0.730250  0.776490  0.465000  1.0  0.5801
  C  C1169  1  0.681490  0.762990  0.616520  1.0  0.5035
  C  C1170  1  0.660940  0.737180  0.656400  1.0  -0.4666
  C  C1171  1  0.652350  0.677320  0.473600  1.0  0.2807
  C  C1172  1  0.624340  0.675290  0.427800  1.0  -0.2152
  C  C1173  1  0.598890  0.652360  0.442300  1.0  -0.1083
  C  C1174  1  0.600830  0.631390  0.503200  1.0  -0.1094
  C  C1175  1  0.628620  0.632850  0.548300  1.0  -0.0382
  C  C1176  1  0.654790  0.655590  0.534500  1.0  -0.1736
  C  C1177  1  0.684370  0.654360  0.584050  1.0  0.5134
  C  C1178  1  0.762890  0.687730  0.598900  1.0  0.5562
  C  C1179  1  0.795100  0.684970  0.639500  1.0  -0.471
  C  C1180  1  0.772300  0.688280  0.378900  1.0  0.1588
  C  C1181  1  0.790400  0.668600  0.329300  1.0  -0.2147
  C  C1182  1  0.737800  0.646220  0.397800  1.0  0.1935
  C  C1183  1  0.756000  0.625830  0.350400  1.0  -0.1623
  C  C1184  1  0.778400  0.636610  0.310500  1.0  0.2697
  C  C1185  1  0.795500  0.614400  0.254300  1.0  -0.1849
  C  C1186  1  0.733100  0.918400  0.784300  1.0  0.3337
  C  C1187  1  0.726020  0.950540  0.813000  1.0  -0.2246
  C  C1188  1  0.700490  0.970100  0.784800  1.0  -0.1018
  C  C1189  1  0.681130  0.958530  0.725200  1.0  -0.1419
  C  C1190  1  0.687780  0.927870  0.696900  1.0  -0.0524
  C  C1191  1  0.713030  0.907260  0.725000  1.0  -0.1428
  C  C1192  1  0.717900  0.873870  0.690100  1.0  0.5532
  C  C1193  1  0.771980  0.807820  0.696600  1.0  0.5892
  C  C1194  1  0.778860  0.773390  0.667500  1.0  -0.4486
  C  C1195  1  0.831520  0.576410  0.027500  1.0  0.1855
  C  C1196  1  0.814940  0.598280  0.073500  1.0  -0.2049
  C  C1197  1  0.872860  0.568650  0.111800  1.0  0.1791
  C  C1198  1  0.858100  0.590600  0.161600  1.0  -0.2106
  C  C1199  1  0.828980  0.606210  0.141900  1.0  0.109
  C  C1200  1  0.812200  0.630600  0.195500  1.0  -0.2038
  N  N1201  1  0.032600  0.034470  0.220910  1.0  -0.2654
  N  N1202  1  0.003950  0.050850  0.190560  1.0  -0.2839
  N  N1203  1  0.922540  0.038790  0.181940  1.0  -0.2725
  N  N1204  1  0.917110  0.011320  0.134870  1.0  -0.2594
  N  N1205  1  0.926620  0.007000  0.340500  1.0  -0.335
  N  N1206  1  0.104870  0.006770  0.037330  1.0  -0.3169
  N  N1207  1  0.073860  0.004340  0.075400  1.0  -0.2484
  N  N1208  1  0.811900  0.889550  0.705310  1.0  -0.3331
  N  N1209  1  0.532600  0.534470  0.720910  1.0  -0.2654
  N  N1210  1  0.503950  0.550850  0.690560  1.0  -0.2839
  N  N1211  1  0.422540  0.538790  0.681940  1.0  -0.2725
  N  N1212  1  0.417110  0.511320  0.634870  1.0  -0.2594
  N  N1213  1  0.426620  0.507000  0.840500  1.0  -0.335
  N  N1214  1  0.604870  0.506770  0.537330  1.0  -0.3169
  N  N1215  1  0.573860  0.504340  0.575400  1.0  -0.2484
  N  N1216  1  0.311900  0.389550  0.205310  1.0  -0.3331
  N  N1217  1  0.467400  0.965530  0.720910  1.0  -0.2662
  N  N1218  1  0.496050  0.949150  0.690560  1.0  -0.2841
  N  N1219  1  0.577460  0.961210  0.681940  1.0  -0.2713
  N  N1220  1  0.582890  0.988680  0.634870  1.0  -0.2596
  N  N1221  1  0.573380  0.993000  0.840500  1.0  -0.3358
  N  N1222  1  0.395130  0.993230  0.537330  1.0  -0.3174
  N  N1223  1  0.426140  0.995660  0.575400  1.0  -0.2476
  N  N1224  1  0.688100  0.110450  0.205310  1.0  -0.3322
  N  N1225  1  0.967400  0.465530  0.220910  1.0  -0.2662
  N  N1226  1  0.996050  0.449150  0.190560  1.0  -0.2841
  N  N1227  1  0.077460  0.461210  0.181940  1.0  -0.2713
  N  N1228  1  0.082890  0.488680  0.134870  1.0  -0.2596
  N  N1229  1  0.073380  0.493000  0.340500  1.0  -0.3358
  N  N1230  1  0.895130  0.493230  0.037330  1.0  -0.3174
  N  N1231  1  0.926140  0.495660  0.075400  1.0  -0.2476
  N  N1232  1  0.188100  0.610450  0.705310  1.0  -0.3322
  N  N1233  1  0.715530  0.282600  0.470910  1.0  -0.2648
  N  N1234  1  0.699150  0.253950  0.440560  1.0  -0.2829
  N  N1235  1  0.711210  0.172540  0.431940  1.0  -0.27
  N  N1236  1  0.738680  0.167110  0.384870  1.0  -0.2596
  N  N1237  1  0.743000  0.176620  0.590500  1.0  -0.335
  N  N1238  1  0.743230  0.354870  0.287330  1.0  -0.3173
  N  N1239  1  0.745660  0.323860  0.325400  1.0  -0.2477
  N  N1240  1  0.860450  0.061900  0.955310  1.0  -0.3328
  N  N1241  1  0.215530  0.782600  0.970910  1.0  -0.2648
  N  N1242  1  0.199150  0.753950  0.940560  1.0  -0.2829
  N  N1243  1  0.211210  0.672540  0.931940  1.0  -0.27
  N  N1244  1  0.238680  0.667110  0.884870  1.0  -0.2596
  N  N1245  1  0.243000  0.676620  0.090500  1.0  -0.335
  N  N1246  1  0.243230  0.854870  0.787330  1.0  -0.3173
  N  N1247  1  0.245660  0.823860  0.825400  1.0  -0.2477
  N  N1248  1  0.360450  0.561900  0.455310  1.0  -0.3328
  N  N1249  1  0.784470  0.717400  0.970910  1.0  -0.2653
  N  N1250  1  0.800850  0.746050  0.940560  1.0  -0.2834
  N  N1251  1  0.788790  0.827460  0.931940  1.0  -0.2704
  N  N1252  1  0.761320  0.832890  0.884870  1.0  -0.2619
  N  N1253  1  0.757000  0.823380  0.090500  1.0  -0.3321
  N  N1254  1  0.756770  0.645130  0.787330  1.0  -0.3163
  N  N1255  1  0.754340  0.676140  0.825400  1.0  -0.2479
  N  N1256  1  0.639550  0.938100  0.455310  1.0  -0.334
  N  N1257  1  0.284470  0.217400  0.470910  1.0  -0.2653
  N  N1258  1  0.300850  0.246050  0.440560  1.0  -0.2834
  N  N1259  1  0.288790  0.327460  0.431940  1.0  -0.2704
  N  N1260  1  0.261320  0.332890  0.384870  1.0  -0.2619
  N  N1261  1  0.257000  0.323380  0.590500  1.0  -0.3321
  N  N1262  1  0.256770  0.145130  0.287330  1.0  -0.3163
  N  N1263  1  0.254340  0.176140  0.325400  1.0  -0.2479
  N  N1264  1  0.139550  0.438100  0.955310  1.0  -0.334
  N  N1265  1  0.967400  0.965530  0.779090  1.0  -0.2669
  N  N1266  1  0.996050  0.949150  0.809440  1.0  -0.2838
  N  N1267  1  0.077460  0.961210  0.818060  1.0  -0.2699
  N  N1268  1  0.082890  0.988680  0.865130  1.0  -0.2604
  N  N1269  1  0.073380  0.993000  0.659500  1.0  -0.3359
  N  N1270  1  0.895130  0.993230  0.962670  1.0  -0.3178
  N  N1271  1  0.926140  0.995660  0.924600  1.0  -0.2476
  N  N1272  1  0.188100  0.110450  0.294690  1.0  -0.3322
  N  N1273  1  0.467400  0.465530  0.279090  1.0  -0.2669
  N  N1274  1  0.496050  0.449150  0.309440  1.0  -0.2838
  N  N1275  1  0.577460  0.461210  0.318060  1.0  -0.2699
  N  N1276  1  0.582890  0.488680  0.365130  1.0  -0.2604
  N  N1277  1  0.573380  0.493000  0.159500  1.0  -0.3359
  N  N1278  1  0.395130  0.493230  0.462670  1.0  -0.3178
  N  N1279  1  0.426140  0.495660  0.424600  1.0  -0.2476
  N  N1280  1  0.688100  0.610450  0.794690  1.0  -0.3322
  N  N1281  1  0.532600  0.034470  0.279090  1.0  -0.2657
  N  N1282  1  0.503950  0.050850  0.309440  1.0  -0.2843
  N  N1283  1  0.422540  0.038790  0.318060  1.0  -0.2718
  N  N1284  1  0.417110  0.011320  0.365130  1.0  -0.2601
  N  N1285  1  0.426620  0.007000  0.159500  1.0  -0.335
  N  N1286  1  0.604870  0.006770  0.462670  1.0  -0.317
  N  N1287  1  0.573860  0.004340  0.424600  1.0  -0.248
  N  N1288  1  0.311900  0.889550  0.794690  1.0  -0.3337
  N  N1289  1  0.032600  0.534470  0.779090  1.0  -0.2657
  N  N1290  1  0.003950  0.550850  0.809440  1.0  -0.2843
  N  N1291  1  0.922540  0.538790  0.818060  1.0  -0.2718
  N  N1292  1  0.917110  0.511320  0.865130  1.0  -0.2601
  N  N1293  1  0.926620  0.507000  0.659500  1.0  -0.335
  N  N1294  1  0.104870  0.506770  0.962670  1.0  -0.317
  N  N1295  1  0.073860  0.504340  0.924600  1.0  -0.248
  N  N1296  1  0.811900  0.389550  0.294690  1.0  -0.3337
  N  N1297  1  0.284470  0.717400  0.529090  1.0  -0.2658
  N  N1298  1  0.300850  0.746050  0.559440  1.0  -0.2828
  N  N1299  1  0.288790  0.827460  0.568060  1.0  -0.2696
  N  N1300  1  0.261320  0.832890  0.615130  1.0  -0.2624
  N  N1301  1  0.257000  0.823380  0.409500  1.0  -0.3319
  N  N1302  1  0.256770  0.645130  0.712670  1.0  -0.3166
  N  N1303  1  0.254340  0.676140  0.674600  1.0  -0.2476
  N  N1304  1  0.139550  0.938100  0.044690  1.0  -0.334
  N  N1305  1  0.784470  0.217400  0.029090  1.0  -0.2658
  N  N1306  1  0.800850  0.246050  0.059440  1.0  -0.2828
  N  N1307  1  0.788790  0.327460  0.068060  1.0  -0.2696
  N  N1308  1  0.761320  0.332890  0.115130  1.0  -0.2624
  N  N1309  1  0.757000  0.323380  0.909500  1.0  -0.3319
  N  N1310  1  0.756770  0.145130  0.212670  1.0  -0.3166
  N  N1311  1  0.754340  0.176140  0.174600  1.0  -0.2476
  N  N1312  1  0.639550  0.438100  0.544690  1.0  -0.334
  N  N1313  1  0.215530  0.282600  0.029090  1.0  -0.266
  N  N1314  1  0.199150  0.253950  0.059440  1.0  -0.2839
  N  N1315  1  0.211210  0.172540  0.068060  1.0  -0.2693
  N  N1316  1  0.238680  0.167110  0.115130  1.0  -0.2607
  N  N1317  1  0.243000  0.176620  0.909500  1.0  -0.3347
  N  N1318  1  0.243230  0.354870  0.212670  1.0  -0.3176
  N  N1319  1  0.245660  0.323860  0.174600  1.0  -0.2477
  N  N1320  1  0.360450  0.061900  0.544690  1.0  -0.3331
  N  N1321  1  0.715530  0.782600  0.529090  1.0  -0.266
  N  N1322  1  0.699150  0.753950  0.559440  1.0  -0.2839
  N  N1323  1  0.711210  0.672540  0.568060  1.0  -0.2693
  N  N1324  1  0.738680  0.667110  0.615130  1.0  -0.2607
  N  N1325  1  0.743000  0.676620  0.409500  1.0  -0.3347
  N  N1326  1  0.743230  0.854870  0.712670  1.0  -0.3176
  N  N1327  1  0.745660  0.823860  0.674600  1.0  -0.2477
  N  N1328  1  0.860450  0.561900  0.044690  1.0  -0.3331
  O  O1329  1  0.096740  0.013460  0.231500  1.0  -0.5665
  O  O1330  1  0.997430  0.020020  0.315120  1.0  -0.5897
  O  O1331  1  0.043810  0.069940  0.109840  1.0  -0.5817
  O  O1332  1  0.950010  0.074450  0.294410  1.0  -0.5773
  O  O1333  1  0.885370  0.066360  0.108370  1.0  -0.5814
  O  O1334  1  0.960520  0.989950  0.202170  1.0  -0.562
  O  O1335  1  0.151730  0.991730  0.934700  1.0  -0.5665
  O  O1336  1  0.114840  0.052240  0.111600  1.0  -0.5849
  O  O1337  1  0.069820  0.957270  0.004420  1.0  -0.5793
  O  O1338  1  0.596740  0.513460  0.731500  1.0  -0.5665
  O  O1339  1  0.497430  0.520020  0.815120  1.0  -0.5897
  O  O1340  1  0.543810  0.569940  0.609840  1.0  -0.5817
  O  O1341  1  0.450010  0.574450  0.794410  1.0  -0.5773
  O  O1342  1  0.385370  0.566360  0.608370  1.0  -0.5814
  O  O1343  1  0.460520  0.489950  0.702170  1.0  -0.562
  O  O1344  1  0.651730  0.491730  0.434700  1.0  -0.5665
  O  O1345  1  0.614840  0.552240  0.611600  1.0  -0.5849
  O  O1346  1  0.569820  0.457270  0.504420  1.0  -0.5793
  O  O1347  1  0.403260  0.986540  0.731500  1.0  -0.5674
  O  O1348  1  0.502570  0.979980  0.815120  1.0  -0.59
  O  O1349  1  0.456190  0.930060  0.609840  1.0  -0.5821
  O  O1350  1  0.549990  0.925550  0.794410  1.0  -0.579
  O  O1351  1  0.614630  0.933640  0.608370  1.0  -0.5819
  O  O1352  1  0.539480  0.010050  0.702170  1.0  -0.5629
  O  O1353  1  0.348270  0.008270  0.434700  1.0  -0.5676
  O  O1354  1  0.385160  0.947760  0.611600  1.0  -0.5848
  O  O1355  1  0.430180  0.042730  0.504420  1.0  -0.579
  O  O1356  1  0.903260  0.486540  0.231500  1.0  -0.5674
  O  O1357  1  0.002570  0.479980  0.315120  1.0  -0.59
  O  O1358  1  0.956190  0.430060  0.109840  1.0  -0.5821
  O  O1359  1  0.049990  0.425550  0.294410  1.0  -0.579
  O  O1360  1  0.114630  0.433640  0.108370  1.0  -0.5819
  O  O1361  1  0.039480  0.510050  0.202170  1.0  -0.5629
  O  O1362  1  0.848270  0.508270  0.934700  1.0  -0.5676
  O  O1363  1  0.885160  0.447760  0.111600  1.0  -0.5848
  O  O1364  1  0.930180  0.542730  0.004420  1.0  -0.579
  O  O1365  1  0.736540  0.346740  0.481500  1.0  -0.5665
  O  O1366  1  0.729980  0.247430  0.565120  1.0  -0.5928
  O  O1367  1  0.680060  0.293810  0.359840  1.0  -0.5784
  O  O1368  1  0.675550  0.200010  0.544410  1.0  -0.5784
  O  O1369  1  0.683640  0.135370  0.358370  1.0  -0.5803
  O  O1370  1  0.760050  0.210520  0.452170  1.0  -0.5601
  O  O1371  1  0.758270  0.401730  0.184700  1.0  -0.5687
  O  O1372  1  0.697760  0.364840  0.361600  1.0  -0.5842
  O  O1373  1  0.792730  0.319820  0.254420  1.0  -0.5773
  O  O1374  1  0.236540  0.846740  0.981500  1.0  -0.5665
  O  O1375  1  0.229980  0.747430  0.065120  1.0  -0.5928
  O  O1376  1  0.180060  0.793810  0.859840  1.0  -0.5784
  O  O1377  1  0.175550  0.700010  0.044410  1.0  -0.5784
  O  O1378  1  0.183640  0.635370  0.858370  1.0  -0.5803
  O  O1379  1  0.260050  0.710520  0.952170  1.0  -0.5601
  O  O1380  1  0.258270  0.901730  0.684700  1.0  -0.5687
  O  O1381  1  0.197760  0.864840  0.861600  1.0  -0.5842
  O  O1382  1  0.292730  0.819820  0.754420  1.0  -0.5773
  O  O1383  1  0.763460  0.653260  0.981500  1.0  -0.5675
  O  O1384  1  0.770020  0.752570  0.065120  1.0  -0.5912
  O  O1385  1  0.819940  0.706190  0.859840  1.0  -0.5788
  O  O1386  1  0.824450  0.799990  0.044410  1.0  -0.5812
  O  O1387  1  0.816360  0.864630  0.858370  1.0  -0.5809
  O  O1388  1  0.739950  0.789480  0.952170  1.0  -0.561
  O  O1389  1  0.741730  0.598270  0.684700  1.0  -0.5684
  O  O1390  1  0.802240  0.635160  0.861600  1.0  -0.5839
  O  O1391  1  0.707270  0.680180  0.754420  1.0  -0.5771
  O  O1392  1  0.263460  0.153260  0.481500  1.0  -0.5675
  O  O1393  1  0.270020  0.252570  0.565120  1.0  -0.5912
  O  O1394  1  0.319940  0.206190  0.359840  1.0  -0.5788
  O  O1395  1  0.324450  0.299990  0.544410  1.0  -0.5812
  O  O1396  1  0.316360  0.364630  0.358370  1.0  -0.5809
  O  O1397  1  0.239950  0.289480  0.452170  1.0  -0.561
  O  O1398  1  0.241730  0.098270  0.184700  1.0  -0.5684
  O  O1399  1  0.302240  0.135160  0.361600  1.0  -0.5839
  O  O1400  1  0.207270  0.180180  0.254420  1.0  -0.5771
  O  O1401  1  0.903260  0.986540  0.768500  1.0  -0.5659
  O  O1402  1  0.002570  0.979980  0.684880  1.0  -0.589
  O  O1403  1  0.956190  0.930060  0.890160  1.0  -0.5818
  O  O1404  1  0.049990  0.925550  0.705590  1.0  -0.5774
  O  O1405  1  0.114630  0.933640  0.891630  1.0  -0.5814
  O  O1406  1  0.039480  0.010050  0.797830  1.0  -0.5619
  O  O1407  1  0.848270  0.008270  0.065300  1.0  -0.5683
  O  O1408  1  0.885160  0.947760  0.888400  1.0  -0.5846
  O  O1409  1  0.930180  0.042730  0.995580  1.0  -0.5779
  O  O1410  1  0.403260  0.486540  0.268500  1.0  -0.5659
  O  O1411  1  0.502570  0.479980  0.184880  1.0  -0.589
  O  O1412  1  0.456190  0.430060  0.390160  1.0  -0.5818
  O  O1413  1  0.549990  0.425550  0.205590  1.0  -0.5774
  O  O1414  1  0.614630  0.433640  0.391630  1.0  -0.5814
  O  O1415  1  0.539480  0.510050  0.297830  1.0  -0.5619
  O  O1416  1  0.348270  0.508270  0.565300  1.0  -0.5683
  O  O1417  1  0.385160  0.447760  0.388400  1.0  -0.5846
  O  O1418  1  0.430180  0.542730  0.495580  1.0  -0.5779
  O  O1419  1  0.596740  0.013460  0.268500  1.0  -0.5652
  O  O1420  1  0.497430  0.020020  0.184880  1.0  -0.5877
  O  O1421  1  0.543810  0.069940  0.390160  1.0  -0.5808
  O  O1422  1  0.450010  0.074450  0.205590  1.0  -0.5788
  O  O1423  1  0.385370  0.066360  0.391630  1.0  -0.5809
  O  O1424  1  0.460520  0.989950  0.297830  1.0  -0.5623
  O  O1425  1  0.651730  0.991730  0.565300  1.0  -0.5682
  O  O1426  1  0.614840  0.052240  0.388400  1.0  -0.5847
  O  O1427  1  0.569820  0.957270  0.495580  1.0  -0.5791
  O  O1428  1  0.096740  0.513460  0.768500  1.0  -0.5652
  O  O1429  1  0.997430  0.520020  0.684880  1.0  -0.5877
  O  O1430  1  0.043810  0.569940  0.890160  1.0  -0.5808
  O  O1431  1  0.950010  0.574450  0.705590  1.0  -0.5788
  O  O1432  1  0.885370  0.566360  0.891630  1.0  -0.5809
  O  O1433  1  0.960520  0.489950  0.797830  1.0  -0.5623
  O  O1434  1  0.151730  0.491730  0.065300  1.0  -0.5682
  O  O1435  1  0.114840  0.552240  0.888400  1.0  -0.5847
  O  O1436  1  0.069820  0.457270  0.995580  1.0  -0.5791
  O  O1437  1  0.263460  0.653260  0.518500  1.0  -0.5661
  O  O1438  1  0.270020  0.752570  0.434880  1.0  -0.5896
  O  O1439  1  0.319940  0.706190  0.640160  1.0  -0.579
  O  O1440  1  0.324450  0.799990  0.455590  1.0  -0.5811
  O  O1441  1  0.316360  0.864630  0.641630  1.0  -0.5806
  O  O1442  1  0.239950  0.789480  0.547830  1.0  -0.5613
  O  O1443  1  0.241730  0.598270  0.815300  1.0  -0.5694
  O  O1444  1  0.302240  0.635160  0.638400  1.0  -0.5841
  O  O1445  1  0.207270  0.680180  0.745580  1.0  -0.5756
  O  O1446  1  0.763460  0.153260  0.018500  1.0  -0.5661
  O  O1447  1  0.770020  0.252570  0.934880  1.0  -0.5896
  O  O1448  1  0.819940  0.206190  0.140160  1.0  -0.579
  O  O1449  1  0.824450  0.299990  0.955590  1.0  -0.5811
  O  O1450  1  0.816360  0.364630  0.141630  1.0  -0.5806
  O  O1451  1  0.739950  0.289480  0.047830  1.0  -0.5613
  O  O1452  1  0.741730  0.098270  0.315300  1.0  -0.5694
  O  O1453  1  0.802240  0.135160  0.138400  1.0  -0.5841
  O  O1454  1  0.707270  0.180180  0.245580  1.0  -0.5756
  O  O1455  1  0.236540  0.346740  0.018500  1.0  -0.5656
  O  O1456  1  0.229980  0.247430  0.934880  1.0  -0.5901
  O  O1457  1  0.180060  0.293810  0.140160  1.0  -0.5778
  O  O1458  1  0.175550  0.200010  0.955590  1.0  -0.5795
  O  O1459  1  0.183640  0.135370  0.141630  1.0  -0.5798
  O  O1460  1  0.260050  0.210520  0.047830  1.0  -0.5593
  O  O1461  1  0.258270  0.401730  0.315300  1.0  -0.57
  O  O1462  1  0.197760  0.364840  0.138400  1.0  -0.5846
  O  O1463  1  0.292730  0.319820  0.245580  1.0  -0.5762
  O  O1464  1  0.736540  0.846740  0.518500  1.0  -0.5656
  O  O1465  1  0.729980  0.747430  0.434880  1.0  -0.5901
  O  O1466  1  0.680060  0.793810  0.640160  1.0  -0.5778
  O  O1467  1  0.675550  0.700010  0.455590  1.0  -0.5795
  O  O1468  1  0.683640  0.635370  0.641630  1.0  -0.5798
  O  O1469  1  0.760050  0.710520  0.547830  1.0  -0.5593
  O  O1470  1  0.758270  0.901730  0.815300  1.0  -0.57
  O  O1471  1  0.697760  0.864840  0.638400  1.0  -0.5846
  O  O1472  1  0.792730  0.819820  0.745580  1.0  -0.5762
