# generated using pymatgen
data_Mn3H57C51N8O9
_symmetry_space_group_name_H-M   'P 1'
_cell_length_a   17.47260000
_cell_length_b   30.07330000
_cell_length_c   30.07330000
_cell_angle_alpha   85.15900000
_cell_angle_beta   73.11200000
_cell_angle_gamma   73.11210000
_symmetry_Int_Tables_number   1
_chemical_formula_structural   Mn3H57C51N8O9
_chemical_formula_sum   'Mn24 H456 C408 N64 O72'
_cell_volume   14468.71135858
_cell_formula_units_Z   8
loop_
 _symmetry_equiv_pos_site_id
 _symmetry_equiv_pos_as_xyz
  1  'x, y, z'
loop_
 _atom_site_type_symbol
 _atom_site_label
 _atom_site_symmetry_multiplicity
 _atom_site_fract_x
 _atom_site_fract_y
 _atom_site_fract_z
 _atom_site_occupancy
 _atom_site_charge
  Mn  Mn1  1  0.088570  0.916720  0.356420  1.0  0.9268
  Mn  Mn2  1  0.259500  0.883300  0.463680  1.0  0.9747
  Mn  Mn3  1  0.796970  0.997600  0.421800  1.0  0.9729
  Mn  Mn4  1  0.861710  0.583280  0.143580  1.0  0.9241
  Mn  Mn5  1  0.106480  0.616700  0.036320  1.0  0.9803
  Mn  Mn6  1  0.716370  0.502400  0.078200  1.0  0.9681
  Mn  Mn7  1  0.444990  0.643580  0.416720  1.0  0.9203
  Mn  Mn8  1  0.723180  0.536320  0.383300  1.0  0.9834
  Mn  Mn9  1  0.218770  0.578200  0.497600  1.0  0.9727
  Mn  Mn10  1  0.005290  0.856420  0.083280  1.0  0.9221
  Mn  Mn11  1  0.142800  0.963680  0.116700  1.0  0.9751
  Mn  Mn12  1  0.794570  0.921800  0.002400  1.0  0.9743
  Mn  Mn13  1  0.911430  0.083280  0.643580  1.0  0.9217
  Mn  Mn14  1  0.740500  0.116700  0.536320  1.0  0.9821
  Mn  Mn15  1  0.203030  0.002400  0.578200  1.0  0.9704
  Mn  Mn16  1  0.138290  0.416720  0.856420  1.0  0.9232
  Mn  Mn17  1  0.893520  0.383300  0.963680  1.0  0.9762
  Mn  Mn18  1  0.283630  0.497600  0.921800  1.0  0.9698
  Mn  Mn19  1  0.555010  0.356420  0.583280  1.0  0.9201
  Mn  Mn20  1  0.276820  0.463680  0.616700  1.0  0.9821
  Mn  Mn21  1  0.781230  0.421800  0.502400  1.0  0.9737
  Mn  Mn22  1  0.994710  0.143580  0.916720  1.0  0.9195
  Mn  Mn23  1  0.857200  0.036320  0.883300  1.0  0.9806
  Mn  Mn24  1  0.205430  0.078200  0.997600  1.0  0.9678
  H  H25  1  0.270400  0.756800  0.401400  1.0  0.0905
  H  H26  1  0.259600  0.695800  0.364000  1.0  0.1172
  H  H27  1  0.168600  0.710400  0.318000  1.0  0.0992
  H  H28  1  0.088200  0.784900  0.309900  1.0  0.1138
  H  H29  1  0.111100  0.028600  0.434000  1.0  0.0815
  H  H30  1  0.185700  0.993600  0.451000  1.0  0.0876
  H  H31  1  0.208500  0.027300  0.356700  1.0  0.087
  H  H32  1  0.281600  0.997800  0.378200  1.0  0.0909
  H  H33  1  0.192400  0.077800  0.427000  1.0  0.086
  H  H34  1  0.229400  0.088800  0.373800  1.0  0.0797
  H  H35  1  0.304600  0.046700  0.433300  1.0  0.0756
  H  H36  1  0.345300  0.052100  0.379300  1.0  0.0921
  H  H37  1  0.258100  0.137600  0.425200  1.0  0.0988
  H  H38  1  0.339900  0.109900  0.440300  1.0  0.1049
  H  H39  1  0.347000  0.124500  0.387100  1.0  0.1029
  H  H40  1  0.155500  0.906900  0.245900  1.0  0.0806
  H  H41  1  0.270400  0.904800  0.183800  1.0  0.1074
  H  H42  1  0.395600  0.913500  0.274100  1.0  0.1244
  H  H43  1  0.277300  0.915000  0.333800  1.0  0.0741
  H  H44  1  0.406100  0.940400  0.164000  1.0  0.0975
  H  H45  1  0.428900  0.885400  0.159400  1.0  0.0817
  H  H46  1  0.442000  0.987700  0.482900  1.0  0.1033
  H  H47  1  0.554300  0.984400  0.417000  1.0  0.117
  H  H48  1  0.566800  0.942700  0.353100  1.0  0.0974
  H  H49  1  0.470800  0.904100  0.353300  1.0  0.1107
  H  H50  1  0.065300  0.944900  0.606300  1.0  0.1036
  H  H51  1  0.021200  0.928200  0.573600  1.0  0.1023
  H  H52  1  0.016200  0.879100  0.637300  1.0  0.0876
  H  H53  1  0.079600  0.849400  0.593200  1.0  0.0816
  H  H54  1  0.132100  0.889100  0.658100  1.0  0.0761
  H  H55  1  0.193400  0.856600  0.615600  1.0  0.068
  H  H56  1  0.082400  0.826400  0.693200  1.0  0.0735
  H  H57  1  0.142800  0.793700  0.650300  1.0  0.075
  H  H58  1  0.198600  0.833800  0.713000  1.0  0.1145
  H  H59  1  0.201600  0.780200  0.712400  1.0  0.1141
  H  H60  1  0.259300  0.801700  0.669900  1.0  0.1186
  H  H61  1  0.979800  0.982100  0.247900  1.0  0.0891
  H  H62  1  0.906000  0.023000  0.198400  1.0  0.1052
  H  H63  1  0.771100  0.070300  0.228900  1.0  0.1036
  H  H64  1  0.708700  0.072500  0.308300  1.0  0.1096
  H  H65  1  0.955400  0.916800  0.508600  1.0  0.0945
  H  H66  1  0.023000  0.889500  0.464100  1.0  0.0943
  H  H67  1  0.946200  0.840700  0.515500  1.0  0.0757
  H  H68  1  0.863400  0.871900  0.503500  1.0  0.0796
  H  H69  1  0.005000  0.817400  0.437400  1.0  0.0734
  H  H70  1  0.923200  0.849000  0.425000  1.0  0.0747
  H  H71  1  0.924900  0.769700  0.484500  1.0  0.0869
  H  H72  1  0.844800  0.800800  0.469800  1.0  0.0687
  H  H73  1  0.925000  0.777700  0.390100  1.0  0.1051
  H  H74  1  0.892100  0.738500  0.422900  1.0  0.109
  H  H75  1  0.987100  0.738700  0.412700  1.0  0.1042
  H  H76  1  0.634000  0.980500  0.071100  1.0  0.0782
  H  H77  1  0.530700  0.977500  0.137700  1.0  0.1274
  H  H78  1  0.612700  0.839100  0.132500  1.0  0.1057
  H  H79  1  0.715100  0.845000  0.066400  1.0  0.0728
  H  H80  1  0.513800  0.876600  0.205800  1.0  0.0858
  H  H81  1  0.491300  0.932000  0.209800  1.0  0.0736
  H  H82  1  0.928600  0.743200  0.098600  1.0  0.0896
  H  H83  1  0.819400  0.804200  0.136000  1.0  0.1165
  H  H84  1  0.697000  0.789600  0.182000  1.0  0.099
  H  H85  1  0.683000  0.715100  0.190100  1.0  0.1143
  H  H86  1  0.073700  0.471400  0.066000  1.0  0.0805
  H  H87  1  0.130300  0.506400  0.049000  1.0  0.0891
  H  H88  1  0.092500  0.472700  0.143300  1.0  0.0867
  H  H89  1  0.157600  0.502200  0.121800  1.0  0.0914
  H  H90  1  0.197200  0.422200  0.073000  1.0  0.0843
  H  H91  1  0.192000  0.411200  0.126200  1.0  0.0783
  H  H92  1  0.284600  0.453300  0.066700  1.0  0.074
  H  H93  1  0.276700  0.447900  0.120700  1.0  0.0876
  H  H94  1  0.320900  0.362400  0.074800  1.0  0.0963
  H  H95  1  0.390100  0.390100  0.059700  1.0  0.1013
  H  H96  1  0.358600  0.375500  0.112900  1.0  0.1021
  H  H97  1  0.808300  0.593100  0.254100  1.0  0.081
  H  H98  1  0.859000  0.595200  0.316200  1.0  0.1062
  H  H99  1  0.083200  0.586500  0.225900  1.0  0.1262
  H  H100  1  0.026100  0.585000  0.166200  1.0  0.0728
  H  H101  1  0.010500  0.559600  0.336000  1.0  0.0975
  H  H102  1  0.973700  0.614600  0.340600  1.0  0.0802
  H  H103  1  0.412600  0.512300  0.017100  1.0  0.1013
  H  H104  1  0.455700  0.515600  0.083000  1.0  0.1174
  H  H105  1  0.362600  0.557300  0.146900  1.0  0.0969
  H  H106  1  0.228200  0.595900  0.146700  1.0  0.1113
  H  H107  1  0.116500  0.555100  0.893700  1.0  0.1047
  H  H108  1  0.023000  0.571800  0.926400  1.0  0.1011
  H  H109  1  0.032600  0.620900  0.862700  1.0  0.0887
  H  H110  1  0.022200  0.650600  0.906800  1.0  0.0819
  H  H111  1  0.179300  0.610900  0.841900  1.0  0.0753
  H  H112  1  0.165600  0.643400  0.884400  1.0  0.0656
  H  H113  1  0.102000  0.673600  0.806800  1.0  0.0756
  H  H114  1  0.086800  0.706300  0.849700  1.0  0.0765
  H  H115  1  0.245400  0.666200  0.787000  1.0  0.1146
  H  H116  1  0.194200  0.719800  0.787600  1.0  0.1132
  H  H117  1  0.230900  0.698300  0.830100  1.0  0.1157
  H  H118  1  0.709800  0.517900  0.252100  1.0  0.0875
  H  H119  1  0.627400  0.477000  0.301600  1.0  0.1051
  H  H120  1  0.570300  0.429700  0.271100  1.0  0.1033
  H  H121  1  0.589500  0.427500  0.191700  1.0  0.1087
  H  H122  1  0.880800  0.583200  0.991400  1.0  0.0939
  H  H123  1  0.876600  0.610500  0.035900  1.0  0.0944
  H  H124  1  0.802400  0.659300  0.984500  1.0  0.0763
  H  H125  1  0.738800  0.628100  0.996500  1.0  0.081
  H  H126  1  0.759800  0.682600  0.062600  1.0  0.0761
  H  H127  1  0.697200  0.651000  0.075000  1.0  0.0732
  H  H128  1  0.679100  0.730300  0.015500  1.0  0.0852
  H  H129  1  0.615400  0.699200  0.030200  1.0  0.0728
  H  H130  1  0.592800  0.722300  0.109900  1.0  0.1066
  H  H131  1  0.553500  0.761500  0.077100  1.0  0.1098
  H  H132  1  0.638500  0.761300  0.087300  1.0  0.1058
  H  H133  1  0.185600  0.519500  0.428900  1.0  0.0789
  H  H134  1  0.145900  0.522500  0.362300  1.0  0.126
  H  H135  1  0.084300  0.660900  0.367500  1.0  0.1058
  H  H136  1  0.126500  0.655000  0.433600  1.0  0.071
  H  H137  1  0.096200  0.623400  0.294200  1.0  0.0851
  H  H138  1  0.133100  0.568000  0.290200  1.0  0.0736
  H  H139  1  0.671800  0.598600  0.256800  1.0  0.0892
  H  H140  1  0.623600  0.636000  0.195800  1.0  0.115
  H  H141  1  0.486600  0.682000  0.210400  1.0  0.099
  H  H142  1  0.398100  0.690100  0.284900  1.0  0.1146
  H  H143  1  0.545100  0.566000  0.528600  1.0  0.0807
  H  H144  1  0.636700  0.549000  0.493600  1.0  0.0883
  H  H145  1  0.565200  0.643300  0.527300  1.0  0.0862
  H  H146  1  0.659800  0.621800  0.497800  1.0  0.0887
  H  H147  1  0.619400  0.573000  0.577800  1.0  0.0902
  H  H148  1  0.603200  0.626200  0.588800  1.0  0.0768
  H  H149  1  0.737900  0.566700  0.546700  1.0  0.0765
  H  H150  1  0.724600  0.620700  0.552100  1.0  0.0849
  H  H151  1  0.683300  0.574800  0.637600  1.0  0.0969
  H  H152  1  0.780200  0.559700  0.609900  1.0  0.1048
  H  H153  1  0.734100  0.612900  0.624500  1.0  0.101
  H  H154  1  0.401400  0.754100  0.406900  1.0  0.0815
  H  H155  1  0.454200  0.816200  0.404800  1.0  0.106
  H  H156  1  0.669700  0.725900  0.413500  1.0  0.1238
  H  H157  1  0.611100  0.666200  0.415000  1.0  0.0724
  H  H158  1  0.570100  0.836000  0.440400  1.0  0.1015
  H  H159  1  0.588300  0.840600  0.385400  1.0  0.0808
  H  H160  1  0.924900  0.517100  0.487700  1.0  0.1018
  H  H161  1  0.971300  0.583000  0.484400  1.0  0.1175
  H  H162  1  0.919900  0.646900  0.442700  1.0  0.0967
  H  H163  1  0.824100  0.646700  0.404100  1.0  0.111
  H  H164  1  0.671600  0.393700  0.444900  1.0  0.1017
  H  H165  1  0.594800  0.426400  0.428200  1.0  0.1008
  H  H166  1  0.653500  0.362700  0.379100  1.0  0.0871
  H  H167  1  0.672800  0.406800  0.349400  1.0  0.081
  H  H168  1  0.790200  0.341900  0.389100  1.0  0.0726
  H  H169  1  0.809000  0.384400  0.356600  1.0  0.0698
  H  H170  1  0.775600  0.306800  0.326400  1.0  0.0716
  H  H171  1  0.793100  0.349700  0.293700  1.0  0.0737
  H  H172  1  0.911600  0.287000  0.333800  1.0  0.1151
  H  H173  1  0.914000  0.287600  0.280200  1.0  0.114
  H  H174  1  0.929200  0.330100  0.301700  1.0  0.1199
  H  H175  1  0.227700  0.752100  0.482100  1.0  0.0884
  H  H176  1  0.104400  0.801600  0.523000  1.0  0.106
  H  H177  1  0.000000  0.771100  0.570300  1.0  0.1033
  H  H178  1  0.017000  0.691700  0.572500  1.0  0.1101
  H  H179  1  0.464000  0.491400  0.416800  1.0  0.0948
  H  H180  1  0.487100  0.535900  0.389500  1.0  0.0936
  H  H181  1  0.461700  0.484500  0.340700  1.0  0.0769
  H  H182  1  0.366900  0.496500  0.371900  1.0  0.0799
  H  H183  1  0.442400  0.562600  0.317400  1.0  0.0734
  H  H184  1  0.348200  0.575000  0.349000  1.0  0.0717
  H  H185  1  0.409400  0.515500  0.269700  1.0  0.0857
  H  H186  1  0.314600  0.530200  0.300800  1.0  0.066
  H  H187  1  0.315100  0.609900  0.277700  1.0  0.1055
  H  H188  1  0.315000  0.577100  0.238500  1.0  0.1089
  H  H189  1  0.399800  0.587300  0.238700  1.0  0.102
  H  H190  1  0.705100  0.928900  0.480500  1.0  0.0806
  H  H191  1  0.668400  0.862300  0.477500  1.0  0.1261
  H  H192  1  0.745200  0.867500  0.339100  1.0  0.1058
  H  H193  1  0.781500  0.933600  0.345000  1.0  0.0723
  H  H194  1  0.719600  0.794200  0.376600  1.0  0.0894
  H  H195  1  0.701100  0.790200  0.432000  1.0  0.0751
  H  H196  1  0.027200  0.901400  0.243200  1.0  0.0898
  H  H197  1  0.955400  0.864000  0.304200  1.0  0.1169
  H  H198  1  0.879000  0.818000  0.289600  1.0  0.099
  H  H199  1  0.873100  0.809900  0.215100  1.0  0.1152
  H  H200  1  0.139700  0.934000  0.971400  1.0  0.0803
  H  H201  1  0.179300  0.951000  0.006400  1.0  0.0871
  H  H202  1  0.235800  0.856700  0.972700  1.0  0.0788
  H  H203  1  0.279400  0.878200  0.002200  1.0  0.0877
  H  H204  1  0.270200  0.927000  0.922200  1.0  0.0875
  H  H205  1  0.318200  0.873800  0.911200  1.0  0.0756
  H  H206  1  0.351300  0.933300  0.953300  1.0  0.0742
  H  H207  1  0.397400  0.879300  0.947900  1.0  0.0804
  H  H208  1  0.395700  0.925200  0.862400  1.0  0.0981
  H  H209  1  0.449800  0.940300  0.890100  1.0  0.1044
  H  H210  1  0.471500  0.887100  0.875500  1.0  0.1029
  H  H211  1  0.062400  0.745900  0.093100  1.0  0.0815
  H  H212  1  0.175200  0.683800  0.095200  1.0  0.1063
  H  H213  1  0.309100  0.774100  0.086500  1.0  0.124
  H  H214  1  0.192300  0.833800  0.085000  1.0  0.0727
  H  H215  1  0.346500  0.664000  0.059600  1.0  0.104
  H  H216  1  0.314300  0.659400  0.114600  1.0  0.0815
  H  H217  1  0.429700  0.982900  0.012300  1.0  0.1014
  H  H218  1  0.538700  0.917000  0.015600  1.0  0.1167
  H  H219  1  0.509500  0.853100  0.057300  1.0  0.0979
  H  H220  1  0.374900  0.853300  0.095900  1.0  0.1123
  H  H221  1  0.010200  0.106300  0.055100  1.0  0.1043
  H  H222  1  0.949400  0.073600  0.071800  1.0  0.1026
  H  H223  1  0.895300  0.137300  0.120900  1.0  0.0865
  H  H224  1  0.929000  0.093200  0.150600  1.0  0.0818
  H  H225  1  0.021200  0.158100  0.110900  1.0  0.0737
  H  H226  1  0.050000  0.115600  0.143400  1.0  0.067
  H  H227  1  0.908800  0.193200  0.173600  1.0  0.0761
  H  H228  1  0.936500  0.150300  0.206300  1.0  0.0748
  H  H229  1  0.032400  0.213000  0.166200  1.0  0.1131
  H  H230  1  0.981800  0.212400  0.219800  1.0  0.1131
  H  H231  1  0.061000  0.169900  0.198300  1.0  0.1149
  H  H232  1  0.961900  0.747900  0.017900  1.0  0.0883
  H  H233  1  0.929000  0.698400  0.977000  1.0  0.1068
  H  H234  1  0.841400  0.728900  0.929700  1.0  0.1031
  H  H235  1  0.781200  0.808300  0.927500  1.0  0.1087
  H  H236  1  0.872200  0.008600  0.083200  1.0  0.0941
  H  H237  1  0.912500  0.964100  0.110500  1.0  0.0952
  H  H238  1  0.786900  0.015500  0.159300  1.0  0.0753
  H  H239  1  0.735300  0.003500  0.128100  1.0  0.0802
  H  H240  1  0.822400  0.937400  0.182600  1.0  0.0772
  H  H241  1  0.772200  0.925000  0.151000  1.0  0.0725
  H  H242  1  0.694600  0.984500  0.230300  1.0  0.0839
  H  H243  1  0.645600  0.969800  0.199200  1.0  0.0702
  H  H244  1  0.702700  0.890100  0.222300  1.0  0.1033
  H  H245  1  0.630600  0.922900  0.261500  1.0  0.1116
  H  H246  1  0.725800  0.912700  0.261300  1.0  0.1057
  H  H247  1  0.614500  0.571100  0.019500  1.0  0.0791
  H  H248  1  0.508200  0.637700  0.022500  1.0  0.1258
  H  H249  1  0.451800  0.632500  0.160900  1.0  0.105
  H  H250  1  0.560100  0.566400  0.155000  1.0  0.0729
  H  H251  1  0.390400  0.705800  0.123400  1.0  0.0883
  H  H252  1  0.423300  0.709800  0.068000  1.0  0.0731
  H  H253  1  0.729600  0.243200  0.598600  1.0  0.0902
  H  H254  1  0.740400  0.304200  0.636000  1.0  0.117
  H  H255  1  0.831400  0.289600  0.682000  1.0  0.0991
  H  H256  1  0.911800  0.215100  0.690100  1.0  0.1138
  H  H257  1  0.888900  0.971400  0.566000  1.0  0.0822
  H  H258  1  0.814300  0.006400  0.549000  1.0  0.0871
  H  H259  1  0.791500  0.972700  0.643300  1.0  0.0863
  H  H260  1  0.718400  0.002200  0.621800  1.0  0.0914
  H  H261  1  0.807600  0.922200  0.573000  1.0  0.0871
  H  H262  1  0.770600  0.911200  0.626200  1.0  0.0778
  H  H263  1  0.695400  0.953300  0.566700  1.0  0.0773
  H  H264  1  0.654700  0.947900  0.620700  1.0  0.0888
  H  H265  1  0.741900  0.862400  0.574800  1.0  0.0969
  H  H266  1  0.660100  0.890100  0.559700  1.0  0.1044
  H  H267  1  0.653000  0.875500  0.612900  1.0  0.1021
  H  H268  1  0.844500  0.093100  0.754100  1.0  0.0804
  H  H269  1  0.729600  0.095200  0.816200  1.0  0.1072
  H  H270  1  0.604400  0.086500  0.725900  1.0  0.124
  H  H271  1  0.722700  0.085000  0.666200  1.0  0.0746
  H  H272  1  0.593900  0.059600  0.836000  1.0  0.0985
  H  H273  1  0.571100  0.114600  0.840600  1.0  0.0807
  H  H274  1  0.558000  0.012300  0.517100  1.0  0.1029
  H  H275  1  0.445700  0.015600  0.583000  1.0  0.1167
  H  H276  1  0.433200  0.057300  0.646900  1.0  0.097
  H  H277  1  0.529200  0.095900  0.646700  1.0  0.111
  H  H278  1  0.934700  0.055100  0.393700  1.0  0.1049
  H  H279  1  0.978800  0.071800  0.426400  1.0  0.102
  H  H280  1  0.983800  0.120900  0.362700  1.0  0.0895
  H  H281  1  0.920400  0.150600  0.406800  1.0  0.082
  H  H282  1  0.867900  0.110900  0.341900  1.0  0.0762
  H  H283  1  0.806600  0.143400  0.384400  1.0  0.0676
  H  H284  1  0.917600  0.173600  0.306800  1.0  0.075
  H  H285  1  0.857200  0.206300  0.349700  1.0  0.0761
  H  H286  1  0.801400  0.166200  0.287000  1.0  0.1138
  H  H287  1  0.798400  0.219800  0.287600  1.0  0.1132
  H  H288  1  0.740700  0.198300  0.330100  1.0  0.1138
  H  H289  1  0.020200  0.017900  0.752100  1.0  0.0889
  H  H290  1  0.094000  0.977000  0.801600  1.0  0.1059
  H  H291  1  0.228900  0.929700  0.771100  1.0  0.1035
  H  H292  1  0.291300  0.927500  0.691700  1.0  0.1082
  H  H293  1  0.044600  0.083200  0.491400  1.0  0.0949
  H  H294  1  0.977000  0.110500  0.535900  1.0  0.0937
  H  H295  1  0.053800  0.159300  0.484500  1.0  0.076
  H  H296  1  0.136600  0.128100  0.496500  1.0  0.082
  H  H297  1  0.995000  0.182600  0.562600  1.0  0.0731
  H  H298  1  0.076800  0.151000  0.575000  1.0  0.0736
  H  H299  1  0.075100  0.230300  0.515500  1.0  0.086
  H  H300  1  0.155200  0.199200  0.530200  1.0  0.0689
  H  H301  1  0.075000  0.222300  0.609900  1.0  0.1053
  H  H302  1  0.107900  0.261500  0.577100  1.0  0.1101
  H  H303  1  0.012900  0.261300  0.587300  1.0  0.105
  H  H304  1  0.366000  0.019500  0.928900  1.0  0.0782
  H  H305  1  0.469300  0.022500  0.862300  1.0  0.126
  H  H306  1  0.387300  0.160900  0.867500  1.0  0.106
  H  H307  1  0.284900  0.155000  0.933600  1.0  0.0725
  H  H308  1  0.486200  0.123400  0.794200  1.0  0.0861
  H  H309  1  0.508700  0.068000  0.790200  1.0  0.0733
  H  H310  1  0.071400  0.256800  0.901400  1.0  0.0895
  H  H311  1  0.180600  0.195800  0.864000  1.0  0.1168
  H  H312  1  0.303000  0.210400  0.818000  1.0  0.0992
  H  H313  1  0.317000  0.284900  0.809900  1.0  0.1143
  H  H314  1  0.926300  0.528600  0.934000  1.0  0.079
  H  H315  1  0.869700  0.493600  0.951000  1.0  0.0882
  H  H316  1  0.907500  0.527300  0.856700  1.0  0.0878
  H  H317  1  0.842400  0.497800  0.878200  1.0  0.0902
  H  H318  1  0.802800  0.577800  0.927000  1.0  0.0831
  H  H319  1  0.808000  0.588800  0.873800  1.0  0.0775
  H  H320  1  0.715400  0.546700  0.933300  1.0  0.0749
  H  H321  1  0.723300  0.552100  0.879300  1.0  0.0873
  H  H322  1  0.679100  0.637600  0.925200  1.0  0.0986
  H  H323  1  0.609900  0.609900  0.940300  1.0  0.1013
  H  H324  1  0.641400  0.624500  0.887100  1.0  0.1015
  H  H325  1  0.191700  0.406900  0.745900  1.0  0.081
  H  H326  1  0.141000  0.404800  0.683800  1.0  0.1065
  H  H327  1  0.916800  0.413500  0.774100  1.0  0.1247
  H  H328  1  0.973900  0.415000  0.833800  1.0  0.0732
  H  H329  1  0.989500  0.440400  0.664000  1.0  0.097
  H  H330  1  0.026300  0.385400  0.659400  1.0  0.0806
  H  H331  1  0.587400  0.487700  0.982900  1.0  0.1013
  H  H332  1  0.544300  0.484400  0.917000  1.0  0.1175
  H  H333  1  0.637400  0.442700  0.853100  1.0  0.0979
  H  H334  1  0.771800  0.404100  0.853300  1.0  0.111
  H  H335  1  0.883500  0.444900  0.106300  1.0  0.1044
  H  H336  1  0.977000  0.428200  0.073600  1.0  0.1017
  H  H337  1  0.967400  0.379100  0.137300  1.0  0.0884
  H  H338  1  0.977800  0.349400  0.093200  1.0  0.0821
  H  H339  1  0.820700  0.389100  0.158100  1.0  0.0776
  H  H340  1  0.834400  0.356600  0.115600  1.0  0.0659
  H  H341  1  0.898000  0.326400  0.193200  1.0  0.0748
  H  H342  1  0.913200  0.293700  0.150300  1.0  0.0758
  H  H343  1  0.754600  0.333800  0.213000  1.0  0.1145
  H  H344  1  0.805800  0.280200  0.212400  1.0  0.1126
  H  H345  1  0.769100  0.301700  0.169900  1.0  0.1155
  H  H346  1  0.290200  0.482100  0.747900  1.0  0.0882
  H  H347  1  0.372600  0.523000  0.698400  1.0  0.105
  H  H348  1  0.429700  0.570300  0.728900  1.0  0.1027
  H  H349  1  0.410500  0.572500  0.808300  1.0  0.1085
  H  H350  1  0.119200  0.416800  0.008600  1.0  0.094
  H  H351  1  0.123400  0.389500  0.964100  1.0  0.0945
  H  H352  1  0.197600  0.340700  0.015500  1.0  0.0757
  H  H353  1  0.261200  0.371900  0.003500  1.0  0.0797
  H  H354  1  0.240200  0.317400  0.937400  1.0  0.0765
  H  H355  1  0.302800  0.349000  0.925000  1.0  0.0733
  H  H356  1  0.320900  0.269700  0.984500  1.0  0.087
  H  H357  1  0.384600  0.300800  0.969800  1.0  0.0722
  H  H358  1  0.407200  0.277700  0.890100  1.0  0.1061
  H  H359  1  0.446500  0.238500  0.922900  1.0  0.1088
  H  H360  1  0.361500  0.238700  0.912700  1.0  0.1054
  H  H361  1  0.814400  0.480500  0.571100  1.0  0.0792
  H  H362  1  0.854100  0.477500  0.637700  1.0  0.1261
  H  H363  1  0.915700  0.339100  0.632500  1.0  0.1052
  H  H364  1  0.873500  0.345000  0.566400  1.0  0.0714
  H  H365  1  0.903800  0.376600  0.705800  1.0  0.0856
  H  H366  1  0.866900  0.432000  0.709800  1.0  0.0736
  H  H367  1  0.328200  0.401400  0.743200  1.0  0.0891
  H  H368  1  0.376400  0.364000  0.804200  1.0  0.1158
  H  H369  1  0.513400  0.318000  0.789600  1.0  0.0992
  H  H370  1  0.601900  0.309900  0.715100  1.0  0.1143
  H  H371  1  0.454900  0.434000  0.471400  1.0  0.0809
  H  H372  1  0.363300  0.451000  0.506400  1.0  0.0879
  H  H373  1  0.434800  0.356700  0.472700  1.0  0.0811
  H  H374  1  0.340200  0.378200  0.502200  1.0  0.0874
  H  H375  1  0.380600  0.427000  0.422200  1.0  0.0897
  H  H376  1  0.396800  0.373800  0.411200  1.0  0.0755
  H  H377  1  0.262100  0.433300  0.453300  1.0  0.076
  H  H378  1  0.275400  0.379300  0.447900  1.0  0.0835
  H  H379  1  0.316700  0.425200  0.362400  1.0  0.0957
  H  H380  1  0.219800  0.440300  0.390100  1.0  0.1035
  H  H381  1  0.265900  0.387100  0.375500  1.0  0.1012
  H  H382  1  0.598600  0.245900  0.593100  1.0  0.081
  H  H383  1  0.545800  0.183800  0.595200  1.0  0.1064
  H  H384  1  0.330300  0.274100  0.586500  1.0  0.1239
  H  H385  1  0.388900  0.333800  0.585000  1.0  0.0726
  H  H386  1  0.429900  0.164000  0.559600  1.0  0.1037
  H  H387  1  0.411700  0.159400  0.614600  1.0  0.0813
  H  H388  1  0.075100  0.482900  0.512300  1.0  0.1017
  H  H389  1  0.028700  0.417000  0.515600  1.0  0.1163
  H  H390  1  0.080100  0.353100  0.557300  1.0  0.0974
  H  H391  1  0.175900  0.353300  0.595900  1.0  0.112
  H  H392  1  0.328400  0.606300  0.555100  1.0  0.1028
  H  H393  1  0.405200  0.573600  0.571800  1.0  0.1023
  H  H394  1  0.346500  0.637300  0.620900  1.0  0.0886
  H  H395  1  0.327200  0.593200  0.650600  1.0  0.0816
  H  H396  1  0.209800  0.658100  0.610900  1.0  0.0742
  H  H397  1  0.191000  0.615600  0.643400  1.0  0.0673
  H  H398  1  0.224400  0.693200  0.673600  1.0  0.0744
  H  H399  1  0.206900  0.650300  0.706300  1.0  0.0738
  H  H400  1  0.088400  0.713000  0.666200  1.0  0.1157
  H  H401  1  0.086000  0.712400  0.719800  1.0  0.1135
  H  H402  1  0.070800  0.669900  0.698300  1.0  0.1139
  H  H403  1  0.772300  0.247900  0.517900  1.0  0.0885
  H  H404  1  0.895600  0.198400  0.477000  1.0  0.1067
  H  H405  1  0.000000  0.228900  0.429700  1.0  0.1031
  H  H406  1  0.983000  0.308300  0.427500  1.0  0.1083
  H  H407  1  0.536000  0.508600  0.583200  1.0  0.0951
  H  H408  1  0.512900  0.464100  0.610500  1.0  0.0937
  H  H409  1  0.538300  0.515500  0.659300  1.0  0.0758
  H  H410  1  0.633100  0.503500  0.628100  1.0  0.0821
  H  H411  1  0.557600  0.437400  0.682600  1.0  0.0733
  H  H412  1  0.651800  0.425000  0.651000  1.0  0.0728
  H  H413  1  0.590600  0.484500  0.730300  1.0  0.0846
  H  H414  1  0.685400  0.469800  0.699200  1.0  0.0617
  H  H415  1  0.684900  0.390100  0.722300  1.0  0.1042
  H  H416  1  0.685000  0.422900  0.761500  1.0  0.1097
  H  H417  1  0.600200  0.412700  0.761300  1.0  0.1015
  H  H418  1  0.294900  0.071100  0.519500  1.0  0.0799
  H  H419  1  0.331600  0.137700  0.522500  1.0  0.1265
  H  H420  1  0.254800  0.132500  0.660900  1.0  0.1048
  H  H421  1  0.218500  0.066400  0.655000  1.0  0.0725
  H  H422  1  0.280400  0.205800  0.623400  1.0  0.0882
  H  H423  1  0.298900  0.209800  0.568000  1.0  0.0734
  H  H424  1  0.972800  0.098600  0.756800  1.0  0.0898
  H  H425  1  0.044600  0.136000  0.695800  1.0  0.1176
  H  H426  1  0.121000  0.182000  0.710400  1.0  0.0993
  H  H427  1  0.126900  0.190100  0.784900  1.0  0.1145
  H  H428  1  0.860300  0.066000  0.028600  1.0  0.0796
  H  H429  1  0.820700  0.049000  0.993600  1.0  0.088
  H  H430  1  0.764200  0.143300  0.027300  1.0  0.0859
  H  H431  1  0.720600  0.121800  0.997800  1.0  0.0882
  H  H432  1  0.729800  0.073000  0.077800  1.0  0.0861
  H  H433  1  0.681800  0.126200  0.088800  1.0  0.0751
  H  H434  1  0.648700  0.066700  0.046700  1.0  0.0765
  H  H435  1  0.602600  0.120700  0.052100  1.0  0.0835
  H  H436  1  0.604300  0.074800  0.137600  1.0  0.0981
  H  H437  1  0.550200  0.059700  0.109900  1.0  0.1045
  H  H438  1  0.528500  0.112900  0.124500  1.0  0.1013
  H  H439  1  0.937600  0.254100  0.906900  1.0  0.081
  H  H440  1  0.824800  0.316200  0.904800  1.0  0.1061
  H  H441  1  0.690900  0.225900  0.913500  1.0  0.1238
  H  H442  1  0.807700  0.166200  0.915000  1.0  0.072
  H  H443  1  0.653500  0.336000  0.940400  1.0  0.103
  H  H444  1  0.685700  0.340600  0.885400  1.0  0.0804
  H  H445  1  0.570300  0.017100  0.987700  1.0  0.1011
  H  H446  1  0.461300  0.083000  0.984400  1.0  0.115
  H  H447  1  0.490500  0.146900  0.942700  1.0  0.0973
  H  H448  1  0.625100  0.146700  0.904100  1.0  0.1118
  H  H449  1  0.989800  0.893700  0.944900  1.0  0.1032
  H  H450  1  0.050600  0.926400  0.928200  1.0  0.1024
  H  H451  1  0.104700  0.862700  0.879100  1.0  0.0866
  H  H452  1  0.071000  0.906800  0.849400  1.0  0.0825
  H  H453  1  0.978800  0.841900  0.889100  1.0  0.0756
  H  H454  1  0.950000  0.884400  0.856600  1.0  0.067
  H  H455  1  0.091200  0.806800  0.826400  1.0  0.0746
  H  H456  1  0.063500  0.849700  0.793700  1.0  0.0749
  H  H457  1  0.967600  0.787000  0.833800  1.0  0.1127
  H  H458  1  0.018200  0.787600  0.780200  1.0  0.1128
  H  H459  1  0.939000  0.830100  0.801700  1.0  0.1135
  H  H460  1  0.038100  0.252100  0.982100  1.0  0.0883
  H  H461  1  0.071000  0.301600  0.023000  1.0  0.1061
  H  H462  1  0.158600  0.271100  0.070300  1.0  0.1039
  H  H463  1  0.218800  0.191700  0.072500  1.0  0.1084
  H  H464  1  0.127800  0.991400  0.916800  1.0  0.094
  H  H465  1  0.087500  0.035900  0.889500  1.0  0.0956
  H  H466  1  0.213100  0.984500  0.840700  1.0  0.0766
  H  H467  1  0.264700  0.996500  0.871900  1.0  0.0793
  H  H468  1  0.177600  0.062600  0.817400  1.0  0.077
  H  H469  1  0.227800  0.075000  0.849000  1.0  0.0724
  H  H470  1  0.305400  0.015500  0.769700  1.0  0.0859
  H  H471  1  0.354400  0.030200  0.800800  1.0  0.0716
  H  H472  1  0.297300  0.109900  0.777700  1.0  0.1051
  H  H473  1  0.369400  0.077100  0.738500  1.0  0.1106
  H  H474  1  0.274200  0.087300  0.738700  1.0  0.1058
  H  H475  1  0.385500  0.428900  0.980500  1.0  0.0782
  H  H476  1  0.491800  0.362300  0.977500  1.0  0.124
  H  H477  1  0.548200  0.367500  0.839100  1.0  0.1045
  H  H478  1  0.439900  0.433600  0.845000  1.0  0.0732
  H  H479  1  0.609600  0.294200  0.876600  1.0  0.0914
  H  H480  1  0.576700  0.290200  0.932000  1.0  0.0752
  C  C481  1  0.131850  0.817370  0.350330  1.0  0.3642
  C  C482  1  0.186480  0.808740  0.378300  1.0  -0.1679
  C  C483  1  0.233180  0.762900  0.382540  1.0  -0.0395
  C  C484  1  0.227130  0.726570  0.360570  1.0  -0.1405
  C  C485  1  0.173030  0.735450  0.333490  1.0  -0.1068
  C  C486  1  0.125650  0.779670  0.328430  1.0  -0.2388
  C  C487  1  0.197130  0.845450  0.403290  1.0  0.5952
  C  C488  1  0.145880  0.963110  0.406730  1.0  0.5617
  C  C489  1  0.163480  0.003400  0.423840  1.0  -0.2915
  C  C490  1  0.227270  0.021760  0.385300  1.0  -0.1717
  C  C491  1  0.238300  0.066000  0.398800  1.0  -0.0759
  C  C492  1  0.298700  0.066900  0.406100  1.0  -0.1176
  C  C493  1  0.312200  0.114200  0.415600  1.0  -0.3581
  C  C494  1  0.205180  0.908500  0.251740  1.0  0.1679
  C  C495  1  0.273240  0.907330  0.214590  1.0  -0.1961
  C  C496  1  0.345310  0.909820  0.221960  1.0  0.1229
  C  C497  1  0.346340  0.912360  0.267360  1.0  -0.2674
  C  C498  1  0.275740  0.913240  0.302680  1.0  0.1705
  C  C499  1  0.420560  0.910720  0.180760  1.0  -0.2272
  C  C500  1  0.400470  0.919230  0.419830  1.0  0.3199
  C  C501  1  0.390310  0.946270  0.457910  1.0  -0.1458
  C  C502  1  0.448130  0.970110  0.456630  1.0  -0.0821
  C  C503  1  0.514460  0.968470  0.417610  1.0  -0.1299
  C  C504  1  0.521570  0.943700  0.380160  1.0  -0.1282
  C  C505  1  0.465310  0.920110  0.380470  1.0  -0.1723
  C  C506  1  0.318670  0.952510  0.499550  1.0  0.5568
  C  C507  1  0.147570  0.914010  0.546250  1.0  0.5426
  C  C508  1  0.070470  0.919400  0.585860  1.0  -0.3281
  C  C509  1  0.071080  0.875190  0.614050  1.0  -0.0751
  C  C510  1  0.138530  0.862400  0.638940  1.0  -0.085
  C  C511  1  0.137000  0.820430  0.669370  1.0  -0.0683
  C  C512  1  0.205000  0.807980  0.693220  1.0  -0.3354
  C  C513  1  0.807310  0.027880  0.326900  1.0  0.3289
  C  C514  1  0.889150  0.001150  0.308550  1.0  -0.1571
  C  C515  1  0.924120  0.000300  0.260460  1.0  -0.0442
  C  C516  1  0.881190  0.024740  0.231080  1.0  -0.0999
  C  C517  1  0.801010  0.052210  0.249170  1.0  -0.1019
  C  C518  1  0.764160  0.053700  0.296380  1.0  -0.2374
  C  C519  1  0.940420  0.972770  0.337190  1.0  0.5808
  C  C520  1  0.921890  0.934810  0.448410  1.0  0.558
  C  C521  1  0.962530  0.901070  0.479470  1.0  -0.2683
  C  C522  1  0.924610  0.859790  0.490990  1.0  -0.0838
  C  C523  1  0.943760  0.829520  0.449560  1.0  -0.117
  C  C524  1  0.906300  0.788690  0.459110  1.0  -0.0679
  C  C525  1  0.929600  0.758300  0.417700  1.0  -0.3339
  C  C526  1  0.630400  0.951020  0.083980  1.0  0.1598
  C  C527  1  0.569340  0.949410  0.123910  1.0  -0.2129
  C  C528  1  0.563440  0.907450  0.144270  1.0  0.1226
  C  C529  1  0.617030  0.868950  0.120990  1.0  -0.1843
  C  C530  1  0.677130  0.872640  0.081300  1.0  0.1711
  C  C531  1  0.497100  0.906290  0.189510  1.0  -0.1545
  C  C532  1  0.799550  0.682630  0.149670  1.0  0.3664
  C  C533  1  0.873520  0.691260  0.121700  1.0  -0.1708
  C  C534  1  0.878620  0.737100  0.117460  1.0  -0.0386
  C  C535  1  0.814270  0.773430  0.139430  1.0  -0.1385
  C  C536  1  0.741970  0.764550  0.166510  1.0  -0.1093
  C  C537  1  0.733750  0.720330  0.171570  1.0  -0.242
  C  C538  1  0.945870  0.654550  0.096710  1.0  0.5944
  C  C539  1  0.015720  0.536890  0.093270  1.0  0.5613
  C  C540  1  0.090720  0.496600  0.076160  1.0  -0.2919
  C  C541  1  0.134330  0.478240  0.114700  1.0  -0.173
  C  C542  1  0.203100  0.434000  0.101200  1.0  -0.0824
  C  C543  1  0.271700  0.433100  0.093900  1.0  -0.1248
  C  C544  1  0.342000  0.385800  0.084400  1.0  -0.3636
  C  C545  1  0.865420  0.591500  0.248260  1.0  0.17
  C  C546  1  0.895160  0.592670  0.285410  1.0  -0.1973
  C  C547  1  0.977090  0.590180  0.278040  1.0  0.1249
  C  C548  1  0.026060  0.587640  0.232640  1.0  -0.2651
  C  C549  1  0.991660  0.586760  0.197320  1.0  0.1726
  C  C550  1  0.012040  0.589280  0.319240  1.0  -0.2316
  C  C551  1  0.239530  0.580770  0.080170  1.0  0.321
  C  C552  1  0.294490  0.553730  0.042090  1.0  -0.1442
  C  C553  1  0.374870  0.529890  0.043370  1.0  -0.0846
  C  C554  1  0.400540  0.531530  0.082390  1.0  -0.1319
  C  C555  1  0.345430  0.556300  0.119840  1.0  -0.1265
  C  C556  1  0.265890  0.579890  0.119530  1.0  -0.1757
  C  C557  1  0.270730  0.547490  0.000450  1.0  0.5561
  C  C558  1  0.107830  0.585990  0.953750  1.0  0.5437
  C  C559  1  0.075730  0.580600  0.914140  1.0  -0.3255
  C  C560  1  0.060320  0.624810  0.885950  1.0  -0.0762
  C  C561  1  0.139870  0.637600  0.861060  1.0  -0.0866
  C  C562  1  0.126800  0.679570  0.830630  1.0  -0.0674
  C  C563  1  0.206200  0.692020  0.806780  1.0  -0.3334
  C  C564  1  0.662090  0.472120  0.173100  1.0  0.3275
  C  C565  1  0.698850  0.498850  0.191450  1.0  -0.1602
  C  C566  1  0.684880  0.499700  0.239540  1.0  -0.0458
  C  C567  1  0.637010  0.475260  0.268920  1.0  -0.0983
  C  C568  1  0.602390  0.447790  0.250830  1.0  -0.1013
  C  C569  1  0.614240  0.446300  0.203620  1.0  -0.2355
  C  C570  1  0.750380  0.527230  0.162810  1.0  0.5808
  C  C571  1  0.805110  0.565190  0.051590  1.0  0.5561
  C  C572  1  0.843070  0.598930  0.020530  1.0  -0.2645
  C  C573  1  0.775390  0.640210  0.009010  1.0  -0.084
  C  C574  1  0.722840  0.670480  0.050440  1.0  -0.1179
  C  C575  1  0.654100  0.711310  0.040890  1.0  -0.0652
  C  C576  1  0.605600  0.741700  0.082300  1.0  -0.3307
  C  C577  1  0.165400  0.548980  0.416020  1.0  0.1622
  C  C578  1  0.142660  0.550590  0.376090  1.0  -0.2083
  C  C579  1  0.115160  0.592550  0.355730  1.0  0.1224
  C  C580  1  0.106970  0.631050  0.379010  1.0  -0.1841
  C  C581  1  0.131070  0.627360  0.418700  1.0  0.1711
  C  C582  1  0.092900  0.593710  0.310490  1.0  -0.1506
  C  C583  1  0.482180  0.649670  0.317370  1.0  0.367
  C  C584  1  0.564780  0.621700  0.308740  1.0  -0.1674
  C  C585  1  0.615720  0.617460  0.262900  1.0  -0.0383
  C  C586  1  0.587700  0.639430  0.226570  1.0  -0.1376
  C  C587  1  0.506520  0.666510  0.235450  1.0  -0.1016
  C  C588  1  0.454080  0.671570  0.279670  1.0  -0.2434
  C  C589  1  0.600420  0.596710  0.345450  1.0  0.5943
  C  C590  1  0.552610  0.593270  0.463110  1.0  0.564
  C  C591  1  0.587320  0.576160  0.503400  1.0  -0.2931
  C  C592  1  0.612570  0.614700  0.521760  1.0  -0.1759
  C  C593  1  0.637100  0.601200  0.566000  1.0  -0.0761
  C  C594  1  0.704800  0.593900  0.566900  1.0  -0.1222
  C  C595  1  0.727800  0.584400  0.614200  1.0  -0.3597
  C  C596  1  0.456920  0.748260  0.408500  1.0  0.1686
  C  C597  1  0.487830  0.785410  0.407330  1.0  -0.1952
  C  C598  1  0.567270  0.778040  0.409820  1.0  0.124
  C  C599  1  0.613700  0.732640  0.412360  1.0  -0.2673
  C  C600  1  0.578420  0.697320  0.413240  1.0  0.1676
  C  C601  1  0.601320  0.819240  0.410720  1.0  -0.2285
  C  C602  1  0.820300  0.580170  0.419230  1.0  0.3231
  C  C603  1  0.848220  0.542090  0.446270  1.0  -0.1428
  C  C604  1  0.904760  0.543370  0.470110  1.0  -0.0866
  C  C605  1  0.932070  0.582390  0.468470  1.0  -0.1292
  C  C606  1  0.901730  0.619840  0.443700  1.0  -0.1241
  C  C607  1  0.845780  0.619530  0.420110  1.0  -0.1701
  C  C608  1  0.818220  0.500450  0.452510  1.0  0.5561
  C  C609  1  0.693820  0.453750  0.414010  1.0  0.5413
  C  C610  1  0.656330  0.414140  0.419400  1.0  -0.3239
  C  C611  1  0.685130  0.385950  0.375190  1.0  -0.0778
  C  C612  1  0.777470  0.361060  0.362400  1.0  -0.0896
  C  C613  1  0.806370  0.330630  0.320430  1.0  -0.071
  C  C614  1  0.898220  0.306780  0.307980  1.0  -0.3348
  C  C615  1  0.134210  0.673100  0.527880  1.0  0.3243
  C  C616  1  0.197700  0.691450  0.501150  1.0  -0.1588
  C  C617  1  0.184580  0.739540  0.500300  1.0  -0.0433
  C  C618  1  0.112270  0.768920  0.524740  1.0  -0.0975
  C  C619  1  0.050180  0.750830  0.552210  1.0  -0.1039
  C  C620  1  0.060540  0.703620  0.553700  1.0  -0.2362
  C  C621  1  0.277610  0.662810  0.472770  1.0  0.5805
  C  C622  1  0.370300  0.551590  0.434810  1.0  0.5603
  C  C623  1  0.442000  0.520530  0.401070  1.0  -0.2641
  C  C624  1  0.415600  0.509010  0.359790  1.0  -0.081
  C  C625  1  0.393320  0.550440  0.329520  1.0  -0.1171
  C  C626  1  0.365410  0.540890  0.288690  1.0  -0.0662
  C  C627  1  0.347300  0.582300  0.258300  1.0  -0.3338
  C  C628  1  0.714380  0.916020  0.451020  1.0  0.1602
  C  C629  1  0.693250  0.876090  0.449410  1.0  -0.2091
  C  C630  1  0.707710  0.855730  0.407450  1.0  0.123
  C  C631  1  0.738020  0.879010  0.368950  1.0  -0.181
  C  C632  1  0.758430  0.918700  0.372640  1.0  0.1707
  C  C633  1  0.686610  0.810490  0.406290  1.0  -0.1544
  C  C634  1  0.949220  0.850330  0.182630  1.0  0.3678
  C  C635  1  0.995220  0.878300  0.191260  1.0  -0.1715
  C  C636  1  0.996080  0.882540  0.237100  1.0  -0.0391
  C  C637  1  0.953700  0.860570  0.273430  1.0  -0.1348
  C  C638  1  0.908480  0.833490  0.264550  1.0  -0.1037
  C  C639  1  0.905320  0.828430  0.220330  1.0  -0.2399
  C  C640  1  0.042580  0.903290  0.154550  1.0  0.5954
  C  C641  1  0.108990  0.906730  0.036890  1.0  0.5616
  C  C642  1  0.166880  0.923840  0.996600  1.0  -0.2904
  C  C643  1  0.249030  0.885300  0.978240  1.0  -0.1713
  C  C644  1  0.304300  0.898800  0.934000  1.0  -0.0715
  C  C645  1  0.365600  0.906100  0.933100  1.0  -0.1169
  C  C646  1  0.426400  0.915600  0.885800  1.0  -0.3571
  C  C647  1  0.113680  0.751740  0.091500  1.0  0.1681
  C  C648  1  0.180570  0.714590  0.092670  1.0  -0.1979
  C  C649  1  0.255130  0.721960  0.090180  1.0  0.1235
  C  C650  1  0.258700  0.767360  0.087640  1.0  -0.2685
  C  C651  1  0.188980  0.802680  0.086760  1.0  0.1681
  C  C652  1  0.331280  0.680760  0.089280  1.0  -0.2317
  C  C653  1  0.319700  0.919830  0.080770  1.0  0.3211
  C  C654  1  0.336580  0.957910  0.053730  1.0  -0.1443
  C  C655  1  0.418240  0.956630  0.029890  1.0  -0.0863
  C  C656  1  0.482930  0.917610  0.031530  1.0  -0.1312
  C  C657  1  0.465270  0.880160  0.056300  1.0  -0.1311
  C  C658  1  0.385420  0.880470  0.079890  1.0  -0.1731
  C  C659  1  0.271180  0.999550  0.047490  1.0  0.5582
  C  C660  1  0.061580  0.046250  0.085990  1.0  0.542
  C  C661  1  0.989870  0.085860  0.080600  1.0  -0.3259
  C  C662  1  0.946270  0.114050  0.124810  1.0  -0.0743
  C  C663  1  0.000930  0.138940  0.137600  1.0  -0.0856
  C  C664  1  0.957430  0.169370  0.179570  1.0  -0.068
  C  C665  1  0.012980  0.193220  0.192020  1.0  -0.3349
  C  C666  1  0.835190  0.826900  0.972120  1.0  0.3232
  C  C667  1  0.890300  0.808550  0.998850  1.0  -0.1591
  C  C668  1  0.924420  0.760460  0.999700  1.0  -0.0458
  C  C669  1  0.905930  0.731080  0.975260  1.0  -0.0979
  C  C670  1  0.853220  0.749170  0.947790  1.0  -0.1026
  C  C671  1  0.817860  0.796380  0.946300  1.0  -0.2336
  C  C672  1  0.913190  0.837190  0.027230  1.0  0.581
  C  C673  1  0.856700  0.948410  0.065190  1.0  0.5578
  C  C674  1  0.863600  0.979470  0.098930  1.0  -0.2674
  C  C675  1  0.784400  0.990990  0.140210  1.0  -0.0802
  C  C676  1  0.773280  0.949560  0.170480  1.0  -0.116
  C  C677  1  0.694990  0.959110  0.211310  1.0  -0.0676
  C  C678  1  0.687900  0.917700  0.241700  1.0  -0.3328
  C  C679  1  0.581420  0.583980  0.048980  1.0  0.1585
  C  C680  1  0.518750  0.623910  0.050590  1.0  -0.2091
  C  C681  1  0.470890  0.644270  0.092550  1.0  0.1227
  C  C682  1  0.485980  0.620990  0.131050  1.0  -0.1847
  C  C683  1  0.549770  0.581300  0.127360  1.0  0.1712
  C  C684  1  0.403390  0.689510  0.093710  1.0  -0.1539
  C  C685  1  0.868150  0.182630  0.649670  1.0  0.365
  C  C686  1  0.813520  0.191260  0.621700  1.0  -0.1695
  C  C687  1  0.766820  0.237100  0.617460  1.0  -0.0378
  C  C688  1  0.772870  0.273430  0.639430  1.0  -0.141
  C  C689  1  0.826970  0.264550  0.666510  1.0  -0.107
  C  C690  1  0.874350  0.220330  0.671570  1.0  -0.2389
  C  C691  1  0.802870  0.154550  0.596710  1.0  0.5956
  C  C692  1  0.854120  0.036890  0.593270  1.0  0.5643
  C  C693  1  0.836520  0.996600  0.576160  1.0  -0.2908
  C  C694  1  0.772730  0.978240  0.614700  1.0  -0.1737
  C  C695  1  0.761700  0.934000  0.601200  1.0  -0.0778
  C  C696  1  0.701300  0.933100  0.593900  1.0  -0.1231
  C  C697  1  0.687800  0.885800  0.584400  1.0  -0.3599
  C  C698  1  0.794820  0.091500  0.748260  1.0  0.1674
  C  C699  1  0.726760  0.092670  0.785410  1.0  -0.1946
  C  C700  1  0.654690  0.090180  0.778040  1.0  0.1243
  C  C701  1  0.653660  0.087640  0.732640  1.0  -0.2707
  C  C702  1  0.724260  0.086760  0.697320  1.0  0.1683
  C  C703  1  0.579440  0.089280  0.819240  1.0  -0.2261
  C  C704  1  0.599530  0.080770  0.580170  1.0  0.3194
  C  C705  1  0.609690  0.053730  0.542090  1.0  -0.1447
  C  C706  1  0.551870  0.029890  0.543370  1.0  -0.0831
  C  C707  1  0.485540  0.031530  0.582390  1.0  -0.134
  C  C708  1  0.478430  0.056300  0.619840  1.0  -0.1304
  C  C709  1  0.534690  0.079890  0.619530  1.0  -0.1729
  C  C710  1  0.681330  0.047490  0.500450  1.0  0.555
  C  C711  1  0.852430  0.085990  0.453750  1.0  0.543
  C  C712  1  0.929530  0.080600  0.414140  1.0  -0.3269
  C  C713  1  0.928920  0.124810  0.385950  1.0  -0.0751
  C  C714  1  0.861470  0.137600  0.361060  1.0  -0.0846
  C  C715  1  0.863000  0.179570  0.330630  1.0  -0.0651
  C  C716  1  0.795000  0.192020  0.306780  1.0  -0.337
  C  C717  1  0.192690  0.972120  0.673100  1.0  0.3289
  C  C718  1  0.110850  0.998850  0.691450  1.0  -0.1583
  C  C719  1  0.075880  0.999700  0.739540  1.0  -0.0448
  C  C720  1  0.118810  0.975260  0.768920  1.0  -0.0996
  C  C721  1  0.198990  0.947790  0.750830  1.0  -0.1023
  C  C722  1  0.235840  0.946300  0.703620  1.0  -0.2333
  C  C723  1  0.059580  0.027230  0.662810  1.0  0.5821
  C  C724  1  0.078110  0.065190  0.551590  1.0  0.5564
  C  C725  1  0.037470  0.098930  0.520530  1.0  -0.2682
  C  C726  1  0.075390  0.140210  0.509010  1.0  -0.0844
  C  C727  1  0.056240  0.170480  0.550440  1.0  -0.1178
  C  C728  1  0.093700  0.211310  0.540890  1.0  -0.0658
  C  C729  1  0.070400  0.241700  0.582300  1.0  -0.3315
  C  C730  1  0.369600  0.048980  0.916020  1.0  0.1602
  C  C731  1  0.430660  0.050590  0.876090  1.0  -0.209
  C  C732  1  0.436560  0.092550  0.855730  1.0  0.1224
  C  C733  1  0.382970  0.131050  0.879010  1.0  -0.1849
  C  C734  1  0.322870  0.127360  0.918700  1.0  0.1701
  C  C735  1  0.502900  0.093710  0.810490  1.0  -0.1524
  C  C736  1  0.200450  0.317370  0.850330  1.0  0.366
  C  C737  1  0.126480  0.308740  0.878300  1.0  -0.1688
  C  C738  1  0.121380  0.262900  0.882540  1.0  -0.0379
  C  C739  1  0.185730  0.226570  0.860570  1.0  -0.1406
  C  C740  1  0.258030  0.235450  0.833490  1.0  -0.1087
  C  C741  1  0.266250  0.279670  0.828430  1.0  -0.2429
  C  C742  1  0.054130  0.345450  0.903290  1.0  0.5956
  C  C743  1  0.984280  0.463110  0.906730  1.0  0.5618
  C  C744  1  0.909280  0.503400  0.923840  1.0  -0.2923
  C  C745  1  0.865670  0.521760  0.885300  1.0  -0.1727
  C  C746  1  0.796900  0.566000  0.898800  1.0  -0.0788
  C  C747  1  0.728300  0.566900  0.906100  1.0  -0.132
  C  C748  1  0.658000  0.614200  0.915600  1.0  -0.3631
  C  C749  1  0.134580  0.408500  0.751740  1.0  0.1698
  C  C750  1  0.104840  0.407330  0.714590  1.0  -0.1961
  C  C751  1  0.022910  0.409820  0.721960  1.0  0.1257
  C  C752  1  0.973940  0.412360  0.767360  1.0  -0.2695
  C  C753  1  0.008340  0.413240  0.802680  1.0  0.1736
  C  C754  1  0.987960  0.410720  0.680760  1.0  -0.2334
  C  C755  1  0.760470  0.419230  0.919830  1.0  0.3221
  C  C756  1  0.705510  0.446270  0.957910  1.0  -0.1443
  C  C757  1  0.625130  0.470110  0.956630  1.0  -0.0844
  C  C758  1  0.599460  0.468470  0.917610  1.0  -0.1322
  C  C759  1  0.654570  0.443700  0.880160  1.0  -0.1296
  C  C760  1  0.734110  0.420110  0.880470  1.0  -0.1733
  C  C761  1  0.729270  0.452510  0.999550  1.0  0.5546
  C  C762  1  0.892170  0.414010  0.046250  1.0  0.5438
  C  C763  1  0.924270  0.419400  0.085860  1.0  -0.3247
  C  C764  1  0.939680  0.375190  0.114050  1.0  -0.0776
  C  C765  1  0.860130  0.362400  0.138940  1.0  -0.0846
  C  C766  1  0.873200  0.320430  0.169370  1.0  -0.0671
  C  C767  1  0.793800  0.307980  0.193220  1.0  -0.335
  C  C768  1  0.337910  0.527880  0.826900  1.0  0.3265
  C  C769  1  0.301150  0.501150  0.808550  1.0  -0.159
  C  C770  1  0.315120  0.500300  0.760460  1.0  -0.0449
  C  C771  1  0.362990  0.524740  0.731080  1.0  -0.0988
  C  C772  1  0.397610  0.552210  0.749170  1.0  -0.1005
  C  C773  1  0.385760  0.553700  0.796380  1.0  -0.233
  C  C774  1  0.249620  0.472770  0.837190  1.0  0.5818
  C  C775  1  0.194890  0.434810  0.948410  1.0  0.5586
  C  C776  1  0.156930  0.401070  0.979470  1.0  -0.2644
  C  C777  1  0.224610  0.359790  0.990990  1.0  -0.0826
  C  C778  1  0.277160  0.329520  0.949560  1.0  -0.1181
  C  C779  1  0.345900  0.288690  0.959110  1.0  -0.0643
  C  C780  1  0.394400  0.258300  0.917700  1.0  -0.3323
  C  C781  1  0.834600  0.451020  0.583980  1.0  0.1617
  C  C782  1  0.857340  0.449410  0.623910  1.0  -0.2102
  C  C783  1  0.884840  0.407450  0.644270  1.0  0.1235
  C  C784  1  0.893030  0.368950  0.620990  1.0  -0.1826
  C  C785  1  0.868930  0.372640  0.581300  1.0  0.1727
  C  C786  1  0.907100  0.406290  0.689510  1.0  -0.1533
  C  C787  1  0.517820  0.350330  0.682630  1.0  0.366
  C  C788  1  0.435220  0.378300  0.691260  1.0  -0.1681
  C  C789  1  0.384280  0.382540  0.737100  1.0  -0.0373
  C  C790  1  0.412300  0.360570  0.773430  1.0  -0.1377
  C  C791  1  0.493480  0.333490  0.764550  1.0  -0.1049
  C  C792  1  0.545920  0.328430  0.720330  1.0  -0.2441
  C  C793  1  0.399580  0.403290  0.654550  1.0  0.5959
  C  C794  1  0.447390  0.406730  0.536890  1.0  0.5646
  C  C795  1  0.412680  0.423840  0.496600  1.0  -0.2926
  C  C796  1  0.387430  0.385300  0.478240  1.0  -0.1745
  C  C797  1  0.362900  0.398800  0.434000  1.0  -0.0724
  C  C798  1  0.295200  0.406100  0.433100  1.0  -0.1217
  C  C799  1  0.272200  0.415600  0.385800  1.0  -0.3594
  C  C800  1  0.543080  0.251740  0.591500  1.0  0.1677
  C  C801  1  0.512170  0.214590  0.592670  1.0  -0.1966
  C  C802  1  0.432730  0.221960  0.590180  1.0  0.1237
  C  C803  1  0.386300  0.267360  0.587640  1.0  -0.2713
  C  C804  1  0.421580  0.302680  0.586760  1.0  0.1688
  C  C805  1  0.398680  0.180760  0.589280  1.0  -0.2307
  C  C806  1  0.179700  0.419830  0.580770  1.0  0.3242
  C  C807  1  0.151780  0.457910  0.553730  1.0  -0.1428
  C  C808  1  0.095240  0.456630  0.529890  1.0  -0.0868
  C  C809  1  0.067930  0.417610  0.531530  1.0  -0.1305
  C  C810  1  0.098270  0.380160  0.556300  1.0  -0.13
  C  C811  1  0.154220  0.380470  0.579890  1.0  -0.1688
  C  C812  1  0.181780  0.499550  0.547490  1.0  0.5563
  C  C813  1  0.306180  0.546250  0.585990  1.0  0.5412
  C  C814  1  0.343670  0.585860  0.580600  1.0  -0.3215
  C  C815  1  0.314870  0.614050  0.624810  1.0  -0.0802
  C  C816  1  0.222530  0.638940  0.637600  1.0  -0.0881
  C  C817  1  0.193630  0.669370  0.679570  1.0  -0.0712
  C  C818  1  0.101780  0.693220  0.692020  1.0  -0.3354
  C  C819  1  0.865790  0.326900  0.472120  1.0  0.3232
  C  C820  1  0.802300  0.308550  0.498850  1.0  -0.1581
  C  C821  1  0.815420  0.260460  0.499700  1.0  -0.0433
  C  C822  1  0.887730  0.231080  0.475260  1.0  -0.0965
  C  C823  1  0.949820  0.249170  0.447790  1.0  -0.1026
  C  C824  1  0.939460  0.296380  0.446300  1.0  -0.2336
  C  C825  1  0.722390  0.337190  0.527230  1.0  0.5814
  C  C826  1  0.629700  0.448410  0.565190  1.0  0.56
  C  C827  1  0.558000  0.479470  0.598930  1.0  -0.2647
  C  C828  1  0.584400  0.490990  0.640210  1.0  -0.0801
  C  C829  1  0.606680  0.449560  0.670480  1.0  -0.1157
  C  C830  1  0.634590  0.459110  0.711310  1.0  -0.0666
  C  C831  1  0.652700  0.417700  0.741700  1.0  -0.3346
  C  C832  1  0.285620  0.083980  0.548980  1.0  0.1595
  C  C833  1  0.306750  0.123910  0.550590  1.0  -0.2099
  C  C834  1  0.292290  0.144270  0.592550  1.0  0.1227
  C  C835  1  0.261980  0.120990  0.631050  1.0  -0.1838
  C  C836  1  0.241570  0.081300  0.627360  1.0  0.1707
  C  C837  1  0.313390  0.189510  0.593710  1.0  -0.1539
  C  C838  1  0.050780  0.149670  0.817370  1.0  0.3688
  C  C839  1  0.004780  0.121700  0.808740  1.0  -0.17
  C  C840  1  0.003920  0.117460  0.762900  1.0  -0.0387
  C  C841  1  0.046300  0.139430  0.726570  1.0  -0.1373
  C  C842  1  0.091520  0.166510  0.735450  1.0  -0.1017
  C  C843  1  0.094680  0.171570  0.779670  1.0  -0.2385
  C  C844  1  0.957420  0.096710  0.845450  1.0  0.5944
  C  C845  1  0.891010  0.093270  0.963110  1.0  0.5616
  C  C846  1  0.833120  0.076160  0.003400  1.0  -0.2902
  C  C847  1  0.750970  0.114700  0.021760  1.0  -0.1729
  C  C848  1  0.695700  0.101200  0.066000  1.0  -0.0719
  C  C849  1  0.634400  0.093900  0.066900  1.0  -0.1227
  C  C850  1  0.573600  0.084400  0.114200  1.0  -0.3606
  C  C851  1  0.886320  0.248260  0.908500  1.0  0.168
  C  C852  1  0.819430  0.285410  0.907330  1.0  -0.1955
  C  C853  1  0.744870  0.278040  0.909820  1.0  0.1244
  C  C854  1  0.741300  0.232640  0.912360  1.0  -0.2703
  C  C855  1  0.811020  0.197320  0.913240  1.0  0.1679
  C  C856  1  0.668720  0.319240  0.910720  1.0  -0.228
  C  C857  1  0.680300  0.080170  0.919230  1.0  0.3203
  C  C858  1  0.663420  0.042090  0.946270  1.0  -0.1431
  C  C859  1  0.581760  0.043370  0.970110  1.0  -0.0866
  C  C860  1  0.517070  0.082390  0.968470  1.0  -0.1326
  C  C861  1  0.534730  0.119840  0.943700  1.0  -0.1287
  C  C862  1  0.614580  0.119530  0.920110  1.0  -0.1698
  C  C863  1  0.728820  0.000450  0.952510  1.0  0.5557
  C  C864  1  0.938420  0.953750  0.914010  1.0  0.542
  C  C865  1  0.010130  0.914140  0.919400  1.0  -0.3252
  C  C866  1  0.053730  0.885950  0.875190  1.0  -0.0736
  C  C867  1  0.999070  0.861060  0.862400  1.0  -0.0852
  C  C868  1  0.042570  0.830630  0.820430  1.0  -0.0648
  C  C869  1  0.987020  0.806780  0.807980  1.0  -0.3364
  C  C870  1  0.164810  0.173100  0.027880  1.0  0.3231
  C  C871  1  0.109700  0.191450  0.001150  1.0  -0.1609
  C  C872  1  0.075580  0.239540  0.000300  1.0  -0.0441
  C  C873  1  0.094070  0.268920  0.024740  1.0  -0.0992
  C  C874  1  0.146780  0.250830  0.052210  1.0  -0.1013
  C  C875  1  0.182140  0.203620  0.053700  1.0  -0.2339
  C  C876  1  0.086810  0.162810  0.972770  1.0  0.5824
  C  C877  1  0.143300  0.051590  0.934810  1.0  0.5585
  C  C878  1  0.136400  0.020530  0.901070  1.0  -0.2649
  C  C879  1  0.215600  0.009010  0.859790  1.0  -0.0821
  C  C880  1  0.226720  0.050440  0.829520  1.0  -0.1173
  C  C881  1  0.305010  0.040890  0.788690  1.0  -0.0659
  C  C882  1  0.312100  0.082300  0.758300  1.0  -0.3329
  C  C883  1  0.418580  0.416020  0.951020  1.0  0.1594
  C  C884  1  0.481250  0.376090  0.949410  1.0  -0.2073
  C  C885  1  0.529110  0.355730  0.907450  1.0  0.1231
  C  C886  1  0.514020  0.379010  0.868950  1.0  -0.183
  C  C887  1  0.450230  0.418700  0.872640  1.0  0.1705
  C  C888  1  0.596610  0.310490  0.906290  1.0  -0.1543
  N  N889  1  0.156520  0.888940  0.397740  1.0  -0.2214
  N  N890  1  0.174700  0.921600  0.421180  1.0  -0.2512
  N  N891  1  0.204950  0.911670  0.295330  1.0  -0.3262
  N  N892  1  0.262530  0.930480  0.502520  1.0  -0.2676
  N  N893  1  0.195320  0.940640  0.543460  1.0  -0.2544
  N  N894  1  0.907570  0.969400  0.382040  1.0  -0.3047
  N  N895  1  0.960500  0.938170  0.405230  1.0  -0.2921
  N  N896  1  0.684970  0.913170  0.062490  1.0  -0.3365
  N  N897  1  0.943200  0.611060  0.102260  1.0  -0.2219
  N  N898  1  0.017480  0.578400  0.078820  1.0  -0.2519
  N  N899  1  0.911950  0.588330  0.204670  1.0  -0.3278
  N  N900  1  0.195530  0.569520  0.997480  1.0  -0.2705
  N  N901  1  0.179420  0.559360  0.956540  1.0  -0.2542
  N  N902  1  0.759010  0.530600  0.117960  1.0  -0.303
  N  N903  1  0.803900  0.561830  0.094770  1.0  -0.2875
  N  N904  1  0.160630  0.586830  0.437510  1.0  -0.3384
  N  N905  1  0.554260  0.602260  0.388940  1.0  -0.2219
  N  N906  1  0.595880  0.578820  0.421600  1.0  -0.2504
  N  N907  1  0.500280  0.704670  0.411670  1.0  -0.3289
  N  N908  1  0.765050  0.497480  0.430480  1.0  -0.2677
  N  N909  1  0.738780  0.456540  0.440640  1.0  -0.2538
  N  N910  1  0.289610  0.617960  0.469400  1.0  -0.3034
  N  N911  1  0.365730  0.594770  0.438170  1.0  -0.2916
  N  N912  1  0.747460  0.937510  0.413170  1.0  -0.3336
  N  N913  1  0.045460  0.897740  0.111060  1.0  -0.2218
  N  N914  1  0.096300  0.921180  0.078400  1.0  -0.2507
  N  N915  1  0.116620  0.795330  0.088330  1.0  -0.3274
  N  N916  1  0.193010  0.002520  0.069520  1.0  -0.2697
  N  N917  1  0.135960  0.043460  0.059360  1.0  -0.2549
  N  N918  1  0.876970  0.882040  0.030600  1.0  -0.3028
  N  N919  1  0.898670  0.905230  0.061830  1.0  -0.2912
  N  N920  1  0.598140  0.562490  0.086830  1.0  -0.333
  N  N921  1  0.843480  0.111060  0.602260  1.0  -0.2216
  N  N922  1  0.825300  0.078400  0.578820  1.0  -0.2529
  N  N923  1  0.795050  0.088330  0.704670  1.0  -0.3266
  N  N924  1  0.737470  0.069520  0.497480  1.0  -0.2695
  N  N925  1  0.804680  0.059360  0.456540  1.0  -0.2553
  N  N926  1  0.092430  0.030600  0.617960  1.0  -0.3043
  N  N927  1  0.039500  0.061830  0.594770  1.0  -0.2912
  N  N928  1  0.315030  0.086830  0.937510  1.0  -0.3365
  N  N929  1  0.056800  0.388940  0.897740  1.0  -0.2217
  N  N930  1  0.982520  0.421600  0.921180  1.0  -0.2504
  N  N931  1  0.088050  0.411670  0.795330  1.0  -0.3275
  N  N932  1  0.804470  0.430480  0.002520  1.0  -0.2689
  N  N933  1  0.820580  0.440640  0.043460  1.0  -0.2535
  N  N934  1  0.240990  0.469400  0.882040  1.0  -0.3052
  N  N935  1  0.196100  0.438170  0.905230  1.0  -0.2902
  N  N936  1  0.839370  0.413170  0.562490  1.0  -0.3395
  N  N937  1  0.445740  0.397740  0.611060  1.0  -0.2215
  N  N938  1  0.404120  0.421180  0.578400  1.0  -0.2527
  N  N939  1  0.499720  0.295330  0.588330  1.0  -0.3274
  N  N940  1  0.234950  0.502520  0.569520  1.0  -0.2703
  N  N941  1  0.261220  0.543460  0.559360  1.0  -0.2545
  N  N942  1  0.710390  0.382040  0.530600  1.0  -0.3051
  N  N943  1  0.634270  0.405230  0.561830  1.0  -0.2912
  N  N944  1  0.252540  0.062490  0.586830  1.0  -0.3336
  N  N945  1  0.954540  0.102260  0.888940  1.0  -0.2221
  N  N946  1  0.903700  0.078820  0.921600  1.0  -0.2503
  N  N947  1  0.883380  0.204670  0.911670  1.0  -0.3272
  N  N948  1  0.806990  0.997480  0.930480  1.0  -0.2693
  N  N949  1  0.864040  0.956540  0.940640  1.0  -0.2539
  N  N950  1  0.123030  0.117960  0.969400  1.0  -0.3029
  N  N951  1  0.101330  0.094770  0.938170  1.0  -0.2915
  N  N952  1  0.401860  0.437510  0.913170  1.0  -0.3347
  O  O953  1  0.083610  0.858920  0.343220  1.0  -0.5615
  O  O954  1  0.245980  0.834350  0.429410  1.0  -0.5868
  O  O955  1  0.104870  0.971840  0.375840  1.0  -0.5962
  O  O956  1  0.351270  0.893390  0.418590  1.0  -0.5855
  O  O957  1  0.311700  0.980290  0.531150  1.0  -0.5902
  O  O958  1  0.163950  0.882230  0.515450  1.0  -0.5901
  O  O959  1  0.766600  0.031100  0.371840  1.0  -0.5633
  O  O960  1  0.016860  0.951670  0.317430  1.0  -0.5811
  O  O961  1  0.845480  0.958780  0.466440  1.0  -0.593
  O  O962  1  0.785750  0.641080  0.156780  1.0  -0.5625
  O  O963  1  0.009740  0.665650  0.070590  1.0  -0.5864
  O  O964  1  0.952550  0.528160  0.124160  1.0  -0.5937
  O  O965  1  0.163250  0.606610  0.081410  1.0  -0.5835
  O  O966  1  0.323140  0.519710  0.968850  1.0  -0.5883
  O  O967  1  0.061630  0.617770  0.984550  1.0  -0.5902
  O  O968  1  0.669540  0.468900  0.128160  1.0  -0.5677
  O  O969  1  0.785960  0.548330  0.182570  1.0  -0.5867
  O  O970  1  0.770700  0.541220  0.033560  1.0  -0.5925
  O  O971  1  0.426830  0.656780  0.358920  1.0  -0.562
  O  O972  1  0.675390  0.570590  0.334350  1.0  -0.5865
  O  O973  1  0.480710  0.624160  0.471840  1.0  -0.595
  O  O974  1  0.769860  0.581410  0.393390  1.0  -0.5859
  O  O975  1  0.842850  0.468850  0.480290  1.0  -0.591
  O  O976  1  0.679400  0.484550  0.382230  1.0  -0.5899
  O  O977  1  0.138440  0.628160  0.531100  1.0  -0.5616
  O  O978  1  0.334290  0.682570  0.451670  1.0  -0.5823
  O  O979  1  0.311920  0.533560  0.458780  1.0  -0.5921
  O  O980  1  0.942530  0.843220  0.141080  1.0  -0.5616
  O  O981  1  0.080330  0.929410  0.165650  1.0  -0.5866
  O  O982  1  0.076710  0.875840  0.028160  1.0  -0.5947
  O  O983  1  0.244660  0.918590  0.106610  1.0  -0.586
  O  O984  1  0.291990  0.031150  0.019710  1.0  -0.5884
  O  O985  1  0.046180  0.015450  0.117770  1.0  -0.5881
  O  O986  1  0.797700  0.871840  0.968900  1.0  -0.562
  O  O987  1  0.968530  0.817430  0.048330  1.0  -0.5832
  O  O988  1  0.804260  0.966440  0.041220  1.0  -0.5912
  O  O989  1  0.916390  0.141080  0.656780  1.0  -0.5632
  O  O990  1  0.754020  0.165650  0.570590  1.0  -0.587
  O  O991  1  0.895130  0.028160  0.624160  1.0  -0.5945
  O  O992  1  0.648730  0.106610  0.581410  1.0  -0.5843
  O  O993  1  0.688300  0.019710  0.468850  1.0  -0.5913
  O  O994  1  0.836050  0.117770  0.484550  1.0  -0.5909
  O  O995  1  0.233400  0.968900  0.628160  1.0  -0.5627
  O  O996  1  0.983140  0.048330  0.682570  1.0  -0.5831
  O  O997  1  0.154520  0.041220  0.533560  1.0  -0.5915
  O  O998  1  0.214250  0.358920  0.843220  1.0  -0.5606
  O  O999  1  0.990260  0.334350  0.929410  1.0  -0.5864
  O  O1000  1  0.047450  0.471840  0.875840  1.0  -0.5946
  O  O1001  1  0.836750  0.393390  0.918590  1.0  -0.5838
  O  O1002  1  0.676860  0.480290  0.031150  1.0  -0.5867
  O  O1003  1  0.938370  0.382230  0.015450  1.0  -0.5904
  O  O1004  1  0.330460  0.531100  0.871840  1.0  -0.5634
  O  O1005  1  0.214040  0.451670  0.817430  1.0  -0.5863
  O  O1006  1  0.229300  0.458780  0.966440  1.0  -0.5933
  O  O1007  1  0.573170  0.343220  0.641080  1.0  -0.5618
  O  O1008  1  0.324610  0.429410  0.665650  1.0  -0.5864
  O  O1009  1  0.519290  0.375840  0.528160  1.0  -0.5935
  O  O1010  1  0.230140  0.418590  0.606610  1.0  -0.5849
  O  O1011  1  0.157150  0.531150  0.519710  1.0  -0.5891
  O  O1012  1  0.320600  0.515450  0.617770  1.0  -0.5893
  O  O1013  1  0.861560  0.371840  0.468900  1.0  -0.5565
  O  O1014  1  0.665710  0.317430  0.548330  1.0  -0.5841
  O  O1015  1  0.688080  0.466440  0.541220  1.0  -0.5916
  O  O1016  1  0.057470  0.156780  0.858920  1.0  -0.5616
  O  O1017  1  0.919670  0.070590  0.834350  1.0  -0.5879
  O  O1018  1  0.923290  0.124160  0.971840  1.0  -0.5946
  O  O1019  1  0.755340  0.081410  0.893390  1.0  -0.5833
  O  O1020  1  0.708010  0.968850  0.980290  1.0  -0.59
  O  O1021  1  0.953820  0.984550  0.882230  1.0  -0.5902
  O  O1022  1  0.202300  0.128160  0.031100  1.0  -0.5598
  O  O1023  1  0.031470  0.182570  0.951670  1.0  -0.5842
  O  O1024  1  0.195740  0.033560  0.958780  1.0  -0.5908
