# generated using pymatgen
data_Mn3H36C41N8O9
_symmetry_space_group_name_H-M   'P 1'
_cell_length_a   17.56420000
_cell_length_b   30.05410000
_cell_length_c   30.05410000
_cell_angle_alpha   85.10180000
_cell_angle_beta   73.00970000
_cell_angle_gamma   73.00970000
_symmetry_Int_Tables_number   1
_chemical_formula_structural   Mn3H36C41N8O9
_chemical_formula_sum   'Mn24 H288 C328 N64 O72'
_cell_volume   14510.20015346
_cell_formula_units_Z   8
loop_
 _symmetry_equiv_pos_site_id
 _symmetry_equiv_pos_as_xyz
  1  'x, y, z'
loop_
 _atom_site_type_symbol
 _atom_site_label
 _atom_site_symmetry_multiplicity
 _atom_site_fract_x
 _atom_site_fract_y
 _atom_site_fract_z
 _atom_site_occupancy
 _atom_site_charge
  Mn  Mn1  1  0.242510  0.878920  0.470380  1.0  0.9976
  Mn  Mn2  1  0.206870  0.002690  0.576360  1.0  1.0047
  Mn  Mn3  1  0.082630  0.914650  0.357010  1.0  0.9823
  Mn  Mn4  1  0.091810  0.621080  0.029620  1.0  0.9988
  Mn  Mn5  1  0.285930  0.497310  0.923640  1.0  1.0082
  Mn  Mn6  1  0.854290  0.585350  0.142990  1.0  0.9798
  Mn  Mn7  1  0.712890  0.529620  0.378920  1.0  0.9983
  Mn  Mn8  1  0.783240  0.423640  0.502680  1.0  1.0053
  Mn  Mn9  1  0.439640  0.642990  0.414650  1.0  0.9761
  Mn  Mn10  1  0.121430  0.970380  0.121080  1.0  1.0001
  Mn  Mn11  1  0.209560  0.076360  0.997320  1.0  1.0035
  Mn  Mn12  1  0.997280  0.857010  0.085350  1.0  0.9762
  Mn  Mn13  1  0.757490  0.121080  0.529620  1.0  0.9972
  Mn  Mn14  1  0.793130  0.997310  0.423640  1.0  1.0038
  Mn  Mn15  1  0.917370  0.085350  0.642990  1.0  0.98
  Mn  Mn16  1  0.908190  0.378920  0.970380  1.0  0.9967
  Mn  Mn17  1  0.714070  0.502690  0.076360  1.0  1.0084
  Mn  Mn18  1  0.145710  0.414650  0.857010  1.0  0.9788
  Mn  Mn19  1  0.287110  0.470380  0.621080  1.0  0.9995
  Mn  Mn20  1  0.216760  0.576360  0.497320  1.0  1.0028
  Mn  Mn21  1  0.560360  0.357010  0.585350  1.0  0.9766
  Mn  Mn22  1  0.878570  0.029620  0.878920  1.0  0.9973
  Mn  Mn23  1  0.790440  0.923640  0.002680  1.0  1.0075
  Mn  Mn24  1  0.002720  0.142990  0.914650  1.0  0.9777
  H  H25  1  0.452600  0.886400  0.353000  1.0  0.1037
  H  H26  1  0.549400  0.926200  0.342200  1.0  0.1024
  H  H27  1  0.547800  0.972600  0.401800  1.0  0.1079
  H  H28  1  0.437300  0.983100  0.471100  1.0  0.1076
  H  H29  1  0.091200  0.922100  0.624700  1.0  0.1233
  H  H30  1  0.030900  0.953800  0.596400  1.0  0.1273
  H  H31  1  0.056200  0.856100  0.608300  1.0  0.1107
  H  H32  1  0.976400  0.894500  0.637100  1.0  0.1027
  H  H33  1  0.992900  0.889100  0.582300  1.0  0.1198
  H  H34  1  0.296400  0.926700  0.690100  1.0  0.1115
  H  H35  1  0.235400  0.926000  0.768200  1.0  0.1019
  H  H36  1  0.095400  0.968600  0.800400  1.0  0.1152
  H  H37  1  0.021400  0.012600  0.750800  1.0  0.0967
  H  H38  1  0.021200  0.091300  0.502300  1.0  0.1113
  H  H39  1  0.997300  0.129500  0.541700  1.0  0.1052
  H  H40  1  0.150300  0.108500  0.469500  1.0  0.1234
  H  H41  1  0.073500  0.153200  0.469600  1.0  0.104
  H  H42  1  0.122500  0.148400  0.507800  1.0  0.1141
  H  H43  1  0.220800  0.067800  0.649400  1.0  0.0608
  H  H44  1  0.267800  0.129300  0.658700  1.0  0.1122
  H  H45  1  0.343900  0.137200  0.517800  1.0  0.1331
  H  H46  1  0.303700  0.069700  0.514500  1.0  0.0919
  H  H47  1  0.359900  0.178900  0.624300  1.0  0.1028
  H  H48  1  0.296200  0.209000  0.597400  1.0  0.0932
  H  H49  1  0.100200  0.782900  0.300500  1.0  0.1074
  H  H50  1  0.178500  0.707700  0.310100  1.0  0.1078
  H  H51  1  0.258500  0.692600  0.361600  1.0  0.1129
  H  H52  1  0.260000  0.752700  0.404700  1.0  0.0885
  H  H53  1  0.144900  0.990200  0.468600  1.0  0.1809
  H  H54  1  0.077200  0.024700  0.445900  1.0  0.1301
  H  H55  1  0.395900  0.337600  0.577800  1.0  0.0677
  H  H56  1  0.341400  0.279800  0.567600  1.0  0.1118
  H  H57  1  0.552300  0.185800  0.577000  1.0  0.1175
  H  H58  1  0.601400  0.246700  0.587100  1.0  0.0716
  H  H59  1  0.454900  0.158500  0.553500  1.0  0.0762
  H  H60  1  0.391100  0.195200  0.530400  1.0  0.0707
  H  H61  1  0.192000  0.613600  0.147000  1.0  0.1041
  H  H62  1  0.317800  0.573800  0.157800  1.0  0.1031
  H  H63  1  0.422200  0.527400  0.098200  1.0  0.1085
  H  H64  1  0.391500  0.516900  0.028900  1.0  0.1071
  H  H65  1  0.138000  0.577900  0.875300  1.0  0.1189
  H  H66  1  0.081100  0.546200  0.903600  1.0  0.1243
  H  H67  1  0.020600  0.643900  0.891700  1.0  0.1115
  H  H68  1  0.008000  0.605500  0.862900  1.0  0.1049
  H  H69  1  0.964300  0.610900  0.917700  1.0  0.1174
  H  H70  1  0.413200  0.573300  0.809900  1.0  0.1105
  H  H71  1  0.429600  0.574000  0.731800  1.0  0.1035
  H  H72  1  0.364400  0.531400  0.699600  1.0  0.1139
  H  H73  1  0.284800  0.487400  0.749200  1.0  0.0959
  H  H74  1  0.114800  0.408700  0.997700  1.0  0.1111
  H  H75  1  0.168500  0.370500  0.958300  1.0  0.1036
  H  H76  1  0.228300  0.391500  0.030500  1.0  0.1235
  H  H77  1  0.196300  0.346800  0.030400  1.0  0.1055
  H  H78  1  0.278700  0.351600  0.992200  1.0  0.1114
  H  H79  1  0.438000  0.432200  0.850600  1.0  0.0603
  H  H80  1  0.555800  0.370700  0.841300  1.0  0.1128
  H  H81  1  0.498900  0.362800  0.982200  1.0  0.1323
  H  H82  1  0.387900  0.430300  0.985500  1.0  0.091
  H  H83  1  0.663100  0.321100  0.875700  1.0  0.1011
  H  H84  1  0.602600  0.291000  0.902600  1.0  0.0951
  H  H85  1  0.683600  0.717100  0.199500  1.0  0.1071
  H  H86  1  0.696300  0.792300  0.189900  1.0  0.1079
  H  H87  1  0.812700  0.807400  0.138400  1.0  0.113
  H  H88  1  0.917400  0.747300  0.095300  1.0  0.0872
  H  H89  1  0.103700  0.509800  0.031400  1.0  0.1813
  H  H90  1  0.047800  0.475300  0.054100  1.0  0.1312
  H  H91  1  0.811300  0.162400  0.922200  1.0  0.0675
  H  H92  1  0.688800  0.220200  0.932400  1.0  0.1116
  H  H93  1  0.815100  0.314200  0.923000  1.0  0.117
  H  H94  1  0.935200  0.253300  0.912900  1.0  0.0715
  H  H95  1  0.666900  0.341500  0.946500  1.0  0.0741
  H  H96  1  0.616700  0.304800  0.969600  1.0  0.0695
  H  H97  1  0.805600  0.647000  0.386400  1.0  0.1033
  H  H98  1  0.891600  0.657800  0.426200  1.0  0.1037
  H  H99  1  0.949600  0.598200  0.472600  1.0  0.108
  H  H100  1  0.908400  0.528900  0.483100  1.0  0.1086
  H  H101  1  0.715900  0.375300  0.422100  1.0  0.1216
  H  H102  1  0.627300  0.403600  0.453800  1.0  0.1242
  H  H103  1  0.664500  0.391700  0.356100  1.0  0.1105
  H  H104  1  0.613500  0.362900  0.394500  1.0  0.1038
  H  H105  1  0.575200  0.417700  0.389100  1.0  0.1187
  H  H106  1  0.986500  0.309900  0.426700  1.0  0.1106
  H  H107  1  0.003600  0.231800  0.426000  1.0  0.1023
  H  H108  1  0.895800  0.199600  0.468600  1.0  0.1144
  H  H109  1  0.772200  0.249200  0.512600  1.0  0.0962
  H  H110  1  0.523500  0.497700  0.591300  1.0  0.1115
  H  H111  1  0.539000  0.458300  0.629500  1.0  0.1041
  H  H112  1  0.619800  0.530500  0.608500  1.0  0.1229
  H  H113  1  0.543100  0.530400  0.653200  1.0  0.1049
  H  H114  1  0.630300  0.492200  0.648400  1.0  0.116
  H  H115  1  0.870200  0.350600  0.567800  1.0  0.0598
  H  H116  1  0.926500  0.341300  0.629300  1.0  0.1125
  H  H117  1  0.861700  0.482200  0.637200  1.0  0.1297
  H  H118  1  0.818200  0.485500  0.569700  1.0  0.0905
  H  H119  1  0.984200  0.375700  0.678900  1.0  0.0959
  H  H120  1  0.893600  0.402600  0.709000  1.0  0.0947
  H  H121  1  0.400700  0.699500  0.282900  1.0  0.107
  H  H122  1  0.488600  0.689900  0.207700  1.0  0.109
  H  H123  1  0.620100  0.638400  0.192600  1.0  0.1104
  H  H124  1  0.664700  0.595300  0.252700  1.0  0.0872
  H  H125  1  0.613500  0.531400  0.490200  1.0  0.1832
  H  H126  1  0.523100  0.554100  0.524700  1.0  0.1302
  H  H127  1  0.973700  0.422200  0.837600  1.0  0.0671
  H  H128  1  0.909000  0.432400  0.779800  1.0  0.1104
  H  H129  1  0.129300  0.423000  0.685800  1.0  0.118
  H  H130  1  0.188500  0.412900  0.746700  1.0  0.0712
  H  H131  1  0.008400  0.446500  0.658500  1.0  0.075
  H  H132  1  0.921500  0.469600  0.695200  1.0  0.0654
  H  H133  1  0.339000  0.853000  0.113600  1.0  0.1038
  H  H134  1  0.475600  0.842200  0.073800  1.0  0.1044
  H  H135  1  0.520400  0.901800  0.027400  1.0  0.1076
  H  H136  1  0.420400  0.971100  0.016900  1.0  0.1073
  H  H137  1  0.013300  0.124700  0.077900  1.0  0.1217
  H  H138  1  0.984700  0.096400  0.046200  1.0  0.1258
  H  H139  1  0.912300  0.108300  0.143900  1.0  0.1117
  H  H140  1  0.870900  0.137100  0.105500  1.0  0.1053
  H  H141  1  0.882000  0.082300  0.110900  1.0  0.1198
  H  H142  1  0.223100  0.190100  0.073300  1.0  0.1101
  H  H143  1  0.161400  0.268200  0.074000  1.0  0.1034
  H  H144  1  0.064000  0.300400  0.031400  1.0  0.116
  H  H145  1  0.034000  0.250800  0.987400  1.0  0.0969
  H  H146  1  0.112500  0.002300  0.908700  1.0  0.1104
  H  H147  1  0.126800  0.041700  0.870500  1.0  0.1013
  H  H148  1  0.258800  0.969500  0.891500  1.0  0.1245
  H  H149  1  0.226700  0.969600  0.846800  1.0  0.1043
  H  H150  1  0.270900  0.007800  0.851600  1.0  0.112
  H  H151  1  0.288600  0.149400  0.932200  1.0  0.061
  H  H152  1  0.397100  0.158700  0.870700  1.0  0.1127
  H  H153  1  0.481100  0.017800  0.862800  1.0  0.1305
  H  H154  1  0.373400  0.014500  0.930300  1.0  0.0907
  H  H155  1  0.538800  0.124300  0.821100  1.0  0.098
  H  H156  1  0.505200  0.097400  0.791000  1.0  0.0992
  H  H157  1  0.883100  0.800500  0.217100  1.0  0.1072
  H  H158  1  0.886200  0.810100  0.292300  1.0  0.1079
  H  H159  1  0.951100  0.861600  0.307400  1.0  0.1107
  H  H160  1  0.012700  0.904700  0.247300  1.0  0.0875
  H  H161  1  0.135100  0.968600  0.009800  1.0  0.1815
  H  H162  1  0.101900  0.945900  0.975300  1.0  0.1292
  H  H163  1  0.733500  0.077800  0.662400  1.0  0.0697
  H  H164  1  0.621200  0.067600  0.720200  1.0  0.1112
  H  H165  1  0.738100  0.077000  0.814200  1.0  0.1187
  H  H166  1  0.848100  0.087100  0.753300  1.0  0.0712
  H  H167  1  0.613400  0.053500  0.841500  1.0  0.0743
  H  H168  1  0.586300  0.030400  0.804800  1.0  0.0638
  H  H169  1  0.547400  0.113600  0.647000  1.0  0.1039
  H  H170  1  0.450600  0.073800  0.657800  1.0  0.1037
  H  H171  1  0.452200  0.027400  0.598200  1.0  0.1085
  H  H172  1  0.562700  0.016900  0.528900  1.0  0.107
  H  H173  1  0.908800  0.077900  0.375300  1.0  0.1233
  H  H174  1  0.969100  0.046200  0.403600  1.0  0.1257
  H  H175  1  0.943800  0.143900  0.391700  1.0  0.111
  H  H176  1  0.023600  0.105500  0.362900  1.0  0.1027
  H  H177  1  0.007100  0.110900  0.417700  1.0  0.1196
  H  H178  1  0.703600  0.073300  0.309900  1.0  0.1108
  H  H179  1  0.764600  0.074000  0.231800  1.0  0.1027
  H  H180  1  0.904600  0.031400  0.199600  1.0  0.1144
  H  H181  1  0.978600  0.987400  0.249200  1.0  0.097
  H  H182  1  0.978800  0.908700  0.497700  1.0  0.1106
  H  H183  1  0.002700  0.870500  0.458300  1.0  0.1051
  H  H184  1  0.849700  0.891500  0.530500  1.0  0.123
  H  H185  1  0.926500  0.846800  0.530400  1.0  0.1051
  H  H186  1  0.877500  0.851600  0.492200  1.0  0.1139
  H  H187  1  0.779200  0.932200  0.350600  1.0  0.0596
  H  H188  1  0.732200  0.870700  0.341300  1.0  0.1118
  H  H189  1  0.656100  0.862800  0.482200  1.0  0.1323
  H  H190  1  0.696300  0.930300  0.485500  1.0  0.0905
  H  H191  1  0.640100  0.821100  0.375700  1.0  0.1023
  H  H192  1  0.703800  0.791000  0.402600  1.0  0.0932
  H  H193  1  0.899800  0.217100  0.699500  1.0  0.1075
  H  H194  1  0.821500  0.292300  0.689900  1.0  0.1088
  H  H195  1  0.741500  0.307400  0.638400  1.0  0.113
  H  H196  1  0.740000  0.247300  0.595300  1.0  0.0882
  H  H197  1  0.855100  0.009800  0.531400  1.0  0.1815
  H  H198  1  0.922800  0.975300  0.554100  1.0  0.1325
  H  H199  1  0.604100  0.662400  0.422200  1.0  0.0676
  H  H200  1  0.658600  0.720200  0.432400  1.0  0.1118
  H  H201  1  0.447700  0.814200  0.423000  1.0  0.1179
  H  H202  1  0.398600  0.753300  0.412900  1.0  0.0717
  H  H203  1  0.545100  0.841500  0.446500  1.0  0.0755
  H  H204  1  0.608900  0.804800  0.469600  1.0  0.0704
  H  H205  1  0.808000  0.386400  0.853000  1.0  0.1033
  H  H206  1  0.682200  0.426200  0.842200  1.0  0.1034
  H  H207  1  0.577800  0.472600  0.901800  1.0  0.1084
  H  H208  1  0.608500  0.483100  0.971100  1.0  0.1065
  H  H209  1  0.862000  0.422100  0.124700  1.0  0.1202
  H  H210  1  0.918900  0.453800  0.096400  1.0  0.1243
  H  H211  1  0.979400  0.356100  0.108300  1.0  0.1115
  H  H212  1  0.992000  0.394500  0.137100  1.0  0.1051
  H  H213  1  0.035700  0.389100  0.082300  1.0  0.1173
  H  H214  1  0.586800  0.426700  0.190100  1.0  0.1097
  H  H215  1  0.570400  0.426000  0.268200  1.0  0.1031
  H  H216  1  0.635600  0.468600  0.300400  1.0  0.1154
  H  H217  1  0.715200  0.512600  0.250800  1.0  0.0966
  H  H218  1  0.885200  0.591300  0.002300  1.0  0.1113
  H  H219  1  0.831500  0.629500  0.041700  1.0  0.1012
  H  H220  1  0.771700  0.608500  0.969500  1.0  0.1238
  H  H221  1  0.803700  0.653200  0.969600  1.0  0.1046
  H  H222  1  0.721300  0.648400  0.007800  1.0  0.1105
  H  H223  1  0.562000  0.567800  0.149400  1.0  0.0602
  H  H224  1  0.444200  0.629300  0.158700  1.0  0.1123
  H  H225  1  0.501100  0.637200  0.017800  1.0  0.133
  H  H226  1  0.612100  0.569700  0.014500  1.0  0.0918
  H  H227  1  0.336900  0.678900  0.124300  1.0  0.1028
  H  H228  1  0.397400  0.709000  0.097400  1.0  0.0932
  H  H229  1  0.316400  0.282900  0.800500  1.0  0.107
  H  H230  1  0.303700  0.207700  0.810100  1.0  0.1075
  H  H231  1  0.187300  0.192600  0.861600  1.0  0.1141
  H  H232  1  0.082600  0.252700  0.904700  1.0  0.0866
  H  H233  1  0.896300  0.490200  0.968600  1.0  0.181
  H  H234  1  0.952200  0.524700  0.945900  1.0  0.1295
  H  H235  1  0.188700  0.837600  0.077800  1.0  0.0674
  H  H236  1  0.311200  0.779800  0.067600  1.0  0.112
  H  H237  1  0.184900  0.685800  0.077000  1.0  0.1174
  H  H238  1  0.064800  0.746700  0.087100  1.0  0.0712
  H  H239  1  0.333100  0.658500  0.053500  1.0  0.0746
  H  H240  1  0.383300  0.695200  0.030400  1.0  0.0692
  H  H241  1  0.194400  0.353000  0.613600  1.0  0.1028
  H  H242  1  0.108400  0.342200  0.573800  1.0  0.1044
  H  H243  1  0.050400  0.401800  0.527400  1.0  0.1057
  H  H244  1  0.091600  0.471100  0.516900  1.0  0.108
  H  H245  1  0.284100  0.624700  0.577900  1.0  0.1227
  H  H246  1  0.372700  0.596400  0.546200  1.0  0.1231
  H  H247  1  0.335500  0.608300  0.643900  1.0  0.1107
  H  H248  1  0.386500  0.637100  0.605500  1.0  0.1056
  H  H249  1  0.424800  0.582300  0.610900  1.0  0.118
  H  H250  1  0.013500  0.690100  0.573300  1.0  0.1113
  H  H251  1  0.996400  0.768200  0.574000  1.0  0.1034
  H  H252  1  0.104200  0.800400  0.531400  1.0  0.1143
  H  H253  1  0.227800  0.750800  0.487400  1.0  0.0966
  H  H254  1  0.476500  0.502300  0.408700  1.0  0.1103
  H  H255  1  0.461000  0.541700  0.370500  1.0  0.1036
  H  H256  1  0.380200  0.469500  0.391500  1.0  0.1221
  H  H257  1  0.456900  0.469600  0.346800  1.0  0.1032
  H  H258  1  0.369700  0.507800  0.351600  1.0  0.1149
  H  H259  1  0.129800  0.649400  0.432200  1.0  0.0603
  H  H260  1  0.073500  0.658700  0.370700  1.0  0.1127
  H  H261  1  0.138300  0.517800  0.362800  1.0  0.1288
  H  H262  1  0.181800  0.514500  0.430300  1.0  0.0903
  H  H263  1  0.015800  0.624300  0.321100  1.0  0.0994
  H  H264  1  0.106400  0.597400  0.291000  1.0  0.0958
  H  H265  1  0.599300  0.300500  0.717100  1.0  0.107
  H  H266  1  0.511400  0.310100  0.792300  1.0  0.1092
  H  H267  1  0.379900  0.361600  0.807400  1.0  0.1121
  H  H268  1  0.335300  0.404700  0.747300  1.0  0.0866
  H  H269  1  0.386500  0.468600  0.509800  1.0  0.1818
  H  H270  1  0.476900  0.445900  0.475300  1.0  0.1297
  H  H271  1  0.026300  0.577800  0.162400  1.0  0.0676
  H  H272  1  0.091000  0.567600  0.220200  1.0  0.1121
  H  H273  1  0.870700  0.577000  0.314200  1.0  0.1179
  H  H274  1  0.811500  0.587100  0.253300  1.0  0.0712
  H  H275  1  0.991600  0.553500  0.341500  1.0  0.0759
  H  H276  1  0.078500  0.530400  0.304800  1.0  0.066
  H  H277  1  0.661000  0.147000  0.886400  1.0  0.1041
  H  H278  1  0.524400  0.157800  0.926200  1.0  0.1039
  H  H279  1  0.479600  0.098200  0.972600  1.0  0.109
  H  H280  1  0.579600  0.028900  0.983100  1.0  0.1074
  H  H281  1  0.986700  0.875300  0.922100  1.0  0.1228
  H  H282  1  0.015300  0.903600  0.953800  1.0  0.1249
  H  H283  1  0.087700  0.891700  0.856100  1.0  0.113
  H  H284  1  0.129100  0.862900  0.894500  1.0  0.1053
  H  H285  1  0.118000  0.917700  0.889100  1.0  0.1197
  H  H286  1  0.776900  0.809900  0.926700  1.0  0.1097
  H  H287  1  0.838600  0.731800  0.926000  1.0  0.102
  H  H288  1  0.936000  0.699600  0.968600  1.0  0.1157
  H  H289  1  0.966000  0.749200  0.012600  1.0  0.0977
  H  H290  1  0.887500  0.997700  0.091300  1.0  0.1094
  H  H291  1  0.873200  0.958300  0.129500  1.0  0.1007
  H  H292  1  0.741200  0.030500  0.108500  1.0  0.1241
  H  H293  1  0.773300  0.030400  0.153200  1.0  0.1048
  H  H294  1  0.729100  0.992200  0.148400  1.0  0.1128
  H  H295  1  0.711400  0.850600  0.067800  1.0  0.0598
  H  H296  1  0.602900  0.841300  0.129300  1.0  0.1121
  H  H297  1  0.518900  0.982200  0.137200  1.0  0.1308
  H  H298  1  0.626600  0.985500  0.069700  1.0  0.0912
  H  H299  1  0.461200  0.875700  0.178900  1.0  0.0969
  H  H300  1  0.494800  0.902600  0.209000  1.0  0.0986
  H  H301  1  0.116900  0.199500  0.782900  1.0  0.107
  H  H302  1  0.113800  0.189900  0.707700  1.0  0.1086
  H  H303  1  0.048900  0.138400  0.692600  1.0  0.1102
  H  H304  1  0.987300  0.095300  0.752700  1.0  0.0875
  H  H305  1  0.864900  0.031400  0.990200  1.0  0.1822
  H  H306  1  0.898100  0.054100  0.024700  1.0  0.1298
  H  H307  1  0.266500  0.922200  0.337600  1.0  0.0683
  H  H308  1  0.378800  0.932400  0.279800  1.0  0.1113
  H  H309  1  0.261900  0.923000  0.185800  1.0  0.1187
  H  H310  1  0.151900  0.912900  0.246700  1.0  0.0708
  H  H311  1  0.386600  0.946500  0.158500  1.0  0.0746
  H  H312  1  0.413700  0.969600  0.195200  1.0  0.0652
  C  C313  1  0.385120  0.909040  0.418720  1.0  0.3726
  C  C314  1  0.449450  0.905660  0.377240  1.0  -0.2165
  C  C315  1  0.507310  0.929120  0.370860  1.0  -0.1255
  C  C316  1  0.505730  0.957480  0.405860  1.0  -0.0992
  C  C317  1  0.440340  0.963120  0.447400  1.0  -0.064
  C  C318  1  0.380490  0.939750  0.453870  1.0  -0.1525
  C  C319  1  0.312630  0.948510  0.497030  1.0  0.5666
  C  C320  1  0.139550  0.914970  0.554470  1.0  0.477
  C  C321  1  0.069020  0.922450  0.597910  1.0  -0.34
  C  C322  1  0.019300  0.887410  0.607190  1.0  -0.3386
  C  C323  1  0.197450  0.971260  0.671640  1.0  0.3369
  C  C324  1  0.240440  0.944630  0.702290  1.0  -0.1926
  C  C325  1  0.204320  0.943910  0.748450  1.0  -0.1137
  C  C326  1  0.120970  0.969340  0.767920  1.0  -0.1687
  C  C327  1  0.077680  0.995390  0.738250  1.0  -0.03
  C  C328  1  0.114440  0.997010  0.690510  1.0  -0.1512
  C  C329  1  0.063970  0.028260  0.662080  1.0  0.5652
  C  C330  1  0.084630  0.070130  0.551210  1.0  0.5061
  C  C331  1  0.044190  0.106290  0.521330  1.0  -0.2706
  C  C332  1  0.102840  0.131320  0.489200  1.0  -0.33
  C  C333  1  0.250320  0.080610  0.622150  1.0  0.1802
  C  C334  1  0.276960  0.118140  0.628340  1.0  -0.2304
  C  C335  1  0.314830  0.137670  0.591670  1.0  0.0434
  C  C336  1  0.322490  0.121570  0.545250  1.0  -0.1905
  C  C337  1  0.296570  0.082240  0.543820  1.0  0.1585
  C  C338  1  0.344030  0.181070  0.595070  1.0  -0.2072
  C  C339  1  0.131920  0.814510  0.347050  1.0  0.3149
  C  C340  1  0.132520  0.777300  0.321860  1.0  -0.2462
  C  C341  1  0.179210  0.732430  0.327550  1.0  -0.0924
  C  C342  1  0.226380  0.723440  0.358000  1.0  -0.0956
  C  C343  1  0.227220  0.759260  0.383500  1.0  -0.0553
  C  C344  1  0.180380  0.805430  0.378570  1.0  -0.0931
  C  C345  1  0.184390  0.841840  0.406820  1.0  0.5659
  C  C346  1  0.126210  0.960590  0.415390  1.0  0.5835
  C  C347  1  0.130860  0.000270  0.439010  1.0  0.0277
  C  C348  1  0.428810  0.306260  0.577320  1.0  0.1742
  C  C349  1  0.396060  0.271900  0.570780  1.0  -0.2216
  C  C350  1  0.441760  0.226650  0.568830  1.0  0.0881
  C  C351  1  0.519380  0.216960  0.576280  1.0  -0.2382
  C  C352  1  0.547770  0.253590  0.582670  1.0  0.1723
  C  C353  1  0.409290  0.187730  0.559090  1.0  -0.1416
  C  C354  1  0.212880  0.590960  0.081280  1.0  0.3736
  C  C355  1  0.232350  0.594340  0.122760  1.0  -0.2208
  C  C356  1  0.307290  0.570880  0.129140  1.0  -0.1233
  C  C357  1  0.369070  0.542520  0.094140  1.0  -0.1011
  C  C358  1  0.350860  0.536880  0.052600  1.0  -0.063
  C  C359  1  0.274110  0.560250  0.046130  1.0  -0.1536
  C  C360  1  0.258170  0.551490  0.002970  1.0  0.5657
  C  C361  1  0.108990  0.585030  0.945530  1.0  0.4785
  C  C362  1  0.089380  0.577550  0.902090  1.0  -0.3374
  C  C363  1  0.013900  0.612590  0.892810  1.0  -0.3374
  C  C364  1  0.340350  0.528740  0.828360  1.0  0.3371
  C  C365  1  0.387360  0.555370  0.797710  1.0  -0.1883
  C  C366  1  0.396680  0.556090  0.751550  1.0  -0.1142
  C  C367  1  0.358230  0.530660  0.732080  1.0  -0.1682
  C  C368  1  0.311320  0.504610  0.761750  1.0  -0.0328
  C  C369  1  0.301960  0.502990  0.809490  1.0  -0.1507
  C  C370  1  0.254310  0.471740  0.837920  1.0  0.5646
  C  C371  1  0.205970  0.429870  0.948790  1.0  0.5047
  C  C372  1  0.171810  0.393710  0.978670  1.0  -0.2711
  C  C373  1  0.223360  0.368680  0.010800  1.0  -0.3286
  C  C374  1  0.453080  0.419390  0.877850  1.0  0.1766
  C  C375  1  0.523440  0.381860  0.871660  1.0  -0.2312
  C  C376  1  0.544170  0.362330  0.908330  1.0  0.0452
  C  C377  1  0.489310  0.378430  0.954750  1.0  -0.193
  C  C378  1  0.422630  0.417760  0.956180  1.0  0.1589
  C  C379  1  0.620170  0.318930  0.904930  1.0  -0.2075
  C  C380  1  0.793480  0.685490  0.152950  1.0  0.3159
  C  C381  1  0.731680  0.722700  0.178140  1.0  -0.2439
  C  C382  1  0.739190  0.767570  0.172450  1.0  -0.0951
  C  C383  1  0.807820  0.776560  0.142000  1.0  -0.0993
  C  C384  1  0.869980  0.740740  0.116500  1.0  -0.0552
  C  C385  1  0.864380  0.694570  0.121430  1.0  -0.094
  C  C386  1  0.933050  0.658160  0.093180  1.0  0.5657
  C  C387  1  0.002190  0.539410  0.084610  1.0  0.5835
  C  C388  1  0.070140  0.499730  0.060990  1.0  0.0302
  C  C389  1  0.812390  0.193740  0.922680  1.0  0.1737
  C  C390  1  0.738740  0.228100  0.929220  1.0  -0.2209
  C  C391  1  0.737240  0.273350  0.931170  1.0  0.0895
  C  C392  1  0.812620  0.283040  0.923720  1.0  -0.237
  C  C393  1  0.884030  0.246410  0.917330  1.0  0.1727
  C  C394  1  0.656110  0.312270  0.940910  1.0  -0.1417
  C  C395  1  0.803840  0.581280  0.409040  1.0  0.3725
  C  C396  1  0.826690  0.622760  0.405660  1.0  -0.2142
  C  C397  1  0.878170  0.629140  0.429120  1.0  -0.1289
  C  C398  1  0.911590  0.594140  0.457480  1.0  -0.0948
  C  C399  1  0.887740  0.552600  0.463120  1.0  -0.0625
  C  C400  1  0.834360  0.546130  0.439750  1.0  -0.1537
  C  C401  1  0.809660  0.502970  0.448510  1.0  0.5661
  C  C402  1  0.694020  0.445530  0.414970  1.0  0.4749
  C  C403  1  0.666930  0.402090  0.422450  1.0  -0.3363
  C  C404  1  0.626490  0.392810  0.387410  1.0  -0.3369
  C  C405  1  0.869090  0.328360  0.471260  1.0  0.3328
  C  C406  1  0.942730  0.297710  0.444630  1.0  -0.1949
  C  C407  1  0.952770  0.251550  0.443910  1.0  -0.1153
  C  C408  1  0.888890  0.232080  0.469340  1.0  -0.1717
  C  C409  1  0.815930  0.261750  0.495390  1.0  -0.031
  C  C410  1  0.804950  0.309490  0.497010  1.0  -0.1514
  C  C411  1  0.726050  0.337920  0.528260  1.0  0.5649
  C  C412  1  0.635840  0.448790  0.570130  1.0  0.5069
  C  C413  1  0.565520  0.478670  0.606290  1.0  -0.2698
  C  C414  1  0.592040  0.510800  0.631320  1.0  -0.3281
  C  C415  1  0.872470  0.377850  0.580610  1.0  0.1789
  C  C416  1  0.905300  0.371660  0.618140  1.0  -0.2366
  C  C417  1  0.906500  0.408330  0.637670  1.0  0.0446
  C  C418  1  0.867740  0.454750  0.621570  1.0  -0.194
  C  C419  1  0.840390  0.456180  0.582240  1.0  0.1583
  C  C420  1  0.939100  0.404930  0.681070  1.0  -0.2087
  C  C421  1  0.478970  0.652950  0.314510  1.0  0.3187
  C  C422  1  0.454380  0.678140  0.277300  1.0  -0.2456
  C  C423  1  0.506760  0.672450  0.232430  1.0  -0.0921
  C  C424  1  0.584380  0.642000  0.223440  1.0  -0.0988
  C  C425  1  0.610720  0.616500  0.259260  1.0  -0.0544
  C  C426  1  0.558950  0.621430  0.305430  1.0  -0.0962
  C  C427  1  0.591210  0.593180  0.341840  1.0  0.5661
  C  C428  1  0.541600  0.584610  0.460590  1.0  0.5826
  C  C429  1  0.569870  0.560990  0.500270  1.0  0.0332
  C  C430  1  0.006130  0.422680  0.806260  1.0  0.1782
  C  C431  1  0.966840  0.429220  0.771900  1.0  -0.2211
  C  C432  1  0.010590  0.431170  0.726650  1.0  0.0884
  C  C433  1  0.095660  0.423720  0.716960  1.0  -0.2372
  C  C434  1  0.130440  0.417330  0.753590  1.0  0.174
  C  C435  1  0.968380  0.440910  0.687730  1.0  -0.1431
  C  C436  1  0.294160  0.918720  0.090960  1.0  0.3727
  C  C437  1  0.355110  0.877240  0.094340  1.0  -0.2167
  C  C438  1  0.436430  0.870860  0.070880  1.0  -0.1311
  C  C439  1  0.463210  0.905860  0.042520  1.0  -0.1002
  C  C440  1  0.403460  0.947400  0.036880  1.0  -0.0619
  C  C441  1  0.320240  0.953870  0.060250  1.0  -0.153
  C  C442  1  0.261140  0.997030  0.051490  1.0  0.5658
  C  C443  1  0.054520  0.054470  0.085030  1.0  0.4773
  C  C444  1  0.991470  0.097910  0.077550  1.0  -0.3383
  C  C445  1  0.906710  0.107190  0.112590  1.0  -0.3388
  C  C446  1  0.168710  0.171640  0.028740  1.0  0.3343
  C  C447  1  0.185070  0.202290  0.055370  1.0  -0.1907
  C  C448  1  0.148230  0.248450  0.056090  1.0  -0.1153
  C  C449  1  0.090310  0.267920  0.030660  1.0  -0.1711
  C  C450  1  0.073070  0.238250  0.004610  1.0  -0.0305
  C  C451  1  0.111450  0.190510  0.002990  1.0  -0.1502
  C  C452  1  0.092230  0.162080  0.971740  1.0  0.5654
  C  C453  1  0.154760  0.051210  0.929870  1.0  0.5077
  C  C454  1  0.150480  0.021330  0.893710  1.0  -0.2695
  C  C455  1  0.234160  0.989200  0.868680  1.0  -0.3287
  C  C456  1  0.330930  0.122150  0.919390  1.0  0.1765
  C  C457  1  0.395100  0.128340  0.881860  1.0  -0.2355
  C  C458  1  0.452500  0.091670  0.862330  1.0  0.0448
  C  C459  1  0.444060  0.045250  0.878430  1.0  -0.1956
  C  C460  1  0.378810  0.043820  0.917760  1.0  0.1551
  C  C461  1  0.525100  0.095070  0.818930  1.0  -0.2074
  C  C462  1  0.946430  0.847050  0.185490  1.0  0.3212
  C  C463  1  0.909820  0.821860  0.222700  1.0  -0.2428
  C  C464  1  0.911640  0.827550  0.267570  1.0  -0.0952
  C  C465  1  0.949820  0.858000  0.276560  1.0  -0.0961
  C  C466  1  0.986480  0.883500  0.240740  1.0  -0.0555
  C  C467  1  0.985810  0.878570  0.194570  1.0  -0.0959
  C  C468  1  0.026230  0.906820  0.158160  1.0  0.5664
  C  C469  1  0.086800  0.915390  0.039410  1.0  0.583
  C  C470  1  0.131130  0.939010  0.999730  1.0  0.0325
  C  C471  1  0.735070  0.077320  0.693740  1.0  0.1752
  C  C472  1  0.667960  0.070780  0.728100  1.0  -0.2167
  C  C473  1  0.668410  0.068830  0.773350  1.0  0.0874
  C  C474  1  0.736340  0.076280  0.783040  1.0  -0.2368
  C  C475  1  0.801360  0.082670  0.746410  1.0  0.1733
  C  C476  1  0.597020  0.059090  0.812270  1.0  -0.1433
  C  C477  1  0.614880  0.090960  0.581280  1.0  0.3728
  C  C478  1  0.550550  0.094340  0.622760  1.0  -0.2162
  C  C479  1  0.492690  0.070880  0.629140  1.0  -0.1242
  C  C480  1  0.494270  0.042520  0.594140  1.0  -0.0992
  C  C481  1  0.559660  0.036880  0.552600  1.0  -0.0642
  C  C482  1  0.619510  0.060250  0.546130  1.0  -0.1525
  C  C483  1  0.687370  0.051490  0.502970  1.0  0.5666
  C  C484  1  0.860450  0.085030  0.445530  1.0  0.4777
  C  C485  1  0.930980  0.077550  0.402090  1.0  -0.3393
  C  C486  1  0.980700  0.112590  0.392810  1.0  -0.3374
  C  C487  1  0.802550  0.028740  0.328360  1.0  0.3378
  C  C488  1  0.759560  0.055370  0.297710  1.0  -0.1922
  C  C489  1  0.795680  0.056090  0.251550  1.0  -0.1126
  C  C490  1  0.879030  0.030660  0.232080  1.0  -0.1694
  C  C491  1  0.922320  0.004610  0.261750  1.0  -0.0293
  C  C492  1  0.885560  0.002990  0.309490  1.0  -0.1491
  C  C493  1  0.936030  0.971740  0.337920  1.0  0.5643
  C  C494  1  0.915370  0.929870  0.448790  1.0  0.5057
  C  C495  1  0.955810  0.893710  0.478670  1.0  -0.2718
  C  C496  1  0.897160  0.868680  0.510800  1.0  -0.3293
  C  C497  1  0.749680  0.919390  0.377850  1.0  0.1798
  C  C498  1  0.723040  0.881860  0.371660  1.0  -0.2312
  C  C499  1  0.685170  0.862330  0.408330  1.0  0.043
  C  C500  1  0.677510  0.878430  0.454750  1.0  -0.1947
  C  C501  1  0.703430  0.917760  0.456180  1.0  0.1599
  C  C502  1  0.655970  0.818930  0.404930  1.0  -0.2054
  C  C503  1  0.868080  0.185490  0.652950  1.0  0.3156
  C  C504  1  0.867480  0.222700  0.678140  1.0  -0.2442
  C  C505  1  0.820790  0.267570  0.672450  1.0  -0.094
  C  C506  1  0.773620  0.276560  0.642000  1.0  -0.0997
  C  C507  1  0.772780  0.240740  0.616500  1.0  -0.0547
  C  C508  1  0.819620  0.194570  0.621430  1.0  -0.0935
  C  C509  1  0.815610  0.158160  0.593180  1.0  0.5671
  C  C510  1  0.873790  0.039410  0.584610  1.0  0.5821
  C  C511  1  0.869140  0.999730  0.560990  1.0  0.0279
  C  C512  1  0.571190  0.693740  0.422680  1.0  0.1737
  C  C513  1  0.603940  0.728100  0.429220  1.0  -0.2229
  C  C514  1  0.558240  0.773350  0.431170  1.0  0.0887
  C  C515  1  0.480620  0.783040  0.423720  1.0  -0.2386
  C  C516  1  0.452230  0.746410  0.417330  1.0  0.1717
  C  C517  1  0.590710  0.812270  0.440910  1.0  -0.1417
  C  C518  1  0.787120  0.409040  0.918720  1.0  0.3744
  C  C519  1  0.767650  0.405660  0.877240  1.0  -0.2211
  C  C520  1  0.692710  0.429120  0.870860  1.0  -0.1247
  C  C521  1  0.630930  0.457480  0.905860  1.0  -0.1007
  C  C522  1  0.649140  0.463120  0.947400  1.0  -0.0607
  C  C523  1  0.725890  0.439750  0.953870  1.0  -0.1546
  C  C524  1  0.741830  0.448510  0.997030  1.0  0.5668
  C  C525  1  0.891010  0.414970  0.054470  1.0  0.4794
  C  C526  1  0.910620  0.422450  0.097910  1.0  -0.3368
  C  C527  1  0.986100  0.387410  0.107190  1.0  -0.3387
  C  C528  1  0.659650  0.471260  0.171640  1.0  0.3374
  C  C529  1  0.612640  0.444630  0.202290  1.0  -0.192
  C  C530  1  0.603320  0.443910  0.248450  1.0  -0.1127
  C  C531  1  0.641770  0.469340  0.267920  1.0  -0.1672
  C  C532  1  0.688680  0.495390  0.238250  1.0  -0.0332
  C  C533  1  0.698040  0.497010  0.190510  1.0  -0.1525
  C  C534  1  0.745690  0.528260  0.162080  1.0  0.564
  C  C535  1  0.794030  0.570130  0.051210  1.0  0.504
  C  C536  1  0.828190  0.606290  0.021330  1.0  -0.2723
  C  C537  1  0.776640  0.631320  0.989200  1.0  -0.3279
  C  C538  1  0.546920  0.580610  0.122150  1.0  0.1791
  C  C539  1  0.476560  0.618140  0.128340  1.0  -0.2334
  C  C540  1  0.455830  0.637670  0.091670  1.0  0.0448
  C  C541  1  0.510690  0.621570  0.045250  1.0  -0.1917
  C  C542  1  0.577370  0.582240  0.043820  1.0  0.1582
  C  C543  1  0.379830  0.681070  0.095070  1.0  -0.2087
  C  C544  1  0.206520  0.314510  0.847050  1.0  0.3159
  C  C545  1  0.268320  0.277300  0.821860  1.0  -0.2409
  C  C546  1  0.260810  0.232430  0.827550  1.0  -0.0929
  C  C547  1  0.192180  0.223440  0.858000  1.0  -0.0976
  C  C548  1  0.130020  0.259260  0.883500  1.0  -0.0545
  C  C549  1  0.135620  0.305430  0.878570  1.0  -0.0926
  C  C550  1  0.066950  0.341840  0.906820  1.0  0.5654
  C  C551  1  0.997810  0.460590  0.915390  1.0  0.5824
  C  C552  1  0.929860  0.500270  0.939010  1.0  0.0268
  C  C553  1  0.187610  0.806260  0.077320  1.0  0.1727
  C  C554  1  0.261260  0.771900  0.070780  1.0  -0.2232
  C  C555  1  0.262760  0.726650  0.068830  1.0  0.0878
  C  C556  1  0.187380  0.716960  0.076280  1.0  -0.238
  C  C557  1  0.115970  0.753590  0.082670  1.0  0.1715
  C  C558  1  0.343890  0.687730  0.059090  1.0  -0.1406
  C  C559  1  0.196160  0.418720  0.590960  1.0  0.3731
  C  C560  1  0.173310  0.377240  0.594340  1.0  -0.2159
  C  C561  1  0.121830  0.370860  0.570880  1.0  -0.1289
  C  C562  1  0.088410  0.405860  0.542520  1.0  -0.0962
  C  C563  1  0.112260  0.447400  0.536880  1.0  -0.0622
  C  C564  1  0.165640  0.453870  0.560250  1.0  -0.1539
  C  C565  1  0.190340  0.497030  0.551490  1.0  0.5661
  C  C566  1  0.305980  0.554470  0.585030  1.0  0.4751
  C  C567  1  0.333070  0.597910  0.577550  1.0  -0.3358
  C  C568  1  0.373510  0.607190  0.612590  1.0  -0.3409
  C  C569  1  0.130910  0.671640  0.528740  1.0  0.3333
  C  C570  1  0.057270  0.702290  0.555370  1.0  -0.1941
  C  C571  1  0.047230  0.748450  0.556090  1.0  -0.1157
  C  C572  1  0.111110  0.767920  0.530660  1.0  -0.1717
  C  C573  1  0.184070  0.738250  0.504610  1.0  -0.0325
  C  C574  1  0.195050  0.690510  0.502990  1.0  -0.1512
  C  C575  1  0.273950  0.662080  0.471740  1.0  0.5629
  C  C576  1  0.364160  0.551210  0.429870  1.0  0.5062
  C  C577  1  0.434480  0.521330  0.393710  1.0  -0.271
  C  C578  1  0.407960  0.489200  0.368680  1.0  -0.3258
  C  C579  1  0.127530  0.622150  0.419390  1.0  0.1788
  C  C580  1  0.094700  0.628340  0.381860  1.0  -0.2349
  C  C581  1  0.093500  0.591670  0.362330  1.0  0.0441
  C  C582  1  0.132260  0.545250  0.378430  1.0  -0.1962
  C  C583  1  0.159610  0.543820  0.417760  1.0  0.1585
  C  C584  1  0.060900  0.595070  0.318930  1.0  -0.2102
  C  C585  1  0.521030  0.347050  0.685490  1.0  0.3188
  C  C586  1  0.545620  0.321860  0.722700  1.0  -0.2442
  C  C587  1  0.493240  0.327550  0.767570  1.0  -0.0936
  C  C588  1  0.415620  0.358000  0.776560  1.0  -0.0977
  C  C589  1  0.389280  0.383500  0.740740  1.0  -0.054
  C  C590  1  0.441050  0.378570  0.694570  1.0  -0.0971
  C  C591  1  0.408790  0.406820  0.658160  1.0  0.5672
  C  C592  1  0.458400  0.415390  0.539410  1.0  0.5815
  C  C593  1  0.430130  0.439010  0.499730  1.0  0.0332
  C  C594  1  0.993870  0.577320  0.193740  1.0  0.1768
  C  C595  1  0.033160  0.570780  0.228100  1.0  -0.2223
  C  C596  1  0.989410  0.568830  0.273350  1.0  0.0873
  C  C597  1  0.904340  0.576280  0.283040  1.0  -0.2402
  C  C598  1  0.869560  0.582670  0.246410  1.0  0.1729
  C  C599  1  0.031620  0.559090  0.312270  1.0  -0.1426
  C  C600  1  0.705840  0.081280  0.909040  1.0  0.3729
  C  C601  1  0.644890  0.122760  0.905660  1.0  -0.2172
  C  C602  1  0.563570  0.129140  0.929120  1.0  -0.1304
  C  C603  1  0.536790  0.094140  0.957480  1.0  -0.1007
  C  C604  1  0.596540  0.052600  0.963120  1.0  -0.0626
  C  C605  1  0.679760  0.046130  0.939750  1.0  -0.1537
  C  C606  1  0.738860  0.002970  0.948510  1.0  0.5665
  C  C607  1  0.945480  0.945530  0.914970  1.0  0.4781
  C  C608  1  0.008530  0.902090  0.922450  1.0  -0.3391
  C  C609  1  0.093290  0.892810  0.887410  1.0  -0.3383
  C  C610  1  0.831290  0.828360  0.971260  1.0  0.3333
  C  C611  1  0.814930  0.797710  0.944630  1.0  -0.1924
  C  C612  1  0.851770  0.751550  0.943910  1.0  -0.1146
  C  C613  1  0.909690  0.732080  0.969340  1.0  -0.1696
  C  C614  1  0.926930  0.761750  0.995390  1.0  -0.0297
  C  C615  1  0.888550  0.809490  0.997010  1.0  -0.1509
  C  C616  1  0.907770  0.837920  0.028260  1.0  0.5643
  C  C617  1  0.845240  0.948790  0.070130  1.0  0.5077
  C  C618  1  0.849520  0.978670  0.106290  1.0  -0.2715
  C  C619  1  0.765840  0.010800  0.131320  1.0  -0.3312
  C  C620  1  0.669070  0.877850  0.080610  1.0  0.1775
  C  C621  1  0.604900  0.871660  0.118140  1.0  -0.2386
  C  C622  1  0.547500  0.908330  0.137670  1.0  0.0448
  C  C623  1  0.555940  0.954750  0.121570  1.0  -0.1974
  C  C624  1  0.621190  0.956180  0.082240  1.0  0.1558
  C  C625  1  0.474900  0.904930  0.181070  1.0  -0.21
  C  C626  1  0.053570  0.152950  0.814510  1.0  0.3212
  C  C627  1  0.090180  0.178140  0.777300  1.0  -0.2434
  C  C628  1  0.088360  0.172450  0.732430  1.0  -0.0931
  C  C629  1  0.050180  0.142000  0.723440  1.0  -0.0963
  C  C630  1  0.013520  0.116500  0.759260  1.0  -0.0554
  C  C631  1  0.014190  0.121430  0.805430  1.0  -0.0951
  C  C632  1  0.973770  0.093180  0.841840  1.0  0.5661
  C  C633  1  0.913200  0.084610  0.960590  1.0  0.5815
  C  C634  1  0.868870  0.060990  0.000270  1.0  0.031
  C  C635  1  0.264930  0.922680  0.306260  1.0  0.1745
  C  C636  1  0.332040  0.929220  0.271900  1.0  -0.2161
  C  C637  1  0.331590  0.931170  0.226650  1.0  0.0885
  C  C638  1  0.263660  0.923720  0.216960  1.0  -0.2374
  C  C639  1  0.198640  0.917330  0.253590  1.0  0.1719
  C  C640  1  0.402980  0.940910  0.187730  1.0  -0.1432
  N  N641  1  0.254500  0.927160  0.505200  1.0  -0.2759
  N  N642  1  0.192280  0.939560  0.547560  1.0  -0.2697
  N  N643  1  0.098450  0.033620  0.617540  1.0  -0.2926
  N  N644  1  0.047560  0.068210  0.595230  1.0  -0.2689
  N  N645  1  0.261520  0.061350  0.582810  1.0  -0.3213
  N  N646  1  0.147490  0.885960  0.399760  1.0  -0.2509
  N  N647  1  0.158560  0.918070  0.427790  1.0  -0.2758
  N  N648  1  0.504100  0.298010  0.582970  1.0  -0.3559
  N  N649  1  0.186860  0.572840  0.994800  1.0  -0.2761
  N  N650  1  0.179400  0.560440  0.952440  1.0  -0.2739
  N  N651  1  0.249610  0.466380  0.882460  1.0  -0.2931
  N  N652  1  0.211000  0.431790  0.904770  1.0  -0.2705
  N  N653  1  0.405680  0.438650  0.917190  1.0  -0.323
  N  N654  1  0.933210  0.614040  0.100240  1.0  -0.2508
  N  N655  1  0.004420  0.581930  0.072210  1.0  -0.2766
  N  N656  1  0.885080  0.201990  0.917030  1.0  -0.3538
  N  N657  1  0.759700  0.494800  0.427160  1.0  -0.2762
  N  N658  1  0.739840  0.452440  0.439560  1.0  -0.2716
  N  N659  1  0.715990  0.382460  0.533620  1.0  -0.2927
  N  N660  1  0.642790  0.404770  0.568210  1.0  -0.2684
  N  N661  1  0.844330  0.417190  0.561350  1.0  -0.3233
  N  N662  1  0.547250  0.600240  0.385960  1.0  -0.2529
  N  N663  1  0.586350  0.572210  0.418070  1.0  -0.2753
  N  N664  1  0.087070  0.417030  0.798010  1.0  -0.3569
  N  N665  1  0.181660  0.005200  0.072840  1.0  -0.2754
  N  N666  1  0.131840  0.047560  0.060440  1.0  -0.2717
  N  N667  1  0.132070  0.117540  0.966380  1.0  -0.2923
  N  N668  1  0.115770  0.095230  0.931790  1.0  -0.2697
  N  N669  1  0.322870  0.082810  0.938650  1.0  -0.3218
  N  N670  1  0.033450  0.899760  0.114040  1.0  -0.2511
  N  N671  1  0.076630  0.927790  0.081930  1.0  -0.2739
  N  N672  1  0.802110  0.082970  0.701990  1.0  -0.355
  N  N673  1  0.745500  0.072840  0.494800  1.0  -0.2768
  N  N674  1  0.807720  0.060440  0.452440  1.0  -0.2709
  N  N675  1  0.901550  0.966380  0.382460  1.0  -0.2929
  N  N676  1  0.952440  0.931790  0.404770  1.0  -0.2688
  N  N677  1  0.738480  0.938650  0.417190  1.0  -0.3223
  N  N678  1  0.852510  0.114040  0.600240  1.0  -0.253
  N  N679  1  0.841440  0.081930  0.572210  1.0  -0.2764
  N  N680  1  0.495900  0.701990  0.417030  1.0  -0.3543
  N  N681  1  0.813140  0.427160  0.005200  1.0  -0.2751
  N  N682  1  0.820600  0.439560  0.047560  1.0  -0.2706
  N  N683  1  0.750390  0.533620  0.117540  1.0  -0.2922
  N  N684  1  0.789000  0.568210  0.095230  1.0  -0.2697
  N  N685  1  0.594320  0.561350  0.082810  1.0  -0.3205
  N  N686  1  0.066790  0.385960  0.899760  1.0  -0.2502
  N  N687  1  0.995580  0.418070  0.927790  1.0  -0.2766
  N  N688  1  0.114920  0.798010  0.082970  1.0  -0.3542
  N  N689  1  0.240300  0.505200  0.572840  1.0  -0.2755
  N  N690  1  0.260160  0.547560  0.560440  1.0  -0.2688
  N  N691  1  0.284010  0.617540  0.466380  1.0  -0.2938
  N  N692  1  0.357210  0.595230  0.431790  1.0  -0.269
  N  N693  1  0.155670  0.582810  0.438650  1.0  -0.3237
  N  N694  1  0.452750  0.399760  0.614040  1.0  -0.253
  N  N695  1  0.413650  0.427790  0.581930  1.0  -0.2753
  N  N696  1  0.912930  0.582970  0.201990  1.0  -0.3573
  N  N697  1  0.818340  0.994800  0.927160  1.0  -0.2743
  N  N698  1  0.868160  0.952440  0.939560  1.0  -0.2712
  N  N699  1  0.867930  0.882460  0.033620  1.0  -0.2904
  N  N700  1  0.884230  0.904770  0.068210  1.0  -0.2696
  N  N701  1  0.677130  0.917190  0.061350  1.0  -0.3206
  N  N702  1  0.966550  0.100240  0.885960  1.0  -0.2522
  N  N703  1  0.923370  0.072210  0.918070  1.0  -0.2748
  N  N704  1  0.197890  0.917030  0.298010  1.0  -0.3544
  O  O705  1  0.336170  0.882730  0.423010  1.0  -0.5873
  O  O706  1  0.311450  0.977840  0.526780  1.0  -0.6045
  O  O707  1  0.147700  0.883340  0.524540  1.0  -0.5775
  O  O708  1  0.239160  0.970420  0.626660  1.0  -0.5728
  O  O709  1  0.988350  0.049380  0.682220  1.0  -0.578
  O  O710  1  0.157720  0.042260  0.531800  1.0  -0.5753
  O  O711  1  0.084960  0.856450  0.338810  1.0  -0.5518
  O  O712  1  0.224890  0.830380  0.437440  1.0  -0.5857
  O  O713  1  0.089880  0.969940  0.382240  1.0  -0.5678
  O  O714  1  0.141910  0.617270  0.076990  1.0  -0.5874
  O  O715  1  0.316070  0.522160  0.973220  1.0  -0.605
  O  O716  1  0.055580  0.616660  0.975460  1.0  -0.5755
  O  O717  1  0.336240  0.529580  0.873340  1.0  -0.5697
  O  O718  1  0.219950  0.450620  0.817780  1.0  -0.5812
  O  O719  1  0.231780  0.457740  0.968200  1.0  -0.576
  O  O720  1  0.780220  0.643550  0.161190  1.0  -0.5531
  O  O721  1  0.992710  0.669620  0.062560  1.0  -0.5861
  O  O722  1  0.942060  0.530060  0.117760  1.0  -0.5697
  O  O723  1  0.759180  0.576990  0.382730  1.0  -0.5888
  O  O724  1  0.838230  0.473220  0.477840  1.0  -0.605
  O  O725  1  0.672240  0.475460  0.383340  1.0  -0.5755
  O  O726  1  0.865820  0.373340  0.470420  1.0  -0.5647
  O  O727  1  0.670570  0.317780  0.549380  1.0  -0.5801
  O  O728  1  0.689520  0.468200  0.542260  1.0  -0.5769
  O  O729  1  0.423770  0.661190  0.356450  1.0  -0.5539
  O  O730  1  0.662330  0.562560  0.330380  1.0  -0.5855
  O  O731  1  0.472120  0.617760  0.469940  1.0  -0.5686
  O  O732  1  0.218900  0.923010  0.117270  1.0  -0.5874
  O  O733  1  0.289290  0.026780  0.022160  1.0  -0.6035
  O  O734  1  0.031040  0.024540  0.116660  1.0  -0.5734
  O  O735  1  0.209580  0.126660  0.029580  1.0  -0.5667
  O  O736  1  0.037730  0.182220  0.950620  1.0  -0.5801
  O  O737  1  0.199980  0.031800  0.957740  1.0  -0.576
  O  O738  1  0.941410  0.838810  0.143550  1.0  -0.5566
  O  O739  1  0.055270  0.937440  0.169620  1.0  -0.587
  O  O740  1  0.059820  0.882240  0.030060  1.0  -0.569
  O  O741  1  0.663830  0.117270  0.576990  1.0  -0.5882
  O  O742  1  0.688550  0.022160  0.473220  1.0  -0.604
  O  O743  1  0.852300  0.116660  0.475460  1.0  -0.5779
  O  O744  1  0.760840  0.029580  0.373340  1.0  -0.5691
  O  O745  1  0.011650  0.950620  0.317780  1.0  -0.5787
  O  O746  1  0.842280  0.957740  0.468200  1.0  -0.5753
  O  O747  1  0.915040  0.143550  0.661190  1.0  -0.5541
  O  O748  1  0.775110  0.169620  0.562560  1.0  -0.5865
  O  O749  1  0.910120  0.030060  0.617760  1.0  -0.5694
  O  O750  1  0.858090  0.382730  0.923010  1.0  -0.5883
  O  O751  1  0.683930  0.477840  0.026780  1.0  -0.6031
  O  O752  1  0.944420  0.383340  0.024540  1.0  -0.5758
  O  O753  1  0.663760  0.470420  0.126660  1.0  -0.5756
  O  O754  1  0.780050  0.549380  0.182220  1.0  -0.5809
  O  O755  1  0.768220  0.542260  0.031800  1.0  -0.5763
  O  O756  1  0.219780  0.356450  0.838810  1.0  -0.5529
  O  O757  1  0.007290  0.330380  0.937440  1.0  -0.5848
  O  O758  1  0.057940  0.469940  0.882240  1.0  -0.5689
  O  O759  1  0.240820  0.423010  0.617270  1.0  -0.5884
  O  O760  1  0.161770  0.526780  0.522160  1.0  -0.6031
  O  O761  1  0.327760  0.524540  0.616660  1.0  -0.5755
  O  O762  1  0.134180  0.626660  0.529580  1.0  -0.5694
  O  O763  1  0.329430  0.682220  0.450620  1.0  -0.5793
  O  O764  1  0.310480  0.531800  0.457740  1.0  -0.5772
  O  O765  1  0.576230  0.338810  0.643550  1.0  -0.5548
  O  O766  1  0.337670  0.437440  0.669620  1.0  -0.5851
  O  O767  1  0.527880  0.382240  0.530060  1.0  -0.5687
  O  O768  1  0.781100  0.076990  0.882730  1.0  -0.5859
  O  O769  1  0.710710  0.973220  0.977840  1.0  -0.6022
  O  O770  1  0.968960  0.975460  0.883340  1.0  -0.5746
  O  O771  1  0.790420  0.873340  0.970420  1.0  -0.57
  O  O772  1  0.962270  0.817780  0.049380  1.0  -0.5804
  O  O773  1  0.800020  0.968200  0.042260  1.0  -0.5762
  O  O774  1  0.058590  0.161190  0.856450  1.0  -0.554
  O  O775  1  0.944730  0.062560  0.830380  1.0  -0.5859
  O  O776  1  0.940180  0.117760  0.969940  1.0  -0.5691
