# generated using pymatgen
data_Mn3H36C41N8O9
_symmetry_space_group_name_H-M   'P 1'
_cell_length_a   40.37600000
_cell_length_b   40.37600000
_cell_length_c   17.56700000
_cell_angle_alpha   90.00000000
_cell_angle_beta   90.00000000
_cell_angle_gamma   90.00000000
_symmetry_Int_Tables_number   1
_chemical_formula_structural   Mn3H36C41N8O9
_chemical_formula_sum   'Mn48 H576 C656 N128 O144'
_cell_volume   28638.09891219
_cell_formula_units_Z   16
loop_
 _symmetry_equiv_pos_site_id
 _symmetry_equiv_pos_as_xyz
  1  'x, y, z'
loop_
 _atom_site_type_symbol
 _atom_site_label
 _atom_site_symmetry_multiplicity
 _atom_site_fract_x
 _atom_site_fract_y
 _atom_site_fract_z
 _atom_site_occupancy
 _atom_site_charge
  Mn  Mn1  1  0.720270  0.135810  0.278180  1.0  0.9236
  Mn  Mn2  1  0.795730  0.175310  0.082030  1.0  0.9724
  Mn  Mn3  1  0.711510  0.209220  0.494490  1.0  0.981
  Mn  Mn4  1  0.220270  0.635810  0.778180  1.0  0.9236
  Mn  Mn5  1  0.295730  0.675310  0.582030  1.0  0.9724
  Mn  Mn6  1  0.211510  0.709220  0.994490  1.0  0.981
  Mn  Mn7  1  0.779730  0.864190  0.778180  1.0  0.9249
  Mn  Mn8  1  0.704270  0.824690  0.582030  1.0  0.9722
  Mn  Mn9  1  0.788490  0.790780  0.994490  1.0  0.9783
  Mn  Mn10  1  0.279730  0.364190  0.278180  1.0  0.9249
  Mn  Mn11  1  0.204270  0.324690  0.082030  1.0  0.9722
  Mn  Mn12  1  0.288490  0.290780  0.494490  1.0  0.9783
  Mn  Mn13  1  0.614190  0.970270  0.528180  1.0  0.9254
  Mn  Mn14  1  0.574690  0.045730  0.332030  1.0  0.9755
  Mn  Mn15  1  0.540780  0.961510  0.744490  1.0  0.9792
  Mn  Mn16  1  0.114190  0.470270  0.028180  1.0  0.9254
  Mn  Mn17  1  0.074690  0.545730  0.832030  1.0  0.9755
  Mn  Mn18  1  0.040780  0.461510  0.244490  1.0  0.9792
  Mn  Mn19  1  0.885810  0.029730  0.028180  1.0  0.924
  Mn  Mn20  1  0.925310  0.954270  0.832030  1.0  0.9742
  Mn  Mn21  1  0.959220  0.038490  0.244490  1.0  0.9804
  Mn  Mn22  1  0.385810  0.529730  0.528180  1.0  0.924
  Mn  Mn23  1  0.425310  0.454270  0.332030  1.0  0.9742
  Mn  Mn24  1  0.459220  0.538490  0.744490  1.0  0.9804
  Mn  Mn25  1  0.279730  0.864190  0.721820  1.0  0.9244
  Mn  Mn26  1  0.204270  0.824690  0.917970  1.0  0.9686
  Mn  Mn27  1  0.288490  0.790780  0.505510  1.0  0.9838
  Mn  Mn28  1  0.779730  0.364190  0.221820  1.0  0.9244
  Mn  Mn29  1  0.704270  0.324690  0.417970  1.0  0.9686
  Mn  Mn30  1  0.788490  0.290780  0.005510  1.0  0.9838
  Mn  Mn31  1  0.220270  0.135810  0.221820  1.0  0.923
  Mn  Mn32  1  0.295730  0.175310  0.417970  1.0  0.969
  Mn  Mn33  1  0.211510  0.209220  0.005510  1.0  0.9859
  Mn  Mn34  1  0.720270  0.635810  0.721820  1.0  0.923
  Mn  Mn35  1  0.795730  0.675310  0.917970  1.0  0.969
  Mn  Mn36  1  0.711510  0.709220  0.505510  1.0  0.9859
  Mn  Mn37  1  0.385810  0.029730  0.471820  1.0  0.9235
  Mn  Mn38  1  0.425310  0.954270  0.667970  1.0  0.971
  Mn  Mn39  1  0.459220  0.038490  0.255510  1.0  0.9849
  Mn  Mn40  1  0.885810  0.529730  0.971820  1.0  0.9235
  Mn  Mn41  1  0.925310  0.454270  0.167970  1.0  0.971
  Mn  Mn42  1  0.959220  0.538490  0.755510  1.0  0.9849
  Mn  Mn43  1  0.114190  0.970270  0.971820  1.0  0.9248
  Mn  Mn44  1  0.074690  0.045730  0.167970  1.0  0.972
  Mn  Mn45  1  0.040780  0.961510  0.755510  1.0  0.9844
  Mn  Mn46  1  0.614190  0.470270  0.471820  1.0  0.9248
  Mn  Mn47  1  0.574690  0.545730  0.667970  1.0  0.972
  Mn  Mn48  1  0.540780  0.461510  0.255510  1.0  0.9844
  H  H49  1  0.759100  0.041300  0.356100  1.0  0.1068
  H  H50  1  0.802800  0.009800  0.312400  1.0  0.1035
  H  H51  1  0.835400  0.027900  0.211200  1.0  0.108
  H  H52  1  0.827000  0.080100  0.162100  1.0  0.0782
  H  H53  1  0.736700  0.229900  0.118000  1.0  0.1839
  H  H54  1  0.709000  0.236300  0.181700  1.0  0.1755
  H  H55  1  0.667800  0.078600  0.265100  1.0  0.0625
  H  H56  1  0.634500  0.049800  0.182000  1.0  0.1114
  H  H57  1  0.668000  0.110000  0.017600  1.0  0.1065
  H  H58  1  0.703500  0.132300  0.100700  1.0  0.0741
  H  H59  1  0.604000  0.052000  0.063000  1.0  0.0849
  H  H60  1  0.613800  0.078700  0.999400  1.0  0.0581
  H  H61  1  0.732200  0.121300  0.926100  1.0  0.1067
  H  H62  1  0.697100  0.140900  0.835300  1.0  0.103
  H  H63  1  0.722700  0.184800  0.760200  1.0  0.1065
  H  H64  1  0.734500  0.230900  0.851000  1.0  0.1144
  H  H65  1  0.821400  0.274900  0.197400  1.0  0.1148
  H  H66  1  0.851400  0.274600  0.138100  1.0  0.1186
  H  H67  1  0.848200  0.232800  0.269800  1.0  0.12
  H  H68  1  0.871400  0.264800  0.262500  1.0  0.111
  H  H69  1  0.878400  0.233000  0.210600  1.0  0.1103
  H  H70  1  0.613100  0.194400  0.590300  1.0  0.1085
  H  H71  1  0.571500  0.157100  0.559400  1.0  0.1038
  H  H72  1  0.579900  0.118100  0.465900  1.0  0.0977
  H  H73  1  0.627800  0.119500  0.393800  1.0  0.0889
  H  H74  1  0.795700  0.205100  0.324800  1.0  0.0898
  H  H75  1  0.791900  0.165700  0.324500  1.0  0.092
  H  H76  1  0.815700  0.162800  0.445600  1.0  0.1147
  H  H77  1  0.840300  0.181700  0.388900  1.0  0.1197
  H  H78  1  0.818500  0.202400  0.448400  1.0  0.1159
  H  H79  1  0.541800  0.024600  0.851000  1.0  0.1026
  H  H80  1  0.581700  0.059200  0.912300  1.0  0.1105
  H  H81  1  0.645800  0.985800  0.901500  1.0  0.0977
  H  H82  1  0.611700  0.965500  0.812600  1.0  0.067
  H  H83  1  0.657400  0.045500  0.961600  1.0  0.1001
  H  H84  1  0.647400  0.018800  0.024700  1.0  0.0921
  H  H85  1  0.259100  0.541300  0.856100  1.0  0.1068
  H  H86  1  0.302800  0.509800  0.812400  1.0  0.1035
  H  H87  1  0.335400  0.527900  0.711200  1.0  0.108
  H  H88  1  0.327000  0.580100  0.662100  1.0  0.0782
  H  H89  1  0.236700  0.729900  0.618000  1.0  0.1839
  H  H90  1  0.209000  0.736300  0.681700  1.0  0.1755
  H  H91  1  0.167800  0.578600  0.765100  1.0  0.0625
  H  H92  1  0.134500  0.549800  0.682000  1.0  0.1114
  H  H93  1  0.168000  0.610000  0.517600  1.0  0.1065
  H  H94  1  0.203500  0.632300  0.600700  1.0  0.0741
  H  H95  1  0.104000  0.552000  0.563000  1.0  0.0849
  H  H96  1  0.113800  0.578700  0.499400  1.0  0.0581
  H  H97  1  0.232200  0.621300  0.426100  1.0  0.1067
  H  H98  1  0.197100  0.640900  0.335300  1.0  0.103
  H  H99  1  0.222700  0.684800  0.260200  1.0  0.1065
  H  H100  1  0.234500  0.730900  0.351000  1.0  0.1144
  H  H101  1  0.321400  0.774900  0.697400  1.0  0.1148
  H  H102  1  0.351400  0.774600  0.638100  1.0  0.1186
  H  H103  1  0.348200  0.732800  0.769800  1.0  0.12
  H  H104  1  0.371400  0.764800  0.762500  1.0  0.111
  H  H105  1  0.378400  0.733000  0.710600  1.0  0.1103
  H  H106  1  0.113100  0.694400  0.090300  1.0  0.1085
  H  H107  1  0.071500  0.657100  0.059400  1.0  0.1038
  H  H108  1  0.079900  0.618100  0.965900  1.0  0.0977
  H  H109  1  0.127800  0.619500  0.893800  1.0  0.0889
  H  H110  1  0.295700  0.705100  0.824800  1.0  0.0898
  H  H111  1  0.291900  0.665700  0.824500  1.0  0.092
  H  H112  1  0.315700  0.662800  0.945600  1.0  0.1147
  H  H113  1  0.340300  0.681700  0.888900  1.0  0.1197
  H  H114  1  0.318500  0.702400  0.948400  1.0  0.1159
  H  H115  1  0.041800  0.524600  0.351000  1.0  0.1026
  H  H116  1  0.081700  0.559200  0.412300  1.0  0.1105
  H  H117  1  0.145800  0.485800  0.401500  1.0  0.0977
  H  H118  1  0.111700  0.465500  0.312600  1.0  0.067
  H  H119  1  0.157400  0.545500  0.461600  1.0  0.1001
  H  H120  1  0.147400  0.518800  0.524700  1.0  0.0921
  H  H121  1  0.740900  0.958700  0.856100  1.0  0.1069
  H  H122  1  0.697200  0.990200  0.812400  1.0  0.1043
  H  H123  1  0.664600  0.972100  0.711200  1.0  0.1082
  H  H124  1  0.673000  0.919900  0.662100  1.0  0.0786
  H  H125  1  0.763300  0.770100  0.618000  1.0  0.1834
  H  H126  1  0.791000  0.763700  0.681700  1.0  0.1755
  H  H127  1  0.832200  0.921400  0.765100  1.0  0.0624
  H  H128  1  0.865500  0.950200  0.682000  1.0  0.1113
  H  H129  1  0.832000  0.890000  0.517600  1.0  0.1065
  H  H130  1  0.796500  0.867700  0.600700  1.0  0.0744
  H  H131  1  0.896000  0.948000  0.563000  1.0  0.0853
  H  H132  1  0.886200  0.921300  0.499400  1.0  0.0601
  H  H133  1  0.767800  0.878700  0.426100  1.0  0.1059
  H  H134  1  0.802900  0.859100  0.335300  1.0  0.1023
  H  H135  1  0.777300  0.815200  0.260200  1.0  0.1063
  H  H136  1  0.765500  0.769100  0.351000  1.0  0.1138
  H  H137  1  0.678600  0.725100  0.697400  1.0  0.1142
  H  H138  1  0.648600  0.725400  0.638100  1.0  0.1189
  H  H139  1  0.651800  0.767200  0.769800  1.0  0.1185
  H  H140  1  0.628600  0.735200  0.762500  1.0  0.1112
  H  H141  1  0.621600  0.767000  0.710600  1.0  0.1094
  H  H142  1  0.886900  0.805600  0.090300  1.0  0.1075
  H  H143  1  0.928500  0.842900  0.059400  1.0  0.1041
  H  H144  1  0.920100  0.881900  0.965900  1.0  0.0974
  H  H145  1  0.872200  0.880500  0.893800  1.0  0.0889
  H  H146  1  0.704300  0.794900  0.824800  1.0  0.0887
  H  H147  1  0.708100  0.834300  0.824500  1.0  0.0928
  H  H148  1  0.684300  0.837200  0.945600  1.0  0.1141
  H  H149  1  0.659700  0.818300  0.888900  1.0  0.1208
  H  H150  1  0.681500  0.797600  0.948400  1.0  0.1179
  H  H151  1  0.958200  0.975400  0.351000  1.0  0.1036
  H  H152  1  0.918300  0.940800  0.412300  1.0  0.11
  H  H153  1  0.854200  0.014200  0.401500  1.0  0.0975
  H  H154  1  0.888300  0.034500  0.312600  1.0  0.067
  H  H155  1  0.842600  0.954500  0.461600  1.0  0.1028
  H  H156  1  0.852600  0.981200  0.524700  1.0  0.0926
  H  H157  1  0.240900  0.458700  0.356100  1.0  0.1069
  H  H158  1  0.197200  0.490200  0.312400  1.0  0.1043
  H  H159  1  0.164600  0.472100  0.211200  1.0  0.1082
  H  H160  1  0.173000  0.419900  0.162100  1.0  0.0786
  H  H161  1  0.263300  0.270100  0.118000  1.0  0.1834
  H  H162  1  0.291000  0.263700  0.181700  1.0  0.1755
  H  H163  1  0.332200  0.421400  0.265100  1.0  0.0624
  H  H164  1  0.365500  0.450200  0.182000  1.0  0.1113
  H  H165  1  0.332000  0.390000  0.017600  1.0  0.1065
  H  H166  1  0.296500  0.367700  0.100700  1.0  0.0744
  H  H167  1  0.396000  0.448000  0.063000  1.0  0.0853
  H  H168  1  0.386200  0.421300  0.999400  1.0  0.0601
  H  H169  1  0.267800  0.378700  0.926100  1.0  0.1059
  H  H170  1  0.302900  0.359100  0.835300  1.0  0.1023
  H  H171  1  0.277300  0.315200  0.760200  1.0  0.1063
  H  H172  1  0.265500  0.269100  0.851000  1.0  0.1138
  H  H173  1  0.178600  0.225100  0.197400  1.0  0.1142
  H  H174  1  0.148600  0.225400  0.138100  1.0  0.1189
  H  H175  1  0.151800  0.267200  0.269800  1.0  0.1185
  H  H176  1  0.128600  0.235200  0.262500  1.0  0.1112
  H  H177  1  0.121600  0.267000  0.210600  1.0  0.1094
  H  H178  1  0.386900  0.305600  0.590300  1.0  0.1075
  H  H179  1  0.428500  0.342900  0.559400  1.0  0.1041
  H  H180  1  0.420100  0.381900  0.465900  1.0  0.0974
  H  H181  1  0.372200  0.380500  0.393800  1.0  0.0889
  H  H182  1  0.204300  0.294900  0.324800  1.0  0.0887
  H  H183  1  0.208100  0.334300  0.324500  1.0  0.0928
  H  H184  1  0.184300  0.337200  0.445600  1.0  0.1141
  H  H185  1  0.159700  0.318300  0.388900  1.0  0.1208
  H  H186  1  0.181500  0.297600  0.448400  1.0  0.1179
  H  H187  1  0.458200  0.475400  0.851000  1.0  0.1036
  H  H188  1  0.418300  0.440800  0.912300  1.0  0.11
  H  H189  1  0.354200  0.514200  0.901500  1.0  0.0975
  H  H190  1  0.388300  0.534500  0.812600  1.0  0.067
  H  H191  1  0.342600  0.454500  0.961600  1.0  0.1028
  H  H192  1  0.352600  0.481200  0.024700  1.0  0.0926
  H  H193  1  0.708700  0.009100  0.606100  1.0  0.1056
  H  H194  1  0.740200  0.052800  0.562400  1.0  0.104
  H  H195  1  0.722100  0.085400  0.461200  1.0  0.1082
  H  H196  1  0.669900  0.077000  0.412100  1.0  0.0786
  H  H197  1  0.520100  0.986700  0.368000  1.0  0.1832
  H  H198  1  0.513700  0.959000  0.431700  1.0  0.1753
  H  H199  1  0.671400  0.917800  0.515100  1.0  0.0622
  H  H200  1  0.700200  0.884500  0.432000  1.0  0.111
  H  H201  1  0.640000  0.918000  0.267600  1.0  0.1064
  H  H202  1  0.617700  0.953500  0.350700  1.0  0.0748
  H  H203  1  0.698000  0.854000  0.313000  1.0  0.0892
  H  H204  1  0.671300  0.863800  0.249400  1.0  0.0575
  H  H205  1  0.628700  0.982200  0.176100  1.0  0.1079
  H  H206  1  0.609100  0.947100  0.085300  1.0  0.1048
  H  H207  1  0.565200  0.972700  0.010200  1.0  0.1074
  H  H208  1  0.519100  0.984500  0.101000  1.0  0.1147
  H  H209  1  0.475100  0.071400  0.447400  1.0  0.116
  H  H210  1  0.475400  0.101400  0.388100  1.0  0.119
  H  H211  1  0.517200  0.098200  0.519800  1.0  0.1167
  H  H212  1  0.485200  0.121400  0.512500  1.0  0.1125
  H  H213  1  0.517000  0.128400  0.460600  1.0  0.1076
  H  H214  1  0.555600  0.863100  0.840300  1.0  0.1088
  H  H215  1  0.592900  0.821500  0.809400  1.0  0.1034
  H  H216  1  0.631900  0.829900  0.715900  1.0  0.098
  H  H217  1  0.630500  0.877800  0.643800  1.0  0.0879
  H  H218  1  0.544900  0.045700  0.574800  1.0  0.0888
  H  H219  1  0.584300  0.041900  0.574500  1.0  0.0927
  H  H220  1  0.587200  0.065700  0.695600  1.0  0.1105
  H  H221  1  0.568300  0.090300  0.638900  1.0  0.1208
  H  H222  1  0.547600  0.068500  0.698400  1.0  0.115
  H  H223  1  0.725400  0.791800  0.101000  1.0  0.1028
  H  H224  1  0.690800  0.831700  0.162300  1.0  0.11
  H  H225  1  0.764200  0.895800  0.151500  1.0  0.0957
  H  H226  1  0.784500  0.861700  0.062600  1.0  0.0674
  H  H227  1  0.704500  0.907400  0.211600  1.0  0.1026
  H  H228  1  0.731200  0.897400  0.274700  1.0  0.0913
  H  H229  1  0.208700  0.509100  0.106100  1.0  0.1056
  H  H230  1  0.240200  0.552800  0.062400  1.0  0.104
  H  H231  1  0.222100  0.585400  0.961200  1.0  0.1082
  H  H232  1  0.169900  0.577000  0.912100  1.0  0.0786
  H  H233  1  0.020100  0.486700  0.868000  1.0  0.1832
  H  H234  1  0.013700  0.459000  0.931700  1.0  0.1753
  H  H235  1  0.171400  0.417800  0.015100  1.0  0.0622
  H  H236  1  0.200200  0.384500  0.932000  1.0  0.111
  H  H237  1  0.140000  0.418000  0.767600  1.0  0.1064
  H  H238  1  0.117700  0.453500  0.850700  1.0  0.0748
  H  H239  1  0.198000  0.354000  0.813000  1.0  0.0892
  H  H240  1  0.171300  0.363800  0.749400  1.0  0.0575
  H  H241  1  0.128700  0.482200  0.676100  1.0  0.1079
  H  H242  1  0.109100  0.447100  0.585300  1.0  0.1048
  H  H243  1  0.065200  0.472700  0.510200  1.0  0.1074
  H  H244  1  0.019100  0.484500  0.601000  1.0  0.1147
  H  H245  1  0.975100  0.571400  0.947400  1.0  0.116
  H  H246  1  0.975400  0.601400  0.888100  1.0  0.119
  H  H247  1  0.017200  0.598200  0.019800  1.0  0.1167
  H  H248  1  0.985200  0.621400  0.012500  1.0  0.1125
  H  H249  1  0.017000  0.628400  0.960600  1.0  0.1076
  H  H250  1  0.055600  0.363100  0.340300  1.0  0.1083
  H  H251  1  0.092900  0.321500  0.309400  1.0  0.1034
  H  H252  1  0.131900  0.329900  0.215900  1.0  0.098
  H  H253  1  0.130500  0.377800  0.143800  1.0  0.0879
  H  H254  1  0.044900  0.545700  0.074800  1.0  0.0888
  H  H255  1  0.084300  0.541900  0.074500  1.0  0.0927
  H  H256  1  0.087200  0.565700  0.195600  1.0  0.1105
  H  H257  1  0.068300  0.590300  0.138900  1.0  0.1208
  H  H258  1  0.047600  0.568500  0.198400  1.0  0.115
  H  H259  1  0.225400  0.291800  0.601000  1.0  0.1028
  H  H260  1  0.190800  0.331700  0.662300  1.0  0.11
  H  H261  1  0.264200  0.395800  0.651500  1.0  0.0957
  H  H262  1  0.284500  0.361700  0.562600  1.0  0.0674
  H  H263  1  0.204500  0.407400  0.711600  1.0  0.1026
  H  H264  1  0.231200  0.397400  0.774700  1.0  0.0913
  H  H265  1  0.791300  0.990900  0.106100  1.0  0.1062
  H  H266  1  0.759800  0.947200  0.062400  1.0  0.103
  H  H267  1  0.777900  0.914600  0.961200  1.0  0.1088
  H  H268  1  0.830100  0.923000  0.912100  1.0  0.0786
  H  H269  1  0.979900  0.013300  0.868000  1.0  0.1849
  H  H270  1  0.986300  0.041000  0.931700  1.0  0.1763
  H  H271  1  0.828600  0.082200  0.015100  1.0  0.0626
  H  H272  1  0.799800  0.115500  0.932000  1.0  0.1106
  H  H273  1  0.860000  0.082000  0.767600  1.0  0.1064
  H  H274  1  0.882300  0.046500  0.850700  1.0  0.0746
  H  H275  1  0.802000  0.146000  0.813000  1.0  0.0873
  H  H276  1  0.828700  0.136200  0.749400  1.0  0.0599
  H  H277  1  0.871300  0.017800  0.676100  1.0  0.108
  H  H278  1  0.890900  0.052900  0.585300  1.0  0.1063
  H  H279  1  0.934800  0.027300  0.510200  1.0  0.1083
  H  H280  1  0.980900  0.015500  0.601000  1.0  0.1146
  H  H281  1  0.024900  0.928600  0.947400  1.0  0.1126
  H  H282  1  0.024600  0.898600  0.888100  1.0  0.118
  H  H283  1  0.982800  0.901800  0.019800  1.0  0.1173
  H  H284  1  0.014800  0.878600  0.012500  1.0  0.1114
  H  H285  1  0.983000  0.871600  0.960600  1.0  0.1077
  H  H286  1  0.944400  0.136900  0.340300  1.0  0.1074
  H  H287  1  0.907100  0.178500  0.309400  1.0  0.1028
  H  H288  1  0.868100  0.170100  0.215900  1.0  0.0987
  H  H289  1  0.869500  0.122200  0.143800  1.0  0.0879
  H  H290  1  0.955100  0.954300  0.074800  1.0  0.0887
  H  H291  1  0.915700  0.958100  0.074500  1.0  0.0924
  H  H292  1  0.912800  0.934300  0.195600  1.0  0.1131
  H  H293  1  0.931700  0.909700  0.138900  1.0  0.1192
  H  H294  1  0.952400  0.931500  0.198400  1.0  0.1133
  H  H295  1  0.774600  0.208200  0.601000  1.0  0.1035
  H  H296  1  0.809200  0.168300  0.662300  1.0  0.1099
  H  H297  1  0.735800  0.104200  0.651500  1.0  0.0963
  H  H298  1  0.715500  0.138300  0.562600  1.0  0.0673
  H  H299  1  0.795500  0.092600  0.711600  1.0  0.1028
  H  H300  1  0.768800  0.102600  0.774700  1.0  0.0931
  H  H301  1  0.291300  0.490900  0.606100  1.0  0.1062
  H  H302  1  0.259800  0.447200  0.562400  1.0  0.103
  H  H303  1  0.277900  0.414600  0.461200  1.0  0.1088
  H  H304  1  0.330100  0.423000  0.412100  1.0  0.0786
  H  H305  1  0.479900  0.513300  0.368000  1.0  0.1849
  H  H306  1  0.486300  0.541000  0.431700  1.0  0.1763
  H  H307  1  0.328600  0.582200  0.515100  1.0  0.0626
  H  H308  1  0.299800  0.615500  0.432000  1.0  0.1106
  H  H309  1  0.360000  0.582000  0.267600  1.0  0.1064
  H  H310  1  0.382300  0.546500  0.350700  1.0  0.0746
  H  H311  1  0.302000  0.646000  0.313000  1.0  0.0873
  H  H312  1  0.328700  0.636200  0.249400  1.0  0.0599
  H  H313  1  0.371300  0.517800  0.176100  1.0  0.108
  H  H314  1  0.390900  0.552900  0.085300  1.0  0.1063
  H  H315  1  0.434800  0.527300  0.010200  1.0  0.1083
  H  H316  1  0.480900  0.515500  0.101000  1.0  0.1146
  H  H317  1  0.524900  0.428600  0.447400  1.0  0.1126
  H  H318  1  0.524600  0.398600  0.388100  1.0  0.118
  H  H319  1  0.482800  0.401800  0.519800  1.0  0.1173
  H  H320  1  0.514800  0.378600  0.512500  1.0  0.1114
  H  H321  1  0.483000  0.371600  0.460600  1.0  0.1077
  H  H322  1  0.444400  0.636900  0.840300  1.0  0.1081
  H  H323  1  0.407100  0.678500  0.809400  1.0  0.1028
  H  H324  1  0.368100  0.670100  0.715900  1.0  0.0987
  H  H325  1  0.369500  0.622200  0.643800  1.0  0.0879
  H  H326  1  0.455100  0.454300  0.574800  1.0  0.0887
  H  H327  1  0.415700  0.458100  0.574500  1.0  0.0924
  H  H328  1  0.412800  0.434300  0.695600  1.0  0.1131
  H  H329  1  0.431700  0.409700  0.638900  1.0  0.1192
  H  H330  1  0.452400  0.431500  0.698400  1.0  0.1133
  H  H331  1  0.274600  0.708200  0.101000  1.0  0.1035
  H  H332  1  0.309200  0.668300  0.162300  1.0  0.1099
  H  H333  1  0.235800  0.604200  0.151500  1.0  0.0963
  H  H334  1  0.215500  0.638300  0.062600  1.0  0.0673
  H  H335  1  0.295500  0.592600  0.211600  1.0  0.1028
  H  H336  1  0.268800  0.602600  0.274700  1.0  0.0931
  H  H337  1  0.240900  0.958700  0.643900  1.0  0.1064
  H  H338  1  0.197200  0.990200  0.687600  1.0  0.104
  H  H339  1  0.164600  0.972100  0.788800  1.0  0.1081
  H  H340  1  0.173000  0.919900  0.837900  1.0  0.0785
  H  H341  1  0.263300  0.770100  0.882000  1.0  0.1828
  H  H342  1  0.291000  0.763700  0.818300  1.0  0.1758
  H  H343  1  0.332200  0.921400  0.734900  1.0  0.0629
  H  H344  1  0.365500  0.950200  0.818000  1.0  0.1118
  H  H345  1  0.332000  0.890000  0.982400  1.0  0.1068
  H  H346  1  0.296500  0.867700  0.899300  1.0  0.0748
  H  H347  1  0.396000  0.948000  0.937000  1.0  0.0862
  H  H348  1  0.386200  0.921300  0.000600  1.0  0.06
  H  H349  1  0.267800  0.878700  0.073900  1.0  0.1062
  H  H350  1  0.302900  0.859100  0.164700  1.0  0.1014
  H  H351  1  0.277300  0.815200  0.239800  1.0  0.1049
  H  H352  1  0.265500  0.769100  0.149000  1.0  0.1137
  H  H353  1  0.178600  0.725100  0.802600  1.0  0.1137
  H  H354  1  0.148600  0.725400  0.861900  1.0  0.1204
  H  H355  1  0.151800  0.767200  0.730200  1.0  0.1178
  H  H356  1  0.128600  0.735200  0.737500  1.0  0.1092
  H  H357  1  0.121600  0.767000  0.789400  1.0  0.1081
  H  H358  1  0.386900  0.805600  0.409700  1.0  0.1073
  H  H359  1  0.428500  0.842900  0.440600  1.0  0.1044
  H  H360  1  0.420100  0.881900  0.534100  1.0  0.0973
  H  H361  1  0.372200  0.880500  0.606200  1.0  0.0886
  H  H362  1  0.204300  0.794900  0.675200  1.0  0.0898
  H  H363  1  0.208100  0.834300  0.675500  1.0  0.0929
  H  H364  1  0.184300  0.837200  0.554400  1.0  0.1148
  H  H365  1  0.159700  0.818300  0.611100  1.0  0.1191
  H  H366  1  0.181500  0.797600  0.551600  1.0  0.1159
  H  H367  1  0.458200  0.975400  0.149000  1.0  0.1035
  H  H368  1  0.418300  0.940800  0.087700  1.0  0.1095
  H  H369  1  0.354200  0.014200  0.098500  1.0  0.097
  H  H370  1  0.388300  0.034500  0.187400  1.0  0.0666
  H  H371  1  0.342600  0.954500  0.038400  1.0  0.1012
  H  H372  1  0.352600  0.981200  0.975300  1.0  0.0923
  H  H373  1  0.740900  0.458700  0.143900  1.0  0.1064
  H  H374  1  0.697200  0.490200  0.187600  1.0  0.104
  H  H375  1  0.664600  0.472100  0.288800  1.0  0.1081
  H  H376  1  0.673000  0.419900  0.337900  1.0  0.0785
  H  H377  1  0.763300  0.270100  0.382000  1.0  0.1828
  H  H378  1  0.791000  0.263700  0.318300  1.0  0.1758
  H  H379  1  0.832200  0.421400  0.234900  1.0  0.0629
  H  H380  1  0.865500  0.450200  0.318000  1.0  0.1118
  H  H381  1  0.832000  0.390000  0.482400  1.0  0.1068
  H  H382  1  0.796500  0.367700  0.399300  1.0  0.0748
  H  H383  1  0.896000  0.448000  0.437000  1.0  0.0862
  H  H384  1  0.886200  0.421300  0.500600  1.0  0.06
  H  H385  1  0.767800  0.378700  0.573900  1.0  0.1062
  H  H386  1  0.802900  0.359100  0.664700  1.0  0.1014
  H  H387  1  0.777300  0.315200  0.739800  1.0  0.1049
  H  H388  1  0.765500  0.269100  0.649000  1.0  0.1137
  H  H389  1  0.678600  0.225100  0.302600  1.0  0.1137
  H  H390  1  0.648600  0.225400  0.361900  1.0  0.1204
  H  H391  1  0.651800  0.267200  0.230200  1.0  0.1178
  H  H392  1  0.628600  0.235200  0.237500  1.0  0.1092
  H  H393  1  0.621600  0.267000  0.289400  1.0  0.1081
  H  H394  1  0.886900  0.305600  0.909700  1.0  0.1073
  H  H395  1  0.928500  0.342900  0.940600  1.0  0.1044
  H  H396  1  0.920100  0.381900  0.034100  1.0  0.0973
  H  H397  1  0.872200  0.380500  0.106200  1.0  0.0886
  H  H398  1  0.704300  0.294900  0.175200  1.0  0.0898
  H  H399  1  0.708100  0.334300  0.175500  1.0  0.0929
  H  H400  1  0.684300  0.337200  0.054400  1.0  0.1148
  H  H401  1  0.659700  0.318300  0.111100  1.0  0.1191
  H  H402  1  0.681500  0.297600  0.051600  1.0  0.1159
  H  H403  1  0.958200  0.475400  0.649000  1.0  0.1035
  H  H404  1  0.918300  0.440800  0.587700  1.0  0.1095
  H  H405  1  0.854200  0.514200  0.598500  1.0  0.097
  H  H406  1  0.888300  0.534500  0.687400  1.0  0.0666
  H  H407  1  0.842600  0.454500  0.538400  1.0  0.1012
  H  H408  1  0.852600  0.481200  0.475300  1.0  0.0923
  H  H409  1  0.259100  0.041300  0.143900  1.0  0.106
  H  H410  1  0.302800  0.009800  0.187600  1.0  0.1028
  H  H411  1  0.335400  0.027900  0.288800  1.0  0.1084
  H  H412  1  0.327000  0.080100  0.337900  1.0  0.078
  H  H413  1  0.236700  0.229900  0.382000  1.0  0.1838
  H  H414  1  0.209000  0.236300  0.318300  1.0  0.1761
  H  H415  1  0.167800  0.078600  0.234900  1.0  0.0629
  H  H416  1  0.134500  0.049800  0.318000  1.0  0.1115
  H  H417  1  0.168000  0.110000  0.482400  1.0  0.1067
  H  H418  1  0.203500  0.132300  0.399300  1.0  0.0741
  H  H419  1  0.104000  0.052000  0.437000  1.0  0.0853
  H  H420  1  0.113800  0.078700  0.500600  1.0  0.0577
  H  H421  1  0.232200  0.121300  0.573900  1.0  0.1065
  H  H422  1  0.197100  0.140900  0.664700  1.0  0.1027
  H  H423  1  0.222700  0.184800  0.739800  1.0  0.1054
  H  H424  1  0.234500  0.230900  0.649000  1.0  0.1145
  H  H425  1  0.321400  0.274900  0.302600  1.0  0.1154
  H  H426  1  0.351400  0.274600  0.361900  1.0  0.1189
  H  H427  1  0.348200  0.232800  0.230200  1.0  0.1205
  H  H428  1  0.371400  0.264800  0.237500  1.0  0.1104
  H  H429  1  0.378400  0.233000  0.289400  1.0  0.1092
  H  H430  1  0.113100  0.194400  0.909700  1.0  0.1079
  H  H431  1  0.071500  0.157100  0.940600  1.0  0.1039
  H  H432  1  0.079900  0.118100  0.034100  1.0  0.0974
  H  H433  1  0.127800  0.119500  0.106200  1.0  0.0888
  H  H434  1  0.295700  0.205100  0.175200  1.0  0.0899
  H  H435  1  0.291900  0.165700  0.175500  1.0  0.0937
  H  H436  1  0.315700  0.162800  0.054400  1.0  0.1131
  H  H437  1  0.340300  0.181700  0.111100  1.0  0.1204
  H  H438  1  0.318500  0.202400  0.051600  1.0  0.1166
  H  H439  1  0.041800  0.024600  0.649000  1.0  0.1027
  H  H440  1  0.081700  0.059200  0.587700  1.0  0.1097
  H  H441  1  0.145800  0.985800  0.598500  1.0  0.0974
  H  H442  1  0.111700  0.965500  0.687400  1.0  0.0672
  H  H443  1  0.157400  0.045500  0.538400  1.0  0.0995
  H  H444  1  0.147400  0.018800  0.475300  1.0  0.091
  H  H445  1  0.759100  0.541300  0.643900  1.0  0.106
  H  H446  1  0.802800  0.509800  0.687600  1.0  0.1028
  H  H447  1  0.835400  0.527900  0.788800  1.0  0.1084
  H  H448  1  0.827000  0.580100  0.837900  1.0  0.078
  H  H449  1  0.736700  0.729900  0.882000  1.0  0.1838
  H  H450  1  0.709000  0.736300  0.818300  1.0  0.1761
  H  H451  1  0.667800  0.578600  0.734900  1.0  0.0629
  H  H452  1  0.634500  0.549800  0.818000  1.0  0.1115
  H  H453  1  0.668000  0.610000  0.982400  1.0  0.1067
  H  H454  1  0.703500  0.632300  0.899300  1.0  0.0741
  H  H455  1  0.604000  0.552000  0.937000  1.0  0.0853
  H  H456  1  0.613800  0.578700  0.000600  1.0  0.0577
  H  H457  1  0.732200  0.621300  0.073900  1.0  0.1065
  H  H458  1  0.697100  0.640900  0.164700  1.0  0.1027
  H  H459  1  0.722700  0.684800  0.239800  1.0  0.1054
  H  H460  1  0.734500  0.730900  0.149000  1.0  0.1145
  H  H461  1  0.821400  0.774900  0.802600  1.0  0.1154
  H  H462  1  0.851400  0.774600  0.861900  1.0  0.1189
  H  H463  1  0.848200  0.732800  0.730200  1.0  0.1205
  H  H464  1  0.871400  0.764800  0.737500  1.0  0.1104
  H  H465  1  0.878400  0.733000  0.789400  1.0  0.1092
  H  H466  1  0.613100  0.694400  0.409700  1.0  0.1079
  H  H467  1  0.571500  0.657100  0.440600  1.0  0.1039
  H  H468  1  0.579900  0.618100  0.534100  1.0  0.0974
  H  H469  1  0.627800  0.619500  0.606200  1.0  0.0888
  H  H470  1  0.795700  0.705100  0.675200  1.0  0.0899
  H  H471  1  0.791900  0.665700  0.675500  1.0  0.0937
  H  H472  1  0.815700  0.662800  0.554400  1.0  0.1131
  H  H473  1  0.840300  0.681700  0.611100  1.0  0.1204
  H  H474  1  0.818500  0.702400  0.551600  1.0  0.1166
  H  H475  1  0.541800  0.524600  0.149000  1.0  0.1027
  H  H476  1  0.581700  0.559200  0.087700  1.0  0.1097
  H  H477  1  0.645800  0.485800  0.098500  1.0  0.0974
  H  H478  1  0.611700  0.465500  0.187400  1.0  0.0672
  H  H479  1  0.657400  0.545500  0.038400  1.0  0.0995
  H  H480  1  0.647400  0.518800  0.975300  1.0  0.091
  H  H481  1  0.291300  0.990900  0.393900  1.0  0.1057
  H  H482  1  0.259800  0.947200  0.437600  1.0  0.1024
  H  H483  1  0.277900  0.914600  0.538800  1.0  0.1088
  H  H484  1  0.330100  0.923000  0.587900  1.0  0.0786
  H  H485  1  0.479900  0.013300  0.632000  1.0  0.1847
  H  H486  1  0.486300  0.041000  0.568300  1.0  0.1769
  H  H487  1  0.328600  0.082200  0.484900  1.0  0.0629
  H  H488  1  0.299800  0.115500  0.568000  1.0  0.111
  H  H489  1  0.360000  0.082000  0.732400  1.0  0.1063
  H  H490  1  0.382300  0.046500  0.649300  1.0  0.0747
  H  H491  1  0.302000  0.146000  0.687000  1.0  0.0885
  H  H492  1  0.328700  0.136200  0.750600  1.0  0.0587
  H  H493  1  0.371300  0.017800  0.823900  1.0  0.1083
  H  H494  1  0.390900  0.052900  0.914700  1.0  0.1053
  H  H495  1  0.434800  0.027300  0.989800  1.0  0.1071
  H  H496  1  0.480900  0.015500  0.899000  1.0  0.1147
  H  H497  1  0.524900  0.928600  0.552600  1.0  0.1127
  H  H498  1  0.524600  0.898600  0.611900  1.0  0.1195
  H  H499  1  0.482800  0.901800  0.480200  1.0  0.1174
  H  H500  1  0.514800  0.878600  0.487500  1.0  0.1099
  H  H501  1  0.483000  0.871600  0.539400  1.0  0.107
  H  H502  1  0.444400  0.136900  0.159700  1.0  0.1085
  H  H503  1  0.407100  0.178500  0.190600  1.0  0.1036
  H  H504  1  0.368100  0.170100  0.284100  1.0  0.098
  H  H505  1  0.369500  0.122200  0.356200  1.0  0.0874
  H  H506  1  0.455100  0.954300  0.425200  1.0  0.0897
  H  H507  1  0.415700  0.958100  0.425500  1.0  0.0936
  H  H508  1  0.412800  0.934300  0.304400  1.0  0.113
  H  H509  1  0.431700  0.909700  0.361100  1.0  0.1201
  H  H510  1  0.452400  0.931500  0.301600  1.0  0.1138
  H  H511  1  0.274600  0.208200  0.899000  1.0  0.1035
  H  H512  1  0.309200  0.168300  0.837700  1.0  0.1093
  H  H513  1  0.235800  0.104200  0.848500  1.0  0.0957
  H  H514  1  0.215500  0.138300  0.937400  1.0  0.0671
  H  H515  1  0.295500  0.092600  0.788400  1.0  0.1028
  H  H516  1  0.268800  0.102600  0.725300  1.0  0.0915
  H  H517  1  0.791300  0.490900  0.893900  1.0  0.1057
  H  H518  1  0.759800  0.447200  0.937600  1.0  0.1024
  H  H519  1  0.777900  0.414600  0.038800  1.0  0.1088
  H  H520  1  0.830100  0.423000  0.087900  1.0  0.0786
  H  H521  1  0.979900  0.513300  0.132000  1.0  0.1847
  H  H522  1  0.986300  0.541000  0.068300  1.0  0.1769
  H  H523  1  0.828600  0.582200  0.984900  1.0  0.0629
  H  H524  1  0.799800  0.615500  0.068000  1.0  0.111
  H  H525  1  0.860000  0.582000  0.232400  1.0  0.1063
  H  H526  1  0.882300  0.546500  0.149300  1.0  0.0747
  H  H527  1  0.802000  0.646000  0.187000  1.0  0.0885
  H  H528  1  0.828700  0.636200  0.250600  1.0  0.0587
  H  H529  1  0.871300  0.517800  0.323900  1.0  0.1083
  H  H530  1  0.890900  0.552900  0.414700  1.0  0.1053
  H  H531  1  0.934800  0.527300  0.489800  1.0  0.1071
  H  H532  1  0.980900  0.515500  0.399000  1.0  0.1147
  H  H533  1  0.024900  0.428600  0.052600  1.0  0.1127
  H  H534  1  0.024600  0.398600  0.111900  1.0  0.1195
  H  H535  1  0.982800  0.401800  0.980200  1.0  0.1174
  H  H536  1  0.014800  0.378600  0.987500  1.0  0.1099
  H  H537  1  0.983000  0.371600  0.039400  1.0  0.107
  H  H538  1  0.944400  0.636900  0.659700  1.0  0.108
  H  H539  1  0.907100  0.678500  0.690600  1.0  0.1036
  H  H540  1  0.868100  0.670100  0.784100  1.0  0.098
  H  H541  1  0.869500  0.622200  0.856200  1.0  0.0874
  H  H542  1  0.955100  0.454300  0.925200  1.0  0.0897
  H  H543  1  0.915700  0.458100  0.925500  1.0  0.0936
  H  H544  1  0.912800  0.434300  0.804400  1.0  0.113
  H  H545  1  0.931700  0.409700  0.861100  1.0  0.1201
  H  H546  1  0.952400  0.431500  0.801600  1.0  0.1138
  H  H547  1  0.774600  0.708200  0.399000  1.0  0.1035
  H  H548  1  0.809200  0.668300  0.337700  1.0  0.1093
  H  H549  1  0.735800  0.604200  0.348500  1.0  0.0957
  H  H550  1  0.715500  0.638300  0.437400  1.0  0.0671
  H  H551  1  0.795500  0.592600  0.288400  1.0  0.1028
  H  H552  1  0.768800  0.602600  0.225300  1.0  0.0915
  H  H553  1  0.208700  0.009100  0.893900  1.0  0.1051
  H  H554  1  0.240200  0.052800  0.937600  1.0  0.1037
  H  H555  1  0.222100  0.085400  0.038800  1.0  0.1083
  H  H556  1  0.169900  0.077000  0.087900  1.0  0.0784
  H  H557  1  0.020100  0.986700  0.132000  1.0  0.1833
  H  H558  1  0.013700  0.959000  0.068300  1.0  0.176
  H  H559  1  0.171400  0.917800  0.984900  1.0  0.0625
  H  H560  1  0.200200  0.884500  0.068000  1.0  0.1112
  H  H561  1  0.140000  0.918000  0.232400  1.0  0.107
  H  H562  1  0.117700  0.953500  0.149300  1.0  0.0752
  H  H563  1  0.198000  0.854000  0.187000  1.0  0.0884
  H  H564  1  0.171300  0.863800  0.250600  1.0  0.0574
  H  H565  1  0.128700  0.982200  0.323900  1.0  0.108
  H  H566  1  0.109100  0.947100  0.414700  1.0  0.1042
  H  H567  1  0.065200  0.972700  0.489800  1.0  0.1066
  H  H568  1  0.019100  0.984500  0.399000  1.0  0.115
  H  H569  1  0.975100  0.071400  0.052600  1.0  0.116
  H  H570  1  0.975400  0.101400  0.111900  1.0  0.1198
  H  H571  1  0.017200  0.098200  0.980200  1.0  0.1162
  H  H572  1  0.985200  0.121400  0.987500  1.0  0.1112
  H  H573  1  0.017000  0.128400  0.039400  1.0  0.1062
  H  H574  1  0.055600  0.863100  0.659700  1.0  0.1073
  H  H575  1  0.092900  0.821500  0.690600  1.0  0.1023
  H  H576  1  0.131900  0.829900  0.784100  1.0  0.0982
  H  H577  1  0.130500  0.877800  0.856200  1.0  0.0874
  H  H578  1  0.044900  0.045700  0.925200  1.0  0.0886
  H  H579  1  0.084300  0.041900  0.925500  1.0  0.0934
  H  H580  1  0.087200  0.065700  0.804400  1.0  0.111
  H  H581  1  0.068300  0.090300  0.861100  1.0  0.1207
  H  H582  1  0.047600  0.068500  0.801600  1.0  0.114
  H  H583  1  0.225400  0.791800  0.399000  1.0  0.1029
  H  H584  1  0.190800  0.831700  0.337700  1.0  0.1098
  H  H585  1  0.264200  0.895800  0.348500  1.0  0.0956
  H  H586  1  0.284500  0.861700  0.437400  1.0  0.0672
  H  H587  1  0.204500  0.907400  0.288400  1.0  0.1017
  H  H588  1  0.231200  0.897400  0.225300  1.0  0.0911
  H  H589  1  0.708700  0.509100  0.393900  1.0  0.1051
  H  H590  1  0.740200  0.552800  0.437600  1.0  0.1037
  H  H591  1  0.722100  0.585400  0.538800  1.0  0.1083
  H  H592  1  0.669900  0.577000  0.587900  1.0  0.0784
  H  H593  1  0.520100  0.486700  0.632000  1.0  0.1833
  H  H594  1  0.513700  0.459000  0.568300  1.0  0.176
  H  H595  1  0.671400  0.417800  0.484900  1.0  0.0625
  H  H596  1  0.700200  0.384500  0.568000  1.0  0.1112
  H  H597  1  0.640000  0.418000  0.732400  1.0  0.107
  H  H598  1  0.617700  0.453500  0.649300  1.0  0.0752
  H  H599  1  0.698000  0.354000  0.687000  1.0  0.0884
  H  H600  1  0.671300  0.363800  0.750600  1.0  0.0574
  H  H601  1  0.628700  0.482200  0.823900  1.0  0.108
  H  H602  1  0.609100  0.447100  0.914700  1.0  0.1042
  H  H603  1  0.565200  0.472700  0.989800  1.0  0.1066
  H  H604  1  0.519100  0.484500  0.899000  1.0  0.115
  H  H605  1  0.475100  0.571400  0.552600  1.0  0.116
  H  H606  1  0.475400  0.601400  0.611900  1.0  0.1198
  H  H607  1  0.517200  0.598200  0.480200  1.0  0.1162
  H  H608  1  0.485200  0.621400  0.487500  1.0  0.1112
  H  H609  1  0.517000  0.628400  0.539400  1.0  0.1062
  H  H610  1  0.555600  0.363100  0.159700  1.0  0.1078
  H  H611  1  0.592900  0.321500  0.190600  1.0  0.1023
  H  H612  1  0.631900  0.329900  0.284100  1.0  0.0982
  H  H613  1  0.630500  0.377800  0.356200  1.0  0.0874
  H  H614  1  0.544900  0.545700  0.425200  1.0  0.0886
  H  H615  1  0.584300  0.541900  0.425500  1.0  0.0934
  H  H616  1  0.587200  0.565700  0.304400  1.0  0.111
  H  H617  1  0.568300  0.590300  0.361100  1.0  0.1207
  H  H618  1  0.547600  0.568500  0.301600  1.0  0.114
  H  H619  1  0.725400  0.291800  0.899000  1.0  0.1029
  H  H620  1  0.690800  0.331700  0.837700  1.0  0.1098
  H  H621  1  0.764200  0.395800  0.848500  1.0  0.0956
  H  H622  1  0.784500  0.361700  0.937400  1.0  0.0672
  H  H623  1  0.704500  0.407400  0.788400  1.0  0.1017
  H  H624  1  0.731200  0.397400  0.725300  1.0  0.0911
  C  C625  1  0.765900  0.080640  0.284600  1.0  0.239
  C  C626  1  0.772640  0.049530  0.316000  1.0  -0.2291
  C  C627  1  0.798480  0.030680  0.289700  1.0  -0.1275
  C  C628  1  0.818240  0.041520  0.230700  1.0  -0.1014
  C  C629  1  0.812670  0.072190  0.200900  1.0  -0.0506
  C  C630  1  0.786510  0.092530  0.225300  1.0  -0.1209
  C  C631  1  0.782000  0.124770  0.188500  1.0  0.5884
  C  C632  1  0.726380  0.188010  0.182000  1.0  0.5746
  C  C633  1  0.717120  0.220210  0.143500  1.0  -0.0056
  C  C634  1  0.668270  0.084540  0.212800  1.0  0.1916
  C  C635  1  0.647530  0.067790  0.164500  1.0  -0.2402
  C  C636  1  0.646240  0.077990  0.089400  1.0  0.1324
  C  C637  1  0.667790  0.102530  0.068800  1.0  -0.1784
  C  C638  1  0.688310  0.116110  0.118400  1.0  0.1588
  C  C639  1  0.622810  0.061700  0.034300  1.0  -0.169
  C  C640  1  0.753570  0.166240  0.950700  1.0  0.3534
  C  C641  1  0.733200  0.143700  0.910300  1.0  -0.1609
  C  C642  1  0.715700  0.153400  0.851700  1.0  -0.0828
  C  C643  1  0.724800  0.182300  0.813800  1.0  -0.0953
  C  C644  1  0.737800  0.208100  0.862400  1.0  -0.1058
  C  C645  1  0.755290  0.198270  0.926200  1.0  -0.1552
  C  C646  1  0.774680  0.224370  0.966400  1.0  0.5429
  C  C647  1  0.820430  0.234580  0.126300  1.0  0.5553
  C  C648  1  0.838150  0.260560  0.172800  1.0  -0.3472
  C  C649  1  0.861100  0.246500  0.234500  1.0  -0.3448
  C  C650  1  0.646930  0.179260  0.511300  1.0  0.3388
  C  C651  1  0.616680  0.178890  0.550400  1.0  -0.2275
  C  C652  1  0.591900  0.156600  0.532300  1.0  -0.1108
  C  C653  1  0.596510  0.134120  0.476400  1.0  -0.1208
  C  C654  1  0.625340  0.134640  0.434800  1.0  -0.0454
  C  C655  1  0.651140  0.156650  0.451000  1.0  -0.1167
  C  C656  1  0.680840  0.154610  0.404300  1.0  0.5593
  C  C657  1  0.758110  0.188740  0.393700  1.0  0.5462
  C  C658  1  0.791650  0.185580  0.357400  1.0  -0.2247
  C  C659  1  0.818880  0.182900  0.415100  1.0  -0.3517
  C  C660  1  0.563720  0.016990  0.860300  1.0  0.0929
  C  C661  1  0.585600  0.036400  0.903000  1.0  -0.1725
  C  C662  1  0.615500  0.019100  0.933100  1.0  0.156
  C  C663  1  0.624300  0.995000  0.895500  1.0  -0.1905
  C  C664  1  0.602100  0.981900  0.844400  1.0  0.0902
  C  C665  1  0.638500  0.035800  0.989600  1.0  -0.2159
  C  C666  1  0.265900  0.580640  0.784600  1.0  0.239
  C  C667  1  0.272640  0.549530  0.816000  1.0  -0.2291
  C  C668  1  0.298480  0.530680  0.789700  1.0  -0.1275
  C  C669  1  0.318240  0.541520  0.730700  1.0  -0.1014
  C  C670  1  0.312670  0.572190  0.700900  1.0  -0.0506
  C  C671  1  0.286510  0.592530  0.725300  1.0  -0.1209
  C  C672  1  0.282000  0.624770  0.688500  1.0  0.5884
  C  C673  1  0.226380  0.688010  0.682000  1.0  0.5746
  C  C674  1  0.217120  0.720210  0.643500  1.0  -0.0056
  C  C675  1  0.168270  0.584540  0.712800  1.0  0.1916
  C  C676  1  0.147530  0.567790  0.664500  1.0  -0.2402
  C  C677  1  0.146240  0.577990  0.589400  1.0  0.1324
  C  C678  1  0.167790  0.602530  0.568800  1.0  -0.1784
  C  C679  1  0.188310  0.616110  0.618400  1.0  0.1588
  C  C680  1  0.122810  0.561700  0.534300  1.0  -0.169
  C  C681  1  0.253570  0.666240  0.450700  1.0  0.3534
  C  C682  1  0.233200  0.643700  0.410300  1.0  -0.1609
  C  C683  1  0.215700  0.653400  0.351700  1.0  -0.0828
  C  C684  1  0.224800  0.682300  0.313800  1.0  -0.0953
  C  C685  1  0.237800  0.708100  0.362400  1.0  -0.1058
  C  C686  1  0.255290  0.698270  0.426200  1.0  -0.1552
  C  C687  1  0.274680  0.724370  0.466400  1.0  0.5429
  C  C688  1  0.320430  0.734580  0.626300  1.0  0.5553
  C  C689  1  0.338150  0.760560  0.672800  1.0  -0.3472
  C  C690  1  0.361100  0.746500  0.734500  1.0  -0.3448
  C  C691  1  0.146930  0.679260  0.011300  1.0  0.3388
  C  C692  1  0.116680  0.678890  0.050400  1.0  -0.2275
  C  C693  1  0.091900  0.656600  0.032300  1.0  -0.1108
  C  C694  1  0.096510  0.634120  0.976400  1.0  -0.1208
  C  C695  1  0.125340  0.634640  0.934800  1.0  -0.0454
  C  C696  1  0.151140  0.656650  0.951000  1.0  -0.1167
  C  C697  1  0.180840  0.654610  0.904300  1.0  0.5593
  C  C698  1  0.258110  0.688740  0.893700  1.0  0.5462
  C  C699  1  0.291650  0.685580  0.857400  1.0  -0.2247
  C  C700  1  0.318880  0.682900  0.915100  1.0  -0.3517
  C  C701  1  0.063720  0.516990  0.360300  1.0  0.0929
  C  C702  1  0.085600  0.536400  0.403000  1.0  -0.1725
  C  C703  1  0.115500  0.519100  0.433100  1.0  0.156
  C  C704  1  0.124300  0.495000  0.395500  1.0  -0.1905
  C  C705  1  0.102100  0.481900  0.344400  1.0  0.0902
  C  C706  1  0.138500  0.535800  0.489600  1.0  -0.2159
  C  C707  1  0.734100  0.919360  0.784600  1.0  0.2388
  C  C708  1  0.727360  0.950470  0.816000  1.0  -0.2272
  C  C709  1  0.701520  0.969320  0.789700  1.0  -0.125
  C  C710  1  0.681760  0.958480  0.730700  1.0  -0.1001
  C  C711  1  0.687330  0.927810  0.700900  1.0  -0.049
  C  C712  1  0.713490  0.907470  0.725300  1.0  -0.1203
  C  C713  1  0.718000  0.875230  0.688500  1.0  0.5882
  C  C714  1  0.773620  0.811990  0.682000  1.0  0.5748
  C  C715  1  0.782880  0.779790  0.643500  1.0  -0.0063
  C  C716  1  0.831730  0.915460  0.712800  1.0  0.1907
  C  C717  1  0.852470  0.932210  0.664500  1.0  -0.2398
  C  C718  1  0.853760  0.922010  0.589400  1.0  0.1321
  C  C719  1  0.832210  0.897470  0.568800  1.0  -0.179
  C  C720  1  0.811690  0.883890  0.618400  1.0  0.1585
  C  C721  1  0.877190  0.938300  0.534300  1.0  -0.1669
  C  C722  1  0.746430  0.833760  0.450700  1.0  0.3539
  C  C723  1  0.766800  0.856300  0.410300  1.0  -0.1621
  C  C724  1  0.784300  0.846600  0.351700  1.0  -0.0833
  C  C725  1  0.775200  0.817700  0.313800  1.0  -0.0959
  C  C726  1  0.762200  0.791900  0.362400  1.0  -0.1062
  C  C727  1  0.744710  0.801730  0.426200  1.0  -0.1562
  C  C728  1  0.725320  0.775630  0.466400  1.0  0.5436
  C  C729  1  0.679570  0.765420  0.626300  1.0  0.5549
  C  C730  1  0.661850  0.739440  0.672800  1.0  -0.3512
  C  C731  1  0.638900  0.753500  0.734500  1.0  -0.3436
  C  C732  1  0.853070  0.820740  0.011300  1.0  0.3381
  C  C733  1  0.883320  0.821110  0.050400  1.0  -0.227
  C  C734  1  0.908100  0.843400  0.032300  1.0  -0.1118
  C  C735  1  0.903490  0.865880  0.976400  1.0  -0.1194
  C  C736  1  0.874660  0.865360  0.934800  1.0  -0.0457
  C  C737  1  0.848860  0.843350  0.951000  1.0  -0.1174
  C  C738  1  0.819160  0.845390  0.904300  1.0  0.5595
  C  C739  1  0.741890  0.811260  0.893700  1.0  0.5464
  C  C740  1  0.708350  0.814420  0.857400  1.0  -0.226
  C  C741  1  0.681120  0.817100  0.915100  1.0  -0.353
  C  C742  1  0.936280  0.983010  0.360300  1.0  0.0932
  C  C743  1  0.914400  0.963600  0.403000  1.0  -0.1706
  C  C744  1  0.884500  0.980900  0.433100  1.0  0.155
  C  C745  1  0.875700  0.005000  0.395500  1.0  -0.1912
  C  C746  1  0.897900  0.018100  0.344400  1.0  0.0897
  C  C747  1  0.861500  0.964200  0.489600  1.0  -0.2152
  C  C748  1  0.234100  0.419360  0.284600  1.0  0.2388
  C  C749  1  0.227360  0.450470  0.316000  1.0  -0.2272
  C  C750  1  0.201520  0.469320  0.289700  1.0  -0.125
  C  C751  1  0.181760  0.458480  0.230700  1.0  -0.1001
  C  C752  1  0.187330  0.427810  0.200900  1.0  -0.049
  C  C753  1  0.213490  0.407470  0.225300  1.0  -0.1203
  C  C754  1  0.218000  0.375230  0.188500  1.0  0.5882
  C  C755  1  0.273620  0.311990  0.182000  1.0  0.5748
  C  C756  1  0.282880  0.279790  0.143500  1.0  -0.0063
  C  C757  1  0.331730  0.415460  0.212800  1.0  0.1907
  C  C758  1  0.352470  0.432210  0.164500  1.0  -0.2398
  C  C759  1  0.353760  0.422010  0.089400  1.0  0.1321
  C  C760  1  0.332210  0.397470  0.068800  1.0  -0.179
  C  C761  1  0.311690  0.383890  0.118400  1.0  0.1585
  C  C762  1  0.377190  0.438300  0.034300  1.0  -0.1669
  C  C763  1  0.246430  0.333760  0.950700  1.0  0.3539
  C  C764  1  0.266800  0.356300  0.910300  1.0  -0.1621
  C  C765  1  0.284300  0.346600  0.851700  1.0  -0.0833
  C  C766  1  0.275200  0.317700  0.813800  1.0  -0.0959
  C  C767  1  0.262200  0.291900  0.862400  1.0  -0.1062
  C  C768  1  0.244710  0.301730  0.926200  1.0  -0.1562
  C  C769  1  0.225320  0.275630  0.966400  1.0  0.5436
  C  C770  1  0.179570  0.265420  0.126300  1.0  0.5549
  C  C771  1  0.161850  0.239440  0.172800  1.0  -0.3512
  C  C772  1  0.138900  0.253500  0.234500  1.0  -0.3436
  C  C773  1  0.353070  0.320740  0.511300  1.0  0.3381
  C  C774  1  0.383320  0.321110  0.550400  1.0  -0.227
  C  C775  1  0.408100  0.343400  0.532300  1.0  -0.1118
  C  C776  1  0.403490  0.365880  0.476400  1.0  -0.1194
  C  C777  1  0.374660  0.365360  0.434800  1.0  -0.0457
  C  C778  1  0.348860  0.343350  0.451000  1.0  -0.1174
  C  C779  1  0.319160  0.345390  0.404300  1.0  0.5595
  C  C780  1  0.241890  0.311260  0.393700  1.0  0.5464
  C  C781  1  0.208350  0.314420  0.357400  1.0  -0.226
  C  C782  1  0.181120  0.317100  0.415100  1.0  -0.353
  C  C783  1  0.436280  0.483010  0.860300  1.0  0.0932
  C  C784  1  0.414400  0.463600  0.903000  1.0  -0.1706
  C  C785  1  0.384500  0.480900  0.933100  1.0  0.155
  C  C786  1  0.375700  0.505000  0.895500  1.0  -0.1912
  C  C787  1  0.397900  0.518100  0.844400  1.0  0.0897
  C  C788  1  0.361500  0.464200  0.989600  1.0  -0.2152
  C  C789  1  0.669360  0.015900  0.534600  1.0  0.2404
  C  C790  1  0.700470  0.022640  0.566000  1.0  -0.2257
  C  C791  1  0.719320  0.048480  0.539700  1.0  -0.1266
  C  C792  1  0.708480  0.068240  0.480700  1.0  -0.1017
  C  C793  1  0.677810  0.062670  0.450900  1.0  -0.051
  C  C794  1  0.657470  0.036510  0.475300  1.0  -0.1189
  C  C795  1  0.625230  0.032000  0.438500  1.0  0.5877
  C  C796  1  0.561990  0.976380  0.432000  1.0  0.5764
  C  C797  1  0.529790  0.967120  0.393500  1.0  -0.0063
  C  C798  1  0.665460  0.918270  0.462800  1.0  0.1903
  C  C799  1  0.682210  0.897530  0.414500  1.0  -0.2398
  C  C800  1  0.672010  0.896240  0.339400  1.0  0.1307
  C  C801  1  0.647470  0.917790  0.318800  1.0  -0.177
  C  C802  1  0.633890  0.938310  0.368400  1.0  0.1601
  C  C803  1  0.688300  0.872810  0.284300  1.0  -0.1708
  C  C804  1  0.583760  0.003570  0.200700  1.0  0.3551
  C  C805  1  0.606300  0.983200  0.160300  1.0  -0.1615
  C  C806  1  0.596600  0.965700  0.101700  1.0  -0.079
  C  C807  1  0.567700  0.974800  0.063800  1.0  -0.0949
  C  C808  1  0.541900  0.987800  0.112400  1.0  -0.1026
  C  C809  1  0.551730  0.005290  0.176200  1.0  -0.1551
  C  C810  1  0.525630  0.024680  0.216400  1.0  0.5437
  C  C811  1  0.515420  0.070430  0.376300  1.0  0.5529
  C  C812  1  0.489440  0.088150  0.422800  1.0  -0.3471
  C  C813  1  0.503500  0.111100  0.484500  1.0  -0.3453
  C  C814  1  0.570740  0.896930  0.761300  1.0  0.3376
  C  C815  1  0.571110  0.866680  0.800400  1.0  -0.2267
  C  C816  1  0.593400  0.841900  0.782300  1.0  -0.1099
  C  C817  1  0.615880  0.846510  0.726400  1.0  -0.1201
  C  C818  1  0.615360  0.875340  0.684800  1.0  -0.0457
  C  C819  1  0.593350  0.901140  0.701000  1.0  -0.1176
  C  C820  1  0.595390  0.930840  0.654300  1.0  0.5592
  C  C821  1  0.561260  0.008110  0.643700  1.0  0.5474
  C  C822  1  0.564420  0.041650  0.607400  1.0  -0.2263
  C  C823  1  0.567100  0.068880  0.665100  1.0  -0.3546
  C  C824  1  0.733010  0.813720  0.110300  1.0  0.0919
  C  C825  1  0.713600  0.835600  0.153000  1.0  -0.1705
  C  C826  1  0.730900  0.865500  0.183100  1.0  0.1528
  C  C827  1  0.755000  0.874300  0.145500  1.0  -0.1949
  C  C828  1  0.768100  0.852100  0.094400  1.0  0.0904
  C  C829  1  0.714200  0.888500  0.239600  1.0  -0.221
  C  C830  1  0.169360  0.515900  0.034600  1.0  0.2404
  C  C831  1  0.200470  0.522640  0.066000  1.0  -0.2257
  C  C832  1  0.219320  0.548480  0.039700  1.0  -0.1266
  C  C833  1  0.208480  0.568240  0.980700  1.0  -0.1017
  C  C834  1  0.177810  0.562670  0.950900  1.0  -0.051
  C  C835  1  0.157470  0.536510  0.975300  1.0  -0.1189
  C  C836  1  0.125230  0.532000  0.938500  1.0  0.5877
  C  C837  1  0.061990  0.476380  0.932000  1.0  0.5764
  C  C838  1  0.029790  0.467120  0.893500  1.0  -0.0063
  C  C839  1  0.165460  0.418270  0.962800  1.0  0.1903
  C  C840  1  0.182210  0.397530  0.914500  1.0  -0.2398
  C  C841  1  0.172010  0.396240  0.839400  1.0  0.1307
  C  C842  1  0.147470  0.417790  0.818800  1.0  -0.177
  C  C843  1  0.133890  0.438310  0.868400  1.0  0.1601
  C  C844  1  0.188300  0.372810  0.784300  1.0  -0.1708
  C  C845  1  0.083760  0.503570  0.700700  1.0  0.3551
  C  C846  1  0.106300  0.483200  0.660300  1.0  -0.1615
  C  C847  1  0.096600  0.465700  0.601700  1.0  -0.079
  C  C848  1  0.067700  0.474800  0.563800  1.0  -0.0949
  C  C849  1  0.041900  0.487800  0.612400  1.0  -0.1026
  C  C850  1  0.051730  0.505290  0.676200  1.0  -0.1551
  C  C851  1  0.025630  0.524680  0.716400  1.0  0.5437
  C  C852  1  0.015420  0.570430  0.876300  1.0  0.5529
  C  C853  1  0.989440  0.588150  0.922800  1.0  -0.3471
  C  C854  1  0.003500  0.611100  0.984500  1.0  -0.3453
  C  C855  1  0.070740  0.396930  0.261300  1.0  0.3376
  C  C856  1  0.071110  0.366680  0.300400  1.0  -0.2267
  C  C857  1  0.093400  0.341900  0.282300  1.0  -0.1099
  C  C858  1  0.115880  0.346510  0.226400  1.0  -0.1201
  C  C859  1  0.115360  0.375340  0.184800  1.0  -0.0457
  C  C860  1  0.093350  0.401140  0.201000  1.0  -0.1176
  C  C861  1  0.095390  0.430840  0.154300  1.0  0.5592
  C  C862  1  0.061260  0.508110  0.143700  1.0  0.5474
  C  C863  1  0.064420  0.541650  0.107400  1.0  -0.2263
  C  C864  1  0.067100  0.568880  0.165100  1.0  -0.3546
  C  C865  1  0.233010  0.313720  0.610300  1.0  0.0919
  C  C866  1  0.213600  0.335600  0.653000  1.0  -0.1705
  C  C867  1  0.230900  0.365500  0.683100  1.0  0.1528
  C  C868  1  0.255000  0.374300  0.645500  1.0  -0.1949
  C  C869  1  0.268100  0.352100  0.594400  1.0  0.0904
  C  C870  1  0.214200  0.388500  0.739600  1.0  -0.221
  C  C871  1  0.830640  0.984100  0.034600  1.0  0.2385
  C  C872  1  0.799530  0.977360  0.066000  1.0  -0.2269
  C  C873  1  0.780680  0.951520  0.039700  1.0  -0.1268
  C  C874  1  0.791520  0.931760  0.980700  1.0  -0.1029
  C  C875  1  0.822190  0.937330  0.950900  1.0  -0.0511
  C  C876  1  0.842530  0.963490  0.975300  1.0  -0.1184
  C  C877  1  0.874770  0.968000  0.938500  1.0  0.5877
  C  C878  1  0.938010  0.023620  0.932000  1.0  0.5759
  C  C879  1  0.970210  0.032880  0.893500  1.0  -0.0043
  C  C880  1  0.834540  0.081730  0.962800  1.0  0.1895
  C  C881  1  0.817790  0.102470  0.914500  1.0  -0.2397
  C  C882  1  0.827990  0.103760  0.839400  1.0  0.1319
  C  C883  1  0.852530  0.082210  0.818800  1.0  -0.1776
  C  C884  1  0.866110  0.061690  0.868400  1.0  0.1598
  C  C885  1  0.811700  0.127190  0.784300  1.0  -0.1709
  C  C886  1  0.916240  0.996430  0.700700  1.0  0.3553
  C  C887  1  0.893700  0.016800  0.660300  1.0  -0.1625
  C  C888  1  0.903400  0.034300  0.601700  1.0  -0.0809
  C  C889  1  0.932300  0.025200  0.563800  1.0  -0.0952
  C  C890  1  0.958100  0.012200  0.612400  1.0  -0.1045
  C  C891  1  0.948270  0.994710  0.676200  1.0  -0.1551
  C  C892  1  0.974370  0.975320  0.716400  1.0  0.5435
  C  C893  1  0.984580  0.929570  0.876300  1.0  0.5533
  C  C894  1  0.010560  0.911850  0.922800  1.0  -0.3486
  C  C895  1  0.996500  0.888900  0.984500  1.0  -0.3439
  C  C896  1  0.929260  0.103070  0.261300  1.0  0.337
  C  C897  1  0.928890  0.133320  0.300400  1.0  -0.2225
  C  C898  1  0.906600  0.158100  0.282300  1.0  -0.1099
  C  C899  1  0.884120  0.153490  0.226400  1.0  -0.1191
  C  C900  1  0.884640  0.124660  0.184800  1.0  -0.0451
  C  C901  1  0.906650  0.098860  0.201000  1.0  -0.1174
  C  C902  1  0.904610  0.069160  0.154300  1.0  0.5592
  C  C903  1  0.938740  0.991890  0.143700  1.0  0.5472
  C  C904  1  0.935580  0.958350  0.107400  1.0  -0.2241
  C  C905  1  0.932900  0.931120  0.165100  1.0  -0.3533
  C  C906  1  0.766990  0.186280  0.610300  1.0  0.0913
  C  C907  1  0.786400  0.164400  0.653000  1.0  -0.1692
  C  C908  1  0.769100  0.134500  0.683100  1.0  0.1545
  C  C909  1  0.745000  0.125700  0.645500  1.0  -0.1929
  C  C910  1  0.731900  0.147900  0.594400  1.0  0.0889
  C  C911  1  0.785800  0.111500  0.739600  1.0  -0.2209
  C  C912  1  0.330640  0.484100  0.534600  1.0  0.2385
  C  C913  1  0.299530  0.477360  0.566000  1.0  -0.2269
  C  C914  1  0.280680  0.451520  0.539700  1.0  -0.1268
  C  C915  1  0.291520  0.431760  0.480700  1.0  -0.1029
  C  C916  1  0.322190  0.437330  0.450900  1.0  -0.0511
  C  C917  1  0.342530  0.463490  0.475300  1.0  -0.1184
  C  C918  1  0.374770  0.468000  0.438500  1.0  0.5877
  C  C919  1  0.438010  0.523620  0.432000  1.0  0.5759
  C  C920  1  0.470210  0.532880  0.393500  1.0  -0.0043
  C  C921  1  0.334540  0.581730  0.462800  1.0  0.1895
  C  C922  1  0.317790  0.602470  0.414500  1.0  -0.2397
  C  C923  1  0.327990  0.603760  0.339400  1.0  0.1319
  C  C924  1  0.352530  0.582210  0.318800  1.0  -0.1776
  C  C925  1  0.366110  0.561690  0.368400  1.0  0.1598
  C  C926  1  0.311700  0.627190  0.284300  1.0  -0.1709
  C  C927  1  0.416240  0.496430  0.200700  1.0  0.3553
  C  C928  1  0.393700  0.516800  0.160300  1.0  -0.1625
  C  C929  1  0.403400  0.534300  0.101700  1.0  -0.0809
  C  C930  1  0.432300  0.525200  0.063800  1.0  -0.0952
  C  C931  1  0.458100  0.512200  0.112400  1.0  -0.1045
  C  C932  1  0.448270  0.494710  0.176200  1.0  -0.1551
  C  C933  1  0.474370  0.475320  0.216400  1.0  0.5435
  C  C934  1  0.484580  0.429570  0.376300  1.0  0.5533
  C  C935  1  0.510560  0.411850  0.422800  1.0  -0.3486
  C  C936  1  0.496500  0.388900  0.484500  1.0  -0.3439
  C  C937  1  0.429260  0.603070  0.761300  1.0  0.337
  C  C938  1  0.428890  0.633320  0.800400  1.0  -0.2225
  C  C939  1  0.406600  0.658100  0.782300  1.0  -0.1099
  C  C940  1  0.384120  0.653490  0.726400  1.0  -0.1191
  C  C941  1  0.384640  0.624660  0.684800  1.0  -0.0451
  C  C942  1  0.406650  0.598860  0.701000  1.0  -0.1174
  C  C943  1  0.404610  0.569160  0.654300  1.0  0.5592
  C  C944  1  0.438740  0.491890  0.643700  1.0  0.5472
  C  C945  1  0.435580  0.458350  0.607400  1.0  -0.2241
  C  C946  1  0.432900  0.431120  0.665100  1.0  -0.3533
  C  C947  1  0.266990  0.686280  0.110300  1.0  0.0913
  C  C948  1  0.286400  0.664400  0.153000  1.0  -0.1692
  C  C949  1  0.269100  0.634500  0.183100  1.0  0.1545
  C  C950  1  0.245000  0.625700  0.145500  1.0  -0.1929
  C  C951  1  0.231900  0.647900  0.094400  1.0  0.0889
  C  C952  1  0.285800  0.611500  0.239600  1.0  -0.2209
  C  C953  1  0.234100  0.919360  0.715400  1.0  0.2382
  C  C954  1  0.227360  0.950470  0.684000  1.0  -0.2288
  C  C955  1  0.201520  0.969320  0.710300  1.0  -0.124
  C  C956  1  0.181760  0.958480  0.769300  1.0  -0.1005
  C  C957  1  0.187330  0.927810  0.799100  1.0  -0.0489
  C  C958  1  0.213490  0.907470  0.774700  1.0  -0.12
  C  C959  1  0.218000  0.875230  0.811500  1.0  0.5875
  C  C960  1  0.273620  0.811990  0.818000  1.0  0.5751
  C  C961  1  0.282880  0.779790  0.856500  1.0  -0.0077
  C  C962  1  0.331730  0.915460  0.787200  1.0  0.19
  C  C963  1  0.352470  0.932210  0.835500  1.0  -0.2404
  C  C964  1  0.353760  0.922010  0.910600  1.0  0.1322
  C  C965  1  0.332210  0.897470  0.931200  1.0  -0.178
  C  C966  1  0.311690  0.883890  0.881600  1.0  0.1594
  C  C967  1  0.377190  0.938300  0.965700  1.0  -0.1663
  C  C968  1  0.246430  0.833760  0.049300  1.0  0.3533
  C  C969  1  0.266800  0.856300  0.089700  1.0  -0.1613
  C  C970  1  0.284300  0.846600  0.148300  1.0  -0.0833
  C  C971  1  0.275200  0.817700  0.186200  1.0  -0.0961
  C  C972  1  0.262200  0.791900  0.137600  1.0  -0.1055
  C  C973  1  0.244710  0.801730  0.073800  1.0  -0.1568
  C  C974  1  0.225320  0.775630  0.033600  1.0  0.5439
  C  C975  1  0.179570  0.765420  0.873700  1.0  0.5535
  C  C976  1  0.161850  0.739440  0.827200  1.0  -0.3505
  C  C977  1  0.138900  0.753500  0.765500  1.0  -0.3434
  C  C978  1  0.353070  0.820740  0.488700  1.0  0.3384
  C  C979  1  0.383320  0.821110  0.449600  1.0  -0.2277
  C  C980  1  0.408100  0.843400  0.467700  1.0  -0.1123
  C  C981  1  0.403490  0.865880  0.523600  1.0  -0.1199
  C  C982  1  0.374660  0.865360  0.565200  1.0  -0.0454
  C  C983  1  0.348860  0.843350  0.549000  1.0  -0.1171
  C  C984  1  0.319160  0.845390  0.595700  1.0  0.5603
  C  C985  1  0.241890  0.811260  0.606300  1.0  0.5469
  C  C986  1  0.208350  0.814420  0.642600  1.0  -0.2248
  C  C987  1  0.181120  0.817100  0.584900  1.0  -0.3517
  C  C988  1  0.436280  0.983010  0.139700  1.0  0.0927
  C  C989  1  0.414400  0.963600  0.097000  1.0  -0.1709
  C  C990  1  0.384500  0.980900  0.066900  1.0  0.1546
  C  C991  1  0.375700  0.005000  0.104500  1.0  -0.1909
  C  C992  1  0.397900  0.018100  0.155600  1.0  0.0895
  C  C993  1  0.361500  0.964200  0.010400  1.0  -0.2153
  C  C994  1  0.734100  0.419360  0.215400  1.0  0.2382
  C  C995  1  0.727360  0.450470  0.184000  1.0  -0.2288
  C  C996  1  0.701520  0.469320  0.210300  1.0  -0.124
  C  C997  1  0.681760  0.458480  0.269300  1.0  -0.1005
  C  C998  1  0.687330  0.427810  0.299100  1.0  -0.0489
  C  C999  1  0.713490  0.407470  0.274700  1.0  -0.12
  C  C1000  1  0.718000  0.375230  0.311500  1.0  0.5875
  C  C1001  1  0.773620  0.311990  0.318000  1.0  0.5751
  C  C1002  1  0.782880  0.279790  0.356500  1.0  -0.0077
  C  C1003  1  0.831730  0.415460  0.287200  1.0  0.19
  C  C1004  1  0.852470  0.432210  0.335500  1.0  -0.2404
  C  C1005  1  0.853760  0.422010  0.410600  1.0  0.1322
  C  C1006  1  0.832210  0.397470  0.431200  1.0  -0.178
  C  C1007  1  0.811690  0.383890  0.381600  1.0  0.1594
  C  C1008  1  0.877190  0.438300  0.465700  1.0  -0.1663
  C  C1009  1  0.746430  0.333760  0.549300  1.0  0.3533
  C  C1010  1  0.766800  0.356300  0.589700  1.0  -0.1613
  C  C1011  1  0.784300  0.346600  0.648300  1.0  -0.0833
  C  C1012  1  0.775200  0.317700  0.686200  1.0  -0.0961
  C  C1013  1  0.762200  0.291900  0.637600  1.0  -0.1055
  C  C1014  1  0.744710  0.301730  0.573800  1.0  -0.1568
  C  C1015  1  0.725320  0.275630  0.533600  1.0  0.5439
  C  C1016  1  0.679570  0.265420  0.373700  1.0  0.5535
  C  C1017  1  0.661850  0.239440  0.327200  1.0  -0.3505
  C  C1018  1  0.638900  0.253500  0.265500  1.0  -0.3434
  C  C1019  1  0.853070  0.320740  0.988700  1.0  0.3384
  C  C1020  1  0.883320  0.321110  0.949600  1.0  -0.2277
  C  C1021  1  0.908100  0.343400  0.967700  1.0  -0.1123
  C  C1022  1  0.903490  0.365880  0.023600  1.0  -0.1199
  C  C1023  1  0.874660  0.365360  0.065200  1.0  -0.0454
  C  C1024  1  0.848860  0.343350  0.049000  1.0  -0.1171
  C  C1025  1  0.819160  0.345390  0.095700  1.0  0.5603
  C  C1026  1  0.741890  0.311260  0.106300  1.0  0.5469
  C  C1027  1  0.708350  0.314420  0.142600  1.0  -0.2248
  C  C1028  1  0.681120  0.317100  0.084900  1.0  -0.3517
  C  C1029  1  0.936280  0.483010  0.639700  1.0  0.0927
  C  C1030  1  0.914400  0.463600  0.597000  1.0  -0.1709
  C  C1031  1  0.884500  0.480900  0.566900  1.0  0.1546
  C  C1032  1  0.875700  0.505000  0.604500  1.0  -0.1909
  C  C1033  1  0.897900  0.518100  0.655600  1.0  0.0895
  C  C1034  1  0.861500  0.464200  0.510400  1.0  -0.2153
  C  C1035  1  0.265900  0.080640  0.215400  1.0  0.2385
  C  C1036  1  0.272640  0.049530  0.184000  1.0  -0.2292
  C  C1037  1  0.298480  0.030680  0.210300  1.0  -0.127
  C  C1038  1  0.318240  0.041520  0.269300  1.0  -0.1016
  C  C1039  1  0.312670  0.072190  0.299100  1.0  -0.0509
  C  C1040  1  0.286510  0.092530  0.274700  1.0  -0.1206
  C  C1041  1  0.282000  0.124770  0.311500  1.0  0.5885
  C  C1042  1  0.226380  0.188010  0.318000  1.0  0.5744
  C  C1043  1  0.217120  0.220210  0.356500  1.0  -0.0063
  C  C1044  1  0.168270  0.084540  0.287200  1.0  0.1903
  C  C1045  1  0.147530  0.067790  0.335500  1.0  -0.2408
  C  C1046  1  0.146240  0.077990  0.410600  1.0  0.1325
  C  C1047  1  0.167790  0.102530  0.431200  1.0  -0.1792
  C  C1048  1  0.188310  0.116110  0.381600  1.0  0.1589
  C  C1049  1  0.122810  0.061700  0.465700  1.0  -0.1684
  C  C1050  1  0.253570  0.166240  0.549300  1.0  0.3532
  C  C1051  1  0.233200  0.143700  0.589700  1.0  -0.16
  C  C1052  1  0.215700  0.153400  0.648300  1.0  -0.0826
  C  C1053  1  0.224800  0.182300  0.686200  1.0  -0.0965
  C  C1054  1  0.237800  0.208100  0.637600  1.0  -0.1055
  C  C1055  1  0.255290  0.198270  0.573800  1.0  -0.1559
  C  C1056  1  0.274680  0.224370  0.533600  1.0  0.544
  C  C1057  1  0.320430  0.234580  0.373700  1.0  0.555
  C  C1058  1  0.338150  0.260560  0.327200  1.0  -0.3471
  C  C1059  1  0.361100  0.246500  0.265500  1.0  -0.345
  C  C1060  1  0.146930  0.179260  0.988700  1.0  0.3402
  C  C1061  1  0.116680  0.178890  0.949600  1.0  -0.2279
  C  C1062  1  0.091900  0.156600  0.967700  1.0  -0.1104
  C  C1063  1  0.096510  0.134120  0.023600  1.0  -0.1212
  C  C1064  1  0.125340  0.134640  0.065200  1.0  -0.0454
  C  C1065  1  0.151140  0.156650  0.049000  1.0  -0.1166
  C  C1066  1  0.180840  0.154610  0.095700  1.0  0.5601
  C  C1067  1  0.258110  0.188740  0.106300  1.0  0.5466
  C  C1068  1  0.291650  0.185580  0.142600  1.0  -0.2234
  C  C1069  1  0.318880  0.182900  0.084900  1.0  -0.3519
  C  C1070  1  0.063720  0.016990  0.639700  1.0  0.0922
  C  C1071  1  0.085600  0.036400  0.597000  1.0  -0.1728
  C  C1072  1  0.115500  0.019100  0.566900  1.0  0.1551
  C  C1073  1  0.124300  0.995000  0.604500  1.0  -0.1902
  C  C1074  1  0.102100  0.981900  0.655600  1.0  0.0902
  C  C1075  1  0.138500  0.035800  0.510400  1.0  -0.2162
  C  C1076  1  0.765900  0.580640  0.715400  1.0  0.2385
  C  C1077  1  0.772640  0.549530  0.684000  1.0  -0.2292
  C  C1078  1  0.798480  0.530680  0.710300  1.0  -0.127
  C  C1079  1  0.818240  0.541520  0.769300  1.0  -0.1016
  C  C1080  1  0.812670  0.572190  0.799100  1.0  -0.0509
  C  C1081  1  0.786510  0.592530  0.774700  1.0  -0.1206
  C  C1082  1  0.782000  0.624770  0.811500  1.0  0.5885
  C  C1083  1  0.726380  0.688010  0.818000  1.0  0.5744
  C  C1084  1  0.717120  0.720210  0.856500  1.0  -0.0063
  C  C1085  1  0.668270  0.584540  0.787200  1.0  0.1903
  C  C1086  1  0.647530  0.567790  0.835500  1.0  -0.2408
  C  C1087  1  0.646240  0.577990  0.910600  1.0  0.1325
  C  C1088  1  0.667790  0.602530  0.931200  1.0  -0.1792
  C  C1089  1  0.688310  0.616110  0.881600  1.0  0.1589
  C  C1090  1  0.622810  0.561700  0.965700  1.0  -0.1684
  C  C1091  1  0.753570  0.666240  0.049300  1.0  0.3532
  C  C1092  1  0.733200  0.643700  0.089700  1.0  -0.16
  C  C1093  1  0.715700  0.653400  0.148300  1.0  -0.0826
  C  C1094  1  0.724800  0.682300  0.186200  1.0  -0.0965
  C  C1095  1  0.737800  0.708100  0.137600  1.0  -0.1055
  C  C1096  1  0.755290  0.698270  0.073800  1.0  -0.1559
  C  C1097  1  0.774680  0.724370  0.033600  1.0  0.544
  C  C1098  1  0.820430  0.734580  0.873700  1.0  0.555
  C  C1099  1  0.838150  0.760560  0.827200  1.0  -0.3471
  C  C1100  1  0.861100  0.746500  0.765500  1.0  -0.345
  C  C1101  1  0.646930  0.679260  0.488700  1.0  0.3402
  C  C1102  1  0.616680  0.678890  0.449600  1.0  -0.2279
  C  C1103  1  0.591900  0.656600  0.467700  1.0  -0.1104
  C  C1104  1  0.596510  0.634120  0.523600  1.0  -0.1212
  C  C1105  1  0.625340  0.634640  0.565200  1.0  -0.0454
  C  C1106  1  0.651140  0.656650  0.549000  1.0  -0.1166
  C  C1107  1  0.680840  0.654610  0.595700  1.0  0.5601
  C  C1108  1  0.758110  0.688740  0.606300  1.0  0.5466
  C  C1109  1  0.791650  0.685580  0.642600  1.0  -0.2234
  C  C1110  1  0.818880  0.682900  0.584900  1.0  -0.3519
  C  C1111  1  0.563720  0.516990  0.139700  1.0  0.0922
  C  C1112  1  0.585600  0.536400  0.097000  1.0  -0.1728
  C  C1113  1  0.615500  0.519100  0.066900  1.0  0.1551
  C  C1114  1  0.624300  0.495000  0.104500  1.0  -0.1902
  C  C1115  1  0.602100  0.481900  0.155600  1.0  0.0902
  C  C1116  1  0.638500  0.535800  0.010400  1.0  -0.2162
  C  C1117  1  0.330640  0.984100  0.465400  1.0  0.2384
  C  C1118  1  0.299530  0.977360  0.434000  1.0  -0.2267
  C  C1119  1  0.280680  0.951520  0.460300  1.0  -0.1261
  C  C1120  1  0.291520  0.931760  0.519300  1.0  -0.1031
  C  C1121  1  0.322190  0.937330  0.549100  1.0  -0.051
  C  C1122  1  0.342530  0.963490  0.524700  1.0  -0.1181
  C  C1123  1  0.374770  0.968000  0.561500  1.0  0.5875
  C  C1124  1  0.438010  0.023620  0.568000  1.0  0.5762
  C  C1125  1  0.470210  0.032880  0.606500  1.0  -0.0046
  C  C1126  1  0.334540  0.081730  0.537200  1.0  0.1888
  C  C1127  1  0.317790  0.102470  0.585500  1.0  -0.2405
  C  C1128  1  0.327990  0.103760  0.660600  1.0  0.132
  C  C1129  1  0.352530  0.082210  0.681200  1.0  -0.1774
  C  C1130  1  0.366110  0.061690  0.631600  1.0  0.1603
  C  C1131  1  0.311700  0.127190  0.715700  1.0  -0.1697
  C  C1132  1  0.416240  0.996430  0.799300  1.0  0.3546
  C  C1133  1  0.393700  0.016800  0.839700  1.0  -0.1613
  C  C1134  1  0.403400  0.034300  0.898300  1.0  -0.081
  C  C1135  1  0.432300  0.025200  0.936200  1.0  -0.0966
  C  C1136  1  0.458100  0.012200  0.887600  1.0  -0.1043
  C  C1137  1  0.448270  0.994710  0.823800  1.0  -0.1558
  C  C1138  1  0.474370  0.975320  0.783600  1.0  0.5443
  C  C1139  1  0.484580  0.929570  0.623700  1.0  0.5526
  C  C1140  1  0.510560  0.911850  0.577200  1.0  -0.3485
  C  C1141  1  0.496500  0.888900  0.515500  1.0  -0.3438
  C  C1142  1  0.429260  0.103070  0.238700  1.0  0.3368
  C  C1143  1  0.428890  0.133320  0.199600  1.0  -0.2252
  C  C1144  1  0.406600  0.158100  0.217700  1.0  -0.1105
  C  C1145  1  0.384120  0.153490  0.273600  1.0  -0.1198
  C  C1146  1  0.384640  0.124660  0.315200  1.0  -0.045
  C  C1147  1  0.406650  0.098860  0.299000  1.0  -0.1173
  C  C1148  1  0.404610  0.069160  0.345700  1.0  0.5597
  C  C1149  1  0.438740  0.991890  0.356300  1.0  0.5473
  C  C1150  1  0.435580  0.958350  0.392600  1.0  -0.2242
  C  C1151  1  0.432900  0.931120  0.334900  1.0  -0.3519
  C  C1152  1  0.266990  0.186280  0.889700  1.0  0.0907
  C  C1153  1  0.286400  0.164400  0.847000  1.0  -0.1698
  C  C1154  1  0.269100  0.134500  0.816900  1.0  0.1541
  C  C1155  1  0.245000  0.125700  0.854500  1.0  -0.1925
  C  C1156  1  0.231900  0.147900  0.905600  1.0  0.0894
  C  C1157  1  0.285800  0.111500  0.760400  1.0  -0.2206
  C  C1158  1  0.830640  0.484100  0.965400  1.0  0.2384
  C  C1159  1  0.799530  0.477360  0.934000  1.0  -0.2267
  C  C1160  1  0.780680  0.451520  0.960300  1.0  -0.1261
  C  C1161  1  0.791520  0.431760  0.019300  1.0  -0.1031
  C  C1162  1  0.822190  0.437330  0.049100  1.0  -0.051
  C  C1163  1  0.842530  0.463490  0.024700  1.0  -0.1181
  C  C1164  1  0.874770  0.468000  0.061500  1.0  0.5875
  C  C1165  1  0.938010  0.523620  0.068000  1.0  0.5762
  C  C1166  1  0.970210  0.532880  0.106500  1.0  -0.0046
  C  C1167  1  0.834540  0.581730  0.037200  1.0  0.1888
  C  C1168  1  0.817790  0.602470  0.085500  1.0  -0.2405
  C  C1169  1  0.827990  0.603760  0.160600  1.0  0.132
  C  C1170  1  0.852530  0.582210  0.181200  1.0  -0.1774
  C  C1171  1  0.866110  0.561690  0.131600  1.0  0.1603
  C  C1172  1  0.811700  0.627190  0.215700  1.0  -0.1697
  C  C1173  1  0.916240  0.496430  0.299300  1.0  0.3546
  C  C1174  1  0.893700  0.516800  0.339700  1.0  -0.1613
  C  C1175  1  0.903400  0.534300  0.398300  1.0  -0.081
  C  C1176  1  0.932300  0.525200  0.436200  1.0  -0.0966
  C  C1177  1  0.958100  0.512200  0.387600  1.0  -0.1043
  C  C1178  1  0.948270  0.494710  0.323800  1.0  -0.1558
  C  C1179  1  0.974370  0.475320  0.283600  1.0  0.5443
  C  C1180  1  0.984580  0.429570  0.123700  1.0  0.5526
  C  C1181  1  0.010560  0.411850  0.077200  1.0  -0.3485
  C  C1182  1  0.996500  0.388900  0.015500  1.0  -0.3438
  C  C1183  1  0.929260  0.603070  0.738700  1.0  0.3368
  C  C1184  1  0.928890  0.633320  0.699600  1.0  -0.2252
  C  C1185  1  0.906600  0.658100  0.717700  1.0  -0.1105
  C  C1186  1  0.884120  0.653490  0.773600  1.0  -0.1198
  C  C1187  1  0.884640  0.624660  0.815200  1.0  -0.045
  C  C1188  1  0.906650  0.598860  0.799000  1.0  -0.1173
  C  C1189  1  0.904610  0.569160  0.845700  1.0  0.5597
  C  C1190  1  0.938740  0.491890  0.856300  1.0  0.5473
  C  C1191  1  0.935580  0.458350  0.892600  1.0  -0.2242
  C  C1192  1  0.932900  0.431120  0.834900  1.0  -0.3519
  C  C1193  1  0.766990  0.686280  0.389700  1.0  0.0907
  C  C1194  1  0.786400  0.664400  0.347000  1.0  -0.1698
  C  C1195  1  0.769100  0.634500  0.316900  1.0  0.1541
  C  C1196  1  0.745000  0.625700  0.354500  1.0  -0.1925
  C  C1197  1  0.731900  0.647900  0.405600  1.0  0.0894
  C  C1198  1  0.785800  0.611500  0.260400  1.0  -0.2206
  C  C1199  1  0.169360  0.015900  0.965400  1.0  0.2396
  C  C1200  1  0.200470  0.022640  0.934000  1.0  -0.2271
  C  C1201  1  0.219320  0.048480  0.960300  1.0  -0.126
  C  C1202  1  0.208480  0.068240  0.019300  1.0  -0.102
  C  C1203  1  0.177810  0.062670  0.049100  1.0  -0.0511
  C  C1204  1  0.157470  0.036510  0.024700  1.0  -0.1187
  C  C1205  1  0.125230  0.032000  0.061500  1.0  0.5874
  C  C1206  1  0.061990  0.976380  0.068000  1.0  0.5765
  C  C1207  1  0.029790  0.967120  0.106500  1.0  -0.0071
  C  C1208  1  0.165460  0.918270  0.037200  1.0  0.189
  C  C1209  1  0.182210  0.897530  0.085500  1.0  -0.2401
  C  C1210  1  0.172010  0.896240  0.160600  1.0  0.1305
  C  C1211  1  0.147470  0.917790  0.181200  1.0  -0.177
  C  C1212  1  0.133890  0.938310  0.131600  1.0  0.1608
  C  C1213  1  0.188300  0.872810  0.215700  1.0  -0.1706
  C  C1214  1  0.083760  0.003570  0.299300  1.0  0.3543
  C  C1215  1  0.106300  0.983200  0.339700  1.0  -0.1615
  C  C1216  1  0.096600  0.965700  0.398300  1.0  -0.0798
  C  C1217  1  0.067700  0.974800  0.436200  1.0  -0.0958
  C  C1218  1  0.041900  0.987800  0.387600  1.0  -0.1017
  C  C1219  1  0.051730  0.005290  0.323800  1.0  -0.1559
  C  C1220  1  0.025630  0.024680  0.283600  1.0  0.5441
  C  C1221  1  0.015420  0.070430  0.123700  1.0  0.5521
  C  C1222  1  0.989440  0.088150  0.077200  1.0  -0.3478
  C  C1223  1  0.003500  0.111100  0.015500  1.0  -0.344
  C  C1224  1  0.070740  0.896930  0.738700  1.0  0.3393
  C  C1225  1  0.071110  0.866680  0.699600  1.0  -0.2248
  C  C1226  1  0.093400  0.841900  0.717700  1.0  -0.11
  C  C1227  1  0.115880  0.846510  0.773600  1.0  -0.1207
  C  C1228  1  0.115360  0.875340  0.815200  1.0  -0.0453
  C  C1229  1  0.093350  0.901140  0.799000  1.0  -0.1175
  C  C1230  1  0.095390  0.930840  0.845700  1.0  0.5597
  C  C1231  1  0.061260  0.008110  0.856300  1.0  0.5475
  C  C1232  1  0.064420  0.041650  0.892600  1.0  -0.2233
  C  C1233  1  0.067100  0.068880  0.834900  1.0  -0.3535
  C  C1234  1  0.233010  0.813720  0.389700  1.0  0.0913
  C  C1235  1  0.213600  0.835600  0.347000  1.0  -0.1705
  C  C1236  1  0.230900  0.865500  0.316900  1.0  0.1523
  C  C1237  1  0.255000  0.874300  0.354500  1.0  -0.1946
  C  C1238  1  0.268100  0.852100  0.405600  1.0  0.0899
  C  C1239  1  0.214200  0.888500  0.260400  1.0  -0.2215
  C  C1240  1  0.669360  0.515900  0.465400  1.0  0.2396
  C  C1241  1  0.700470  0.522640  0.434000  1.0  -0.2271
  C  C1242  1  0.719320  0.548480  0.460300  1.0  -0.126
  C  C1243  1  0.708480  0.568240  0.519300  1.0  -0.102
  C  C1244  1  0.677810  0.562670  0.549100  1.0  -0.0511
  C  C1245  1  0.657470  0.536510  0.524700  1.0  -0.1187
  C  C1246  1  0.625230  0.532000  0.561500  1.0  0.5874
  C  C1247  1  0.561990  0.476380  0.568000  1.0  0.5765
  C  C1248  1  0.529790  0.467120  0.606500  1.0  -0.0071
  C  C1249  1  0.665460  0.418270  0.537200  1.0  0.189
  C  C1250  1  0.682210  0.397530  0.585500  1.0  -0.2401
  C  C1251  1  0.672010  0.396240  0.660600  1.0  0.1305
  C  C1252  1  0.647470  0.417790  0.681200  1.0  -0.177
  C  C1253  1  0.633890  0.438310  0.631600  1.0  0.1608
  C  C1254  1  0.688300  0.372810  0.715700  1.0  -0.1706
  C  C1255  1  0.583760  0.503570  0.799300  1.0  0.3543
  C  C1256  1  0.606300  0.483200  0.839700  1.0  -0.1615
  C  C1257  1  0.596600  0.465700  0.898300  1.0  -0.0798
  C  C1258  1  0.567700  0.474800  0.936200  1.0  -0.0958
  C  C1259  1  0.541900  0.487800  0.887600  1.0  -0.1017
  C  C1260  1  0.551730  0.505290  0.823800  1.0  -0.1559
  C  C1261  1  0.525630  0.524680  0.783600  1.0  0.5441
  C  C1262  1  0.515420  0.570430  0.623700  1.0  0.5521
  C  C1263  1  0.489440  0.588150  0.577200  1.0  -0.3478
  C  C1264  1  0.503500  0.611100  0.515500  1.0  -0.344
  C  C1265  1  0.570740  0.396930  0.238700  1.0  0.3393
  C  C1266  1  0.571110  0.366680  0.199600  1.0  -0.2248
  C  C1267  1  0.593400  0.341900  0.217700  1.0  -0.11
  C  C1268  1  0.615880  0.346510  0.273600  1.0  -0.1207
  C  C1269  1  0.615360  0.375340  0.315200  1.0  -0.0453
  C  C1270  1  0.593350  0.401140  0.299000  1.0  -0.1175
  C  C1271  1  0.595390  0.430840  0.345700  1.0  0.5597
  C  C1272  1  0.561260  0.508110  0.356300  1.0  0.5475
  C  C1273  1  0.564420  0.541650  0.392600  1.0  -0.2233
  C  C1274  1  0.567100  0.568880  0.334900  1.0  -0.3535
  C  C1275  1  0.733010  0.313720  0.889700  1.0  0.0913
  C  C1276  1  0.713600  0.335600  0.847000  1.0  -0.1705
  C  C1277  1  0.730900  0.365500  0.816900  1.0  0.1523
  C  C1278  1  0.755000  0.374300  0.854500  1.0  -0.1946
  C  C1279  1  0.768100  0.352100  0.905600  1.0  0.0899
  C  C1280  1  0.714200  0.388500  0.760400  1.0  -0.2215
  N  N1281  1  0.756120  0.143030  0.207300  1.0  -0.2819
  N  N1282  1  0.753940  0.173290  0.164700  1.0  -0.291
  N  N1283  1  0.688640  0.108130  0.192400  1.0  -0.3337
  N  N1284  1  0.789110  0.216900  0.030200  1.0  -0.2223
  N  N1285  1  0.805070  0.244480  0.065720  1.0  -0.2859
  N  N1286  1  0.706710  0.173870  0.421320  1.0  -0.2712
  N  N1287  1  0.735220  0.167870  0.376900  1.0  -0.2528
  N  N1288  1  0.574080  0.986510  0.831400  1.0  -0.2683
  N  N1289  1  0.256120  0.643030  0.707300  1.0  -0.2819
  N  N1290  1  0.253940  0.673290  0.664700  1.0  -0.291
  N  N1291  1  0.188640  0.608130  0.692400  1.0  -0.3337
  N  N1292  1  0.289110  0.716900  0.530200  1.0  -0.2223
  N  N1293  1  0.305070  0.744480  0.565720  1.0  -0.2859
  N  N1294  1  0.206710  0.673870  0.921320  1.0  -0.2712
  N  N1295  1  0.235220  0.667870  0.876900  1.0  -0.2528
  N  N1296  1  0.074080  0.486510  0.331400  1.0  -0.2683
  N  N1297  1  0.743880  0.856970  0.707300  1.0  -0.2824
  N  N1298  1  0.746060  0.826710  0.664700  1.0  -0.2914
  N  N1299  1  0.811360  0.891870  0.692400  1.0  -0.3354
  N  N1300  1  0.710890  0.783100  0.530200  1.0  -0.2221
  N  N1301  1  0.694930  0.755520  0.565720  1.0  -0.286
  N  N1302  1  0.793290  0.826130  0.921320  1.0  -0.2715
  N  N1303  1  0.764780  0.832130  0.876900  1.0  -0.2531
  N  N1304  1  0.925920  0.013490  0.331400  1.0  -0.2675
  N  N1305  1  0.243880  0.356970  0.207300  1.0  -0.2824
  N  N1306  1  0.246060  0.326710  0.164700  1.0  -0.2914
  N  N1307  1  0.311360  0.391870  0.192400  1.0  -0.3354
  N  N1308  1  0.210890  0.283100  0.030200  1.0  -0.2221
  N  N1309  1  0.194930  0.255520  0.065720  1.0  -0.286
  N  N1310  1  0.293290  0.326130  0.421320  1.0  -0.2715
  N  N1311  1  0.264780  0.332130  0.376900  1.0  -0.2531
  N  N1312  1  0.425920  0.513490  0.831400  1.0  -0.2675
  N  N1313  1  0.606970  0.006120  0.457300  1.0  -0.2828
  N  N1314  1  0.576710  0.003940  0.414700  1.0  -0.2919
  N  N1315  1  0.641870  0.938640  0.442400  1.0  -0.3362
  N  N1316  1  0.533100  0.039110  0.280200  1.0  -0.2224
  N  N1317  1  0.505520  0.055070  0.315720  1.0  -0.2881
  N  N1318  1  0.576130  0.956710  0.671320  1.0  -0.2702
  N  N1319  1  0.582130  0.985220  0.626900  1.0  -0.254
  N  N1320  1  0.763490  0.824080  0.081400  1.0  -0.2634
  N  N1321  1  0.106970  0.506120  0.957300  1.0  -0.2828
  N  N1322  1  0.076710  0.503940  0.914700  1.0  -0.2919
  N  N1323  1  0.141870  0.438640  0.942400  1.0  -0.3362
  N  N1324  1  0.033100  0.539110  0.780200  1.0  -0.2224
  N  N1325  1  0.005520  0.555070  0.815720  1.0  -0.2881
  N  N1326  1  0.076130  0.456710  0.171320  1.0  -0.2702
  N  N1327  1  0.082130  0.485220  0.126900  1.0  -0.254
  N  N1328  1  0.263490  0.324080  0.581400  1.0  -0.2634
  N  N1329  1  0.893030  0.993880  0.957300  1.0  -0.2838
  N  N1330  1  0.923290  0.996060  0.914700  1.0  -0.2912
  N  N1331  1  0.858130  0.061360  0.942400  1.0  -0.3352
  N  N1332  1  0.966900  0.960890  0.780200  1.0  -0.2231
  N  N1333  1  0.994480  0.944930  0.815720  1.0  -0.2853
  N  N1334  1  0.923870  0.043290  0.171320  1.0  -0.2693
  N  N1335  1  0.917870  0.014780  0.126900  1.0  -0.2531
  N  N1336  1  0.736510  0.175920  0.581400  1.0  -0.2667
  N  N1337  1  0.393030  0.493880  0.457300  1.0  -0.2838
  N  N1338  1  0.423290  0.496060  0.414700  1.0  -0.2912
  N  N1339  1  0.358130  0.561360  0.442400  1.0  -0.3352
  N  N1340  1  0.466900  0.460890  0.280200  1.0  -0.2231
  N  N1341  1  0.494480  0.444930  0.315720  1.0  -0.2853
  N  N1342  1  0.423870  0.543290  0.671320  1.0  -0.2693
  N  N1343  1  0.417870  0.514780  0.626900  1.0  -0.2531
  N  N1344  1  0.236510  0.675920  0.081400  1.0  -0.2667
  N  N1345  1  0.243880  0.856970  0.792700  1.0  -0.2825
  N  N1346  1  0.246060  0.826710  0.835300  1.0  -0.291
  N  N1347  1  0.311360  0.891870  0.807600  1.0  -0.3351
  N  N1348  1  0.210890  0.783100  0.969800  1.0  -0.2222
  N  N1349  1  0.194930  0.755520  0.934280  1.0  -0.2873
  N  N1350  1  0.293290  0.826130  0.578680  1.0  -0.2704
  N  N1351  1  0.264780  0.832130  0.623100  1.0  -0.2533
  N  N1352  1  0.425920  0.013490  0.168600  1.0  -0.2673
  N  N1353  1  0.743880  0.356970  0.292700  1.0  -0.2825
  N  N1354  1  0.746060  0.326710  0.335300  1.0  -0.291
  N  N1355  1  0.811360  0.391870  0.307600  1.0  -0.3351
  N  N1356  1  0.710890  0.283100  0.469800  1.0  -0.2222
  N  N1357  1  0.694930  0.255520  0.434280  1.0  -0.2873
  N  N1358  1  0.793290  0.326130  0.078680  1.0  -0.2704
  N  N1359  1  0.764780  0.332130  0.123100  1.0  -0.2533
  N  N1360  1  0.925920  0.513490  0.668600  1.0  -0.2673
  N  N1361  1  0.256120  0.143030  0.292700  1.0  -0.2822
  N  N1362  1  0.253940  0.173290  0.335300  1.0  -0.2909
  N  N1363  1  0.188640  0.108130  0.307600  1.0  -0.3338
  N  N1364  1  0.289110  0.216900  0.469800  1.0  -0.2232
  N  N1365  1  0.305070  0.244480  0.434280  1.0  -0.2874
  N  N1366  1  0.206710  0.173870  0.078680  1.0  -0.27
  N  N1367  1  0.235220  0.167870  0.123100  1.0  -0.2533
  N  N1368  1  0.074080  0.986510  0.668600  1.0  -0.2682
  N  N1369  1  0.756120  0.643030  0.792700  1.0  -0.2822
  N  N1370  1  0.753940  0.673290  0.835300  1.0  -0.2909
  N  N1371  1  0.688640  0.608130  0.807600  1.0  -0.3338
  N  N1372  1  0.789110  0.716900  0.969800  1.0  -0.2232
  N  N1373  1  0.805070  0.744480  0.934280  1.0  -0.2874
  N  N1374  1  0.706710  0.673870  0.578680  1.0  -0.27
  N  N1375  1  0.735220  0.667870  0.623100  1.0  -0.2533
  N  N1376  1  0.574080  0.486510  0.168600  1.0  -0.2682
  N  N1377  1  0.393030  0.993880  0.542700  1.0  -0.2834
  N  N1378  1  0.423290  0.996060  0.585300  1.0  -0.2911
  N  N1379  1  0.358130  0.061360  0.557600  1.0  -0.3351
  N  N1380  1  0.466900  0.960890  0.719800  1.0  -0.2236
  N  N1381  1  0.494480  0.944930  0.684280  1.0  -0.287
  N  N1382  1  0.423870  0.043290  0.328680  1.0  -0.2684
  N  N1383  1  0.417870  0.014780  0.373100  1.0  -0.2536
  N  N1384  1  0.236510  0.175920  0.918600  1.0  -0.2667
  N  N1385  1  0.893030  0.493880  0.042700  1.0  -0.2834
  N  N1386  1  0.923290  0.496060  0.085300  1.0  -0.2911
  N  N1387  1  0.858130  0.561360  0.057600  1.0  -0.3351
  N  N1388  1  0.966900  0.460890  0.219800  1.0  -0.2236
  N  N1389  1  0.994480  0.444930  0.184280  1.0  -0.287
  N  N1390  1  0.923870  0.543290  0.828680  1.0  -0.2684
  N  N1391  1  0.917870  0.514780  0.873100  1.0  -0.2536
  N  N1392  1  0.736510  0.675920  0.418600  1.0  -0.2667
  N  N1393  1  0.106970  0.006120  0.042700  1.0  -0.2824
  N  N1394  1  0.076710  0.003940  0.085300  1.0  -0.2919
  N  N1395  1  0.141870  0.938640  0.057600  1.0  -0.3356
  N  N1396  1  0.033100  0.039110  0.219800  1.0  -0.2232
  N  N1397  1  0.005520  0.055070  0.184280  1.0  -0.2892
  N  N1398  1  0.076130  0.956710  0.828680  1.0  -0.269
  N  N1399  1  0.082130  0.985220  0.873100  1.0  -0.2543
  N  N1400  1  0.263490  0.824080  0.418600  1.0  -0.2632
  N  N1401  1  0.606970  0.506120  0.542700  1.0  -0.2824
  N  N1402  1  0.576710  0.503940  0.585300  1.0  -0.2919
  N  N1403  1  0.641870  0.438640  0.557600  1.0  -0.3356
  N  N1404  1  0.533100  0.539110  0.719800  1.0  -0.2232
  N  N1405  1  0.505520  0.555070  0.684280  1.0  -0.2892
  N  N1406  1  0.576130  0.456710  0.328680  1.0  -0.269
  N  N1407  1  0.582130  0.485220  0.373100  1.0  -0.2543
  N  N1408  1  0.763490  0.324080  0.918600  1.0  -0.2632
  O  O1409  1  0.740320  0.097970  0.313050  1.0  -0.57
  O  O1410  1  0.803000  0.134080  0.138920  1.0  -0.5797
  O  O1411  1  0.705450  0.176520  0.231010  1.0  -0.5969
  O  O1412  1  0.770280  0.153690  0.008400  1.0  -0.5774
  O  O1413  1  0.775690  0.254080  0.937830  1.0  -0.5994
  O  O1414  1  0.820680  0.204310  0.149070  1.0  -0.5917
  O  O1415  1  0.669350  0.201320  0.532730  1.0  -0.5636
  O  O1416  1  0.682290  0.133810  0.349060  1.0  -0.5798
  O  O1417  1  0.754230  0.211410  0.444910  1.0  -0.5901
  O  O1418  1  0.240320  0.597970  0.813050  1.0  -0.57
  O  O1419  1  0.303000  0.634080  0.638920  1.0  -0.5797
  O  O1420  1  0.205450  0.676520  0.731010  1.0  -0.5969
  O  O1421  1  0.270280  0.653690  0.508400  1.0  -0.5774
  O  O1422  1  0.275690  0.754080  0.437830  1.0  -0.5994
  O  O1423  1  0.320680  0.704310  0.649070  1.0  -0.5917
  O  O1424  1  0.169350  0.701320  0.032730  1.0  -0.5636
  O  O1425  1  0.182290  0.633810  0.849060  1.0  -0.5798
  O  O1426  1  0.254230  0.711410  0.944910  1.0  -0.5901
  O  O1427  1  0.759680  0.902030  0.813050  1.0  -0.5702
  O  O1428  1  0.697000  0.865920  0.638920  1.0  -0.579
  O  O1429  1  0.794550  0.823480  0.731010  1.0  -0.5966
  O  O1430  1  0.729720  0.846310  0.508400  1.0  -0.5775
  O  O1431  1  0.724310  0.745920  0.437830  1.0  -0.6
  O  O1432  1  0.679320  0.795690  0.649070  1.0  -0.5939
  O  O1433  1  0.830650  0.798680  0.032730  1.0  -0.5702
  O  O1434  1  0.817710  0.866190  0.849060  1.0  -0.5791
  O  O1435  1  0.745770  0.788590  0.944910  1.0  -0.5889
  O  O1436  1  0.259680  0.402030  0.313050  1.0  -0.5702
  O  O1437  1  0.197000  0.365920  0.138920  1.0  -0.579
  O  O1438  1  0.294550  0.323480  0.231010  1.0  -0.5966
  O  O1439  1  0.229720  0.346310  0.008400  1.0  -0.5775
  O  O1440  1  0.224310  0.245920  0.937830  1.0  -0.6
  O  O1441  1  0.179320  0.295690  0.149070  1.0  -0.5939
  O  O1442  1  0.330650  0.298680  0.532730  1.0  -0.5702
  O  O1443  1  0.317710  0.366190  0.349060  1.0  -0.5791
  O  O1444  1  0.245770  0.288590  0.444910  1.0  -0.5889
  O  O1445  1  0.652030  0.990320  0.563050  1.0  -0.5719
  O  O1446  1  0.615920  0.053000  0.388920  1.0  -0.5798
  O  O1447  1  0.573480  0.955450  0.481010  1.0  -0.5987
  O  O1448  1  0.596310  0.020280  0.258400  1.0  -0.5781
  O  O1449  1  0.495920  0.025690  0.187830  1.0  -0.599
  O  O1450  1  0.545690  0.070680  0.399070  1.0  -0.591
  O  O1451  1  0.548680  0.919350  0.782730  1.0  -0.568
  O  O1452  1  0.616190  0.932290  0.599060  1.0  -0.5803
  O  O1453  1  0.538590  0.004230  0.694910  1.0  -0.5894
  O  O1454  1  0.152030  0.490320  0.063050  1.0  -0.5719
  O  O1455  1  0.115920  0.553000  0.888920  1.0  -0.5798
  O  O1456  1  0.073480  0.455450  0.981010  1.0  -0.5987
  O  O1457  1  0.096310  0.520280  0.758400  1.0  -0.5781
  O  O1458  1  0.995920  0.525690  0.687830  1.0  -0.599
  O  O1459  1  0.045690  0.570680  0.899070  1.0  -0.591
  O  O1460  1  0.048680  0.419350  0.282730  1.0  -0.568
  O  O1461  1  0.116190  0.432290  0.099060  1.0  -0.5803
  O  O1462  1  0.038590  0.504230  0.194910  1.0  -0.5894
  O  O1463  1  0.847970  0.009680  0.063050  1.0  -0.5716
  O  O1464  1  0.884080  0.947000  0.888920  1.0  -0.581
  O  O1465  1  0.926520  0.044550  0.981010  1.0  -0.599
  O  O1466  1  0.903690  0.979720  0.758400  1.0  -0.5788
  O  O1467  1  0.004080  0.974310  0.687830  1.0  -0.5989
  O  O1468  1  0.954310  0.929320  0.899070  1.0  -0.5935
  O  O1469  1  0.951320  0.080650  0.282730  1.0  -0.5662
  O  O1470  1  0.883810  0.067710  0.099060  1.0  -0.5803
  O  O1471  1  0.961410  0.995770  0.194910  1.0  -0.5893
  O  O1472  1  0.347970  0.509680  0.563050  1.0  -0.5716
  O  O1473  1  0.384080  0.447000  0.388920  1.0  -0.581
  O  O1474  1  0.426520  0.544550  0.481010  1.0  -0.599
  O  O1475  1  0.403690  0.479720  0.258400  1.0  -0.5788
  O  O1476  1  0.504080  0.474310  0.187830  1.0  -0.5989
  O  O1477  1  0.454310  0.429320  0.399070  1.0  -0.5935
  O  O1478  1  0.451320  0.580650  0.782730  1.0  -0.5662
  O  O1479  1  0.383810  0.567710  0.599060  1.0  -0.5803
  O  O1480  1  0.461410  0.495770  0.694910  1.0  -0.5893
  O  O1481  1  0.259680  0.902030  0.686950  1.0  -0.5689
  O  O1482  1  0.197000  0.865920  0.861080  1.0  -0.5787
  O  O1483  1  0.294550  0.823480  0.768990  1.0  -0.5968
  O  O1484  1  0.229720  0.846310  0.991600  1.0  -0.5774
  O  O1485  1  0.224310  0.745920  0.062170  1.0  -0.5995
  O  O1486  1  0.179320  0.795690  0.850930  1.0  -0.5946
  O  O1487  1  0.330650  0.798680  0.467270  1.0  -0.5696
  O  O1488  1  0.317710  0.866190  0.650940  1.0  -0.5805
  O  O1489  1  0.245770  0.788590  0.555090  1.0  -0.5894
  O  O1490  1  0.759680  0.402030  0.186950  1.0  -0.5689
  O  O1491  1  0.697000  0.365920  0.361080  1.0  -0.5787
  O  O1492  1  0.794550  0.323480  0.268990  1.0  -0.5968
  O  O1493  1  0.729720  0.346310  0.491600  1.0  -0.5774
  O  O1494  1  0.724310  0.245920  0.562170  1.0  -0.5995
  O  O1495  1  0.679320  0.295690  0.350930  1.0  -0.5946
  O  O1496  1  0.830650  0.298680  0.967270  1.0  -0.5696
  O  O1497  1  0.817710  0.366190  0.150940  1.0  -0.5805
  O  O1498  1  0.745770  0.288590  0.055090  1.0  -0.5894
  O  O1499  1  0.240320  0.097970  0.186950  1.0  -0.5694
  O  O1500  1  0.303000  0.134080  0.361080  1.0  -0.5791
  O  O1501  1  0.205450  0.176520  0.268990  1.0  -0.5966
  O  O1502  1  0.270280  0.153690  0.491600  1.0  -0.5776
  O  O1503  1  0.275690  0.254080  0.562170  1.0  -0.5983
  O  O1504  1  0.320680  0.204310  0.350930  1.0  -0.5916
  O  O1505  1  0.169350  0.201320  0.967270  1.0  -0.5668
  O  O1506  1  0.182290  0.133810  0.150940  1.0  -0.5807
  O  O1507  1  0.254230  0.211410  0.055090  1.0  -0.5897
  O  O1508  1  0.740320  0.597970  0.686950  1.0  -0.5694
  O  O1509  1  0.803000  0.634080  0.861080  1.0  -0.5791
  O  O1510  1  0.705450  0.676520  0.768990  1.0  -0.5966
  O  O1511  1  0.770280  0.653690  0.991600  1.0  -0.5776
  O  O1512  1  0.775690  0.754080  0.062170  1.0  -0.5983
  O  O1513  1  0.820680  0.704310  0.850930  1.0  -0.5916
  O  O1514  1  0.669350  0.701320  0.467270  1.0  -0.5668
  O  O1515  1  0.682290  0.633810  0.650940  1.0  -0.5807
  O  O1516  1  0.754230  0.711410  0.555090  1.0  -0.5897
  O  O1517  1  0.347970  0.009680  0.436950  1.0  -0.571
  O  O1518  1  0.384080  0.947000  0.611080  1.0  -0.581
  O  O1519  1  0.426520  0.044550  0.518990  1.0  -0.5992
  O  O1520  1  0.403690  0.979720  0.741600  1.0  -0.5791
  O  O1521  1  0.504080  0.974310  0.812170  1.0  -0.5979
  O  O1522  1  0.454310  0.929320  0.600930  1.0  -0.5931
  O  O1523  1  0.451320  0.080650  0.217270  1.0  -0.5677
  O  O1524  1  0.383810  0.067710  0.400940  1.0  -0.5817
  O  O1525  1  0.461410  0.995770  0.305090  1.0  -0.5893
  O  O1526  1  0.847970  0.509680  0.936950  1.0  -0.571
  O  O1527  1  0.884080  0.447000  0.111080  1.0  -0.581
  O  O1528  1  0.926520  0.544550  0.018990  1.0  -0.5992
  O  O1529  1  0.903690  0.479720  0.241600  1.0  -0.5791
  O  O1530  1  0.004080  0.474310  0.312170  1.0  -0.5979
  O  O1531  1  0.954310  0.429320  0.100930  1.0  -0.5931
  O  O1532  1  0.951320  0.580650  0.717270  1.0  -0.5677
  O  O1533  1  0.883810  0.567710  0.900940  1.0  -0.5817
  O  O1534  1  0.961410  0.495770  0.805090  1.0  -0.5893
  O  O1535  1  0.152030  0.990320  0.936950  1.0  -0.5706
  O  O1536  1  0.115920  0.053000  0.111080  1.0  -0.5794
  O  O1537  1  0.073480  0.955450  0.018990  1.0  -0.598
  O  O1538  1  0.096310  0.020280  0.241600  1.0  -0.5779
  O  O1539  1  0.995920  0.025690  0.312170  1.0  -0.5984
  O  O1540  1  0.045690  0.070680  0.100930  1.0  -0.5913
  O  O1541  1  0.048680  0.919350  0.717270  1.0  -0.5681
  O  O1542  1  0.116190  0.932290  0.900940  1.0  -0.5816
  O  O1543  1  0.038590  0.004230  0.805090  1.0  -0.5894
  O  O1544  1  0.652030  0.490320  0.436950  1.0  -0.5706
  O  O1545  1  0.615920  0.553000  0.611080  1.0  -0.5794
  O  O1546  1  0.573480  0.455450  0.518990  1.0  -0.598
  O  O1547  1  0.596310  0.520280  0.741600  1.0  -0.5779
  O  O1548  1  0.495920  0.525690  0.812170  1.0  -0.5984
  O  O1549  1  0.545690  0.570680  0.600930  1.0  -0.5913
  O  O1550  1  0.548680  0.419350  0.217270  1.0  -0.5681
  O  O1551  1  0.616190  0.432290  0.400940  1.0  -0.5816
  O  O1552  1  0.538590  0.504230  0.305090  1.0  -0.5894
