# generated using pymatgen
data_Mn3H36C41N8O9
_symmetry_space_group_name_H-M   'P 1'
_cell_length_a   17.58800000
_cell_length_b   29.83600000
_cell_length_c   29.83600000
_cell_angle_alpha   85.01610000
_cell_angle_beta   72.85770000
_cell_angle_gamma   72.85770000
_symmetry_Int_Tables_number   1
_chemical_formula_structural   Mn3H36C41N8O9
_chemical_formula_sum   'Mn24 H288 C328 N64 O72'
_cell_volume   14296.43726579
_cell_formula_units_Z   8
loop_
 _symmetry_equiv_pos_site_id
 _symmetry_equiv_pos_as_xyz
  1  'x, y, z'
loop_
 _atom_site_type_symbol
 _atom_site_label
 _atom_site_symmetry_multiplicity
 _atom_site_fract_x
 _atom_site_fract_y
 _atom_site_fract_z
 _atom_site_occupancy
 _atom_site_charge
  Mn  Mn1  1  0.915560  0.085640  0.643500  1.0  0.9425
  Mn  Mn2  1  0.757430  0.121610  0.529510  1.0  1.0049
  Mn  Mn3  1  0.204610  0.002540  0.577300  1.0  0.9734
  Mn  Mn4  1  0.144700  0.414360  0.856510  1.0  0.9396
  Mn  Mn5  1  0.908550  0.378390  0.970490  1.0  1.0034
  Mn  Mn6  1  0.284450  0.497460  0.922700  1.0  0.9733
  Mn  Mn7  1  0.559050  0.356510  0.585640  1.0  0.9397
  Mn  Mn8  1  0.286940  0.470490  0.621610  1.0  1.0056
  Mn  Mn9  1  0.781910  0.422700  0.502540  1.0  0.9757
  Mn  Mn10  1  0.001200  0.143490  0.914370  1.0  0.94
  Mn  Mn11  1  0.879040  0.029510  0.878390  1.0  1.0064
  Mn  Mn12  1  0.207150  0.077300  0.997460  1.0  0.9726
  Mn  Mn13  1  0.084440  0.914360  0.356500  1.0  0.9436
  Mn  Mn14  1  0.242570  0.878390  0.470490  1.0  1.0014
  Mn  Mn15  1  0.795390  0.997460  0.422700  1.0  0.9736
  Mn  Mn16  1  0.855300  0.585640  0.143490  1.0  0.9425
  Mn  Mn17  1  0.091450  0.621610  0.029510  1.0  1.0041
  Mn  Mn18  1  0.715550  0.502540  0.077300  1.0  0.9734
  Mn  Mn19  1  0.440940  0.643490  0.414370  1.0  0.9393
  Mn  Mn20  1  0.713050  0.529520  0.378390  1.0  1.003
  Mn  Mn21  1  0.218090  0.577300  0.497460  1.0  0.9731
  Mn  Mn22  1  0.998790  0.856510  0.085640  1.0  0.9395
  Mn  Mn23  1  0.120970  0.970480  0.121610  1.0  1.0015
  Mn  Mn24  1  0.792850  0.922700  0.002540  1.0  0.977
  H  H25  1  0.898800  0.218600  0.699000  1.0  0.0989
  H  H26  1  0.821200  0.292900  0.690100  1.0  0.1062
  H  H27  1  0.739600  0.308800  0.636800  1.0  0.1189
  H  H28  1  0.738500  0.247600  0.596600  1.0  0.079
  H  H29  1  0.849900  0.010400  0.532400  1.0  0.1724
  H  H30  1  0.919800  0.975400  0.553400  1.0  0.1822
  H  H31  1  0.846300  0.086800  0.754400  1.0  0.0748
  H  H32  1  0.736800  0.076500  0.815300  1.0  0.1118
  H  H33  1  0.622200  0.066300  0.719500  1.0  0.1008
  H  H34  1  0.733100  0.077900  0.661900  1.0  0.0733
  H  H35  1  0.612800  0.053600  0.842200  1.0  0.074
  H  H36  1  0.580800  0.032800  0.806000  1.0  0.0623
  H  H37  1  0.548700  0.111600  0.649200  1.0  0.1298
  H  H38  1  0.448000  0.074000  0.656200  1.0  0.0951
  H  H39  1  0.454000  0.026500  0.597900  1.0  0.12
  H  H40  1  0.566500  0.015800  0.529000  1.0  0.1019
  H  H41  1  0.974600  0.046700  0.405700  1.0  0.1037
  H  H42  1  0.913600  0.073000  0.375000  1.0  0.1149
  H  H43  1  0.994900  0.119600  0.417400  1.0  0.1167
  H  H44  1  0.024300  0.106200  0.363000  1.0  0.1035
  H  H45  1  0.937400  0.144300  0.384300  1.0  0.1118
  H  H46  1  0.289000  0.922000  0.691400  1.0  0.1078
  H  H47  1  0.227000  0.920400  0.770800  1.0  0.1097
  H  H48  1  0.088500  0.964900  0.801500  1.0  0.0991
  H  H49  1  0.016800  0.011400  0.751400  1.0  0.0918
  H  H50  1  0.023700  0.090200  0.501800  1.0  0.108
  H  H51  1  0.996600  0.128800  0.541600  1.0  0.1143
  H  H52  1  0.117000  0.150600  0.507800  1.0  0.1165
  H  H53  1  0.065200  0.155000  0.470800  1.0  0.1062
  H  H54  1  0.145600  0.111400  0.468200  1.0  0.1273
  H  H55  1  0.286600  0.149400  0.931000  1.0  0.0508
  H  H56  1  0.392200  0.159400  0.870200  1.0  0.1156
  H  H57  1  0.478000  0.018700  0.863500  1.0  0.1252
  H  H58  1  0.370600  0.016700  0.931700  1.0  0.0844
  H  H59  1  0.504400  0.105200  0.793000  1.0  0.1012
  H  H60  1  0.538500  0.127200  0.827400  1.0  0.0857
  H  H61  1  0.316400  0.281400  0.801000  1.0  0.0989
  H  H62  1  0.304200  0.207100  0.809900  1.0  0.1051
  H  H63  1  0.185200  0.191200  0.863200  1.0  0.1198
  H  H64  1  0.082700  0.252400  0.903400  1.0  0.0778
  H  H65  1  0.892700  0.489600  0.967600  1.0  0.1716
  H  H66  1  0.948600  0.524600  0.946600  1.0  0.1779
  H  H67  1  0.187500  0.413200  0.745600  1.0  0.0748
  H  H68  1  0.128600  0.423500  0.684700  1.0  0.112
  H  H69  1  0.908000  0.433700  0.780500  1.0  0.1013
  H  H70  1  0.972900  0.422100  0.838100  1.0  0.0705
  H  H71  1  0.008600  0.446400  0.657800  1.0  0.0742
  H  H72  1  0.919600  0.467200  0.694000  1.0  0.065
  H  H73  1  0.809500  0.388400  0.850800  1.0  0.1292
  H  H74  1  0.678200  0.426000  0.843800  1.0  0.0949
  H  H75  1  0.578400  0.473500  0.902100  1.0  0.1207
  H  H76  1  0.611300  0.484200  0.971000  1.0  0.1016
  H  H77  1  0.927000  0.453300  0.094300  1.0  0.104
  H  H78  1  0.861600  0.427000  0.125000  1.0  0.1144
  H  H79  1  0.031900  0.380400  0.082600  1.0  0.1151
  H  H80  1  0.993500  0.393800  0.137000  1.0  0.1088
  H  H81  1  0.966000  0.355700  0.115700  1.0  0.1115
  H  H82  1  0.402400  0.578000  0.808600  1.0  0.1063
  H  H83  1  0.418200  0.579600  0.729200  1.0  0.1098
  H  H84  1  0.354900  0.535100  0.698500  1.0  0.1005
  H  H85  1  0.279600  0.488600  0.748600  1.0  0.0914
  H  H86  1  0.115700  0.409800  0.998200  1.0  0.1092
  H  H87  1  0.167000  0.371200  0.958400  1.0  0.1125
  H  H88  1  0.275400  0.349400  0.992200  1.0  0.1137
  H  H89  1  0.191000  0.345000  0.029200  1.0  0.1069
  H  H90  1  0.225200  0.388600  0.031800  1.0  0.1276
  H  H91  1  0.867000  0.350600  0.569000  1.0  0.0506
  H  H92  1  0.921800  0.340600  0.629800  1.0  0.1166
  H  H93  1  0.860200  0.481300  0.636500  1.0  0.1236
  H  H94  1  0.819000  0.483300  0.568300  1.0  0.084
  H  H95  1  0.902600  0.394800  0.707000  1.0  0.0957
  H  H96  1  0.993100  0.372800  0.672600  1.0  0.0865
  H  H97  1  0.597800  0.301000  0.718600  1.0  0.0984
  H  H98  1  0.511300  0.309900  0.792900  1.0  0.1063
  H  H99  1  0.376400  0.363200  0.808800  1.0  0.1179
  H  H100  1  0.335100  0.403400  0.747600  1.0  0.0777
  H  H101  1  0.382300  0.467600  0.510400  1.0  0.1723
  H  H102  1  0.473200  0.446600  0.475400  1.0  0.1782
  H  H103  1  0.600700  0.245600  0.586800  1.0  0.0751
  H  H104  1  0.552100  0.184700  0.576500  1.0  0.1124
  H  H105  1  0.341700  0.280500  0.566300  1.0  0.1009
  H  H106  1  0.395000  0.338100  0.577900  1.0  0.0709
  H  H107  1  0.455000  0.157800  0.553600  1.0  0.0751
  H  H108  1  0.386800  0.194000  0.532800  1.0  0.0699
  H  H109  1  0.197900  0.350800  0.611600  1.0  0.1288
  H  H110  1  0.104200  0.343800  0.574000  1.0  0.0952
  H  H111  1  0.051900  0.402100  0.526500  1.0  0.119
  H  H112  1  0.095500  0.471000  0.515800  1.0  0.1029
  H  H113  1  0.380300  0.594300  0.546700  1.0  0.1025
  H  H114  1  0.288600  0.625000  0.573000  1.0  0.1171
  H  H115  1  0.412300  0.582600  0.619600  1.0  0.1144
  H  H116  1  0.387300  0.637000  0.606200  1.0  0.1087
  H  H117  1  0.321700  0.615700  0.644300  1.0  0.111
  H  H118  1  0.980400  0.308600  0.422000  1.0  0.107
  H  H119  1  0.997800  0.229200  0.420400  1.0  0.1108
  H  H120  1  0.890000  0.198500  0.464900  1.0  0.101
  H  H121  1  0.768200  0.248600  0.511400  1.0  0.0921
  H  H122  1  0.525500  0.498200  0.590200  1.0  0.1067
  H  H123  1  0.538200  0.458400  0.628800  1.0  0.1136
  H  H124  1  0.624800  0.492200  0.650600  1.0  0.1179
  H  H125  1  0.536000  0.529200  0.655000  1.0  0.1068
  H  H126  1  0.613800  0.531800  0.611400  1.0  0.1271
  H  H127  1  0.217600  0.069000  0.649400  1.0  0.0512
  H  H128  1  0.262400  0.129800  0.659400  1.0  0.1153
  H  H129  1  0.341500  0.136500  0.518700  1.0  0.1264
  H  H130  1  0.302300  0.068300  0.516700  1.0  0.0845
  H  H131  1  0.297400  0.207000  0.605200  1.0  0.0953
  H  H132  1  0.365900  0.172600  0.627200  1.0  0.0914
  H  H133  1  0.117400  0.199000  0.781400  1.0  0.0988
  H  H134  1  0.114100  0.190100  0.707100  1.0  0.1056
  H  H135  1  0.048400  0.136800  0.691200  1.0  0.1161
  H  H136  1  0.986100  0.096600  0.752400  1.0  0.0784
  H  H137  1  0.860300  0.032400  0.989600  1.0  0.1732
  H  H138  1  0.895200  0.053400  0.024600  1.0  0.1775
  H  H139  1  0.933100  0.254400  0.913200  1.0  0.0751
  H  H140  1  0.813300  0.315300  0.923500  1.0  0.1125
  H  H141  1  0.688500  0.219500  0.933700  1.0  0.1019
  H  H142  1  0.811000  0.161900  0.922100  1.0  0.0712
  H  H143  1  0.666400  0.342200  0.946400  1.0  0.0724
  H  H144  1  0.613600  0.306000  0.967200  1.0  0.0689
  H  H145  1  0.660300  0.149200  0.888400  1.0  0.13
  H  H146  1  0.522000  0.156200  0.926000  1.0  0.0963
  H  H147  1  0.480500  0.097900  0.973500  1.0  0.1207
  H  H148  1  0.582300  0.029000  0.984200  1.0  0.102
  H  H149  1  0.021300  0.905700  0.953300  1.0  0.1024
  H  H150  1  0.986600  0.875000  0.927000  1.0  0.117
  H  H151  1  0.114500  0.917400  0.880400  1.0  0.1176
  H  H152  1  0.130500  0.863000  0.893800  1.0  0.1067
  H  H153  1  0.081700  0.884300  0.855700  1.0  0.1114
  H  H154  1  0.211000  0.191400  0.078000  1.0  0.1058
  H  H155  1  0.147400  0.270800  0.079600  1.0  0.1112
  H  H156  1  0.053400  0.301500  0.035100  1.0  0.1009
  H  H157  1  0.028200  0.251400  0.988600  1.0  0.0917
  H  H158  1  0.113900  0.001800  0.909800  1.0  0.1099
  H  H159  1  0.125400  0.041600  0.871200  1.0  0.1127
  H  H160  1  0.267600  0.007800  0.849400  1.0  0.1172
  H  H161  1  0.220200  0.970800  0.845000  1.0  0.106
  H  H162  1  0.257000  0.968200  0.888600  1.0  0.1277
  H  H163  1  0.436000  0.431000  0.850600  1.0  0.0512
  H  H164  1  0.551600  0.370200  0.840600  1.0  0.1156
  H  H165  1  0.496700  0.363500  0.981300  1.0  0.1258
  H  H166  1  0.387300  0.431700  0.983300  1.0  0.0847
  H  H167  1  0.609600  0.293000  0.894800  1.0  0.0949
  H  H168  1  0.665700  0.327400  0.872800  1.0  0.0895
  H  H169  1  0.101200  0.781400  0.301000  1.0  0.0987
  H  H170  1  0.178800  0.707100  0.309900  1.0  0.105
  H  H171  1  0.260400  0.691200  0.363200  1.0  0.1189
  H  H172  1  0.261500  0.752400  0.403400  1.0  0.0791
  H  H173  1  0.150100  0.989600  0.467600  1.0  0.1719
  H  H174  1  0.080200  0.024600  0.446600  1.0  0.179
  H  H175  1  0.153700  0.913200  0.245600  1.0  0.0746
  H  H176  1  0.263200  0.923500  0.184700  1.0  0.1122
  H  H177  1  0.377800  0.933700  0.280500  1.0  0.101
  H  H178  1  0.266900  0.922100  0.338100  1.0  0.0725
  H  H179  1  0.387200  0.946400  0.157800  1.0  0.074
  H  H180  1  0.419200  0.967200  0.194000  1.0  0.0642
  H  H181  1  0.451300  0.888400  0.350800  1.0  0.1293
  H  H182  1  0.552000  0.926000  0.343800  1.0  0.094
  H  H183  1  0.546000  0.973500  0.402100  1.0  0.1199
  H  H184  1  0.433500  0.984200  0.471000  1.0  0.1023
  H  H185  1  0.025400  0.953300  0.594300  1.0  0.1048
  H  H186  1  0.086400  0.927000  0.625000  1.0  0.1147
  H  H187  1  0.005100  0.880400  0.582600  1.0  0.1178
  H  H188  1  0.975700  0.893800  0.637000  1.0  0.104
  H  H189  1  0.062600  0.855700  0.615700  1.0  0.1107
  H  H190  1  0.711000  0.078000  0.308600  1.0  0.1067
  H  H191  1  0.773000  0.079600  0.229200  1.0  0.1106
  H  H192  1  0.911500  0.035100  0.198500  1.0  0.1007
  H  H193  1  0.983200  0.988600  0.248600  1.0  0.0926
  H  H194  1  0.976300  0.909800  0.498200  1.0  0.1073
  H  H195  1  0.003400  0.871200  0.458400  1.0  0.1148
  H  H196  1  0.883000  0.849400  0.492200  1.0  0.1163
  H  H197  1  0.934800  0.845000  0.529200  1.0  0.1074
  H  H198  1  0.854400  0.888600  0.531800  1.0  0.1268
  H  H199  1  0.713400  0.850600  0.069000  1.0  0.0497
  H  H200  1  0.607800  0.840600  0.129800  1.0  0.1162
  H  H201  1  0.522000  0.981300  0.136500  1.0  0.1251
  H  H202  1  0.629400  0.983300  0.068300  1.0  0.0848
  H  H203  1  0.495600  0.894800  0.207000  1.0  0.0989
  H  H204  1  0.461500  0.872800  0.172600  1.0  0.0852
  H  H205  1  0.683600  0.718600  0.199000  1.0  0.0989
  H  H206  1  0.695800  0.792900  0.190100  1.0  0.1056
  H  H207  1  0.814800  0.808800  0.136800  1.0  0.1189
  H  H208  1  0.917300  0.747600  0.096600  1.0  0.0778
  H  H209  1  0.107300  0.510400  0.032400  1.0  0.1722
  H  H210  1  0.051400  0.475400  0.053400  1.0  0.1787
  H  H211  1  0.812500  0.586800  0.254400  1.0  0.0751
  H  H212  1  0.871400  0.576500  0.315300  1.0  0.112
  H  H213  1  0.092000  0.566300  0.219500  1.0  0.1023
  H  H214  1  0.027100  0.577900  0.161900  1.0  0.0712
  H  H215  1  0.991400  0.553600  0.342200  1.0  0.0738
  H  H216  1  0.080400  0.532800  0.306000  1.0  0.0636
  H  H217  1  0.190500  0.611600  0.149200  1.0  0.1297
  H  H218  1  0.321800  0.574000  0.156200  1.0  0.0943
  H  H219  1  0.421600  0.526500  0.097900  1.0  0.1205
  H  H220  1  0.388700  0.515800  0.029000  1.0  0.1018
  H  H221  1  0.073000  0.546700  0.905700  1.0  0.1032
  H  H222  1  0.138400  0.573000  0.875000  1.0  0.1146
  H  H223  1  0.968100  0.619600  0.917400  1.0  0.1119
  H  H224  1  0.006500  0.606200  0.863000  1.0  0.1082
  H  H225  1  0.034000  0.644300  0.884300  1.0  0.1119
  H  H226  1  0.597600  0.422000  0.191400  1.0  0.1055
  H  H227  1  0.581800  0.420400  0.270800  1.0  0.1108
  H  H228  1  0.645100  0.464900  0.301500  1.0  0.0998
  H  H229  1  0.720400  0.511400  0.251400  1.0  0.0914
  H  H230  1  0.884300  0.590200  0.001800  1.0  0.1097
  H  H231  1  0.833000  0.628800  0.041600  1.0  0.1123
  H  H232  1  0.724600  0.650600  0.007800  1.0  0.114
  H  H233  1  0.809000  0.655000  0.970800  1.0  0.1051
  H  H234  1  0.774800  0.611400  0.968200  1.0  0.1266
  H  H235  1  0.133000  0.649400  0.431000  1.0  0.0504
  H  H236  1  0.078200  0.659400  0.370200  1.0  0.1153
  H  H237  1  0.139800  0.518700  0.363500  1.0  0.1235
  H  H238  1  0.181000  0.516700  0.431700  1.0  0.0841
  H  H239  1  0.097400  0.605200  0.293000  1.0  0.0934
  H  H240  1  0.006900  0.627200  0.327400  1.0  0.0886
  H  H241  1  0.402200  0.699000  0.281400  1.0  0.0993
  H  H242  1  0.488700  0.690100  0.207100  1.0  0.1069
  H  H243  1  0.623600  0.636800  0.191200  1.0  0.1168
  H  H244  1  0.664900  0.596600  0.252400  1.0  0.078
  H  H245  1  0.617700  0.532400  0.489600  1.0  0.1733
  H  H246  1  0.526800  0.553400  0.524600  1.0  0.177
  H  H247  1  0.399300  0.754400  0.413200  1.0  0.075
  H  H248  1  0.447900  0.815300  0.423500  1.0  0.1124
  H  H249  1  0.658300  0.719500  0.433700  1.0  0.1009
  H  H250  1  0.605000  0.661900  0.422100  1.0  0.0713
  H  H251  1  0.545000  0.842200  0.446400  1.0  0.0744
  H  H252  1  0.613200  0.806000  0.467200  1.0  0.0696
  H  H253  1  0.802100  0.649200  0.388400  1.0  0.1297
  H  H254  1  0.895800  0.656200  0.426000  1.0  0.0956
  H  H255  1  0.948100  0.597900  0.473500  1.0  0.1196
  H  H256  1  0.904500  0.529000  0.484200  1.0  0.1032
  H  H257  1  0.619700  0.405700  0.453300  1.0  0.1016
  H  H258  1  0.711400  0.375000  0.427000  1.0  0.117
  H  H259  1  0.587700  0.417400  0.380400  1.0  0.1163
  H  H260  1  0.612700  0.363000  0.393800  1.0  0.1061
  H  H261  1  0.678300  0.384300  0.355700  1.0  0.1088
  H  H262  1  0.019600  0.691400  0.578000  1.0  0.107
  H  H263  1  0.002200  0.770800  0.579600  1.0  0.1119
  H  H264  1  0.110000  0.801500  0.535100  1.0  0.1006
  H  H265  1  0.231800  0.751400  0.488600  1.0  0.092
  H  H266  1  0.474500  0.501800  0.409800  1.0  0.1071
  H  H267  1  0.461800  0.541600  0.371200  1.0  0.1144
  H  H268  1  0.375200  0.507800  0.349400  1.0  0.1181
  H  H269  1  0.464000  0.470800  0.345000  1.0  0.1062
  H  H270  1  0.386200  0.468200  0.388600  1.0  0.1247
  H  H271  1  0.782400  0.931000  0.350600  1.0  0.0513
  H  H272  1  0.737600  0.870200  0.340600  1.0  0.1152
  H  H273  1  0.658500  0.863500  0.481300  1.0  0.1259
  H  H274  1  0.697700  0.931700  0.483300  1.0  0.0842
  H  H275  1  0.702600  0.793000  0.394800  1.0  0.0954
  H  H276  1  0.634100  0.827400  0.372800  1.0  0.0908
  H  H277  1  0.882600  0.801000  0.218600  1.0  0.0983
  H  H278  1  0.885900  0.809900  0.292900  1.0  0.1055
  H  H279  1  0.951600  0.863200  0.308800  1.0  0.117
  H  H280  1  0.013900  0.903400  0.247600  1.0  0.0781
  H  H281  1  0.139700  0.967600  0.010400  1.0  0.1726
  H  H282  1  0.104800  0.946600  0.975400  1.0  0.1769
  H  H283  1  0.066900  0.745600  0.086800  1.0  0.0749
  H  H284  1  0.186700  0.684700  0.076500  1.0  0.1125
  H  H285  1  0.311500  0.780500  0.066300  1.0  0.1023
  H  H286  1  0.189000  0.838100  0.077900  1.0  0.071
  H  H287  1  0.333600  0.657800  0.053600  1.0  0.0737
  H  H288  1  0.386400  0.694000  0.032800  1.0  0.0692
  H  H289  1  0.339700  0.850800  0.111600  1.0  0.1301
  H  H290  1  0.478000  0.843800  0.074000  1.0  0.0955
  H  H291  1  0.519500  0.902100  0.026500  1.0  0.1204
  H  H292  1  0.417700  0.971000  0.015800  1.0  0.1018
  H  H293  1  0.978700  0.094300  0.046700  1.0  0.1041
  H  H294  1  0.013400  0.125000  0.073000  1.0  0.1164
  H  H295  1  0.885500  0.082600  0.119600  1.0  0.116
  H  H296  1  0.869500  0.137000  0.106200  1.0  0.1081
  H  H297  1  0.918300  0.115700  0.144300  1.0  0.1134
  H  H298  1  0.789000  0.808600  0.922000  1.0  0.1052
  H  H299  1  0.852600  0.729200  0.920400  1.0  0.1101
  H  H300  1  0.946600  0.698500  0.964900  1.0  0.1009
  H  H301  1  0.971800  0.748600  0.011400  1.0  0.0925
  H  H302  1  0.886100  0.998200  0.090200  1.0  0.108
  H  H303  1  0.874600  0.958400  0.128800  1.0  0.1132
  H  H304  1  0.732400  0.992200  0.150600  1.0  0.1162
  H  H305  1  0.779800  0.029200  0.155000  1.0  0.1067
  H  H306  1  0.743000  0.031800  0.111400  1.0  0.1273
  H  H307  1  0.564000  0.569000  0.149400  1.0  0.05
  H  H308  1  0.448400  0.629800  0.159400  1.0  0.116
  H  H309  1  0.503300  0.636500  0.018700  1.0  0.1261
  H  H310  1  0.612700  0.568300  0.016700  1.0  0.0849
  H  H311  1  0.390400  0.707000  0.105200  1.0  0.0923
  H  H312  1  0.334300  0.672600  0.127200  1.0  0.0913
  C  C313  1  0.866700  0.186360  0.653440  1.0  0.276
  C  C314  1  0.866010  0.224000  0.677780  1.0  -0.1762
  C  C315  1  0.820280  0.268130  0.672510  1.0  -0.1076
  C  C316  1  0.771500  0.277840  0.641160  1.0  -0.1512
  C  C317  1  0.771840  0.241350  0.617570  1.0  -0.0536
  C  C318  1  0.817470  0.195170  0.621690  1.0  -0.1178
  C  C319  1  0.814030  0.159000  0.593940  1.0  0.5887
  C  C320  1  0.872170  0.039590  0.584870  1.0  0.5874
  C  C321  1  0.866000  0.999880  0.561520  1.0  0.0232
  C  C322  1  0.799590  0.082510  0.747310  1.0  0.1749
  C  C323  1  0.735190  0.075880  0.783740  1.0  -0.2142
  C  C324  1  0.666240  0.068100  0.773820  1.0  0.1179
  C  C325  1  0.668040  0.070050  0.727870  1.0  -0.1874
  C  C326  1  0.734230  0.077210  0.693530  1.0  0.1703
  C  C327  1  0.595000  0.060540  0.813260  1.0  -0.1555
  C  C328  1  0.613970  0.090070  0.581190  1.0  0.2771
  C  C329  1  0.550760  0.093510  0.623970  1.0  -0.2199
  C  C330  1  0.492500  0.070200  0.628200  1.0  -0.1127
  C  C331  1  0.495600  0.041900  0.594100  1.0  -0.1558
  C  C332  1  0.562610  0.036090  0.552890  1.0  -0.0733
  C  C333  1  0.622160  0.059160  0.546320  1.0  -0.1276
  C  C334  1  0.688810  0.050710  0.502670  1.0  0.5338
  C  C335  1  0.861630  0.085510  0.445430  1.0  0.4701
  C  C336  1  0.933550  0.076600  0.401900  1.0  -0.3177
  C  C337  1  0.976300  0.115100  0.390700  1.0  -0.3353
  C  C338  1  0.193820  0.969340  0.672220  1.0  0.3017
  C  C339  1  0.233680  0.941040  0.703600  1.0  -0.1729
  C  C340  1  0.197030  0.939360  0.750780  1.0  -0.1076
  C  C341  1  0.115420  0.965750  0.768810  1.0  -0.1087
  C  C342  1  0.072790  0.993740  0.738680  1.0  -0.0838
  C  C343  1  0.109250  0.996320  0.691580  1.0  -0.1464
  C  C344  1  0.062190  0.027770  0.663050  1.0  0.5791
  C  C345  1  0.082800  0.069990  0.552010  1.0  0.5735
  C  C346  1  0.045070  0.106030  0.521230  1.0  -0.2304
  C  C347  1  0.097700  0.133090  0.489310  1.0  -0.3302
  C  C348  1  0.329900  0.121800  0.919000  1.0  0.173
  C  C349  1  0.392400  0.128700  0.881900  1.0  -0.2279
  C  C350  1  0.452200  0.092600  0.863000  1.0  0.0889
  C  C351  1  0.441800  0.046800  0.879200  1.0  -0.2291
  C  C352  1  0.376200  0.046200  0.918800  1.0  0.159
  C  C353  1  0.523500  0.099200  0.821600  1.0  -0.2008
  C  C354  1  0.206500  0.313640  0.846560  1.0  0.2762
  C  C355  1  0.267790  0.276000  0.822220  1.0  -0.1733
  C  C356  1  0.260920  0.231870  0.827490  1.0  -0.1099
  C  C357  1  0.190500  0.222160  0.858840  1.0  -0.1496
  C  C358  1  0.130760  0.258650  0.882430  1.0  -0.0551
  C  C359  1  0.134330  0.304830  0.878310  1.0  -0.1188
  C  C360  1  0.066970  0.341000  0.906060  1.0  0.5886
  C  C361  1  0.996630  0.460410  0.915130  1.0  0.5885
  C  C362  1  0.927400  0.500120  0.938480  1.0  0.0215
  C  C363  1  0.129410  0.417490  0.752690  1.0  0.1766
  C  C364  1  0.094810  0.424120  0.716260  1.0  -0.2161
  C  C365  1  0.008160  0.431900  0.726180  1.0  0.1185
  C  C366  1  0.965960  0.429950  0.772130  1.0  -0.1877
  C  C367  1  0.004970  0.422790  0.806470  1.0  0.1731
  C  C368  1  0.968800  0.439460  0.686740  1.0  -0.1546
  C  C369  1  0.785230  0.409930  0.918810  1.0  0.278
  C  C370  1  0.768240  0.406490  0.876030  1.0  -0.2257
  C  C371  1  0.690900  0.429800  0.871800  1.0  -0.11
  C  C372  1  0.631600  0.458100  0.905900  1.0  -0.1567
  C  C373  1  0.651590  0.463910  0.947110  1.0  -0.0706
  C  C374  1  0.727640  0.440840  0.953680  1.0  -0.1301
  C  C375  1  0.742190  0.449290  0.997330  1.0  0.5343
  C  C376  1  0.892570  0.414490  0.054570  1.0  0.4726
  C  C377  1  0.912050  0.423400  0.098100  1.0  -0.3167
  C  C378  1  0.982100  0.384900  0.109300  1.0  -0.3374
  C  C379  1  0.335380  0.530660  0.827780  1.0  0.3032
  C  C380  1  0.378320  0.558960  0.796400  1.0  -0.1706
  C  C381  1  0.387170  0.560640  0.749220  1.0  -0.1079
  C  C382  1  0.349980  0.534250  0.731190  1.0  -0.1089
  C  C383  1  0.305210  0.506260  0.761320  1.0  -0.0846
  C  C384  1  0.297150  0.503680  0.808420  1.0  -0.1458
  C  C385  1  0.253010  0.472230  0.836950  1.0  0.5781
  C  C386  1  0.204800  0.430010  0.947990  1.0  0.5719
  C  C387  1  0.172330  0.393970  0.978770  1.0  -0.2306
  C  C388  1  0.220100  0.366910  0.010690  1.0  -0.3284
  C  C389  1  0.870700  0.378200  0.581000  1.0  0.1752
  C  C390  1  0.903000  0.371300  0.618100  1.0  -0.2263
  C  C391  1  0.907800  0.407400  0.637000  1.0  0.0872
  C  C392  1  0.867800  0.453200  0.620800  1.0  -0.2272
  C  C393  1  0.841200  0.453800  0.581200  1.0  0.1606
  C  C394  1  0.944300  0.400800  0.678400  1.0  -0.1993
  C  C395  1  0.520140  0.346560  0.686360  1.0  0.2797
  C  C396  1  0.543790  0.322220  0.724000  1.0  -0.1763
  C  C397  1  0.492790  0.327490  0.768130  1.0  -0.1077
  C  C398  1  0.412660  0.358840  0.777840  1.0  -0.1493
  C  C399  1  0.389410  0.382430  0.741350  1.0  -0.0533
  C  C400  1  0.439160  0.378310  0.695170  1.0  -0.1215
  C  C401  1  0.407970  0.406060  0.659000  1.0  0.5889
  C  C402  1  0.457040  0.415130  0.539590  1.0  0.5864
  C  C403  1  0.427520  0.438480  0.499880  1.0  0.0286
  C  C404  1  0.546900  0.252690  0.582510  1.0  0.1746
  C  C405  1  0.518930  0.216260  0.575880  1.0  -0.2159
  C  C406  1  0.440060  0.226180  0.568100  1.0  0.1176
  C  C407  1  0.395910  0.272130  0.570050  1.0  -0.1891
  C  C408  1  0.427760  0.306470  0.577210  1.0  0.17
  C  C409  1  0.408260  0.186740  0.560540  1.0  -0.1548
  C  C410  1  0.195160  0.418810  0.590070  1.0  0.2768
  C  C411  1  0.174730  0.376030  0.593510  1.0  -0.2206
  C  C412  1  0.120700  0.371800  0.570200  1.0  -0.1143
  C  C413  1  0.089700  0.405900  0.541900  1.0  -0.1508
  C  C414  1  0.115500  0.447110  0.536090  1.0  -0.0711
  C  C415  1  0.168480  0.453680  0.559160  1.0  -0.1273
  C  C416  1  0.191480  0.497330  0.550710  1.0  0.5336
  C  C417  1  0.307060  0.554570  0.585510  1.0  0.4671
  C  C418  1  0.335450  0.598100  0.576600  1.0  -0.3159
  C  C419  1  0.367000  0.609300  0.615100  1.0  -0.3377
  C  C420  1  0.866040  0.327780  0.469340  1.0  0.2996
  C  C421  1  0.937280  0.296400  0.441040  1.0  -0.1736
  C  C422  1  0.947810  0.249220  0.439360  1.0  -0.1071
  C  C423  1  0.884230  0.231190  0.465750  1.0  -0.11
  C  C424  1  0.811470  0.261320  0.493740  1.0  -0.085
  C  C425  1  0.800830  0.308420  0.496320  1.0  -0.1451
  C  C426  1  0.725240  0.336950  0.527770  1.0  0.5785
  C  C427  1  0.634810  0.447990  0.569990  1.0  0.5754
  C  C428  1  0.566300  0.478770  0.606030  1.0  -0.2294
  C  C429  1  0.587010  0.510690  0.633090  1.0  -0.328
  C  C430  1  0.248900  0.081000  0.621800  1.0  0.1741
  C  C431  1  0.274300  0.118100  0.628700  1.0  -0.2217
  C  C432  1  0.315200  0.137000  0.592600  1.0  0.087
  C  C433  1  0.321000  0.120800  0.546800  1.0  -0.2273
  C  C434  1  0.295000  0.081200  0.546200  1.0  0.1607
  C  C435  1  0.345100  0.178400  0.599200  1.0  -0.1999
  C  C436  1  0.053060  0.153440  0.813640  1.0  0.2811
  C  C437  1  0.090010  0.177780  0.776000  1.0  -0.1738
  C  C438  1  0.088410  0.172510  0.731870  1.0  -0.1078
  C  C439  1  0.049340  0.141160  0.722160  1.0  -0.1478
  C  C440  1  0.013190  0.117570  0.758650  1.0  -0.055
  C  C441  1  0.012640  0.121690  0.804830  1.0  -0.119
  C  C442  1  0.973030  0.093940  0.841000  1.0  0.5892
  C  C443  1  0.911760  0.084870  0.960410  1.0  0.5876
  C  C444  1  0.865880  0.061520  0.000120  1.0  0.0256
  C  C445  1  0.882100  0.247310  0.917490  1.0  0.1745
  C  C446  1  0.811070  0.283740  0.924120  1.0  -0.2137
  C  C447  1  0.734340  0.273820  0.931900  1.0  0.1183
  C  C448  1  0.738090  0.227870  0.929950  1.0  -0.1877
  C  C449  1  0.811440  0.193530  0.922790  1.0  0.1698
  C  C450  1  0.655540  0.313260  0.939460  1.0  -0.1541
  C  C451  1  0.704040  0.081190  0.909930  1.0  0.2769
  C  C452  1  0.644270  0.123970  0.906490  1.0  -0.2229
  C  C453  1  0.562700  0.128200  0.929800  1.0  -0.1163
  C  C454  1  0.537500  0.094100  0.958100  1.0  -0.1551
  C  C455  1  0.598700  0.052890  0.963910  1.0  -0.0737
  C  C456  1  0.681320  0.046320  0.940840  1.0  -0.1287
  C  C457  1  0.739520  0.002670  0.949290  1.0  0.5333
  C  C458  1  0.947140  0.945430  0.914490  1.0  0.4701
  C  C459  1  0.010150  0.901900  0.923400  1.0  -0.318
  C  C460  1  0.091400  0.890700  0.884900  1.0  -0.3347
  C  C461  1  0.163160  0.172220  0.030660  1.0  0.3001
  C  C462  1  0.174720  0.203600  0.058960  1.0  -0.1694
  C  C463  1  0.136390  0.250780  0.060640  1.0  -0.1078
  C  C464  1  0.081170  0.268810  0.034250  1.0  -0.1129
  C  C465  1  0.066530  0.238680  0.006260  1.0  -0.0846
  C  C466  1  0.105570  0.191580  0.003680  1.0  -0.1447
  C  C467  1  0.089960  0.163050  0.972230  1.0  0.5792
  C  C468  1  0.152790  0.052010  0.930010  1.0  0.5752
  C  C469  1  0.151100  0.021230  0.893970  1.0  -0.2281
  C  C470  1  0.230790  0.989310  0.866910  1.0  -0.329
  C  C471  1  0.451700  0.419000  0.878200  1.0  0.1735
  C  C472  1  0.521100  0.381900  0.871300  1.0  -0.2233
  C  C473  1  0.544800  0.363000  0.907400  1.0  0.0885
  C  C474  1  0.488600  0.379200  0.953200  1.0  -0.2282
  C  C475  1  0.422400  0.418800  0.953800  1.0  0.1612
  C  C476  1  0.622700  0.321600  0.900800  1.0  -0.1997
  C  C477  1  0.133300  0.813640  0.346560  1.0  0.2761
  C  C478  1  0.133990  0.776000  0.322220  1.0  -0.1759
  C  C479  1  0.179720  0.731870  0.327490  1.0  -0.1072
  C  C480  1  0.228500  0.722160  0.358840  1.0  -0.1488
  C  C481  1  0.228160  0.758650  0.382430  1.0  -0.0554
  C  C482  1  0.182530  0.804830  0.378310  1.0  -0.1196
  C  C483  1  0.185970  0.841000  0.406060  1.0  0.5884
  C  C484  1  0.127830  0.960410  0.415130  1.0  0.5888
  C  C485  1  0.134000  0.000120  0.438480  1.0  0.0234
  C  C486  1  0.200410  0.917490  0.252690  1.0  0.1744
  C  C487  1  0.264810  0.924120  0.216260  1.0  -0.2142
  C  C488  1  0.333760  0.931900  0.226180  1.0  0.1187
  C  C489  1  0.331960  0.929950  0.272130  1.0  -0.1867
  C  C490  1  0.265770  0.922790  0.306470  1.0  0.1704
  C  C491  1  0.405000  0.939460  0.186740  1.0  -0.1552
  C  C492  1  0.386030  0.909930  0.418810  1.0  0.2772
  C  C493  1  0.449240  0.906490  0.376030  1.0  -0.2208
  C  C494  1  0.507500  0.929800  0.371800  1.0  -0.1103
  C  C495  1  0.504400  0.958100  0.405900  1.0  -0.1549
  C  C496  1  0.437390  0.963910  0.447110  1.0  -0.0723
  C  C497  1  0.377840  0.940840  0.453680  1.0  -0.1279
  C  C498  1  0.311190  0.949290  0.497330  1.0  0.5335
  C  C499  1  0.138370  0.914490  0.554570  1.0  0.4696
  C  C500  1  0.066450  0.923400  0.598100  1.0  -0.318
  C  C501  1  0.023700  0.884900  0.609300  1.0  -0.3359
  C  C502  1  0.806180  0.030660  0.327780  1.0  0.3033
  C  C503  1  0.766320  0.058960  0.296400  1.0  -0.1711
  C  C504  1  0.802970  0.060640  0.249220  1.0  -0.1083
  C  C505  1  0.884580  0.034250  0.231190  1.0  -0.1099
  C  C506  1  0.927210  0.006260  0.261320  1.0  -0.0813
  C  C507  1  0.890750  0.003680  0.308420  1.0  -0.1463
  C  C508  1  0.937810  0.972230  0.336950  1.0  0.5787
  C  C509  1  0.917200  0.930010  0.447990  1.0  0.5741
  C  C510  1  0.954930  0.893970  0.478770  1.0  -0.2302
  C  C511  1  0.902300  0.866910  0.510690  1.0  -0.3304
  C  C512  1  0.670100  0.878200  0.081000  1.0  0.1725
  C  C513  1  0.607600  0.871300  0.118100  1.0  -0.229
  C  C514  1  0.547800  0.907400  0.137000  1.0  0.0891
  C  C515  1  0.558200  0.953200  0.120800  1.0  -0.2299
  C  C516  1  0.623800  0.953800  0.081200  1.0  0.158
  C  C517  1  0.476500  0.900800  0.178400  1.0  -0.2034
  C  C518  1  0.793500  0.686360  0.153440  1.0  0.276
  C  C519  1  0.732210  0.724000  0.177780  1.0  -0.1754
  C  C520  1  0.739080  0.768130  0.172510  1.0  -0.1099
  C  C521  1  0.809500  0.777840  0.141160  1.0  -0.1498
  C  C522  1  0.869240  0.741350  0.117570  1.0  -0.0548
  C  C523  1  0.865670  0.695170  0.121690  1.0  -0.1186
  C  C524  1  0.933030  0.659000  0.093940  1.0  0.5883
  C  C525  1  0.003370  0.539590  0.084870  1.0  0.5893
  C  C526  1  0.072600  0.499880  0.061520  1.0  0.0253
  C  C527  1  0.870590  0.582510  0.247310  1.0  0.1757
  C  C528  1  0.905190  0.575880  0.283740  1.0  -0.2158
  C  C529  1  0.991840  0.568100  0.273820  1.0  0.1176
  C  C530  1  0.034040  0.570050  0.227870  1.0  -0.1888
  C  C531  1  0.995030  0.577210  0.193530  1.0  0.173
  C  C532  1  0.031200  0.560540  0.313260  1.0  -0.1541
  C  C533  1  0.214770  0.590070  0.081190  1.0  0.2775
  C  C534  1  0.231760  0.593510  0.123970  1.0  -0.2251
  C  C535  1  0.309100  0.570200  0.128200  1.0  -0.1115
  C  C536  1  0.368400  0.541900  0.094100  1.0  -0.1563
  C  C537  1  0.348410  0.536090  0.052890  1.0  -0.072
  C  C538  1  0.272360  0.559160  0.046320  1.0  -0.1302
  C  C539  1  0.257810  0.550710  0.002670  1.0  0.5326
  C  C540  1  0.107430  0.585510  0.945430  1.0  0.4724
  C  C541  1  0.087950  0.576600  0.901900  1.0  -0.3175
  C  C542  1  0.017900  0.615100  0.890700  1.0  -0.3355
  C  C543  1  0.664620  0.469340  0.172220  1.0  0.3042
  C  C544  1  0.621680  0.441040  0.203600  1.0  -0.1707
  C  C545  1  0.612830  0.439360  0.250780  1.0  -0.1073
  C  C546  1  0.650020  0.465750  0.268810  1.0  -0.1081
  C  C547  1  0.694790  0.493740  0.238680  1.0  -0.0847
  C  C548  1  0.702850  0.496320  0.191580  1.0  -0.1487
  C  C549  1  0.746990  0.527770  0.163050  1.0  0.5787
  C  C550  1  0.795200  0.569990  0.052010  1.0  0.572
  C  C551  1  0.827670  0.606030  0.021230  1.0  -0.2318
  C  C552  1  0.779900  0.633090  0.989310  1.0  -0.3296
  C  C553  1  0.129300  0.621800  0.419000  1.0  0.1738
  C  C554  1  0.097000  0.628700  0.381900  1.0  -0.2257
  C  C555  1  0.092200  0.592600  0.363000  1.0  0.0882
  C  C556  1  0.132200  0.546800  0.379200  1.0  -0.2298
  C  C557  1  0.158800  0.546200  0.418800  1.0  0.1609
  C  C558  1  0.055700  0.599200  0.321600  1.0  -0.2003
  C  C559  1  0.479860  0.653440  0.313640  1.0  0.2789
  C  C560  1  0.456210  0.677780  0.276000  1.0  -0.1753
  C  C561  1  0.507210  0.672510  0.231870  1.0  -0.1074
  C  C562  1  0.587340  0.641160  0.222160  1.0  -0.1506
  C  C563  1  0.610590  0.617570  0.258650  1.0  -0.0542
  C  C564  1  0.560840  0.621690  0.304830  1.0  -0.1205
  C  C565  1  0.592030  0.593940  0.341000  1.0  0.5887
  C  C566  1  0.542960  0.584870  0.460410  1.0  0.5878
  C  C567  1  0.572480  0.561520  0.500120  1.0  0.0281
  C  C568  1  0.453100  0.747310  0.417490  1.0  0.1733
  C  C569  1  0.481070  0.783740  0.424120  1.0  -0.2157
  C  C570  1  0.559940  0.773820  0.431900  1.0  0.1176
  C  C571  1  0.604090  0.727870  0.429950  1.0  -0.1887
  C  C572  1  0.572240  0.693530  0.422790  1.0  0.1699
  C  C573  1  0.591740  0.813260  0.439460  1.0  -0.1547
  C  C574  1  0.804840  0.581190  0.409930  1.0  0.2766
  C  C575  1  0.825270  0.623970  0.406490  1.0  -0.2212
  C  C576  1  0.879300  0.628200  0.429800  1.0  -0.1146
  C  C577  1  0.910300  0.594100  0.458100  1.0  -0.1492
  C  C578  1  0.884500  0.552890  0.463910  1.0  -0.0713
  C  C579  1  0.831520  0.546320  0.440840  1.0  -0.129
  C  C580  1  0.808520  0.502670  0.449290  1.0  0.5331
  C  C581  1  0.692940  0.445430  0.414490  1.0  0.4672
  C  C582  1  0.664550  0.401900  0.423400  1.0  -0.3174
  C  C583  1  0.633000  0.390700  0.384900  1.0  -0.3336
  C  C584  1  0.133960  0.672220  0.530660  1.0  0.2977
  C  C585  1  0.062720  0.703600  0.558960  1.0  -0.1734
  C  C586  1  0.052190  0.750780  0.560640  1.0  -0.1084
  C  C587  1  0.115770  0.768810  0.534250  1.0  -0.1118
  C  C588  1  0.188530  0.738680  0.506260  1.0  -0.0852
  C  C589  1  0.199170  0.691580  0.503680  1.0  -0.1448
  C  C590  1  0.274760  0.663050  0.472230  1.0  0.5782
  C  C591  1  0.365190  0.552010  0.430010  1.0  0.5743
  C  C592  1  0.433700  0.521230  0.393970  1.0  -0.23
  C  C593  1  0.412990  0.489310  0.366910  1.0  -0.3277
  C  C594  1  0.751100  0.919000  0.378200  1.0  0.1741
  C  C595  1  0.725700  0.881900  0.371300  1.0  -0.2218
  C  C596  1  0.684800  0.863000  0.407400  1.0  0.0864
  C  C597  1  0.679000  0.879200  0.453200  1.0  -0.2279
  C  C598  1  0.705000  0.918800  0.453800  1.0  0.1608
  C  C599  1  0.654900  0.821600  0.400800  1.0  -0.2004
  C  C600  1  0.946940  0.846560  0.186360  1.0  0.2816
  C  C601  1  0.909990  0.822220  0.224000  1.0  -0.1736
  C  C602  1  0.911590  0.827490  0.268130  1.0  -0.1077
  C  C603  1  0.950660  0.858840  0.277840  1.0  -0.1496
  C  C604  1  0.986810  0.882430  0.241350  1.0  -0.0542
  C  C605  1  0.987360  0.878310  0.195170  1.0  -0.1205
  C  C606  1  0.026970  0.906060  0.159000  1.0  0.5888
  C  C607  1  0.088240  0.915130  0.039590  1.0  0.5879
  C  C608  1  0.134120  0.938480  0.999880  1.0  0.0281
  C  C609  1  0.117900  0.752690  0.082510  1.0  0.1739
  C  C610  1  0.188930  0.716260  0.075880  1.0  -0.2144
  C  C611  1  0.265660  0.726180  0.068100  1.0  0.1184
  C  C612  1  0.261910  0.772130  0.070050  1.0  -0.1915
  C  C613  1  0.188560  0.806470  0.077210  1.0  0.1692
  C  C614  1  0.344460  0.686740  0.060540  1.0  -0.1537
  C  C615  1  0.295960  0.918810  0.090070  1.0  0.2768
  C  C616  1  0.355730  0.876030  0.093510  1.0  -0.2216
  C  C617  1  0.437300  0.871800  0.070200  1.0  -0.1164
  C  C618  1  0.462500  0.905900  0.041900  1.0  -0.1538
  C  C619  1  0.401300  0.947110  0.036090  1.0  -0.0732
  C  C620  1  0.318680  0.953680  0.059160  1.0  -0.1282
  C  C621  1  0.260480  0.997330  0.050710  1.0  0.533
  C  C622  1  0.052860  0.054570  0.085510  1.0  0.4692
  C  C623  1  0.989850  0.098100  0.076600  1.0  -0.3153
  C  C624  1  0.908600  0.109300  0.115100  1.0  -0.3351
  C  C625  1  0.836840  0.827780  0.969340  1.0  0.2998
  C  C626  1  0.825280  0.796400  0.941040  1.0  -0.1708
  C  C627  1  0.863610  0.749220  0.939360  1.0  -0.1063
  C  C628  1  0.918830  0.731190  0.965750  1.0  -0.1104
  C  C629  1  0.933470  0.761320  0.993740  1.0  -0.0828
  C  C630  1  0.894430  0.808420  0.996320  1.0  -0.1461
  C  C631  1  0.910040  0.836950  0.027770  1.0  0.5786
  C  C632  1  0.847210  0.947990  0.069990  1.0  0.5765
  C  C633  1  0.848900  0.978770  0.106030  1.0  -0.2303
  C  C634  1  0.769210  0.010690  0.133090  1.0  -0.3318
  C  C635  1  0.548300  0.581000  0.121800  1.0  0.1742
  C  C636  1  0.478900  0.618100  0.128700  1.0  -0.2264
  C  C637  1  0.455200  0.637000  0.092600  1.0  0.0885
  C  C638  1  0.511400  0.620800  0.046800  1.0  -0.2279
  C  C639  1  0.577600  0.581200  0.046200  1.0  0.1594
  C  C640  1  0.377300  0.678400  0.099200  1.0  -0.204
  N  N641  1  0.851290  0.114520  0.600500  1.0  -0.2672
  N  N642  1  0.840900  0.082320  0.572480  1.0  -0.2514
  N  N643  1  0.800170  0.083230  0.702430  1.0  -0.3518
  N  N644  1  0.747420  0.072500  0.495260  1.0  -0.2726
  N  N645  1  0.809450  0.060670  0.451830  1.0  -0.2811
  N  N646  1  0.095500  0.033950  0.618650  1.0  -0.2681
  N  N647  1  0.046570  0.068300  0.595560  1.0  -0.2135
  N  N648  1  0.321010  0.084610  0.939570  1.0  -0.2903
  N  N649  1  0.066310  0.385480  0.899500  1.0  -0.2653
  N  N650  1  0.995700  0.417680  0.927520  1.0  -0.2506
  N  N651  1  0.085830  0.416770  0.797570  1.0  -0.3525
  N  N652  1  0.815180  0.427500  0.004740  1.0  -0.2734
  N  N653  1  0.821950  0.439330  0.048170  1.0  -0.2802
  N  N654  1  0.248100  0.466050  0.881350  1.0  -0.2672
  N  N655  1  0.210430  0.431700  0.904440  1.0  -0.2143
  N  N656  1  0.845190  0.415390  0.560430  1.0  -0.2949
  N  N657  1  0.451790  0.399500  0.614520  1.0  -0.2673
  N  N658  1  0.413380  0.427520  0.582320  1.0  -0.2495
  N  N659  1  0.502600  0.297570  0.583230  1.0  -0.3516
  N  N660  1  0.242680  0.504740  0.572500  1.0  -0.2717
  N  N661  1  0.261280  0.548170  0.560670  1.0  -0.2791
  N  N662  1  0.714150  0.381350  0.533950  1.0  -0.2672
  N  N663  1  0.642130  0.404440  0.568300  1.0  -0.2134
  N  N664  1  0.260580  0.060430  0.584610  1.0  -0.2941
  N  N665  1  0.965810  0.100500  0.885480  1.0  -0.2665
  N  N666  1  0.923220  0.072480  0.917680  1.0  -0.2499
  N  N667  1  0.883400  0.202430  0.916770  1.0  -0.35
  N  N668  1  0.819920  0.995260  0.927500  1.0  -0.2725
  N  N669  1  0.870120  0.951830  0.939330  1.0  -0.2811
  N  N670  1  0.129450  0.118650  0.966050  1.0  -0.2658
  N  N671  1  0.114870  0.095560  0.931700  1.0  -0.2136
  N  N672  1  0.405620  0.439570  0.915390  1.0  -0.2943
  N  N673  1  0.148710  0.885480  0.399500  1.0  -0.2654
  N  N674  1  0.159100  0.917680  0.427520  1.0  -0.2516
  N  N675  1  0.199830  0.916770  0.297570  1.0  -0.3511
  N  N676  1  0.252580  0.927500  0.504740  1.0  -0.2726
  N  N677  1  0.190550  0.939330  0.548170  1.0  -0.2803
  N  N678  1  0.904500  0.966050  0.381350  1.0  -0.2672
  N  N679  1  0.953430  0.931700  0.404440  1.0  -0.2124
  N  N680  1  0.678990  0.915390  0.060430  1.0  -0.2923
  N  N681  1  0.933690  0.614520  0.100500  1.0  -0.2656
  N  N682  1  0.004300  0.582320  0.072480  1.0  -0.2509
  N  N683  1  0.914170  0.583230  0.202430  1.0  -0.3517
  N  N684  1  0.184820  0.572500  0.995260  1.0  -0.2725
  N  N685  1  0.178050  0.560670  0.951830  1.0  -0.284
  N  N686  1  0.751900  0.533950  0.118650  1.0  -0.2657
  N  N687  1  0.789570  0.568300  0.095560  1.0  -0.2133
  N  N688  1  0.154810  0.584610  0.439570  1.0  -0.2947
  N  N689  1  0.548210  0.600500  0.385480  1.0  -0.2672
  N  N690  1  0.586620  0.572480  0.417680  1.0  -0.25
  N  N691  1  0.497400  0.702430  0.416770  1.0  -0.3505
  N  N692  1  0.757320  0.495260  0.427500  1.0  -0.2725
  N  N693  1  0.738720  0.451830  0.439330  1.0  -0.2794
  N  N694  1  0.285850  0.618650  0.466050  1.0  -0.2666
  N  N695  1  0.357870  0.595560  0.431700  1.0  -0.2127
  N  N696  1  0.739420  0.939570  0.415390  1.0  -0.2936
  N  N697  1  0.034190  0.899500  0.114520  1.0  -0.2657
  N  N698  1  0.076780  0.927520  0.082320  1.0  -0.2493
  N  N699  1  0.116600  0.797570  0.083230  1.0  -0.3504
  N  N700  1  0.180080  0.004740  0.072500  1.0  -0.2712
  N  N701  1  0.129880  0.048170  0.060670  1.0  -0.2824
  N  N702  1  0.870550  0.881350  0.033950  1.0  -0.2643
  N  N703  1  0.885130  0.904440  0.068300  1.0  -0.2137
  N  N704  1  0.594380  0.560430  0.084610  1.0  -0.2929
  O  O705  1  0.913050  0.144170  0.661330  1.0  -0.5646
  O  O706  1  0.773730  0.170390  0.562750  1.0  -0.585
  O  O707  1  0.909850  0.030370  0.617930  1.0  -0.5918
  O  O708  1  0.663570  0.118230  0.577030  1.0  -0.5748
  O  O709  1  0.690850  0.021990  0.472370  1.0  -0.6004
  O  O710  1  0.853040  0.117040  0.475120  1.0  -0.5924
  O  O711  1  0.234860  0.969750  0.627930  1.0  -0.604
  O  O712  1  0.985500  0.049960  0.682920  1.0  -0.5812
  O  O713  1  0.157180  0.042370  0.532470  1.0  -0.585
  O  O714  1  0.218550  0.355830  0.838670  1.0  -0.5626
  O  O715  1  0.006870  0.329610  0.937250  1.0  -0.5829
  O  O716  1  0.058150  0.469630  0.882070  1.0  -0.5917
  O  O717  1  0.858830  0.381770  0.922970  1.0  -0.5748
  O  O718  1  0.685210  0.478010  0.027630  1.0  -0.5996
  O  O719  1  0.945200  0.382960  0.024880  1.0  -0.5895
  O  O720  1  0.332540  0.530250  0.872070  1.0  -0.6052
  O  O721  1  0.218380  0.450040  0.817080  1.0  -0.5833
  O  O722  1  0.232020  0.457630  0.967530  1.0  -0.5852
  O  O723  1  0.574380  0.338670  0.644170  1.0  -0.5631
  O  O724  1  0.336480  0.437250  0.670390  1.0  -0.5827
  O  O725  1  0.527780  0.382070  0.530370  1.0  -0.5922
  O  O726  1  0.240600  0.422970  0.618230  1.0  -0.575
  O  O727  1  0.163220  0.527630  0.521990  1.0  -0.5997
  O  O728  1  0.328160  0.524880  0.617040  1.0  -0.5914
  O  O729  1  0.862790  0.372070  0.469750  1.0  -0.5979
  O  O730  1  0.668420  0.317080  0.549960  1.0  -0.5819
  O  O731  1  0.689650  0.467530  0.542370  1.0  -0.5871
  O  O732  1  0.057220  0.161330  0.855830  1.0  -0.5636
  O  O733  1  0.944120  0.062750  0.829610  1.0  -0.5845
  O  O734  1  0.940220  0.117930  0.969630  1.0  -0.5908
  O  O735  1  0.781800  0.077030  0.881770  1.0  -0.5742
  O  O736  1  0.712840  0.972370  0.978010  1.0  -0.5989
  O  O737  1  0.970080  0.975120  0.882960  1.0  -0.5904
  O  O738  1  0.204610  0.127930  0.030250  1.0  -0.6001
  O  O739  1  0.035460  0.182920  0.950040  1.0  -0.5825
  O  O740  1  0.199550  0.032470  0.957630  1.0  -0.5852
  O  O741  1  0.086950  0.855830  0.338670  1.0  -0.5627
  O  O742  1  0.226270  0.829610  0.437250  1.0  -0.585
  O  O743  1  0.090150  0.969630  0.382070  1.0  -0.5935
  O  O744  1  0.336430  0.881770  0.422970  1.0  -0.576
  O  O745  1  0.309150  0.978010  0.527630  1.0  -0.6012
  O  O746  1  0.146960  0.882960  0.524880  1.0  -0.5911
  O  O747  1  0.765140  0.030250  0.372070  1.0  -0.6033
  O  O748  1  0.014500  0.950040  0.317080  1.0  -0.5805
  O  O749  1  0.842820  0.957630  0.467530  1.0  -0.5847
  O  O750  1  0.781450  0.644170  0.161330  1.0  -0.5634
  O  O751  1  0.993130  0.670390  0.062750  1.0  -0.5843
  O  O752  1  0.941850  0.530370  0.117930  1.0  -0.591
  O  O753  1  0.141170  0.618230  0.077030  1.0  -0.5751
  O  O754  1  0.314790  0.521990  0.972370  1.0  -0.6013
  O  O755  1  0.054800  0.617040  0.975120  1.0  -0.5918
  O  O756  1  0.667460  0.469750  0.127930  1.0  -0.6074
  O  O757  1  0.781620  0.549960  0.182920  1.0  -0.5833
  O  O758  1  0.767980  0.542370  0.032470  1.0  -0.5865
  O  O759  1  0.425620  0.661330  0.355830  1.0  -0.5634
  O  O760  1  0.663520  0.562750  0.329610  1.0  -0.584
  O  O761  1  0.472220  0.617930  0.469630  1.0  -0.591
  O  O762  1  0.759400  0.577030  0.381770  1.0  -0.5757
  O  O763  1  0.836780  0.472370  0.478010  1.0  -0.6001
  O  O764  1  0.671840  0.475120  0.382960  1.0  -0.592
  O  O765  1  0.137210  0.627930  0.530250  1.0  -0.6004
  O  O766  1  0.331580  0.682920  0.450040  1.0  -0.5812
  O  O767  1  0.310350  0.532470  0.457630  1.0  -0.5857
  O  O768  1  0.942780  0.838670  0.144170  1.0  -0.5662
  O  O769  1  0.055880  0.937250  0.170390  1.0  -0.5853
  O  O770  1  0.059780  0.882070  0.030370  1.0  -0.592
  O  O771  1  0.218200  0.922970  0.118230  1.0  -0.5763
  O  O772  1  0.287160  0.027630  0.021990  1.0  -0.6002
  O  O773  1  0.029920  0.024880  0.117040  1.0  -0.5893
  O  O774  1  0.795390  0.872070  0.969750  1.0  -0.6016
  O  O775  1  0.964540  0.817080  0.049960  1.0  -0.5816
  O  O776  1  0.800450  0.967530  0.042370  1.0  -0.5868
