# generated using pymatgen
data_Mn3H36C41N8O9
_symmetry_space_group_name_H-M   'P 1'
_cell_length_a   40.54080000
_cell_length_b   40.54080000
_cell_length_c   17.60550000
_cell_angle_alpha   90.00000000
_cell_angle_beta   90.00000000
_cell_angle_gamma   90.00000000
_symmetry_Int_Tables_number   1
_chemical_formula_structural   Mn3H36C41N8O9
_chemical_formula_sum   'Mn48 H576 C656 N128 O144'
_cell_volume   28935.63333822
_cell_formula_units_Z   16
loop_
 _symmetry_equiv_pos_site_id
 _symmetry_equiv_pos_as_xyz
  1  'x, y, z'
loop_
 _atom_site_type_symbol
 _atom_site_label
 _atom_site_symmetry_multiplicity
 _atom_site_fract_x
 _atom_site_fract_y
 _atom_site_fract_z
 _atom_site_occupancy
 _atom_site_charge
  Mn  Mn1  1  0.574390  0.455180  0.328380  1.0  1.0242
  Mn  Mn2  1  0.459020  0.462720  0.252530  1.0  1.0056
  Mn  Mn3  1  0.613010  0.529210  0.528360  1.0  0.9786
  Mn  Mn4  1  0.074390  0.955180  0.828380  1.0  1.0242
  Mn  Mn5  1  0.959020  0.962720  0.752530  1.0  1.0056
  Mn  Mn6  1  0.113010  0.029210  0.028360  1.0  0.9786
  Mn  Mn7  1  0.925610  0.544820  0.828380  1.0  1.0255
  Mn  Mn8  1  0.040980  0.537280  0.752530  1.0  1.0038
  Mn  Mn9  1  0.886990  0.470790  0.028360  1.0  0.9778
  Mn  Mn10  1  0.425610  0.044820  0.328380  1.0  1.0255
  Mn  Mn11  1  0.540980  0.037280  0.252530  1.0  1.0038
  Mn  Mn12  1  0.386990  0.970790  0.528360  1.0  0.9778
  Mn  Mn13  1  0.294820  0.824390  0.578380  1.0  1.0253
  Mn  Mn14  1  0.287280  0.709020  0.502530  1.0  1.0045
  Mn  Mn15  1  0.220790  0.863010  0.778360  1.0  0.9765
  Mn  Mn16  1  0.794820  0.324390  0.078380  1.0  1.0253
  Mn  Mn17  1  0.787280  0.209020  0.002530  1.0  1.0045
  Mn  Mn18  1  0.720790  0.363010  0.278360  1.0  0.9765
  Mn  Mn19  1  0.205180  0.175610  0.078380  1.0  1.0256
  Mn  Mn20  1  0.212720  0.290980  0.002530  1.0  1.0052
  Mn  Mn21  1  0.279210  0.136990  0.278360  1.0  0.9791
  Mn  Mn22  1  0.705180  0.675610  0.578380  1.0  1.0256
  Mn  Mn23  1  0.712720  0.790980  0.502530  1.0  1.0052
  Mn  Mn24  1  0.779210  0.636990  0.778360  1.0  0.9791
  Mn  Mn25  1  0.425610  0.544820  0.671620  1.0  1.0251
  Mn  Mn26  1  0.540980  0.537280  0.747470  1.0  0.9971
  Mn  Mn27  1  0.386990  0.470790  0.471640  1.0  0.9774
  Mn  Mn28  1  0.925610  0.044820  0.171620  1.0  1.0251
  Mn  Mn29  1  0.040980  0.037280  0.247470  1.0  0.9971
  Mn  Mn30  1  0.886990  0.970790  0.971640  1.0  0.9774
  Mn  Mn31  1  0.074390  0.455180  0.171620  1.0  1.0244
  Mn  Mn32  1  0.959020  0.462720  0.247470  1.0  0.9987
  Mn  Mn33  1  0.113010  0.529210  0.971640  1.0  0.9786
  Mn  Mn34  1  0.574390  0.955180  0.671620  1.0  1.0244
  Mn  Mn35  1  0.459020  0.962720  0.747470  1.0  0.9987
  Mn  Mn36  1  0.613010  0.029210  0.471640  1.0  0.9786
  Mn  Mn37  1  0.705180  0.175610  0.421620  1.0  1.026
  Mn  Mn38  1  0.712720  0.290980  0.497470  1.0  0.9982
  Mn  Mn39  1  0.779210  0.136990  0.221640  1.0  0.9789
  Mn  Mn40  1  0.205180  0.675610  0.921620  1.0  1.026
  Mn  Mn41  1  0.212720  0.790980  0.997470  1.0  0.9982
  Mn  Mn42  1  0.279210  0.636990  0.721640  1.0  0.9789
  Mn  Mn43  1  0.794820  0.824390  0.921620  1.0  1.0248
  Mn  Mn44  1  0.787280  0.709020  0.997470  1.0  0.9981
  Mn  Mn45  1  0.720790  0.863010  0.721640  1.0  0.9762
  Mn  Mn46  1  0.294820  0.324390  0.421620  1.0  1.0248
  Mn  Mn47  1  0.287280  0.209020  0.497470  1.0  0.9981
  Mn  Mn48  1  0.220790  0.363010  0.221640  1.0  0.9762
  H  H49  1  0.627000  0.520700  0.176900  1.0  0.0952
  H  H50  1  0.611800  0.546500  0.068500  1.0  0.0917
  H  H51  1  0.559600  0.534000  0.008700  1.0  0.1202
  H  H52  1  0.519500  0.507000  0.087500  1.0  0.0997
  H  H53  1  0.475700  0.399200  0.384300  1.0  0.1183
  H  H54  1  0.475600  0.428800  0.444100  1.0  0.115
  H  H55  1  0.518400  0.373900  0.455500  1.0  0.1041
  H  H56  1  0.484600  0.377300  0.501700  1.0  0.1045
  H  H57  1  0.514300  0.402400  0.517800  1.0  0.1173
  H  H58  1  0.439500  0.367500  0.145700  1.0  0.1173
  H  H59  1  0.401800  0.327000  0.174800  1.0  0.0884
  H  H60  1  0.366000  0.332600  0.277300  1.0  0.1033
  H  H61  1  0.368100  0.379700  0.351400  1.0  0.0918
  H  H62  1  0.419300  0.540500  0.433100  1.0  0.0828
  H  H63  1  0.457600  0.547300  0.418100  1.0  0.1014
  H  H64  1  0.447600  0.582300  0.336400  1.0  0.0977
  H  H65  1  0.410400  0.581400  0.367000  1.0  0.0876
  H  H66  1  0.420800  0.559500  0.295300  1.0  0.1032
  H  H67  1  0.458100  0.527000  0.156300  1.0  0.1075
  H  H68  1  0.421800  0.561700  0.082900  1.0  0.1195
  H  H69  1  0.352300  0.500200  0.116900  1.0  0.092
  H  H70  1  0.386500  0.469400  0.188500  1.0  0.0583
  H  H71  1  0.344800  0.528800  0.999900  1.0  0.0717
  H  H72  1  0.349400  0.561300  0.049800  1.0  0.0639
  H  H73  1  0.707500  0.491100  0.603200  1.0  0.0944
  H  H74  1  0.739500  0.448700  0.558700  1.0  0.1039
  H  H75  1  0.722200  0.416100  0.457500  1.0  0.1081
  H  H76  1  0.669500  0.424200  0.407700  1.0  0.0825
  H  H77  1  0.520000  0.512000  0.369000  1.0  0.1804
  H  H78  1  0.513000  0.539600  0.432400  1.0  0.1706
  H  H79  1  0.328300  0.576600  0.733600  1.0  0.0669
  H  H80  1  0.362300  0.548900  0.815600  1.0  0.1071
  H  H81  1  0.331600  0.608500  0.982400  1.0  0.1082
  H  H82  1  0.296900  0.634200  0.897200  1.0  0.0834
  H  H83  1  0.388300  0.542700  0.932800  1.0  0.0609
  H  H84  1  0.391200  0.575900  0.981400  1.0  0.0619
  H  H85  1  0.127000  0.020700  0.676900  1.0  0.0952
  H  H86  1  0.111800  0.046500  0.568500  1.0  0.0917
  H  H87  1  0.059600  0.034000  0.508700  1.0  0.1202
  H  H88  1  0.019500  0.007000  0.587500  1.0  0.0997
  H  H89  1  0.975700  0.899200  0.884300  1.0  0.1183
  H  H90  1  0.975600  0.928800  0.944100  1.0  0.115
  H  H91  1  0.018400  0.873900  0.955500  1.0  0.1041
  H  H92  1  0.984600  0.877300  0.001700  1.0  0.1045
  H  H93  1  0.014300  0.902400  0.017800  1.0  0.1173
  H  H94  1  0.939500  0.867500  0.645700  1.0  0.1176
  H  H95  1  0.901800  0.827000  0.674800  1.0  0.0884
  H  H96  1  0.866000  0.832600  0.777300  1.0  0.1033
  H  H97  1  0.868100  0.879700  0.851400  1.0  0.0918
  H  H98  1  0.919300  0.040500  0.933100  1.0  0.0828
  H  H99  1  0.957600  0.047300  0.918100  1.0  0.1014
  H  H100  1  0.947600  0.082300  0.836400  1.0  0.0977
  H  H101  1  0.910400  0.081400  0.867000  1.0  0.0876
  H  H102  1  0.920800  0.059500  0.795300  1.0  0.1032
  H  H103  1  0.958100  0.027000  0.656300  1.0  0.1075
  H  H104  1  0.921800  0.061700  0.582900  1.0  0.1195
  H  H105  1  0.852300  0.000200  0.616900  1.0  0.092
  H  H106  1  0.886500  0.969400  0.688500  1.0  0.0583
  H  H107  1  0.844800  0.028800  0.499900  1.0  0.0717
  H  H108  1  0.849400  0.061300  0.549800  1.0  0.0639
  H  H109  1  0.207500  0.991100  0.103200  1.0  0.0944
  H  H110  1  0.239500  0.948700  0.058700  1.0  0.1039
  H  H111  1  0.222200  0.916100  0.957500  1.0  0.1081
  H  H112  1  0.169500  0.924200  0.907700  1.0  0.0825
  H  H113  1  0.020000  0.012000  0.869000  1.0  0.1804
  H  H114  1  0.013000  0.039600  0.932400  1.0  0.1706
  H  H115  1  0.828300  0.076600  0.233600  1.0  0.0669
  H  H116  1  0.862300  0.048900  0.315600  1.0  0.1071
  H  H117  1  0.831600  0.108500  0.482400  1.0  0.1082
  H  H118  1  0.796900  0.134200  0.397200  1.0  0.0834
  H  H119  1  0.888300  0.042700  0.432800  1.0  0.0609
  H  H120  1  0.891200  0.075900  0.481400  1.0  0.0619
  H  H121  1  0.873000  0.479300  0.676900  1.0  0.0957
  H  H122  1  0.888200  0.453500  0.568500  1.0  0.0911
  H  H123  1  0.940400  0.466000  0.508700  1.0  0.1202
  H  H124  1  0.980500  0.493000  0.587500  1.0  0.0992
  H  H125  1  0.024300  0.600800  0.884300  1.0  0.119
  H  H126  1  0.024400  0.571200  0.944100  1.0  0.1158
  H  H127  1  0.981600  0.626100  0.955500  1.0  0.1051
  H  H128  1  0.015400  0.622700  0.001700  1.0  0.1036
  H  H129  1  0.985700  0.597600  0.017800  1.0  0.118
  H  H130  1  0.060500  0.632500  0.645700  1.0  0.1174
  H  H131  1  0.098200  0.673000  0.674800  1.0  0.0889
  H  H132  1  0.134000  0.667400  0.777300  1.0  0.103
  H  H133  1  0.131900  0.620300  0.851400  1.0  0.0915
  H  H134  1  0.080700  0.459500  0.933100  1.0  0.0836
  H  H135  1  0.042400  0.452700  0.918100  1.0  0.1013
  H  H136  1  0.052400  0.417700  0.836400  1.0  0.0975
  H  H137  1  0.089600  0.418600  0.867000  1.0  0.0885
  H  H138  1  0.079200  0.440500  0.795300  1.0  0.1034
  H  H139  1  0.041900  0.473000  0.656300  1.0  0.1076
  H  H140  1  0.078200  0.438300  0.582900  1.0  0.1202
  H  H141  1  0.147700  0.499800  0.616900  1.0  0.0932
  H  H142  1  0.113500  0.530600  0.688500  1.0  0.0588
  H  H143  1  0.155200  0.471200  0.499900  1.0  0.0736
  H  H144  1  0.150600  0.438700  0.549800  1.0  0.0647
  H  H145  1  0.792500  0.508900  0.103200  1.0  0.0953
  H  H146  1  0.760500  0.551300  0.058700  1.0  0.1051
  H  H147  1  0.777800  0.583900  0.957500  1.0  0.1079
  H  H148  1  0.830500  0.575800  0.907700  1.0  0.0822
  H  H149  1  0.980000  0.488000  0.869000  1.0  0.1791
  H  H150  1  0.987000  0.460400  0.932400  1.0  0.1722
  H  H151  1  0.171700  0.423400  0.233600  1.0  0.0668
  H  H152  1  0.137700  0.451100  0.315600  1.0  0.1079
  H  H153  1  0.168400  0.391500  0.482400  1.0  0.1087
  H  H154  1  0.203100  0.365800  0.397200  1.0  0.0832
  H  H155  1  0.111700  0.457300  0.432800  1.0  0.0591
  H  H156  1  0.108800  0.424100  0.481400  1.0  0.0635
  H  H157  1  0.373000  0.979300  0.176900  1.0  0.0957
  H  H158  1  0.388200  0.953500  0.068500  1.0  0.0911
  H  H159  1  0.440400  0.966000  0.008700  1.0  0.1202
  H  H160  1  0.480500  0.993000  0.087500  1.0  0.0992
  H  H161  1  0.524300  0.100800  0.384300  1.0  0.119
  H  H162  1  0.524400  0.071200  0.444100  1.0  0.1158
  H  H163  1  0.481600  0.126100  0.455500  1.0  0.1051
  H  H164  1  0.515400  0.122700  0.501700  1.0  0.1036
  H  H165  1  0.485700  0.097600  0.517800  1.0  0.118
  H  H166  1  0.560500  0.132500  0.145700  1.0  0.1172
  H  H167  1  0.598200  0.173000  0.174800  1.0  0.0889
  H  H168  1  0.634000  0.167400  0.277300  1.0  0.103
  H  H169  1  0.631900  0.120300  0.351400  1.0  0.0915
  H  H170  1  0.580700  0.959500  0.433100  1.0  0.0836
  H  H171  1  0.542400  0.952700  0.418100  1.0  0.1013
  H  H172  1  0.552400  0.917700  0.336400  1.0  0.0975
  H  H173  1  0.589600  0.918600  0.367000  1.0  0.0885
  H  H174  1  0.579200  0.940500  0.295300  1.0  0.1034
  H  H175  1  0.541900  0.973000  0.156300  1.0  0.1076
  H  H176  1  0.578200  0.938300  0.082900  1.0  0.1202
  H  H177  1  0.647700  0.999800  0.116900  1.0  0.0932
  H  H178  1  0.613500  0.030600  0.188500  1.0  0.0588
  H  H179  1  0.655200  0.971200  0.999900  1.0  0.0736
  H  H180  1  0.650600  0.938700  0.049800  1.0  0.0647
  H  H181  1  0.292500  0.008900  0.603200  1.0  0.0953
  H  H182  1  0.260500  0.051300  0.558700  1.0  0.1051
  H  H183  1  0.277800  0.083900  0.457500  1.0  0.1079
  H  H184  1  0.330500  0.075800  0.407700  1.0  0.0822
  H  H185  1  0.480000  0.988000  0.369000  1.0  0.1791
  H  H186  1  0.487000  0.960400  0.432400  1.0  0.1722
  H  H187  1  0.671700  0.923400  0.733600  1.0  0.0668
  H  H188  1  0.637700  0.951100  0.815600  1.0  0.1079
  H  H189  1  0.668400  0.891500  0.982400  1.0  0.1087
  H  H190  1  0.703100  0.865800  0.897200  1.0  0.0832
  H  H191  1  0.611700  0.957300  0.932800  1.0  0.0591
  H  H192  1  0.608800  0.924100  0.981400  1.0  0.0635
  H  H193  1  0.229300  0.877000  0.426900  1.0  0.0948
  H  H194  1  0.203500  0.861800  0.318500  1.0  0.0912
  H  H195  1  0.216000  0.809600  0.258700  1.0  0.1188
  H  H196  1  0.243000  0.769500  0.337500  1.0  0.0998
  H  H197  1  0.350800  0.725700  0.634300  1.0  0.1185
  H  H198  1  0.321200  0.725600  0.694100  1.0  0.1161
  H  H199  1  0.376100  0.768400  0.705500  1.0  0.1056
  H  H200  1  0.372700  0.734600  0.751700  1.0  0.1069
  H  H201  1  0.347600  0.764300  0.767800  1.0  0.12
  H  H202  1  0.382500  0.689500  0.395700  1.0  0.1185
  H  H203  1  0.423000  0.651800  0.424800  1.0  0.0901
  H  H204  1  0.417400  0.616000  0.527300  1.0  0.1044
  H  H205  1  0.370300  0.618100  0.601400  1.0  0.092
  H  H206  1  0.209500  0.669300  0.683100  1.0  0.0821
  H  H207  1  0.202700  0.707600  0.668100  1.0  0.1015
  H  H208  1  0.167700  0.697600  0.586400  1.0  0.0998
  H  H209  1  0.168600  0.660400  0.617000  1.0  0.0878
  H  H210  1  0.190500  0.670800  0.545300  1.0  0.1038
  H  H211  1  0.223000  0.708100  0.406300  1.0  0.1088
  H  H212  1  0.188300  0.671800  0.332900  1.0  0.1201
  H  H213  1  0.249800  0.602300  0.366900  1.0  0.0917
  H  H214  1  0.280600  0.636500  0.438500  1.0  0.0592
  H  H215  1  0.221200  0.594800  0.249900  1.0  0.0722
  H  H216  1  0.188700  0.599400  0.299800  1.0  0.064
  H  H217  1  0.258900  0.957500  0.853200  1.0  0.096
  H  H218  1  0.301300  0.989500  0.808700  1.0  0.104
  H  H219  1  0.333900  0.972200  0.707500  1.0  0.107
  H  H220  1  0.325800  0.919500  0.657700  1.0  0.0822
  H  H221  1  0.238000  0.770000  0.619000  1.0  0.1792
  H  H222  1  0.210400  0.763000  0.682400  1.0  0.1715
  H  H223  1  0.173400  0.578300  0.983600  1.0  0.0671
  H  H224  1  0.201100  0.612300  0.065600  1.0  0.107
  H  H225  1  0.141500  0.581600  0.232400  1.0  0.1085
  H  H226  1  0.115800  0.546900  0.147200  1.0  0.0835
  H  H227  1  0.207300  0.638300  0.182800  1.0  0.0592
  H  H228  1  0.174100  0.641200  0.231400  1.0  0.0609
  H  H229  1  0.729300  0.377000  0.926900  1.0  0.0948
  H  H230  1  0.703500  0.361800  0.818500  1.0  0.0912
  H  H231  1  0.716000  0.309600  0.758700  1.0  0.1188
  H  H232  1  0.743000  0.269500  0.837500  1.0  0.0998
  H  H233  1  0.850800  0.225700  0.134300  1.0  0.1185
  H  H234  1  0.821200  0.225600  0.194100  1.0  0.1161
  H  H235  1  0.876100  0.268400  0.205500  1.0  0.1056
  H  H236  1  0.872700  0.234600  0.251700  1.0  0.1069
  H  H237  1  0.847600  0.264300  0.267800  1.0  0.12
  H  H238  1  0.882500  0.189500  0.895700  1.0  0.1185
  H  H239  1  0.923000  0.151800  0.924800  1.0  0.0901
  H  H240  1  0.917400  0.116000  0.027300  1.0  0.1044
  H  H241  1  0.870300  0.118100  0.101400  1.0  0.092
  H  H242  1  0.709500  0.169300  0.183100  1.0  0.0821
  H  H243  1  0.702700  0.207600  0.168100  1.0  0.1015
  H  H244  1  0.667700  0.197600  0.086400  1.0  0.0998
  H  H245  1  0.668600  0.160400  0.117000  1.0  0.0878
  H  H246  1  0.690500  0.170800  0.045300  1.0  0.1038
  H  H247  1  0.723000  0.208100  0.906300  1.0  0.1088
  H  H248  1  0.688300  0.171800  0.832900  1.0  0.1201
  H  H249  1  0.749800  0.102300  0.866900  1.0  0.0917
  H  H250  1  0.780600  0.136500  0.938500  1.0  0.0592
  H  H251  1  0.721200  0.094800  0.749900  1.0  0.0722
  H  H252  1  0.688700  0.099400  0.799800  1.0  0.064
  H  H253  1  0.758900  0.457500  0.353200  1.0  0.096
  H  H254  1  0.801300  0.489500  0.308700  1.0  0.104
  H  H255  1  0.833900  0.472200  0.207500  1.0  0.107
  H  H256  1  0.825800  0.419500  0.157700  1.0  0.0822
  H  H257  1  0.738000  0.270000  0.119000  1.0  0.1792
  H  H258  1  0.710400  0.263000  0.182400  1.0  0.1715
  H  H259  1  0.673400  0.078300  0.483600  1.0  0.0673
  H  H260  1  0.701100  0.112300  0.565600  1.0  0.1071
  H  H261  1  0.641500  0.081600  0.732400  1.0  0.1085
  H  H262  1  0.615800  0.046900  0.647200  1.0  0.0835
  H  H263  1  0.707300  0.138300  0.682800  1.0  0.0592
  H  H264  1  0.674100  0.141200  0.731400  1.0  0.0609
  H  H265  1  0.270700  0.123000  0.926900  1.0  0.0955
  H  H266  1  0.296500  0.138200  0.818500  1.0  0.0902
  H  H267  1  0.284000  0.190400  0.758700  1.0  0.1186
  H  H268  1  0.257000  0.230500  0.837500  1.0  0.0998
  H  H269  1  0.149200  0.274300  0.134300  1.0  0.1191
  H  H270  1  0.178800  0.274400  0.194100  1.0  0.1154
  H  H271  1  0.123900  0.231600  0.205500  1.0  0.1046
  H  H272  1  0.127300  0.265400  0.251700  1.0  0.1059
  H  H273  1  0.152400  0.235700  0.267800  1.0  0.12
  H  H274  1  0.117500  0.310500  0.895700  1.0  0.1177
  H  H275  1  0.077000  0.348200  0.924800  1.0  0.0903
  H  H276  1  0.082600  0.384000  0.027300  1.0  0.1041
  H  H277  1  0.129700  0.381900  0.101400  1.0  0.092
  H  H278  1  0.290500  0.330700  0.183100  1.0  0.0839
  H  H279  1  0.297300  0.292400  0.168100  1.0  0.1021
  H  H280  1  0.332300  0.302400  0.086400  1.0  0.0991
  H  H281  1  0.331400  0.339600  0.117000  1.0  0.09
  H  H282  1  0.309500  0.329200  0.045300  1.0  0.104
  H  H283  1  0.277000  0.291900  0.906300  1.0  0.1079
  H  H284  1  0.311700  0.328200  0.832900  1.0  0.1196
  H  H285  1  0.250200  0.397700  0.866900  1.0  0.091
  H  H286  1  0.219400  0.363500  0.938500  1.0  0.0588
  H  H287  1  0.278800  0.405200  0.749900  1.0  0.0712
  H  H288  1  0.311300  0.400600  0.799800  1.0  0.0637
  H  H289  1  0.241100  0.042500  0.353200  1.0  0.096
  H  H290  1  0.198700  0.010500  0.308700  1.0  0.1048
  H  H291  1  0.166100  0.027800  0.207500  1.0  0.1072
  H  H292  1  0.174200  0.080500  0.157700  1.0  0.0825
  H  H293  1  0.262000  0.230000  0.119000  1.0  0.1776
  H  H294  1  0.289600  0.237000  0.182400  1.0  0.1723
  H  H295  1  0.326600  0.421700  0.483600  1.0  0.0669
  H  H296  1  0.298900  0.387700  0.565600  1.0  0.1071
  H  H297  1  0.358500  0.418400  0.732400  1.0  0.1078
  H  H298  1  0.384200  0.453100  0.647200  1.0  0.0838
  H  H299  1  0.292700  0.361700  0.682800  1.0  0.0594
  H  H300  1  0.325900  0.358800  0.731400  1.0  0.0629
  H  H301  1  0.770700  0.623000  0.426900  1.0  0.0955
  H  H302  1  0.796500  0.638200  0.318500  1.0  0.0902
  H  H303  1  0.784000  0.690400  0.258700  1.0  0.1186
  H  H304  1  0.757000  0.730500  0.337500  1.0  0.0998
  H  H305  1  0.649200  0.774300  0.634300  1.0  0.1191
  H  H306  1  0.678800  0.774400  0.694100  1.0  0.1154
  H  H307  1  0.623900  0.731600  0.705500  1.0  0.1046
  H  H308  1  0.627300  0.765400  0.751700  1.0  0.1059
  H  H309  1  0.652400  0.735700  0.767800  1.0  0.12
  H  H310  1  0.617500  0.810500  0.395700  1.0  0.1177
  H  H311  1  0.577000  0.848200  0.424800  1.0  0.0903
  H  H312  1  0.582600  0.884000  0.527300  1.0  0.1041
  H  H313  1  0.629700  0.881900  0.601400  1.0  0.092
  H  H314  1  0.790500  0.830700  0.683100  1.0  0.0839
  H  H315  1  0.797300  0.792400  0.668100  1.0  0.1021
  H  H316  1  0.832300  0.802400  0.586400  1.0  0.0991
  H  H317  1  0.831400  0.839600  0.617000  1.0  0.09
  H  H318  1  0.809500  0.829200  0.545300  1.0  0.104
  H  H319  1  0.777000  0.791900  0.406300  1.0  0.1079
  H  H320  1  0.811700  0.828200  0.332900  1.0  0.1196
  H  H321  1  0.750200  0.897700  0.366900  1.0  0.091
  H  H322  1  0.719400  0.863500  0.438500  1.0  0.0588
  H  H323  1  0.778800  0.905200  0.249900  1.0  0.0712
  H  H324  1  0.811300  0.900600  0.299800  1.0  0.0637
  H  H325  1  0.741100  0.542500  0.853200  1.0  0.096
  H  H326  1  0.698700  0.510500  0.808700  1.0  0.1048
  H  H327  1  0.666100  0.527800  0.707500  1.0  0.1072
  H  H328  1  0.674200  0.580500  0.657700  1.0  0.0825
  H  H329  1  0.762000  0.730000  0.619000  1.0  0.1776
  H  H330  1  0.789600  0.737000  0.682400  1.0  0.1723
  H  H331  1  0.826600  0.921700  0.983600  1.0  0.0668
  H  H332  1  0.798900  0.887700  0.065600  1.0  0.1069
  H  H333  1  0.858500  0.918400  0.232400  1.0  0.1078
  H  H334  1  0.884200  0.953100  0.147200  1.0  0.0838
  H  H335  1  0.792700  0.861700  0.182800  1.0  0.0594
  H  H336  1  0.825900  0.858800  0.231400  1.0  0.0629
  H  H337  1  0.373000  0.479300  0.823100  1.0  0.0954
  H  H338  1  0.388200  0.453500  0.931500  1.0  0.091
  H  H339  1  0.440400  0.466000  0.991300  1.0  0.1203
  H  H340  1  0.480500  0.493000  0.912500  1.0  0.0999
  H  H341  1  0.524300  0.600800  0.615700  1.0  0.1189
  H  H342  1  0.524400  0.571200  0.555900  1.0  0.1157
  H  H343  1  0.481600  0.626100  0.544500  1.0  0.1038
  H  H344  1  0.515400  0.622700  0.498300  1.0  0.1042
  H  H345  1  0.485700  0.597600  0.482200  1.0  0.1185
  H  H346  1  0.560500  0.632500  0.854300  1.0  0.1193
  H  H347  1  0.598200  0.673000  0.825200  1.0  0.089
  H  H348  1  0.634000  0.667400  0.722700  1.0  0.1035
  H  H349  1  0.631900  0.620300  0.648600  1.0  0.0912
  H  H350  1  0.580700  0.459500  0.566900  1.0  0.0835
  H  H351  1  0.542400  0.452700  0.581900  1.0  0.1009
  H  H352  1  0.552400  0.417700  0.663600  1.0  0.0984
  H  H353  1  0.589600  0.418600  0.633000  1.0  0.0875
  H  H354  1  0.579200  0.440500  0.704700  1.0  0.105
  H  H355  1  0.541900  0.473000  0.843700  1.0  0.1077
  H  H356  1  0.578200  0.438300  0.917100  1.0  0.1202
  H  H357  1  0.647700  0.499800  0.883100  1.0  0.0932
  H  H358  1  0.613500  0.530600  0.811500  1.0  0.059
  H  H359  1  0.655200  0.471200  0.000100  1.0  0.0734
  H  H360  1  0.650600  0.438700  0.950200  1.0  0.0655
  H  H361  1  0.292500  0.508900  0.396800  1.0  0.0943
  H  H362  1  0.260500  0.551300  0.441300  1.0  0.1044
  H  H363  1  0.277800  0.583900  0.542500  1.0  0.1079
  H  H364  1  0.330500  0.575800  0.592300  1.0  0.0824
  H  H365  1  0.480000  0.488000  0.631000  1.0  0.1794
  H  H366  1  0.487000  0.460400  0.567600  1.0  0.1705
  H  H367  1  0.671700  0.423400  0.266400  1.0  0.0659
  H  H368  1  0.637700  0.451100  0.184400  1.0  0.1074
  H  H369  1  0.668400  0.391500  0.017600  1.0  0.1078
  H  H370  1  0.703100  0.365800  0.102800  1.0  0.0831
  H  H371  1  0.611700  0.457300  0.067200  1.0  0.0582
  H  H372  1  0.608800  0.424100  0.018600  1.0  0.063
  H  H373  1  0.873000  0.979300  0.323100  1.0  0.0954
  H  H374  1  0.888200  0.953500  0.431500  1.0  0.091
  H  H375  1  0.940400  0.966000  0.491300  1.0  0.1203
  H  H376  1  0.980500  0.993000  0.412500  1.0  0.0999
  H  H377  1  0.024300  0.100800  0.115700  1.0  0.1189
  H  H378  1  0.024400  0.071200  0.055900  1.0  0.1157
  H  H379  1  0.981600  0.126100  0.044500  1.0  0.1038
  H  H380  1  0.015400  0.122700  0.998300  1.0  0.1042
  H  H381  1  0.985700  0.097600  0.982200  1.0  0.1185
  H  H382  1  0.060500  0.132500  0.354300  1.0  0.1197
  H  H383  1  0.098200  0.173000  0.325200  1.0  0.089
  H  H384  1  0.134000  0.167400  0.222700  1.0  0.1035
  H  H385  1  0.131900  0.120300  0.148600  1.0  0.0912
  H  H386  1  0.080700  0.959500  0.066900  1.0  0.0835
  H  H387  1  0.042400  0.952700  0.081900  1.0  0.1009
  H  H388  1  0.052400  0.917700  0.163600  1.0  0.0984
  H  H389  1  0.089600  0.918600  0.133000  1.0  0.0875
  H  H390  1  0.079200  0.940500  0.204700  1.0  0.105
  H  H391  1  0.041900  0.973000  0.343700  1.0  0.1077
  H  H392  1  0.078200  0.938300  0.417100  1.0  0.1202
  H  H393  1  0.147700  0.999800  0.383100  1.0  0.0932
  H  H394  1  0.113500  0.030600  0.311500  1.0  0.059
  H  H395  1  0.155200  0.971200  0.500100  1.0  0.0734
  H  H396  1  0.150600  0.938700  0.450200  1.0  0.0655
  H  H397  1  0.792500  0.008900  0.896800  1.0  0.0943
  H  H398  1  0.760500  0.051300  0.941300  1.0  0.1044
  H  H399  1  0.777800  0.083900  0.042500  1.0  0.1079
  H  H400  1  0.830500  0.075800  0.092300  1.0  0.0824
  H  H401  1  0.980000  0.988000  0.131000  1.0  0.1794
  H  H402  1  0.987000  0.960400  0.067600  1.0  0.1705
  H  H403  1  0.171700  0.923400  0.766400  1.0  0.0659
  H  H404  1  0.137700  0.951100  0.684400  1.0  0.1074
  H  H405  1  0.168400  0.891500  0.517600  1.0  0.1078
  H  H406  1  0.203100  0.865800  0.602800  1.0  0.0831
  H  H407  1  0.111700  0.957300  0.567200  1.0  0.0582
  H  H408  1  0.108800  0.924100  0.518600  1.0  0.063
  H  H409  1  0.127000  0.520700  0.323100  1.0  0.0952
  H  H410  1  0.111800  0.546500  0.431500  1.0  0.0911
  H  H411  1  0.059600  0.534000  0.491300  1.0  0.1203
  H  H412  1  0.019500  0.507000  0.412500  1.0  0.0996
  H  H413  1  0.975700  0.399200  0.115700  1.0  0.1196
  H  H414  1  0.975600  0.428800  0.055900  1.0  0.1147
  H  H415  1  0.018400  0.373900  0.044500  1.0  0.1038
  H  H416  1  0.984600  0.377300  0.998300  1.0  0.1032
  H  H417  1  0.014300  0.402400  0.982200  1.0  0.1172
  H  H418  1  0.939500  0.367500  0.354300  1.0  0.1188
  H  H419  1  0.901800  0.327000  0.325200  1.0  0.0879
  H  H420  1  0.866000  0.332600  0.222700  1.0  0.1035
  H  H421  1  0.868100  0.379700  0.148600  1.0  0.0914
  H  H422  1  0.919300  0.540500  0.066900  1.0  0.084
  H  H423  1  0.957600  0.547300  0.081900  1.0  0.1008
  H  H424  1  0.947600  0.582300  0.163600  1.0  0.0967
  H  H425  1  0.910400  0.581400  0.133000  1.0  0.0895
  H  H426  1  0.920800  0.559500  0.204700  1.0  0.105
  H  H427  1  0.958100  0.527000  0.343700  1.0  0.1073
  H  H428  1  0.921800  0.561700  0.417100  1.0  0.1198
  H  H429  1  0.852300  0.500200  0.383100  1.0  0.0921
  H  H430  1  0.886500  0.469400  0.311500  1.0  0.0584
  H  H431  1  0.844800  0.528800  0.500100  1.0  0.0723
  H  H432  1  0.849400  0.561300  0.450200  1.0  0.0655
  H  H433  1  0.207500  0.491100  0.896800  1.0  0.0939
  H  H434  1  0.239500  0.448700  0.941300  1.0  0.1039
  H  H435  1  0.222200  0.416100  0.042500  1.0  0.108
  H  H436  1  0.169500  0.424200  0.092300  1.0  0.0828
  H  H437  1  0.020000  0.512000  0.131000  1.0  0.1803
  H  H438  1  0.013000  0.539600  0.067600  1.0  0.1693
  H  H439  1  0.828300  0.576600  0.766400  1.0  0.0659
  H  H440  1  0.862300  0.548900  0.684400  1.0  0.1075
  H  H441  1  0.831600  0.608500  0.517600  1.0  0.1076
  H  H442  1  0.796900  0.634200  0.602800  1.0  0.0836
  H  H443  1  0.888300  0.542700  0.567200  1.0  0.0598
  H  H444  1  0.891200  0.575900  0.518600  1.0  0.0622
  H  H445  1  0.627000  0.020700  0.823100  1.0  0.0952
  H  H446  1  0.611800  0.046500  0.931500  1.0  0.0911
  H  H447  1  0.559600  0.034000  0.991300  1.0  0.1203
  H  H448  1  0.519500  0.007000  0.912500  1.0  0.0996
  H  H449  1  0.475700  0.899200  0.615700  1.0  0.1196
  H  H450  1  0.475600  0.928800  0.555900  1.0  0.1147
  H  H451  1  0.518400  0.873900  0.544500  1.0  0.1038
  H  H452  1  0.484600  0.877300  0.498300  1.0  0.1032
  H  H453  1  0.514300  0.902400  0.482200  1.0  0.1172
  H  H454  1  0.439500  0.867500  0.854300  1.0  0.1185
  H  H455  1  0.401800  0.827000  0.825200  1.0  0.0879
  H  H456  1  0.366000  0.832600  0.722700  1.0  0.1035
  H  H457  1  0.368100  0.879700  0.648600  1.0  0.0914
  H  H458  1  0.419300  0.040500  0.566900  1.0  0.084
  H  H459  1  0.457600  0.047300  0.581900  1.0  0.1008
  H  H460  1  0.447600  0.082300  0.663600  1.0  0.0967
  H  H461  1  0.410400  0.081400  0.633000  1.0  0.0895
  H  H462  1  0.420800  0.059500  0.704700  1.0  0.105
  H  H463  1  0.458100  0.027000  0.843700  1.0  0.1073
  H  H464  1  0.421800  0.061700  0.917100  1.0  0.1198
  H  H465  1  0.352300  0.000200  0.883100  1.0  0.0921
  H  H466  1  0.386500  0.969400  0.811500  1.0  0.0584
  H  H467  1  0.344800  0.028800  0.000100  1.0  0.0723
  H  H468  1  0.349400  0.061300  0.950200  1.0  0.0655
  H  H469  1  0.707500  0.991100  0.396800  1.0  0.0939
  H  H470  1  0.739500  0.948700  0.441300  1.0  0.1039
  H  H471  1  0.722200  0.916100  0.542500  1.0  0.108
  H  H472  1  0.669500  0.924200  0.592300  1.0  0.0828
  H  H473  1  0.520000  0.012000  0.631000  1.0  0.1803
  H  H474  1  0.513000  0.039600  0.567600  1.0  0.1693
  H  H475  1  0.328300  0.076600  0.266400  1.0  0.0659
  H  H476  1  0.362300  0.048900  0.184400  1.0  0.1075
  H  H477  1  0.331600  0.108500  0.017600  1.0  0.1076
  H  H478  1  0.296900  0.134200  0.102800  1.0  0.0836
  H  H479  1  0.388300  0.042700  0.067200  1.0  0.0598
  H  H480  1  0.391200  0.075900  0.018600  1.0  0.0622
  H  H481  1  0.770700  0.123000  0.573100  1.0  0.0954
  H  H482  1  0.796500  0.138200  0.681500  1.0  0.09
  H  H483  1  0.784000  0.190400  0.741300  1.0  0.118
  H  H484  1  0.757000  0.230500  0.662500  1.0  0.0999
  H  H485  1  0.649200  0.274300  0.365700  1.0  0.1189
  H  H486  1  0.678800  0.274400  0.305900  1.0  0.1152
  H  H487  1  0.623900  0.231600  0.294500  1.0  0.104
  H  H488  1  0.627300  0.265400  0.248300  1.0  0.1059
  H  H489  1  0.652400  0.235700  0.232200  1.0  0.1203
  H  H490  1  0.617500  0.310500  0.604300  1.0  0.1202
  H  H491  1  0.577000  0.348200  0.575200  1.0  0.0899
  H  H492  1  0.582600  0.384000  0.472700  1.0  0.1043
  H  H493  1  0.629700  0.381900  0.398600  1.0  0.0918
  H  H494  1  0.790500  0.330700  0.316900  1.0  0.0841
  H  H495  1  0.797300  0.292400  0.331900  1.0  0.1006
  H  H496  1  0.832300  0.302400  0.413600  1.0  0.0989
  H  H497  1  0.831400  0.339600  0.383000  1.0  0.0893
  H  H498  1  0.809500  0.329200  0.454700  1.0  0.1052
  H  H499  1  0.777000  0.291900  0.593700  1.0  0.108
  H  H500  1  0.811700  0.328200  0.667100  1.0  0.1194
  H  H501  1  0.750200  0.397700  0.633100  1.0  0.091
  H  H502  1  0.719400  0.363500  0.561500  1.0  0.0591
  H  H503  1  0.778800  0.405200  0.750100  1.0  0.0712
  H  H504  1  0.811300  0.400600  0.700200  1.0  0.0659
  H  H505  1  0.741100  0.042500  0.146800  1.0  0.0952
  H  H506  1  0.698700  0.010500  0.191300  1.0  0.1043
  H  H507  1  0.666100  0.027800  0.292500  1.0  0.1075
  H  H508  1  0.674200  0.080500  0.342300  1.0  0.0827
  H  H509  1  0.762000  0.230000  0.381000  1.0  0.1774
  H  H510  1  0.789600  0.237000  0.317600  1.0  0.1705
  H  H511  1  0.826600  0.421700  0.016400  1.0  0.066
  H  H512  1  0.798900  0.387700  0.934400  1.0  0.1069
  H  H513  1  0.858500  0.418400  0.767600  1.0  0.1075
  H  H514  1  0.884200  0.453100  0.852800  1.0  0.0837
  H  H515  1  0.792700  0.361700  0.817200  1.0  0.0587
  H  H516  1  0.825900  0.358800  0.768600  1.0  0.0627
  H  H517  1  0.270700  0.623000  0.073100  1.0  0.0954
  H  H518  1  0.296500  0.638200  0.181500  1.0  0.09
  H  H519  1  0.284000  0.690400  0.241300  1.0  0.118
  H  H520  1  0.257000  0.730500  0.162500  1.0  0.0999
  H  H521  1  0.149200  0.774300  0.865700  1.0  0.1189
  H  H522  1  0.178800  0.774400  0.805900  1.0  0.1152
  H  H523  1  0.123900  0.731600  0.794500  1.0  0.104
  H  H524  1  0.127300  0.765400  0.748300  1.0  0.1059
  H  H525  1  0.152400  0.735700  0.732200  1.0  0.1203
  H  H526  1  0.117500  0.810500  0.104300  1.0  0.1202
  H  H527  1  0.077000  0.848200  0.075200  1.0  0.09
  H  H528  1  0.082600  0.884000  0.972700  1.0  0.1043
  H  H529  1  0.129700  0.881900  0.898600  1.0  0.0918
  H  H530  1  0.290500  0.830700  0.816900  1.0  0.0841
  H  H531  1  0.297300  0.792400  0.831900  1.0  0.1006
  H  H532  1  0.332300  0.802400  0.913600  1.0  0.0989
  H  H533  1  0.331400  0.839600  0.883000  1.0  0.0893
  H  H534  1  0.309500  0.829200  0.954700  1.0  0.1052
  H  H535  1  0.277000  0.791900  0.093700  1.0  0.108
  H  H536  1  0.311700  0.828200  0.167100  1.0  0.1194
  H  H537  1  0.250200  0.897700  0.133100  1.0  0.091
  H  H538  1  0.219400  0.863500  0.061500  1.0  0.0591
  H  H539  1  0.278800  0.905200  0.250100  1.0  0.0712
  H  H540  1  0.311300  0.900600  0.200200  1.0  0.0659
  H  H541  1  0.241100  0.542500  0.646800  1.0  0.0952
  H  H542  1  0.198700  0.510500  0.691300  1.0  0.1043
  H  H543  1  0.166100  0.527800  0.792500  1.0  0.1075
  H  H544  1  0.174200  0.580500  0.842300  1.0  0.0827
  H  H545  1  0.262000  0.730000  0.881000  1.0  0.1774
  H  H546  1  0.289600  0.737000  0.817600  1.0  0.1705
  H  H547  1  0.326600  0.921700  0.516400  1.0  0.0662
  H  H548  1  0.298900  0.887700  0.434400  1.0  0.1071
  H  H549  1  0.358500  0.918400  0.267600  1.0  0.1075
  H  H550  1  0.384200  0.953100  0.352800  1.0  0.0837
  H  H551  1  0.292700  0.861700  0.317200  1.0  0.0587
  H  H552  1  0.325900  0.858800  0.268600  1.0  0.0627
  H  H553  1  0.729300  0.877000  0.073100  1.0  0.0947
  H  H554  1  0.703500  0.861800  0.181500  1.0  0.0907
  H  H555  1  0.716000  0.809600  0.241300  1.0  0.1191
  H  H556  1  0.743000  0.769500  0.162500  1.0  0.1
  H  H557  1  0.850800  0.725700  0.865700  1.0  0.1181
  H  H558  1  0.821200  0.725600  0.805900  1.0  0.1159
  H  H559  1  0.876100  0.768400  0.794500  1.0  0.1047
  H  H560  1  0.872700  0.734600  0.748300  1.0  0.1065
  H  H561  1  0.847600  0.764300  0.732200  1.0  0.1215
  H  H562  1  0.882500  0.689500  0.104300  1.0  0.1198
  H  H563  1  0.923000  0.651800  0.075200  1.0  0.09
  H  H564  1  0.917400  0.616000  0.972700  1.0  0.1047
  H  H565  1  0.870300  0.618100  0.898600  1.0  0.0919
  H  H566  1  0.709500  0.669300  0.816900  1.0  0.0823
  H  H567  1  0.702700  0.707600  0.831900  1.0  0.1016
  H  H568  1  0.667700  0.697600  0.913600  1.0  0.1
  H  H569  1  0.668600  0.660400  0.883000  1.0  0.0887
  H  H570  1  0.690500  0.670800  0.954700  1.0  0.1055
  H  H571  1  0.723000  0.708100  0.093700  1.0  0.1087
  H  H572  1  0.688300  0.671800  0.167100  1.0  0.1205
  H  H573  1  0.749800  0.602300  0.133100  1.0  0.0917
  H  H574  1  0.780600  0.636500  0.061500  1.0  0.0595
  H  H575  1  0.721200  0.594800  0.250100  1.0  0.0729
  H  H576  1  0.688700  0.599400  0.200200  1.0  0.0644
  H  H577  1  0.758900  0.957500  0.646800  1.0  0.0952
  H  H578  1  0.801300  0.989500  0.691300  1.0  0.1037
  H  H579  1  0.833900  0.972200  0.792500  1.0  0.1071
  H  H580  1  0.825800  0.919500  0.842300  1.0  0.0824
  H  H581  1  0.738000  0.770000  0.881000  1.0  0.1787
  H  H582  1  0.710400  0.763000  0.817600  1.0  0.17
  H  H583  1  0.673400  0.578300  0.516400  1.0  0.0663
  H  H584  1  0.701100  0.612300  0.434400  1.0  0.1072
  H  H585  1  0.641500  0.581600  0.267600  1.0  0.1078
  H  H586  1  0.615800  0.546900  0.352800  1.0  0.0838
  H  H587  1  0.707300  0.638300  0.317200  1.0  0.0579
  H  H588  1  0.674100  0.641200  0.268600  1.0  0.0607
  H  H589  1  0.229300  0.377000  0.573100  1.0  0.0947
  H  H590  1  0.203500  0.361800  0.681500  1.0  0.0907
  H  H591  1  0.216000  0.309600  0.741300  1.0  0.1191
  H  H592  1  0.243000  0.269500  0.662500  1.0  0.1
  H  H593  1  0.350800  0.225700  0.365700  1.0  0.1181
  H  H594  1  0.321200  0.225600  0.305900  1.0  0.1159
  H  H595  1  0.376100  0.268400  0.294500  1.0  0.1047
  H  H596  1  0.372700  0.234600  0.248300  1.0  0.1065
  H  H597  1  0.347600  0.264300  0.232200  1.0  0.1215
  H  H598  1  0.382500  0.189500  0.604300  1.0  0.1198
  H  H599  1  0.423000  0.151800  0.575200  1.0  0.0897
  H  H600  1  0.417400  0.116000  0.472700  1.0  0.1047
  H  H601  1  0.370300  0.118100  0.398600  1.0  0.0919
  H  H602  1  0.209500  0.169300  0.316900  1.0  0.0823
  H  H603  1  0.202700  0.207600  0.331900  1.0  0.1016
  H  H604  1  0.167700  0.197600  0.413600  1.0  0.1
  H  H605  1  0.168600  0.160400  0.383000  1.0  0.0887
  H  H606  1  0.190500  0.170800  0.454700  1.0  0.1055
  H  H607  1  0.223000  0.208100  0.593700  1.0  0.1087
  H  H608  1  0.188300  0.171800  0.667100  1.0  0.1205
  H  H609  1  0.249800  0.102300  0.633100  1.0  0.0917
  H  H610  1  0.280600  0.136500  0.561500  1.0  0.0595
  H  H611  1  0.221200  0.094800  0.750100  1.0  0.0729
  H  H612  1  0.188700  0.099400  0.700200  1.0  0.0644
  H  H613  1  0.258900  0.457500  0.146800  1.0  0.0952
  H  H614  1  0.301300  0.489500  0.191300  1.0  0.1037
  H  H615  1  0.333900  0.472200  0.292500  1.0  0.1071
  H  H616  1  0.325800  0.419500  0.342300  1.0  0.0824
  H  H617  1  0.238000  0.270000  0.381000  1.0  0.1787
  H  H618  1  0.210400  0.263000  0.317600  1.0  0.17
  H  H619  1  0.173400  0.078300  0.016400  1.0  0.0662
  H  H620  1  0.201100  0.112300  0.934400  1.0  0.1072
  H  H621  1  0.141500  0.081600  0.767600  1.0  0.1078
  H  H622  1  0.115800  0.046900  0.852800  1.0  0.0838
  H  H623  1  0.207300  0.138300  0.817200  1.0  0.0579
  H  H624  1  0.174100  0.141200  0.768600  1.0  0.0607
  C  C625  1  0.584170  0.497100  0.199100  1.0  0.3378
  C  C626  1  0.605350  0.517210  0.158000  1.0  -0.1469
  C  C627  1  0.596700  0.532000  0.092700  1.0  -0.1105
  C  C628  1  0.564800  0.526400  0.058300  1.0  -0.1238
  C  C629  1  0.541730  0.508600  0.103800  1.0  -0.0829
  C  C630  1  0.550990  0.494040  0.170500  1.0  -0.1469
  C  C631  1  0.525450  0.476420  0.212000  1.0  0.5326
  C  C632  1  0.514760  0.429980  0.372900  1.0  0.4454
  C  C633  1  0.489870  0.412200  0.419100  1.0  -0.309
  C  C634  1  0.502900  0.389520  0.478600  1.0  -0.3458
  C  C635  1  0.427440  0.399000  0.232400  1.0  0.3538
  C  C636  1  0.425260  0.370260  0.188000  1.0  -0.2396
  C  C637  1  0.402810  0.346350  0.205300  1.0  -0.1345
  C  C638  1  0.381490  0.349550  0.266000  1.0  -0.1376
  C  C639  1  0.382920  0.377400  0.309900  1.0  -0.0405
  C  C640  1  0.405640  0.402560  0.295100  1.0  -0.1567
  C  C641  1  0.404720  0.432090  0.343800  1.0  0.5652
  C  C642  1  0.439400  0.508880  0.354900  1.0  0.4863
  C  C643  1  0.436360  0.542080  0.393000  1.0  -0.2151
  C  C644  1  0.428200  0.568300  0.344200  1.0  -0.396
  C  C645  1  0.436700  0.519400  0.142200  1.0  0.0825
  C  C646  1  0.415600  0.539800  0.096700  1.0  -0.1766
  C  C647  1  0.384810  0.525700  0.073100  1.0  0.2213
  C  C648  1  0.375290  0.504600  0.114300  1.0  -0.11
  C  C649  1  0.396660  0.486200  0.159000  1.0  0.1519
  C  C650  1  0.361400  0.544500  0.019700  1.0  -0.0864
  C  C651  1  0.667950  0.483880  0.534200  1.0  0.3166
  C  C652  1  0.699280  0.477600  0.563300  1.0  -0.2093
  C  C653  1  0.718590  0.452590  0.536300  1.0  -0.1187
  C  C654  1  0.708280  0.432950  0.477200  1.0  -0.1386
  C  C655  1  0.677180  0.438230  0.447200  1.0  -0.0402
  C  C656  1  0.656800  0.463530  0.473300  1.0  -0.1527
  C  C657  1  0.624260  0.468070  0.436900  1.0  0.5861
  C  C658  1  0.561070  0.523420  0.432400  1.0  0.5946
  C  C659  1  0.529230  0.531680  0.394600  1.0  -0.0342
  C  C660  1  0.328980  0.583360  0.785300  1.0  0.1826
  C  C661  1  0.349440  0.566860  0.833500  1.0  -0.2268
  C  C662  1  0.351290  0.576290  0.907900  1.0  0.0877
  C  C663  1  0.331320  0.601530  0.930900  1.0  -0.2167
  C  C664  1  0.310840  0.616940  0.879900  1.0  0.1451
  C  C665  1  0.375500  0.559200  0.961800  1.0  -0.1243
  C  C666  1  0.084170  0.997100  0.699100  1.0  0.3378
  C  C667  1  0.105350  0.017210  0.658000  1.0  -0.1469
  C  C668  1  0.096700  0.032000  0.592700  1.0  -0.1105
  C  C669  1  0.064800  0.026400  0.558300  1.0  -0.1238
  C  C670  1  0.041730  0.008600  0.603800  1.0  -0.0829
  C  C671  1  0.050990  0.994040  0.670500  1.0  -0.1469
  C  C672  1  0.025450  0.976420  0.712000  1.0  0.5326
  C  C673  1  0.014760  0.929980  0.872900  1.0  0.4454
  C  C674  1  0.989870  0.912200  0.919100  1.0  -0.309
  C  C675  1  0.002900  0.889520  0.978600  1.0  -0.3458
  C  C676  1  0.927440  0.899000  0.732400  1.0  0.3538
  C  C677  1  0.925260  0.870260  0.688000  1.0  -0.2396
  C  C678  1  0.902810  0.846350  0.705300  1.0  -0.1345
  C  C679  1  0.881490  0.849550  0.766000  1.0  -0.1376
  C  C680  1  0.882920  0.877400  0.809900  1.0  -0.0405
  C  C681  1  0.905640  0.902560  0.795100  1.0  -0.1567
  C  C682  1  0.904720  0.932090  0.843800  1.0  0.5652
  C  C683  1  0.939400  0.008880  0.854900  1.0  0.4863
  C  C684  1  0.936360  0.042080  0.893000  1.0  -0.2151
  C  C685  1  0.928200  0.068300  0.844200  1.0  -0.396
  C  C686  1  0.936700  0.019400  0.642200  1.0  0.0825
  C  C687  1  0.915600  0.039800  0.596700  1.0  -0.1766
  C  C688  1  0.884810  0.025700  0.573100  1.0  0.2213
  C  C689  1  0.875290  0.004600  0.614300  1.0  -0.11
  C  C690  1  0.896660  0.986200  0.659000  1.0  0.1519
  C  C691  1  0.861400  0.044500  0.519700  1.0  -0.0864
  C  C692  1  0.167950  0.983880  0.034200  1.0  0.3166
  C  C693  1  0.199280  0.977600  0.063300  1.0  -0.2095
  C  C694  1  0.218590  0.952590  0.036300  1.0  -0.1187
  C  C695  1  0.208280  0.932950  0.977200  1.0  -0.1386
  C  C696  1  0.177180  0.938230  0.947200  1.0  -0.0402
  C  C697  1  0.156800  0.963530  0.973300  1.0  -0.1527
  C  C698  1  0.124260  0.968070  0.936900  1.0  0.5862
  C  C699  1  0.061070  0.023420  0.932400  1.0  0.5946
  C  C700  1  0.029230  0.031680  0.894600  1.0  -0.0342
  C  C701  1  0.828980  0.083360  0.285300  1.0  0.1826
  C  C702  1  0.849440  0.066860  0.333500  1.0  -0.2268
  C  C703  1  0.851290  0.076290  0.407900  1.0  0.0877
  C  C704  1  0.831320  0.101530  0.430900  1.0  -0.2167
  C  C705  1  0.810840  0.116940  0.379900  1.0  0.1451
  C  C706  1  0.875500  0.059200  0.461800  1.0  -0.1243
  C  C707  1  0.915830  0.502900  0.699100  1.0  0.3371
  C  C708  1  0.894650  0.482790  0.658000  1.0  -0.1466
  C  C709  1  0.903300  0.468000  0.592700  1.0  -0.1113
  C  C710  1  0.935200  0.473600  0.558300  1.0  -0.1231
  C  C711  1  0.958270  0.491400  0.603800  1.0  -0.0828
  C  C712  1  0.949010  0.505960  0.670500  1.0  -0.1482
  C  C713  1  0.974550  0.523580  0.712000  1.0  0.5322
  C  C714  1  0.985240  0.570020  0.872900  1.0  0.4451
  C  C715  1  0.010130  0.587800  0.919100  1.0  -0.3096
  C  C716  1  0.997100  0.610480  0.978600  1.0  -0.3436
  C  C717  1  0.072560  0.601000  0.732400  1.0  0.3542
  C  C718  1  0.074740  0.629740  0.688000  1.0  -0.2394
  C  C719  1  0.097190  0.653650  0.705300  1.0  -0.1335
  C  C720  1  0.118510  0.650450  0.766000  1.0  -0.1391
  C  C721  1  0.117080  0.622600  0.809900  1.0  -0.042
  C  C722  1  0.094360  0.597440  0.795100  1.0  -0.1557
  C  C723  1  0.095280  0.567910  0.843800  1.0  0.5658
  C  C724  1  0.060600  0.491120  0.854900  1.0  0.4866
  C  C725  1  0.063640  0.457920  0.893000  1.0  -0.2139
  C  C726  1  0.071800  0.431700  0.844200  1.0  -0.3956
  C  C727  1  0.063300  0.480600  0.642200  1.0  0.0822
  C  C728  1  0.084400  0.460200  0.596700  1.0  -0.1775
  C  C729  1  0.115190  0.474300  0.573100  1.0  0.2212
  C  C730  1  0.124710  0.495400  0.614300  1.0  -0.1106
  C  C731  1  0.103340  0.513800  0.659000  1.0  0.1518
  C  C732  1  0.138600  0.455500  0.519700  1.0  -0.0841
  C  C733  1  0.832050  0.516120  0.034200  1.0  0.3161
  C  C734  1  0.800720  0.522400  0.063300  1.0  -0.2118
  C  C735  1  0.781410  0.547410  0.036300  1.0  -0.1204
  C  C736  1  0.791720  0.567050  0.977200  1.0  -0.1394
  C  C737  1  0.822820  0.561770  0.947200  1.0  -0.0406
  C  C738  1  0.843200  0.536470  0.973300  1.0  -0.1539
  C  C739  1  0.875740  0.531930  0.936900  1.0  0.587
  C  C740  1  0.938930  0.476580  0.932400  1.0  0.5939
  C  C741  1  0.970770  0.468320  0.894600  1.0  -0.0334
  C  C742  1  0.171020  0.416640  0.285300  1.0  0.1826
  C  C743  1  0.150560  0.433140  0.333500  1.0  -0.2273
  C  C744  1  0.148710  0.423710  0.407900  1.0  0.0878
  C  C745  1  0.168680  0.398470  0.430900  1.0  -0.2176
  C  C746  1  0.189160  0.383060  0.379900  1.0  0.1452
  C  C747  1  0.124500  0.440800  0.461800  1.0  -0.1259
  C  C748  1  0.415830  0.002900  0.199100  1.0  0.3371
  C  C749  1  0.394650  0.982790  0.158000  1.0  -0.1466
  C  C750  1  0.403300  0.968000  0.092700  1.0  -0.1113
  C  C751  1  0.435200  0.973600  0.058300  1.0  -0.1231
  C  C752  1  0.458270  0.991400  0.103800  1.0  -0.0828
  C  C753  1  0.449010  0.005960  0.170500  1.0  -0.1482
  C  C754  1  0.474550  0.023580  0.212000  1.0  0.5322
  C  C755  1  0.485240  0.070020  0.372900  1.0  0.4451
  C  C756  1  0.510130  0.087800  0.419100  1.0  -0.3096
  C  C757  1  0.497100  0.110480  0.478600  1.0  -0.3436
  C  C758  1  0.572560  0.101000  0.232400  1.0  0.3542
  C  C759  1  0.574740  0.129740  0.188000  1.0  -0.2394
  C  C760  1  0.597190  0.153650  0.205300  1.0  -0.1335
  C  C761  1  0.618510  0.150450  0.266000  1.0  -0.1391
  C  C762  1  0.617080  0.122600  0.309900  1.0  -0.042
  C  C763  1  0.594360  0.097440  0.295100  1.0  -0.1557
  C  C764  1  0.595280  0.067910  0.343800  1.0  0.5658
  C  C765  1  0.560600  0.991120  0.354900  1.0  0.4866
  C  C766  1  0.563640  0.957920  0.393000  1.0  -0.2139
  C  C767  1  0.571800  0.931700  0.344200  1.0  -0.3956
  C  C768  1  0.563300  0.980600  0.142200  1.0  0.0822
  C  C769  1  0.584400  0.960200  0.096700  1.0  -0.1775
  C  C770  1  0.615190  0.974300  0.073100  1.0  0.2212
  C  C771  1  0.624710  0.995400  0.114300  1.0  -0.1106
  C  C772  1  0.603340  0.013800  0.159000  1.0  0.1518
  C  C773  1  0.638600  0.955500  0.019700  1.0  -0.0841
  C  C774  1  0.332050  0.016120  0.534200  1.0  0.3161
  C  C775  1  0.300720  0.022400  0.563300  1.0  -0.2116
  C  C776  1  0.281410  0.047410  0.536300  1.0  -0.1204
  C  C777  1  0.291720  0.067050  0.477200  1.0  -0.1394
  C  C778  1  0.322820  0.061770  0.447200  1.0  -0.0406
  C  C779  1  0.343200  0.036470  0.473300  1.0  -0.1539
  C  C780  1  0.375740  0.031930  0.436900  1.0  0.587
  C  C781  1  0.438930  0.976580  0.432400  1.0  0.5939
  C  C782  1  0.470770  0.968320  0.394600  1.0  -0.0334
  C  C783  1  0.671020  0.916640  0.785300  1.0  0.1826
  C  C784  1  0.650560  0.933140  0.833500  1.0  -0.2273
  C  C785  1  0.648710  0.923710  0.907900  1.0  0.0878
  C  C786  1  0.668680  0.898470  0.930900  1.0  -0.2176
  C  C787  1  0.689160  0.883060  0.879900  1.0  0.1452
  C  C788  1  0.624500  0.940800  0.961800  1.0  -0.1259
  C  C789  1  0.252900  0.834170  0.449100  1.0  0.3378
  C  C790  1  0.232790  0.855350  0.408000  1.0  -0.1471
  C  C791  1  0.218000  0.846700  0.342700  1.0  -0.1162
  C  C792  1  0.223600  0.814800  0.308300  1.0  -0.1233
  C  C793  1  0.241400  0.791730  0.353800  1.0  -0.0876
  C  C794  1  0.255960  0.800990  0.420500  1.0  -0.1471
  C  C795  1  0.273580  0.775450  0.462000  1.0  0.5313
  C  C796  1  0.320020  0.764760  0.622900  1.0  0.4465
  C  C797  1  0.337800  0.739870  0.669100  1.0  -0.3103
  C  C798  1  0.360480  0.752900  0.728600  1.0  -0.3465
  C  C799  1  0.351000  0.677440  0.482400  1.0  0.3536
  C  C800  1  0.379740  0.675260  0.438000  1.0  -0.2397
  C  C801  1  0.403650  0.652810  0.455300  1.0  -0.1354
  C  C802  1  0.400450  0.631490  0.516000  1.0  -0.1385
  C  C803  1  0.372600  0.632920  0.559900  1.0  -0.0415
  C  C804  1  0.347440  0.655640  0.545100  1.0  -0.1558
  C  C805  1  0.317910  0.654720  0.593800  1.0  0.5636
  C  C806  1  0.241120  0.689400  0.604900  1.0  0.4849
  C  C807  1  0.207920  0.686360  0.643000  1.0  -0.2141
  C  C808  1  0.181700  0.678200  0.594200  1.0  -0.3952
  C  C809  1  0.230600  0.686700  0.392200  1.0  0.0799
  C  C810  1  0.210200  0.665600  0.346700  1.0  -0.1772
  C  C811  1  0.224300  0.634810  0.323100  1.0  0.2195
  C  C812  1  0.245400  0.625290  0.364300  1.0  -0.1126
  C  C813  1  0.263800  0.646660  0.409000  1.0  0.151
  C  C814  1  0.205500  0.611400  0.269700  1.0  -0.0891
  C  C815  1  0.266120  0.917950  0.784200  1.0  0.3156
  C  C816  1  0.272400  0.949280  0.813300  1.0  -0.2145
  C  C817  1  0.297410  0.968590  0.786300  1.0  -0.119
  C  C818  1  0.317050  0.958280  0.727200  1.0  -0.1372
  C  C819  1  0.311770  0.927180  0.697200  1.0  -0.0391
  C  C820  1  0.286470  0.906800  0.723300  1.0  -0.1558
  C  C821  1  0.281930  0.874260  0.686900  1.0  0.5872
  C  C822  1  0.226580  0.811070  0.682400  1.0  0.5909
  C  C823  1  0.218320  0.779230  0.644600  1.0  -0.033
  C  C824  1  0.166640  0.578980  0.035300  1.0  0.1812
  C  C825  1  0.183140  0.599440  0.083500  1.0  -0.2257
  C  C826  1  0.173710  0.601290  0.157900  1.0  0.0871
  C  C827  1  0.148470  0.581320  0.180900  1.0  -0.2164
  C  C828  1  0.133060  0.560840  0.129900  1.0  0.1462
  C  C829  1  0.190800  0.625500  0.211800  1.0  -0.1284
  C  C830  1  0.752900  0.334170  0.949100  1.0  0.3378
  C  C831  1  0.732790  0.355350  0.908000  1.0  -0.1471
  C  C832  1  0.718000  0.346700  0.842700  1.0  -0.1162
  C  C833  1  0.723600  0.314800  0.808300  1.0  -0.1233
  C  C834  1  0.741400  0.291730  0.853800  1.0  -0.0876
  C  C835  1  0.755960  0.300990  0.920500  1.0  -0.1471
  C  C836  1  0.773580  0.275450  0.962000  1.0  0.5313
  C  C837  1  0.820020  0.264760  0.122900  1.0  0.4465
  C  C838  1  0.837800  0.239870  0.169100  1.0  -0.3103
  C  C839  1  0.860480  0.252900  0.228600  1.0  -0.3465
  C  C840  1  0.851000  0.177440  0.982400  1.0  0.3536
  C  C841  1  0.879740  0.175260  0.938000  1.0  -0.2397
  C  C842  1  0.903650  0.152810  0.955300  1.0  -0.1354
  C  C843  1  0.900450  0.131490  0.016000  1.0  -0.1385
  C  C844  1  0.872600  0.132920  0.059900  1.0  -0.0415
  C  C845  1  0.847440  0.155640  0.045100  1.0  -0.1558
  C  C846  1  0.817910  0.154720  0.093800  1.0  0.5636
  C  C847  1  0.741120  0.189400  0.104900  1.0  0.4849
  C  C848  1  0.707920  0.186360  0.143000  1.0  -0.2141
  C  C849  1  0.681700  0.178200  0.094200  1.0  -0.3952
  C  C850  1  0.730600  0.186700  0.892200  1.0  0.0799
  C  C851  1  0.710200  0.165600  0.846700  1.0  -0.1772
  C  C852  1  0.724300  0.134810  0.823100  1.0  0.2195
  C  C853  1  0.745400  0.125290  0.864300  1.0  -0.1126
  C  C854  1  0.763800  0.146660  0.909000  1.0  0.151
  C  C855  1  0.705500  0.111400  0.769700  1.0  -0.0891
  C  C856  1  0.766120  0.417950  0.284200  1.0  0.3156
  C  C857  1  0.772400  0.449280  0.313300  1.0  -0.2145
  C  C858  1  0.797410  0.468590  0.286300  1.0  -0.119
  C  C859  1  0.817050  0.458280  0.227200  1.0  -0.1372
  C  C860  1  0.811770  0.427180  0.197200  1.0  -0.0391
  C  C861  1  0.786470  0.406800  0.223300  1.0  -0.1558
  C  C862  1  0.781930  0.374260  0.186900  1.0  0.5872
  C  C863  1  0.726580  0.311070  0.182400  1.0  0.5909
  C  C864  1  0.718320  0.279230  0.144600  1.0  -0.033
  C  C865  1  0.666667  0.078980  0.535300  1.0  0.1812
  C  C866  1  0.683140  0.099440  0.583500  1.0  -0.2243
  C  C867  1  0.673710  0.101290  0.657900  1.0  0.0872
  C  C868  1  0.648470  0.081320  0.680900  1.0  -0.2153
  C  C869  1  0.633060  0.060840  0.629900  1.0  0.1459
  C  C870  1  0.690800  0.125500  0.711800  1.0  -0.1284
  C  C871  1  0.247100  0.165830  0.949100  1.0  0.3371
  C  C872  1  0.267210  0.144650  0.908000  1.0  -0.1457
  C  C873  1  0.282000  0.153300  0.842700  1.0  -0.1158
  C  C874  1  0.276400  0.185200  0.808300  1.0  -0.122
  C  C875  1  0.258600  0.208270  0.853800  1.0  -0.0867
  C  C876  1  0.244040  0.199010  0.920500  1.0  -0.1471
  C  C877  1  0.226420  0.224550  0.962000  1.0  0.5307
  C  C878  1  0.179980  0.235240  0.122900  1.0  0.4443
  C  C879  1  0.162200  0.260130  0.169100  1.0  -0.309
  C  C880  1  0.139520  0.247100  0.228600  1.0  -0.3472
  C  C881  1  0.149000  0.322560  0.982400  1.0  0.3538
  C  C882  1  0.120260  0.324740  0.938000  1.0  -0.239
  C  C883  1  0.096350  0.347190  0.955300  1.0  -0.1364
  C  C884  1  0.099550  0.368510  0.016000  1.0  -0.1408
  C  C885  1  0.127400  0.367080  0.059900  1.0  -0.0422
  C  C886  1  0.152560  0.344360  0.045100  1.0  -0.1554
  C  C887  1  0.182090  0.345280  0.093800  1.0  0.5648
  C  C888  1  0.258880  0.310600  0.104900  1.0  0.4857
  C  C889  1  0.292080  0.313640  0.143000  1.0  -0.215
  C  C890  1  0.318300  0.321800  0.094200  1.0  -0.3943
  C  C891  1  0.269400  0.313300  0.892200  1.0  0.0807
  C  C892  1  0.289800  0.334400  0.846700  1.0  -0.1766
  C  C893  1  0.275700  0.365190  0.823100  1.0  0.2204
  C  C894  1  0.254600  0.374710  0.864300  1.0  -0.1112
  C  C895  1  0.236200  0.353340  0.909000  1.0  0.151
  C  C896  1  0.294500  0.388600  0.769700  1.0  -0.0888
  C  C897  1  0.233880  0.082050  0.284200  1.0  0.3162
  C  C898  1  0.227600  0.050720  0.313300  1.0  -0.214
  C  C899  1  0.202590  0.031410  0.286300  1.0  -0.119
  C  C900  1  0.182950  0.041720  0.227200  1.0  -0.136
  C  C901  1  0.188230  0.072820  0.197200  1.0  -0.0383
  C  C902  1  0.213530  0.093200  0.223300  1.0  -0.1551
  C  C903  1  0.218070  0.125740  0.186900  1.0  0.5873
  C  C904  1  0.273420  0.188930  0.182400  1.0  0.593
  C  C905  1  0.281680  0.220770  0.144600  1.0  -0.0341
  C  C906  1  0.333333  0.421020  0.535300  1.0  0.1815
  C  C907  1  0.316860  0.400560  0.583500  1.0  -0.2251
  C  C908  1  0.326290  0.398710  0.657900  1.0  0.0867
  C  C909  1  0.351530  0.418680  0.680900  1.0  -0.2147
  C  C910  1  0.366940  0.439160  0.629900  1.0  0.1464
  C  C911  1  0.309200  0.374500  0.711800  1.0  -0.1281
  C  C912  1  0.747100  0.665830  0.449100  1.0  0.3371
  C  C913  1  0.767210  0.644650  0.408000  1.0  -0.1457
  C  C914  1  0.782000  0.653300  0.342700  1.0  -0.1158
  C  C915  1  0.776400  0.685200  0.308300  1.0  -0.122
  C  C916  1  0.758600  0.708270  0.353800  1.0  -0.0867
  C  C917  1  0.744040  0.699010  0.420500  1.0  -0.1471
  C  C918  1  0.726420  0.724550  0.462000  1.0  0.5307
  C  C919  1  0.679980  0.735240  0.622900  1.0  0.4443
  C  C920  1  0.662200  0.760130  0.669100  1.0  -0.309
  C  C921  1  0.639520  0.747100  0.728600  1.0  -0.3472
  C  C922  1  0.649000  0.822560  0.482400  1.0  0.3538
  C  C923  1  0.620260  0.824740  0.438000  1.0  -0.239
  C  C924  1  0.596350  0.847190  0.455300  1.0  -0.1364
  C  C925  1  0.599550  0.868510  0.516000  1.0  -0.1408
  C  C926  1  0.627400  0.867080  0.559900  1.0  -0.0422
  C  C927  1  0.652560  0.844360  0.545100  1.0  -0.1554
  C  C928  1  0.682090  0.845280  0.593800  1.0  0.5648
  C  C929  1  0.758880  0.810600  0.604900  1.0  0.4857
  C  C930  1  0.792080  0.813640  0.643000  1.0  -0.215
  C  C931  1  0.818300  0.821800  0.594200  1.0  -0.3943
  C  C932  1  0.769400  0.813300  0.392200  1.0  0.0807
  C  C933  1  0.789800  0.834400  0.346700  1.0  -0.1766
  C  C934  1  0.775700  0.865190  0.323100  1.0  0.2204
  C  C935  1  0.754600  0.874710  0.364300  1.0  -0.1112
  C  C936  1  0.736200  0.853340  0.409000  1.0  0.151
  C  C937  1  0.794500  0.888600  0.269700  1.0  -0.0888
  C  C938  1  0.733880  0.582050  0.784200  1.0  0.3162
  C  C939  1  0.727600  0.550720  0.813300  1.0  -0.214
  C  C940  1  0.702590  0.531410  0.786300  1.0  -0.119
  C  C941  1  0.682950  0.541720  0.727200  1.0  -0.136
  C  C942  1  0.688230  0.572820  0.697200  1.0  -0.0383
  C  C943  1  0.713530  0.593200  0.723300  1.0  -0.1551
  C  C944  1  0.718070  0.625740  0.686900  1.0  0.5873
  C  C945  1  0.773420  0.688930  0.682400  1.0  0.593
  C  C946  1  0.781680  0.720770  0.644600  1.0  -0.0341
  C  C947  1  0.833360  0.921020  0.035300  1.0  0.1817
  C  C948  1  0.816860  0.900560  0.083500  1.0  -0.2265
  C  C949  1  0.826290  0.898710  0.157900  1.0  0.0867
  C  C950  1  0.851530  0.918680  0.180900  1.0  -0.216
  C  C951  1  0.866940  0.939160  0.129900  1.0  0.1466
  C  C952  1  0.809200  0.874500  0.211800  1.0  -0.1281
  C  C953  1  0.415830  0.502900  0.800900  1.0  0.3393
  C  C954  1  0.394650  0.482790  0.842000  1.0  -0.1471
  C  C955  1  0.403300  0.468000  0.907300  1.0  -0.1119
  C  C956  1  0.435200  0.473600  0.941700  1.0  -0.124
  C  C957  1  0.458270  0.491400  0.896200  1.0  -0.0825
  C  C958  1  0.449010  0.505960  0.829500  1.0  -0.1489
  C  C959  1  0.474550  0.523580  0.788000  1.0  0.5314
  C  C960  1  0.485240  0.570020  0.627100  1.0  0.4431
  C  C961  1  0.510130  0.587800  0.580900  1.0  -0.3101
  C  C962  1  0.497100  0.610480  0.521400  1.0  -0.3436
  C  C963  1  0.572560  0.601000  0.767600  1.0  0.3535
  C  C964  1  0.574740  0.629740  0.812000  1.0  -0.2388
  C  C965  1  0.597190  0.653650  0.794700  1.0  -0.1346
  C  C966  1  0.618510  0.650450  0.734000  1.0  -0.1383
  C  C967  1  0.617080  0.622600  0.690100  1.0  -0.0409
  C  C968  1  0.594360  0.597440  0.704900  1.0  -0.1559
  C  C969  1  0.595280  0.567910  0.656200  1.0  0.5659
  C  C970  1  0.560600  0.491120  0.645100  1.0  0.487
  C  C971  1  0.563640  0.457920  0.607000  1.0  -0.2162
  C  C972  1  0.571800  0.431700  0.655800  1.0  -0.3968
  C  C973  1  0.563300  0.480600  0.857800  1.0  0.0819
  C  C974  1  0.584400  0.460200  0.903300  1.0  -0.1777
  C  C975  1  0.615190  0.474300  0.926900  1.0  0.2215
  C  C976  1  0.624710  0.495400  0.885700  1.0  -0.1116
  C  C977  1  0.603340  0.513800  0.841000  1.0  0.1531
  C  C978  1  0.638600  0.455500  0.980300  1.0  -0.0831
  C  C979  1  0.332050  0.516120  0.465800  1.0  0.3162
  C  C980  1  0.300720  0.522400  0.436700  1.0  -0.2111
  C  C981  1  0.281410  0.547410  0.463700  1.0  -0.1192
  C  C982  1  0.291720  0.567050  0.522800  1.0  -0.1397
  C  C983  1  0.322820  0.561770  0.552800  1.0  -0.0405
  C  C984  1  0.343200  0.536470  0.526700  1.0  -0.1538
  C  C985  1  0.375740  0.531930  0.563100  1.0  0.5863
  C  C986  1  0.438930  0.476580  0.567600  1.0  0.5943
  C  C987  1  0.470770  0.468320  0.605400  1.0  -0.0361
  C  C988  1  0.671020  0.416640  0.214700  1.0  0.1816
  C  C989  1  0.650560  0.433140  0.166500  1.0  -0.2258
  C  C990  1  0.648710  0.423710  0.092100  1.0  0.0883
  C  C991  1  0.668680  0.398470  0.069100  1.0  -0.2186
  C  C992  1  0.689160  0.383060  0.120100  1.0  0.1443
  C  C993  1  0.624500  0.440800  0.038200  1.0  -0.1254
  C  C994  1  0.915830  0.002900  0.300900  1.0  0.3393
  C  C995  1  0.894650  0.982790  0.342000  1.0  -0.1471
  C  C996  1  0.903300  0.968000  0.407300  1.0  -0.1119
  C  C997  1  0.935200  0.973600  0.441700  1.0  -0.124
  C  C998  1  0.958270  0.991400  0.396200  1.0  -0.0825
  C  C999  1  0.949010  0.005960  0.329500  1.0  -0.1489
  C  C1000  1  0.974550  0.023580  0.288000  1.0  0.5314
  C  C1001  1  0.985240  0.070020  0.127100  1.0  0.4431
  C  C1002  1  0.010130  0.087800  0.080900  1.0  -0.3101
  C  C1003  1  0.997100  0.110480  0.021400  1.0  -0.3436
  C  C1004  1  0.072560  0.101000  0.267600  1.0  0.3533
  C  C1005  1  0.074740  0.129740  0.312000  1.0  -0.2388
  C  C1006  1  0.097190  0.153650  0.294700  1.0  -0.1346
  C  C1007  1  0.118510  0.150450  0.234000  1.0  -0.1383
  C  C1008  1  0.117080  0.122600  0.190100  1.0  -0.0409
  C  C1009  1  0.094360  0.097440  0.204900  1.0  -0.1559
  C  C1010  1  0.095280  0.067910  0.156200  1.0  0.5659
  C  C1011  1  0.060600  0.991120  0.145100  1.0  0.487
  C  C1012  1  0.063640  0.957920  0.107000  1.0  -0.2162
  C  C1013  1  0.071800  0.931700  0.155800  1.0  -0.3968
  C  C1014  1  0.063300  0.980600  0.357800  1.0  0.0819
  C  C1015  1  0.084400  0.960200  0.403300  1.0  -0.1777
  C  C1016  1  0.115190  0.974300  0.426900  1.0  0.2215
  C  C1017  1  0.124710  0.995400  0.385700  1.0  -0.1116
  C  C1018  1  0.103340  0.013800  0.341000  1.0  0.1531
  C  C1019  1  0.138600  0.955500  0.480300  1.0  -0.0831
  C  C1020  1  0.832050  0.016120  0.965800  1.0  0.3162
  C  C1021  1  0.800720  0.022400  0.936700  1.0  -0.2113
  C  C1022  1  0.781410  0.047410  0.963700  1.0  -0.1192
  C  C1023  1  0.791720  0.067050  0.022800  1.0  -0.1397
  C  C1024  1  0.822820  0.061770  0.052800  1.0  -0.0405
  C  C1025  1  0.843200  0.036470  0.026700  1.0  -0.1538
  C  C1026  1  0.875740  0.031930  0.063100  1.0  0.5863
  C  C1027  1  0.938930  0.976580  0.067600  1.0  0.5943
  C  C1028  1  0.970770  0.968320  0.105400  1.0  -0.0361
  C  C1029  1  0.171020  0.916640  0.714700  1.0  0.1816
  C  C1030  1  0.150560  0.933140  0.666500  1.0  -0.2258
  C  C1031  1  0.148710  0.923710  0.592100  1.0  0.0883
  C  C1032  1  0.168680  0.898470  0.569100  1.0  -0.2186
  C  C1033  1  0.189160  0.883060  0.620100  1.0  0.1443
  C  C1034  1  0.124500  0.940800  0.538200  1.0  -0.1254
  C  C1035  1  0.084170  0.497100  0.300900  1.0  0.3404
  C  C1036  1  0.105350  0.517210  0.342000  1.0  -0.1465
  C  C1037  1  0.096700  0.532000  0.407300  1.0  -0.1099
  C  C1038  1  0.064800  0.526400  0.441700  1.0  -0.1245
  C  C1039  1  0.041730  0.508600  0.396200  1.0  -0.0828
  C  C1040  1  0.050990  0.494040  0.329500  1.0  -0.1477
  C  C1041  1  0.025450  0.476420  0.288000  1.0  0.5319
  C  C1042  1  0.014760  0.429980  0.127100  1.0  0.4444
  C  C1043  1  0.989870  0.412200  0.080900  1.0  -0.3104
  C  C1044  1  0.002900  0.389520  0.021400  1.0  -0.3455
  C  C1045  1  0.927440  0.399000  0.267600  1.0  0.3534
  C  C1046  1  0.925260  0.370260  0.312000  1.0  -0.237
  C  C1047  1  0.902810  0.346350  0.294700  1.0  -0.1349
  C  C1048  1  0.881490  0.349550  0.234000  1.0  -0.137
  C  C1049  1  0.882920  0.377400  0.190100  1.0  -0.0402
  C  C1050  1  0.905640  0.402560  0.204900  1.0  -0.1569
  C  C1051  1  0.904720  0.432090  0.156200  1.0  0.5653
  C  C1052  1  0.939400  0.508880  0.145100  1.0  0.4867
  C  C1053  1  0.936360  0.542080  0.107000  1.0  -0.2168
  C  C1054  1  0.928200  0.568300  0.155800  1.0  -0.3979
  C  C1055  1  0.936700  0.519400  0.357800  1.0  0.0822
  C  C1056  1  0.915600  0.539800  0.403300  1.0  -0.1766
  C  C1057  1  0.884810  0.525700  0.426900  1.0  0.2219
  C  C1058  1  0.875290  0.504600  0.385700  1.0  -0.1118
  C  C1059  1  0.896660  0.486200  0.341000  1.0  0.1524
  C  C1060  1  0.861400  0.544500  0.480300  1.0  -0.0853
  C  C1061  1  0.167950  0.483880  0.965800  1.0  0.3168
  C  C1062  1  0.199280  0.477600  0.936700  1.0  -0.2107
  C  C1063  1  0.218590  0.452590  0.963700  1.0  -0.1181
  C  C1064  1  0.208280  0.432950  0.022800  1.0  -0.139
  C  C1065  1  0.177180  0.438230  0.052800  1.0  -0.0397
  C  C1066  1  0.156800  0.463530  0.026700  1.0  -0.1527
  C  C1067  1  0.124260  0.468070  0.063100  1.0  0.5858
  C  C1068  1  0.061070  0.523420  0.067600  1.0  0.5948
  C  C1069  1  0.029230  0.531680  0.105400  1.0  -0.0353
  C  C1070  1  0.828980  0.583360  0.714700  1.0  0.1822
  C  C1071  1  0.849440  0.566860  0.666500  1.0  -0.2252
  C  C1072  1  0.851290  0.576290  0.592100  1.0  0.0875
  C  C1073  1  0.831320  0.601530  0.569100  1.0  -0.2171
  C  C1074  1  0.810840  0.616940  0.620100  1.0  0.1444
  C  C1075  1  0.875500  0.559200  0.538200  1.0  -0.1239
  C  C1076  1  0.584170  0.997100  0.800900  1.0  0.3404
  C  C1077  1  0.605350  0.017210  0.842000  1.0  -0.1465
  C  C1078  1  0.596700  0.032000  0.907300  1.0  -0.1099
  C  C1079  1  0.564800  0.026400  0.941700  1.0  -0.1245
  C  C1080  1  0.541730  0.008600  0.896200  1.0  -0.0828
  C  C1081  1  0.550990  0.994040  0.829500  1.0  -0.1477
  C  C1082  1  0.525450  0.976420  0.788000  1.0  0.5319
  C  C1083  1  0.514760  0.929980  0.627100  1.0  0.4444
  C  C1084  1  0.489870  0.912200  0.580900  1.0  -0.3104
  C  C1085  1  0.502900  0.889520  0.521400  1.0  -0.3455
  C  C1086  1  0.427440  0.899000  0.767600  1.0  0.3534
  C  C1087  1  0.425260  0.870260  0.812000  1.0  -0.237
  C  C1088  1  0.402810  0.846350  0.794700  1.0  -0.1349
  C  C1089  1  0.381490  0.849550  0.734000  1.0  -0.137
  C  C1090  1  0.382920  0.877400  0.690100  1.0  -0.0402
  C  C1091  1  0.405640  0.902560  0.704900  1.0  -0.1569
  C  C1092  1  0.404720  0.932090  0.656200  1.0  0.5653
  C  C1093  1  0.439400  0.008880  0.645100  1.0  0.4867
  C  C1094  1  0.436360  0.042080  0.607000  1.0  -0.2168
  C  C1095  1  0.428200  0.068300  0.655800  1.0  -0.3979
  C  C1096  1  0.436700  0.019400  0.857800  1.0  0.0822
  C  C1097  1  0.415600  0.039800  0.903300  1.0  -0.1766
  C  C1098  1  0.384810  0.025700  0.926900  1.0  0.2219
  C  C1099  1  0.375290  0.004600  0.885700  1.0  -0.1118
  C  C1100  1  0.396660  0.986200  0.841000  1.0  0.1524
  C  C1101  1  0.361400  0.044500  0.980300  1.0  -0.0853
  C  C1102  1  0.667950  0.983880  0.465800  1.0  0.3168
  C  C1103  1  0.699280  0.977600  0.436700  1.0  -0.2105
  C  C1104  1  0.718590  0.952590  0.463700  1.0  -0.1181
  C  C1105  1  0.708280  0.932950  0.522800  1.0  -0.139
  C  C1106  1  0.677180  0.938230  0.552800  1.0  -0.0397
  C  C1107  1  0.656800  0.963530  0.526700  1.0  -0.1527
  C  C1108  1  0.624260  0.968070  0.563100  1.0  0.5858
  C  C1109  1  0.561070  0.023420  0.567600  1.0  0.5948
  C  C1110  1  0.529230  0.031680  0.605400  1.0  -0.0353
  C  C1111  1  0.328980  0.083360  0.214700  1.0  0.1822
  C  C1112  1  0.349440  0.066860  0.166500  1.0  -0.2252
  C  C1113  1  0.351290  0.076290  0.092100  1.0  0.0875
  C  C1114  1  0.331320  0.101530  0.069100  1.0  -0.2171
  C  C1115  1  0.310840  0.116940  0.120100  1.0  0.1444
  C  C1116  1  0.375500  0.059200  0.038200  1.0  -0.1239
  C  C1117  1  0.747100  0.165830  0.550900  1.0  0.3397
  C  C1118  1  0.767210  0.144650  0.592000  1.0  -0.146
  C  C1119  1  0.782000  0.153300  0.657300  1.0  -0.116
  C  C1120  1  0.776400  0.185200  0.691700  1.0  -0.1232
  C  C1121  1  0.758600  0.208270  0.646200  1.0  -0.0865
  C  C1122  1  0.744040  0.199010  0.579500  1.0  -0.1478
  C  C1123  1  0.726420  0.224550  0.538000  1.0  0.5306
  C  C1124  1  0.679980  0.235240  0.377100  1.0  0.4437
  C  C1125  1  0.662200  0.260130  0.330900  1.0  -0.3098
  C  C1126  1  0.639520  0.247100  0.271400  1.0  -0.3464
  C  C1127  1  0.649000  0.322560  0.517600  1.0  0.3533
  C  C1128  1  0.620260  0.324740  0.562000  1.0  -0.2382
  C  C1129  1  0.596350  0.347190  0.544700  1.0  -0.1374
  C  C1130  1  0.599550  0.368510  0.484000  1.0  -0.1401
  C  C1131  1  0.627400  0.367080  0.440100  1.0  -0.0417
  C  C1132  1  0.652560  0.344360  0.454900  1.0  -0.1556
  C  C1133  1  0.682090  0.345280  0.406200  1.0  0.5649
  C  C1134  1  0.758880  0.310600  0.395100  1.0  0.4857
  C  C1135  1  0.792080  0.313640  0.357000  1.0  -0.2167
  C  C1136  1  0.818300  0.321800  0.405800  1.0  -0.3944
  C  C1137  1  0.769400  0.313300  0.607800  1.0  0.0803
  C  C1138  1  0.789800  0.334400  0.653300  1.0  -0.1767
  C  C1139  1  0.775700  0.365190  0.676900  1.0  0.2201
  C  C1140  1  0.754600  0.374710  0.635700  1.0  -0.1125
  C  C1141  1  0.736200  0.353340  0.591000  1.0  0.152
  C  C1142  1  0.794500  0.388600  0.730300  1.0  -0.0873
  C  C1143  1  0.733880  0.082050  0.215800  1.0  0.3159
  C  C1144  1  0.727600  0.050720  0.186700  1.0  -0.2146
  C  C1145  1  0.702590  0.031410  0.213700  1.0  -0.1185
  C  C1146  1  0.682950  0.041720  0.272800  1.0  -0.1364
  C  C1147  1  0.688230  0.072820  0.302800  1.0  -0.0382
  C  C1148  1  0.713530  0.093200  0.276700  1.0  -0.1551
  C  C1149  1  0.718070  0.125740  0.313100  1.0  0.5871
  C  C1150  1  0.773420  0.188930  0.317600  1.0  0.5931
  C  C1151  1  0.781680  0.220770  0.355400  1.0  -0.0356
  C  C1152  1  0.833360  0.421020  0.964700  1.0  0.1808
  C  C1153  1  0.816860  0.400560  0.916500  1.0  -0.2252
  C  C1154  1  0.826290  0.398710  0.842100  1.0  0.0869
  C  C1155  1  0.851530  0.418680  0.819100  1.0  -0.217
  C  C1156  1  0.866940  0.439160  0.870100  1.0  0.1459
  C  C1157  1  0.809200  0.374500  0.788200  1.0  -0.1278
  C  C1158  1  0.247100  0.665830  0.050900  1.0  0.3397
  C  C1159  1  0.267210  0.644650  0.092000  1.0  -0.146
  C  C1160  1  0.282000  0.653300  0.157300  1.0  -0.116
  C  C1161  1  0.276400  0.685200  0.191700  1.0  -0.1232
  C  C1162  1  0.258600  0.708270  0.146200  1.0  -0.0865
  C  C1163  1  0.244040  0.699010  0.079500  1.0  -0.1478
  C  C1164  1  0.226420  0.724550  0.038000  1.0  0.5306
  C  C1165  1  0.179980  0.735240  0.877100  1.0  0.4437
  C  C1166  1  0.162200  0.760130  0.830900  1.0  -0.3098
  C  C1167  1  0.139520  0.747100  0.771400  1.0  -0.3464
  C  C1168  1  0.149000  0.822560  0.017600  1.0  0.3533
  C  C1169  1  0.120260  0.824740  0.062000  1.0  -0.2382
  C  C1170  1  0.096350  0.847190  0.044700  1.0  -0.1374
  C  C1171  1  0.099550  0.868510  0.984000  1.0  -0.1401
  C  C1172  1  0.127400  0.867080  0.940100  1.0  -0.0417
  C  C1173  1  0.152560  0.844360  0.954900  1.0  -0.1556
  C  C1174  1  0.182090  0.845280  0.906200  1.0  0.5649
  C  C1175  1  0.258880  0.810600  0.895100  1.0  0.4857
  C  C1176  1  0.292080  0.813640  0.857000  1.0  -0.2167
  C  C1177  1  0.318300  0.821800  0.905800  1.0  -0.3944
  C  C1178  1  0.269400  0.813300  0.107800  1.0  0.0803
  C  C1179  1  0.289800  0.834400  0.153300  1.0  -0.1767
  C  C1180  1  0.275700  0.865190  0.176900  1.0  0.2201
  C  C1181  1  0.254600  0.874710  0.135700  1.0  -0.1125
  C  C1182  1  0.236200  0.853340  0.091000  1.0  0.152
  C  C1183  1  0.294500  0.888600  0.230300  1.0  -0.0873
  C  C1184  1  0.233880  0.582050  0.715800  1.0  0.3159
  C  C1185  1  0.227600  0.550720  0.686700  1.0  -0.2146
  C  C1186  1  0.202590  0.531410  0.713700  1.0  -0.1185
  C  C1187  1  0.182950  0.541720  0.772800  1.0  -0.1364
  C  C1188  1  0.188230  0.572820  0.802800  1.0  -0.0382
  C  C1189  1  0.213530  0.593200  0.776700  1.0  -0.1551
  C  C1190  1  0.218070  0.625740  0.813100  1.0  0.5871
  C  C1191  1  0.273420  0.688930  0.817600  1.0  0.5931
  C  C1192  1  0.281680  0.720770  0.855400  1.0  -0.0356
  C  C1193  1  0.333333  0.921020  0.464700  1.0  0.1806
  C  C1194  1  0.316860  0.900560  0.416500  1.0  -0.2238
  C  C1195  1  0.326290  0.898710  0.342100  1.0  0.0869
  C  C1196  1  0.351530  0.918680  0.319100  1.0  -0.2155
  C  C1197  1  0.366940  0.939160  0.370100  1.0  0.1457
  C  C1198  1  0.309200  0.874500  0.288200  1.0  -0.1278
  C  C1199  1  0.752900  0.834170  0.050900  1.0  0.34
  C  C1200  1  0.732790  0.855350  0.092000  1.0  -0.1467
  C  C1201  1  0.718000  0.846700  0.157300  1.0  -0.1164
  C  C1202  1  0.723600  0.814800  0.191700  1.0  -0.1241
  C  C1203  1  0.741400  0.791730  0.146200  1.0  -0.087
  C  C1204  1  0.755960  0.800990  0.079500  1.0  -0.1476
  C  C1205  1  0.773580  0.775450  0.038000  1.0  0.5306
  C  C1206  1  0.820020  0.764760  0.877100  1.0  0.4448
  C  C1207  1  0.837800  0.739870  0.830900  1.0  -0.3111
  C  C1208  1  0.860480  0.752900  0.771400  1.0  -0.3473
  C  C1209  1  0.851000  0.677440  0.017600  1.0  0.3527
  C  C1210  1  0.879740  0.675260  0.062000  1.0  -0.2359
  C  C1211  1  0.903650  0.652810  0.044700  1.0  -0.1356
  C  C1212  1  0.900450  0.631490  0.984000  1.0  -0.1381
  C  C1213  1  0.872600  0.632920  0.940100  1.0  -0.0404
  C  C1214  1  0.847440  0.655640  0.954900  1.0  -0.1559
  C  C1215  1  0.817910  0.654720  0.906200  1.0  0.5637
  C  C1216  1  0.741120  0.689400  0.895100  1.0  0.4851
  C  C1217  1  0.707920  0.686360  0.857000  1.0  -0.216
  C  C1218  1  0.681700  0.678200  0.905800  1.0  -0.3959
  C  C1219  1  0.730600  0.686700  0.107800  1.0  0.0799
  C  C1220  1  0.710200  0.665600  0.153300  1.0  -0.1781
  C  C1221  1  0.724300  0.634810  0.176900  1.0  0.2198
  C  C1222  1  0.745400  0.625290  0.135700  1.0  -0.1141
  C  C1223  1  0.763800  0.646660  0.091000  1.0  0.1519
  C  C1224  1  0.705500  0.611400  0.230300  1.0  -0.0876
  C  C1225  1  0.766120  0.917950  0.715800  1.0  0.3159
  C  C1226  1  0.772400  0.949280  0.686700  1.0  -0.215
  C  C1227  1  0.797410  0.968590  0.713700  1.0  -0.1181
  C  C1228  1  0.817050  0.958280  0.772800  1.0  -0.1378
  C  C1229  1  0.811770  0.927180  0.802800  1.0  -0.0385
  C  C1230  1  0.786470  0.906800  0.776700  1.0  -0.1555
  C  C1231  1  0.781930  0.874260  0.813100  1.0  0.5867
  C  C1232  1  0.726580  0.811070  0.817600  1.0  0.5912
  C  C1233  1  0.718320  0.779230  0.855400  1.0  -0.0347
  C  C1234  1  0.666667  0.578980  0.464700  1.0  0.1808
  C  C1235  1  0.683140  0.599440  0.416500  1.0  -0.2225
  C  C1236  1  0.673710  0.601290  0.342100  1.0  0.0872
  C  C1237  1  0.648470  0.581320  0.319100  1.0  -0.2156
  C  C1238  1  0.633060  0.560840  0.370100  1.0  0.1453
  C  C1239  1  0.690800  0.625500  0.288200  1.0  -0.1283
  C  C1240  1  0.252900  0.334170  0.550900  1.0  0.34
  C  C1241  1  0.232790  0.355350  0.592000  1.0  -0.1467
  C  C1242  1  0.218000  0.346700  0.657300  1.0  -0.1164
  C  C1243  1  0.223600  0.314800  0.691700  1.0  -0.1241
  C  C1244  1  0.241400  0.291730  0.646200  1.0  -0.087
  C  C1245  1  0.255960  0.300990  0.579500  1.0  -0.1476
  C  C1246  1  0.273580  0.275450  0.538000  1.0  0.5306
  C  C1247  1  0.320020  0.264760  0.377100  1.0  0.4448
  C  C1248  1  0.337800  0.239870  0.330900  1.0  -0.3111
  C  C1249  1  0.360480  0.252900  0.271400  1.0  -0.3473
  C  C1250  1  0.351000  0.177440  0.517600  1.0  0.3527
  C  C1251  1  0.379740  0.175260  0.562000  1.0  -0.2359
  C  C1252  1  0.403650  0.152810  0.544700  1.0  -0.1356
  C  C1253  1  0.400450  0.131490  0.484000  1.0  -0.1381
  C  C1254  1  0.372600  0.132920  0.440100  1.0  -0.0404
  C  C1255  1  0.347440  0.155640  0.454900  1.0  -0.1559
  C  C1256  1  0.317910  0.154720  0.406200  1.0  0.5637
  C  C1257  1  0.241120  0.189400  0.395100  1.0  0.4851
  C  C1258  1  0.207920  0.186360  0.357000  1.0  -0.216
  C  C1259  1  0.181700  0.178200  0.405800  1.0  -0.3959
  C  C1260  1  0.230600  0.186700  0.607800  1.0  0.0799
  C  C1261  1  0.210200  0.165600  0.653300  1.0  -0.1781
  C  C1262  1  0.224300  0.134810  0.676900  1.0  0.2198
  C  C1263  1  0.245400  0.125290  0.635700  1.0  -0.1141
  C  C1264  1  0.263800  0.146660  0.591000  1.0  0.1519
  C  C1265  1  0.205500  0.111400  0.730300  1.0  -0.0876
  C  C1266  1  0.266120  0.417950  0.215800  1.0  0.3159
  C  C1267  1  0.272400  0.449280  0.186700  1.0  -0.215
  C  C1268  1  0.297410  0.468590  0.213700  1.0  -0.1181
  C  C1269  1  0.317050  0.458280  0.272800  1.0  -0.1378
  C  C1270  1  0.311770  0.427180  0.302800  1.0  -0.0385
  C  C1271  1  0.286470  0.406800  0.276700  1.0  -0.1555
  C  C1272  1  0.281930  0.374260  0.313100  1.0  0.5867
  C  C1273  1  0.226580  0.311070  0.317600  1.0  0.5912
  C  C1274  1  0.218320  0.279230  0.355400  1.0  -0.0347
  C  C1275  1  0.166640  0.078980  0.964700  1.0  0.1808
  C  C1276  1  0.183140  0.099440  0.916500  1.0  -0.224
  C  C1277  1  0.173710  0.101290  0.842100  1.0  0.0872
  C  C1278  1  0.148470  0.081320  0.819100  1.0  -0.2168
  C  C1279  1  0.133060  0.060840  0.870100  1.0  0.1455
  C  C1280  1  0.190800  0.125500  0.788200  1.0  -0.1283
  N  N1281  1  0.532680  0.461520  0.276460  1.0  -0.2496
  N  N1282  1  0.505350  0.445570  0.312240  1.0  -0.2927
  N  N1283  1  0.424080  0.457350  0.327130  1.0  -0.2677
  N  N1284  1  0.418910  0.485580  0.372600  1.0  -0.2548
  N  N1285  1  0.425700  0.488290  0.165800  1.0  -0.2667
  N  N1286  1  0.606020  0.493610  0.456230  1.0  -0.2722
  N  N1287  1  0.575940  0.496080  0.415000  1.0  -0.2461
  N  N1288  1  0.310040  0.608280  0.806300  1.0  -0.3481
  N  N1289  1  0.032680  0.961520  0.776460  1.0  -0.2496
  N  N1290  1  0.005350  0.945570  0.812240  1.0  -0.2927
  N  N1291  1  0.924080  0.957350  0.827130  1.0  -0.2677
  N  N1292  1  0.918910  0.985580  0.872600  1.0  -0.2548
  N  N1293  1  0.925700  0.988290  0.665800  1.0  -0.2667
  N  N1294  1  0.106020  0.993610  0.956230  1.0  -0.2724
  N  N1295  1  0.075940  0.996080  0.915000  1.0  -0.2461
  N  N1296  1  0.810040  0.108280  0.306300  1.0  -0.3481
  N  N1297  1  0.967320  0.538480  0.776460  1.0  -0.2501
  N  N1298  1  0.994650  0.554430  0.812240  1.0  -0.2903
  N  N1299  1  0.075920  0.542650  0.827130  1.0  -0.2668
  N  N1300  1  0.081090  0.514420  0.872600  1.0  -0.2547
  N  N1301  1  0.074300  0.511710  0.665800  1.0  -0.2694
  N  N1302  1  0.893980  0.506390  0.956230  1.0  -0.2733
  N  N1303  1  0.924060  0.503920  0.915000  1.0  -0.2459
  N  N1304  1  0.189960  0.391720  0.306300  1.0  -0.3489
  N  N1305  1  0.467320  0.038480  0.276460  1.0  -0.2501
  N  N1306  1  0.494650  0.054430  0.312240  1.0  -0.2903
  N  N1307  1  0.575920  0.042650  0.327130  1.0  -0.2668
  N  N1308  1  0.581090  0.014420  0.372600  1.0  -0.2547
  N  N1309  1  0.574300  0.011710  0.165800  1.0  -0.2694
  N  N1310  1  0.393980  0.006390  0.456230  1.0  -0.2731
  N  N1311  1  0.424060  0.003920  0.415000  1.0  -0.2459
  N  N1312  1  0.689960  0.891720  0.806300  1.0  -0.3489
  N  N1313  1  0.288480  0.782680  0.526460  1.0  -0.2501
  N  N1314  1  0.304430  0.755350  0.562240  1.0  -0.2919
  N  N1315  1  0.292650  0.674080  0.577130  1.0  -0.2677
  N  N1316  1  0.264420  0.668910  0.622600  1.0  -0.2538
  N  N1317  1  0.261710  0.675700  0.415800  1.0  -0.2663
  N  N1318  1  0.256390  0.856020  0.706230  1.0  -0.2719
  N  N1319  1  0.253920  0.825940  0.665000  1.0  -0.2469
  N  N1320  1  0.141720  0.560040  0.056300  1.0  -0.35
  N  N1321  1  0.788480  0.282680  0.026460  1.0  -0.2501
  N  N1322  1  0.804430  0.255350  0.062240  1.0  -0.2919
  N  N1323  1  0.792650  0.174080  0.077130  1.0  -0.2677
  N  N1324  1  0.764420  0.168910  0.122600  1.0  -0.2538
  N  N1325  1  0.761710  0.175700  0.915800  1.0  -0.2663
  N  N1326  1  0.756390  0.356020  0.206230  1.0  -0.2719
  N  N1327  1  0.753920  0.325940  0.165000  1.0  -0.2468
  N  N1328  1  0.641720  0.060040  0.556300  1.0  -0.3454
  N  N1329  1  0.211520  0.217320  0.026460  1.0  -0.2501
  N  N1330  1  0.195570  0.244650  0.062240  1.0  -0.2905
  N  N1331  1  0.207350  0.325920  0.077130  1.0  -0.2678
  N  N1332  1  0.235580  0.331090  0.122600  1.0  -0.2552
  N  N1333  1  0.238290  0.324300  0.915800  1.0  -0.2666
  N  N1334  1  0.243610  0.143980  0.206230  1.0  -0.2735
  N  N1335  1  0.246080  0.174060  0.165000  1.0  -0.2467
  N  N1336  1  0.358280  0.439960  0.556300  1.0  -0.3451
  N  N1337  1  0.711520  0.717320  0.526460  1.0  -0.2501
  N  N1338  1  0.695570  0.744650  0.562240  1.0  -0.2905
  N  N1339  1  0.707350  0.825920  0.577130  1.0  -0.2678
  N  N1340  1  0.735580  0.831090  0.622600  1.0  -0.2552
  N  N1341  1  0.738290  0.824300  0.415800  1.0  -0.2666
  N  N1342  1  0.743610  0.643980  0.706230  1.0  -0.2735
  N  N1343  1  0.746080  0.674060  0.665000  1.0  -0.2467
  N  N1344  1  0.858280  0.939960  0.056300  1.0  -0.3496
  N  N1345  1  0.467320  0.538480  0.723540  1.0  -0.2497
  N  N1346  1  0.494650  0.554430  0.687760  1.0  -0.2902
  N  N1347  1  0.575920  0.542650  0.672870  1.0  -0.2674
  N  N1348  1  0.581090  0.514420  0.627400  1.0  -0.2547
  N  N1349  1  0.574300  0.511710  0.834200  1.0  -0.2686
  N  N1350  1  0.393980  0.506390  0.543770  1.0  -0.2729
  N  N1351  1  0.424060  0.503920  0.585000  1.0  -0.2459
  N  N1352  1  0.689960  0.391720  0.193700  1.0  -0.3495
  N  N1353  1  0.967320  0.038480  0.223540  1.0  -0.2497
  N  N1354  1  0.994650  0.054430  0.187760  1.0  -0.2902
  N  N1355  1  0.075920  0.042650  0.172870  1.0  -0.2674
  N  N1356  1  0.081090  0.014420  0.127400  1.0  -0.2547
  N  N1357  1  0.074300  0.011710  0.334200  1.0  -0.2686
  N  N1358  1  0.893980  0.006390  0.043770  1.0  -0.2731
  N  N1359  1  0.924060  0.003920  0.085000  1.0  -0.2459
  N  N1360  1  0.189960  0.891720  0.693700  1.0  -0.3495
  N  N1361  1  0.032680  0.461520  0.223540  1.0  -0.2486
  N  N1362  1  0.005350  0.445570  0.187760  1.0  -0.2931
  N  N1363  1  0.924080  0.457350  0.172870  1.0  -0.2677
  N  N1364  1  0.918910  0.485580  0.127400  1.0  -0.2546
  N  N1365  1  0.925700  0.488290  0.334200  1.0  -0.2661
  N  N1366  1  0.106020  0.493610  0.043770  1.0  -0.2723
  N  N1367  1  0.075940  0.496080  0.085000  1.0  -0.2459
  N  N1368  1  0.810040  0.608280  0.693700  1.0  -0.3487
  N  N1369  1  0.532680  0.961520  0.723540  1.0  -0.2486
  N  N1370  1  0.505350  0.945570  0.687760  1.0  -0.2931
  N  N1371  1  0.424080  0.957350  0.672870  1.0  -0.2677
  N  N1372  1  0.418910  0.985580  0.627400  1.0  -0.2546
  N  N1373  1  0.425700  0.988290  0.834200  1.0  -0.2661
  N  N1374  1  0.606020  0.993610  0.543770  1.0  -0.2722
  N  N1375  1  0.575940  0.996080  0.585000  1.0  -0.2459
  N  N1376  1  0.310040  0.108280  0.193700  1.0  -0.3487
  N  N1377  1  0.711520  0.217320  0.473540  1.0  -0.2493
  N  N1378  1  0.695570  0.244650  0.437760  1.0  -0.2908
  N  N1379  1  0.707350  0.325920  0.422870  1.0  -0.2682
  N  N1380  1  0.735580  0.331090  0.377400  1.0  -0.2549
  N  N1381  1  0.738290  0.324300  0.584200  1.0  -0.2661
  N  N1382  1  0.743610  0.143980  0.293770  1.0  -0.2743
  N  N1383  1  0.746080  0.174060  0.335000  1.0  -0.2467
  N  N1384  1  0.858280  0.439960  0.943700  1.0  -0.35
  N  N1385  1  0.211520  0.717320  0.973540  1.0  -0.2493
  N  N1386  1  0.195570  0.744650  0.937760  1.0  -0.2908
  N  N1387  1  0.207350  0.825920  0.922870  1.0  -0.2682
  N  N1388  1  0.235580  0.831090  0.877400  1.0  -0.2549
  N  N1389  1  0.238290  0.824300  0.084200  1.0  -0.2661
  N  N1390  1  0.243610  0.643980  0.793770  1.0  -0.2743
  N  N1391  1  0.246080  0.674060  0.835000  1.0  -0.2467
  N  N1392  1  0.358280  0.939960  0.443700  1.0  -0.3446
  N  N1393  1  0.788480  0.782680  0.973540  1.0  -0.2496
  N  N1394  1  0.804430  0.755350  0.937760  1.0  -0.2913
  N  N1395  1  0.792650  0.674080  0.922870  1.0  -0.2681
  N  N1396  1  0.764420  0.668910  0.877400  1.0  -0.2533
  N  N1397  1  0.761710  0.675700  0.084200  1.0  -0.2657
  N  N1398  1  0.756390  0.856020  0.793770  1.0  -0.2723
  N  N1399  1  0.753920  0.825940  0.835000  1.0  -0.2465
  N  N1400  1  0.641720  0.560040  0.443700  1.0  -0.345
  N  N1401  1  0.288480  0.282680  0.473540  1.0  -0.2496
  N  N1402  1  0.304430  0.255350  0.437760  1.0  -0.2913
  N  N1403  1  0.292650  0.174080  0.422870  1.0  -0.2681
  N  N1404  1  0.264420  0.168910  0.377400  1.0  -0.2533
  N  N1405  1  0.261710  0.175700  0.584200  1.0  -0.2657
  N  N1406  1  0.256390  0.356020  0.293770  1.0  -0.2723
  N  N1407  1  0.253920  0.325940  0.335000  1.0  -0.2465
  N  N1408  1  0.141720  0.060040  0.943700  1.0  -0.3508
  O  O1409  1  0.595640  0.481750  0.256200  1.0  -0.5944
  O  O1410  1  0.496000  0.474970  0.183830  1.0  -0.5908
  O  O1411  1  0.545620  0.429690  0.394550  1.0  -0.5775
  O  O1412  1  0.449980  0.421090  0.212610  1.0  -0.5789
  O  O1413  1  0.384830  0.432930  0.399660  1.0  -0.5788
  O  O1414  1  0.461830  0.505000  0.303370  1.0  -0.5964
  O  O1415  1  0.650880  0.508680  0.564570  1.0  -0.5533
  O  O1416  1  0.615260  0.447530  0.386030  1.0  -0.5882
  O  O1417  1  0.572600  0.544400  0.481140  1.0  -0.5846
  O  O1418  1  0.095640  0.981750  0.756200  1.0  -0.5944
  O  O1419  1  0.996000  0.974970  0.683830  1.0  -0.5908
  O  O1420  1  0.045620  0.929690  0.894550  1.0  -0.5775
  O  O1421  1  0.949980  0.921090  0.712610  1.0  -0.5789
  O  O1422  1  0.884830  0.932930  0.899660  1.0  -0.5788
  O  O1423  1  0.961830  0.005000  0.803370  1.0  -0.5964
  O  O1424  1  0.150880  0.008680  0.064570  1.0  -0.5533
  O  O1425  1  0.115260  0.947530  0.886030  1.0  -0.5882
  O  O1426  1  0.072600  0.044400  0.981140  1.0  -0.5846
  O  O1427  1  0.904360  0.518250  0.756200  1.0  -0.5952
  O  O1428  1  0.004000  0.525030  0.683830  1.0  -0.591
  O  O1429  1  0.954380  0.570310  0.894550  1.0  -0.5798
  O  O1430  1  0.050020  0.578910  0.712610  1.0  -0.5807
  O  O1431  1  0.115170  0.567070  0.899660  1.0  -0.5783
  O  O1432  1  0.038170  0.495000  0.803370  1.0  -0.5981
  O  O1433  1  0.849120  0.491320  0.064570  1.0  -0.554
  O  O1434  1  0.884740  0.552470  0.886030  1.0  -0.5892
  O  O1435  1  0.927400  0.455600  0.981140  1.0  -0.5855
  O  O1436  1  0.404360  0.018250  0.256200  1.0  -0.5952
  O  O1437  1  0.504000  0.025030  0.183830  1.0  -0.591
  O  O1438  1  0.454380  0.070310  0.394550  1.0  -0.5798
  O  O1439  1  0.550020  0.078910  0.212610  1.0  -0.5807
  O  O1440  1  0.615170  0.067070  0.399660  1.0  -0.5783
  O  O1441  1  0.538170  0.995000  0.303370  1.0  -0.5981
  O  O1442  1  0.349120  0.991320  0.564570  1.0  -0.554
  O  O1443  1  0.384740  0.052470  0.386030  1.0  -0.5892
  O  O1444  1  0.427400  0.955600  0.481140  1.0  -0.5855
  O  O1445  1  0.268250  0.845640  0.506200  1.0  -0.5952
  O  O1446  1  0.275030  0.746000  0.433830  1.0  -0.593
  O  O1447  1  0.320310  0.795620  0.644550  1.0  -0.578
  O  O1448  1  0.328910  0.699980  0.462610  1.0  -0.5795
  O  O1449  1  0.317070  0.634830  0.649660  1.0  -0.5787
  O  O1450  1  0.245000  0.711830  0.553370  1.0  -0.5975
  O  O1451  1  0.241320  0.900880  0.814570  1.0  -0.5523
  O  O1452  1  0.302470  0.865260  0.636030  1.0  -0.5891
  O  O1453  1  0.205600  0.822600  0.731140  1.0  -0.5816
  O  O1454  1  0.768250  0.345640  0.006200  1.0  -0.5952
  O  O1455  1  0.775030  0.246000  0.933830  1.0  -0.593
  O  O1456  1  0.820310  0.295620  0.144550  1.0  -0.578
  O  O1457  1  0.828910  0.199980  0.962610  1.0  -0.5795
  O  O1458  1  0.817070  0.134830  0.149660  1.0  -0.5787
  O  O1459  1  0.745000  0.211830  0.053370  1.0  -0.5975
  O  O1460  1  0.741320  0.400880  0.314570  1.0  -0.5523
  O  O1461  1  0.802470  0.365260  0.136030  1.0  -0.5891
  O  O1462  1  0.705600  0.322600  0.231140  1.0  -0.5816
  O  O1463  1  0.231750  0.154360  0.006200  1.0  -0.5949
  O  O1464  1  0.224970  0.254000  0.933830  1.0  -0.592
  O  O1465  1  0.179690  0.204380  0.144550  1.0  -0.5801
  O  O1466  1  0.171090  0.300020  0.962610  1.0  -0.5808
  O  O1467  1  0.182930  0.365170  0.149660  1.0  -0.5778
  O  O1468  1  0.255000  0.288170  0.053370  1.0  -0.5975
  O  O1469  1  0.258680  0.099120  0.314570  1.0  -0.5499
  O  O1470  1  0.197530  0.134740  0.136030  1.0  -0.5884
  O  O1471  1  0.294400  0.177400  0.231140  1.0  -0.582
  O  O1472  1  0.731750  0.654360  0.506200  1.0  -0.5949
  O  O1473  1  0.724970  0.754000  0.433830  1.0  -0.592
  O  O1474  1  0.679690  0.704380  0.644550  1.0  -0.5801
  O  O1475  1  0.671090  0.800020  0.462610  1.0  -0.5808
  O  O1476  1  0.682930  0.865170  0.649660  1.0  -0.5778
  O  O1477  1  0.755000  0.788170  0.553370  1.0  -0.5975
  O  O1478  1  0.758680  0.599120  0.814570  1.0  -0.5499
  O  O1479  1  0.697530  0.634740  0.636030  1.0  -0.5884
  O  O1480  1  0.794400  0.677400  0.731140  1.0  -0.582
  O  O1481  1  0.404360  0.518250  0.743800  1.0  -0.5958
  O  O1482  1  0.504000  0.525030  0.816170  1.0  -0.5906
  O  O1483  1  0.454380  0.570310  0.605450  1.0  -0.5798
  O  O1484  1  0.550020  0.578910  0.787390  1.0  -0.5793
  O  O1485  1  0.615170  0.567070  0.600340  1.0  -0.5786
  O  O1486  1  0.538170  0.495000  0.696630  1.0  -0.5976
  O  O1487  1  0.349120  0.491320  0.435430  1.0  -0.5523
  O  O1488  1  0.384740  0.552470  0.613970  1.0  -0.5894
  O  O1489  1  0.427400  0.455600  0.518860  1.0  -0.585
  O  O1490  1  0.904360  0.018250  0.243800  1.0  -0.5958
  O  O1491  1  0.004000  0.025030  0.316170  1.0  -0.5906
  O  O1492  1  0.954380  0.070310  0.105450  1.0  -0.5798
  O  O1493  1  0.050020  0.078910  0.287390  1.0  -0.5793
  O  O1494  1  0.115170  0.067070  0.100340  1.0  -0.5786
  O  O1495  1  0.038170  0.995000  0.196630  1.0  -0.5976
  O  O1496  1  0.849120  0.991320  0.935430  1.0  -0.5524
  O  O1497  1  0.884740  0.052470  0.113970  1.0  -0.5894
  O  O1498  1  0.927400  0.955600  0.018860  1.0  -0.585
  O  O1499  1  0.095640  0.481750  0.243800  1.0  -0.5951
  O  O1500  1  0.996000  0.474970  0.316170  1.0  -0.5907
  O  O1501  1  0.045620  0.429690  0.105450  1.0  -0.5775
  O  O1502  1  0.949980  0.421090  0.287390  1.0  -0.5808
  O  O1503  1  0.884830  0.432930  0.100340  1.0  -0.5787
  O  O1504  1  0.961830  0.505000  0.196630  1.0  -0.5967
  O  O1505  1  0.150880  0.508680  0.935430  1.0  -0.5513
  O  O1506  1  0.115260  0.447530  0.113970  1.0  -0.589
  O  O1507  1  0.072600  0.544400  0.018860  1.0  -0.5849
  O  O1508  1  0.595640  0.981750  0.743800  1.0  -0.5951
  O  O1509  1  0.496000  0.974970  0.816170  1.0  -0.5907
  O  O1510  1  0.545620  0.929690  0.605450  1.0  -0.5775
  O  O1511  1  0.449980  0.921090  0.787390  1.0  -0.5808
  O  O1512  1  0.384830  0.932930  0.600340  1.0  -0.5787
  O  O1513  1  0.461830  0.005000  0.696630  1.0  -0.5967
  O  O1514  1  0.650880  0.008680  0.435430  1.0  -0.5513
  O  O1515  1  0.615260  0.947530  0.613970  1.0  -0.589
  O  O1516  1  0.572600  0.044400  0.518860  1.0  -0.5849
  O  O1517  1  0.731750  0.154360  0.493800  1.0  -0.5954
  O  O1518  1  0.724970  0.254000  0.566170  1.0  -0.5922
  O  O1519  1  0.679690  0.204380  0.355450  1.0  -0.5799
  O  O1520  1  0.671090  0.300020  0.537390  1.0  -0.5803
  O  O1521  1  0.682930  0.365170  0.350340  1.0  -0.5775
  O  O1522  1  0.755000  0.288170  0.446630  1.0  -0.5975
  O  O1523  1  0.758680  0.099120  0.185430  1.0  -0.5484
  O  O1524  1  0.697530  0.134740  0.363970  1.0  -0.5887
  O  O1525  1  0.794400  0.177400  0.268860  1.0  -0.5826
  O  O1526  1  0.231750  0.654360  0.993800  1.0  -0.5954
  O  O1527  1  0.224970  0.754000  0.066170  1.0  -0.5922
  O  O1528  1  0.179690  0.704380  0.855450  1.0  -0.5799
  O  O1529  1  0.171090  0.800020  0.037390  1.0  -0.5803
  O  O1530  1  0.182930  0.865170  0.850340  1.0  -0.5775
  O  O1531  1  0.255000  0.788170  0.946630  1.0  -0.5975
  O  O1532  1  0.258680  0.599120  0.685430  1.0  -0.5484
  O  O1533  1  0.197530  0.634740  0.863970  1.0  -0.5887
  O  O1534  1  0.294400  0.677400  0.768860  1.0  -0.5826
  O  O1535  1  0.768250  0.845640  0.993800  1.0  -0.5963
  O  O1536  1  0.775030  0.746000  0.066170  1.0  -0.5917
  O  O1537  1  0.820310  0.795620  0.855450  1.0  -0.5777
  O  O1538  1  0.828910  0.699980  0.037390  1.0  -0.5799
  O  O1539  1  0.817070  0.634830  0.850340  1.0  -0.5786
  O  O1540  1  0.745000  0.711830  0.946630  1.0  -0.5978
  O  O1541  1  0.741320  0.900880  0.685430  1.0  -0.5504
  O  O1542  1  0.802470  0.865260  0.863970  1.0  -0.5893
  O  O1543  1  0.705600  0.822600  0.768860  1.0  -0.5818
  O  O1544  1  0.268250  0.345640  0.493800  1.0  -0.5963
  O  O1545  1  0.275030  0.246000  0.566170  1.0  -0.5917
  O  O1546  1  0.320310  0.295620  0.355450  1.0  -0.5777
  O  O1547  1  0.328910  0.199980  0.537390  1.0  -0.5799
  O  O1548  1  0.317070  0.134830  0.350340  1.0  -0.5786
  O  O1549  1  0.245000  0.211830  0.446630  1.0  -0.5978
  O  O1550  1  0.241320  0.400880  0.185430  1.0  -0.5504
  O  O1551  1  0.302470  0.365260  0.363970  1.0  -0.5893
  O  O1552  1  0.205600  0.322600  0.268860  1.0  -0.5818
