# generated using pymatgen
data_Mn3H39C42N8O9
_symmetry_space_group_name_H-M   'P 1'
_cell_length_a   40.42450000
_cell_length_b   40.42450000
_cell_length_c   17.81430000
_cell_angle_alpha   90.00000000
_cell_angle_beta   90.00000000
_cell_angle_gamma   90.00000000
_symmetry_Int_Tables_number   1
_chemical_formula_structural   Mn3H39C42N8O9
_chemical_formula_sum   'Mn48 H624 C672 N128 O144'
_cell_volume   29111.06376931
_cell_formula_units_Z   16
loop_
 _symmetry_equiv_pos_site_id
 _symmetry_equiv_pos_as_xyz
  1  'x, y, z'
loop_
 _atom_site_type_symbol
 _atom_site_label
 _atom_site_symmetry_multiplicity
 _atom_site_fract_x
 _atom_site_fract_y
 _atom_site_fract_z
 _atom_site_occupancy
 _atom_site_charge
  Mn  Mn1  1  0.926020  0.543340  0.826250  1.0  1.0021
  Mn  Mn2  1  0.041830  0.533820  0.753120  1.0  1.0037
  Mn  Mn3  1  0.886970  0.471660  0.028450  1.0  0.9671
  Mn  Mn4  1  0.426020  0.043340  0.326250  1.0  1.0021
  Mn  Mn5  1  0.541830  0.033820  0.253120  1.0  1.0037
  Mn  Mn6  1  0.386970  0.971660  0.528450  1.0  0.9671
  Mn  Mn7  1  0.573980  0.456660  0.326250  1.0  0.997
  Mn  Mn8  1  0.458170  0.466180  0.253120  1.0  1.0052
  Mn  Mn9  1  0.613030  0.528340  0.528450  1.0  0.9677
  Mn  Mn10  1  0.073980  0.956660  0.826250  1.0  0.997
  Mn  Mn11  1  0.958170  0.966180  0.753120  1.0  1.0052
  Mn  Mn12  1  0.113030  0.028340  0.028450  1.0  0.9677
  Mn  Mn13  1  0.206660  0.176020  0.076250  1.0  0.9984
  Mn  Mn14  1  0.216180  0.291830  0.003120  1.0  1.0055
  Mn  Mn15  1  0.278340  0.136970  0.278450  1.0  0.9675
  Mn  Mn16  1  0.706660  0.676020  0.576250  1.0  0.9984
  Mn  Mn17  1  0.716180  0.791830  0.503120  1.0  1.0055
  Mn  Mn18  1  0.778340  0.636970  0.778450  1.0  0.9675
  Mn  Mn19  1  0.293340  0.823980  0.576250  1.0  0.9994
  Mn  Mn20  1  0.283820  0.708170  0.503120  1.0  1.0046
  Mn  Mn21  1  0.221660  0.863030  0.778450  1.0  0.9647
  Mn  Mn22  1  0.793340  0.323980  0.076250  1.0  0.9994
  Mn  Mn23  1  0.783820  0.208170  0.003120  1.0  1.0046
  Mn  Mn24  1  0.721660  0.363030  0.278450  1.0  0.9647
  Mn  Mn25  1  0.073980  0.456660  0.173750  1.0  0.9962
  Mn  Mn26  1  0.958170  0.466180  0.246880  1.0  1.002
  Mn  Mn27  1  0.113030  0.528340  0.971550  1.0  0.9687
  Mn  Mn28  1  0.573980  0.956660  0.673750  1.0  0.9962
  Mn  Mn29  1  0.458170  0.966180  0.746880  1.0  1.002
  Mn  Mn30  1  0.613030  0.028340  0.471550  1.0  0.9687
  Mn  Mn31  1  0.426020  0.543340  0.673750  1.0  1.0021
  Mn  Mn32  1  0.541830  0.533820  0.746880  1.0  1.0008
  Mn  Mn33  1  0.386970  0.471660  0.471550  1.0  0.9676
  Mn  Mn34  1  0.926020  0.043340  0.173750  1.0  1.0021
  Mn  Mn35  1  0.041830  0.033820  0.246880  1.0  1.0008
  Mn  Mn36  1  0.886970  0.971660  0.971550  1.0  0.9676
  Mn  Mn37  1  0.793340  0.823980  0.923750  1.0  0.9982
  Mn  Mn38  1  0.783820  0.708170  0.996880  1.0  1.002
  Mn  Mn39  1  0.721660  0.863030  0.721550  1.0  0.9654
  Mn  Mn40  1  0.293340  0.323980  0.423750  1.0  0.9982
  Mn  Mn41  1  0.283820  0.208170  0.496880  1.0  1.002
  Mn  Mn42  1  0.221660  0.363030  0.221550  1.0  0.9654
  Mn  Mn43  1  0.706660  0.176020  0.423750  1.0  0.9988
  Mn  Mn44  1  0.716180  0.291830  0.496880  1.0  1.0018
  Mn  Mn45  1  0.778340  0.136970  0.221550  1.0  0.9685
  Mn  Mn46  1  0.206660  0.676020  0.923750  1.0  0.9988
  Mn  Mn47  1  0.216180  0.791830  0.996880  1.0  1.0018
  Mn  Mn48  1  0.278340  0.636970  0.721550  1.0  0.9685
  H  H49  1  0.872000  0.479600  0.670200  1.0  0.1198
  H  H50  1  0.887900  0.457600  0.556600  1.0  0.1024
  H  H51  1  0.939400  0.468800  0.504700  1.0  0.1246
  H  H52  1  0.980100  0.494200  0.582600  1.0  0.1095
  H  H53  1  0.024900  0.599900  0.880500  1.0  0.1248
  H  H54  1  0.026000  0.570100  0.939300  1.0  0.1123
  H  H55  1  0.986200  0.627400  0.951200  1.0  0.1146
  H  H56  1  0.016000  0.617200  0.005600  1.0  0.1127
  H  H57  1  0.982300  0.596500  0.006500  1.0  0.1174
  H  H58  1  0.060900  0.628400  0.643200  1.0  0.1151
  H  H59  1  0.098100  0.669800  0.670300  1.0  0.099
  H  H60  1  0.134300  0.665700  0.772000  1.0  0.1098
  H  H61  1  0.132100  0.619200  0.848600  1.0  0.1015
  H  H62  1  0.047000  0.454100  0.932600  1.0  0.1025
  H  H63  1  0.086200  0.455200  0.921900  1.0  0.113
  H  H64  1  0.041900  0.426900  0.815300  1.0  0.126
  H  H65  1  0.064300  0.406000  0.872200  1.0  0.1097
  H  H66  1  0.081300  0.427200  0.806900  1.0  0.1213
  H  H67  1  0.114500  0.527200  0.689700  1.0  0.0586
  H  H68  1  0.148500  0.496300  0.614500  1.0  0.0978
  H  H69  1  0.074900  0.436900  0.574600  1.0  0.1233
  H  H70  1  0.042000  0.468200  0.655300  1.0  0.1095
  H  H71  1  0.155200  0.465700  0.505200  1.0  0.0808
  H  H72  1  0.146500  0.431800  0.546600  1.0  0.076
  H  H73  1  0.791700  0.509100  0.095800  1.0  0.1067
  H  H74  1  0.758700  0.551000  0.047000  1.0  0.117
  H  H75  1  0.778100  0.584300  0.948100  1.0  0.1177
  H  H76  1  0.830900  0.575500  0.901200  1.0  0.0925
  H  H77  1  0.981800  0.487700  0.874900  1.0  0.0869
  H  H78  1  0.987300  0.458900  0.935600  1.0  0.0867
  H  H79  1  0.951200  0.451000  0.795100  1.0  0.1161
  H  H80  1  0.985200  0.432700  0.815000  1.0  0.1131
  H  H81  1  0.951900  0.422600  0.857700  1.0  0.1154
  H  H82  1  0.174300  0.425300  0.233800  1.0  0.0713
  H  H83  1  0.138900  0.452800  0.313800  1.0  0.1265
  H  H84  1  0.162200  0.387200  0.473100  1.0  0.1143
  H  H85  1  0.199300  0.362700  0.391000  1.0  0.0839
  H  H86  1  0.112100  0.458400  0.430100  1.0  0.0696
  H  H87  1  0.105000  0.423700  0.470200  1.0  0.073
  H  H88  1  0.372000  0.979600  0.170200  1.0  0.1198
  H  H89  1  0.387900  0.957600  0.056600  1.0  0.1024
  H  H90  1  0.439400  0.968800  0.004700  1.0  0.1246
  H  H91  1  0.480100  0.994200  0.082600  1.0  0.1095
  H  H92  1  0.524900  0.099900  0.380500  1.0  0.1248
  H  H93  1  0.526000  0.070100  0.439300  1.0  0.1123
  H  H94  1  0.486200  0.127400  0.451200  1.0  0.1146
  H  H95  1  0.516000  0.117200  0.505600  1.0  0.1127
  H  H96  1  0.482300  0.096500  0.506500  1.0  0.1174
  H  H97  1  0.560900  0.128400  0.143200  1.0  0.1145
  H  H98  1  0.598100  0.169800  0.170300  1.0  0.099
  H  H99  1  0.634300  0.165700  0.272000  1.0  0.1098
  H  H100  1  0.632100  0.119200  0.348600  1.0  0.1015
  H  H101  1  0.547000  0.954100  0.432600  1.0  0.1025
  H  H102  1  0.586200  0.955200  0.421900  1.0  0.113
  H  H103  1  0.541900  0.926900  0.315300  1.0  0.126
  H  H104  1  0.564300  0.906000  0.372200  1.0  0.1097
  H  H105  1  0.581300  0.927200  0.306900  1.0  0.1213
  H  H106  1  0.614500  0.027200  0.189700  1.0  0.0586
  H  H107  1  0.648500  0.996300  0.114500  1.0  0.0978
  H  H108  1  0.574900  0.936900  0.074600  1.0  0.1233
  H  H109  1  0.542000  0.968200  0.155300  1.0  0.1095
  H  H110  1  0.655200  0.965700  0.005200  1.0  0.0808
  H  H111  1  0.646500  0.931800  0.046600  1.0  0.076
  H  H112  1  0.291700  0.009100  0.595800  1.0  0.1067
  H  H113  1  0.258700  0.051000  0.547000  1.0  0.117
  H  H114  1  0.278100  0.084300  0.448100  1.0  0.1177
  H  H115  1  0.330900  0.075500  0.401200  1.0  0.0925
  H  H116  1  0.481800  0.987700  0.374900  1.0  0.0869
  H  H117  1  0.487300  0.958900  0.435600  1.0  0.0867
  H  H118  1  0.451200  0.951000  0.295100  1.0  0.1161
  H  H119  1  0.485200  0.932700  0.315000  1.0  0.1131
  H  H120  1  0.451900  0.922600  0.357700  1.0  0.1154
  H  H121  1  0.674300  0.925300  0.733800  1.0  0.0713
  H  H122  1  0.638900  0.952800  0.813800  1.0  0.1265
  H  H123  1  0.662200  0.887200  0.973100  1.0  0.1143
  H  H124  1  0.699300  0.862700  0.891000  1.0  0.0839
  H  H125  1  0.612100  0.958400  0.930100  1.0  0.0696
  H  H126  1  0.605000  0.923700  0.970200  1.0  0.073
  H  H127  1  0.628000  0.520400  0.170200  1.0  0.1196
  H  H128  1  0.612100  0.542400  0.056600  1.0  0.103
  H  H129  1  0.560600  0.531200  0.004700  1.0  0.1252
  H  H130  1  0.519900  0.505800  0.082600  1.0  0.1095
  H  H131  1  0.475100  0.400100  0.380500  1.0  0.1246
  H  H132  1  0.474000  0.429900  0.439300  1.0  0.1115
  H  H133  1  0.513800  0.372600  0.451200  1.0  0.1105
  H  H134  1  0.484000  0.382800  0.505600  1.0  0.1149
  H  H135  1  0.517700  0.403500  0.506500  1.0  0.1181
  H  H136  1  0.439100  0.371600  0.143200  1.0  0.1148
  H  H137  1  0.401900  0.330200  0.170300  1.0  0.0986
  H  H138  1  0.365700  0.334300  0.272000  1.0  0.111
  H  H139  1  0.367900  0.380800  0.348600  1.0  0.1017
  H  H140  1  0.453000  0.545900  0.432600  1.0  0.1019
  H  H141  1  0.413800  0.544800  0.421900  1.0  0.1126
  H  H142  1  0.458100  0.573100  0.315300  1.0  0.1265
  H  H143  1  0.435700  0.594000  0.372200  1.0  0.111
  H  H144  1  0.418700  0.572800  0.306900  1.0  0.119
  H  H145  1  0.385500  0.472800  0.189700  1.0  0.0583
  H  H146  1  0.351500  0.503700  0.114500  1.0  0.0974
  H  H147  1  0.425100  0.563100  0.074600  1.0  0.1232
  H  H148  1  0.458000  0.531800  0.155300  1.0  0.1097
  H  H149  1  0.344800  0.534300  0.005200  1.0  0.0795
  H  H150  1  0.353500  0.568200  0.046600  1.0  0.076
  H  H151  1  0.708300  0.490900  0.595800  1.0  0.1054
  H  H152  1  0.741300  0.449000  0.547000  1.0  0.1165
  H  H153  1  0.721900  0.415700  0.448100  1.0  0.1175
  H  H154  1  0.669100  0.424500  0.401200  1.0  0.0927
  H  H155  1  0.518200  0.512300  0.374900  1.0  0.0874
  H  H156  1  0.512700  0.541100  0.435600  1.0  0.0865
  H  H157  1  0.548800  0.549000  0.295100  1.0  0.1166
  H  H158  1  0.514800  0.567300  0.315000  1.0  0.1154
  H  H159  1  0.548100  0.577400  0.357700  1.0  0.1162
  H  H160  1  0.325700  0.574700  0.733800  1.0  0.0716
  H  H161  1  0.361100  0.547200  0.813800  1.0  0.1261
  H  H162  1  0.337800  0.612800  0.973100  1.0  0.1142
  H  H163  1  0.300700  0.637300  0.891000  1.0  0.0839
  H  H164  1  0.387900  0.541600  0.930100  1.0  0.0702
  H  H165  1  0.395000  0.576300  0.970200  1.0  0.0734
  H  H166  1  0.128000  0.020400  0.670200  1.0  0.1196
  H  H167  1  0.112100  0.042400  0.556600  1.0  0.103
  H  H168  1  0.060600  0.031200  0.504700  1.0  0.1252
  H  H169  1  0.019900  0.005800  0.582600  1.0  0.1095
  H  H170  1  0.975100  0.900100  0.880500  1.0  0.1246
  H  H171  1  0.974000  0.929900  0.939300  1.0  0.1115
  H  H172  1  0.013800  0.872600  0.951200  1.0  0.1105
  H  H173  1  0.984000  0.882800  0.005600  1.0  0.1149
  H  H174  1  0.017700  0.903500  0.006500  1.0  0.1181
  H  H175  1  0.939100  0.871600  0.643200  1.0  0.1155
  H  H176  1  0.901900  0.830200  0.670300  1.0  0.0986
  H  H177  1  0.865700  0.834300  0.772000  1.0  0.111
  H  H178  1  0.867900  0.880800  0.848600  1.0  0.1017
  H  H179  1  0.953000  0.045900  0.932600  1.0  0.1019
  H  H180  1  0.913800  0.044800  0.921900  1.0  0.1126
  H  H181  1  0.958100  0.073100  0.815300  1.0  0.1265
  H  H182  1  0.935700  0.094000  0.872200  1.0  0.111
  H  H183  1  0.918700  0.072800  0.806900  1.0  0.119
  H  H184  1  0.885500  0.972800  0.689700  1.0  0.0583
  H  H185  1  0.851500  0.003700  0.614500  1.0  0.0974
  H  H186  1  0.925100  0.063100  0.574600  1.0  0.1232
  H  H187  1  0.958000  0.031800  0.655300  1.0  0.1097
  H  H188  1  0.844800  0.034300  0.505200  1.0  0.0795
  H  H189  1  0.853500  0.068200  0.546600  1.0  0.076
  H  H190  1  0.208300  0.990900  0.095800  1.0  0.1054
  H  H191  1  0.241300  0.949000  0.047000  1.0  0.1165
  H  H192  1  0.221900  0.915700  0.948100  1.0  0.1175
  H  H193  1  0.169100  0.924500  0.901200  1.0  0.0927
  H  H194  1  0.018200  0.012300  0.874900  1.0  0.0874
  H  H195  1  0.012700  0.041100  0.935600  1.0  0.0865
  H  H196  1  0.048800  0.049000  0.795100  1.0  0.1166
  H  H197  1  0.014800  0.067300  0.815000  1.0  0.1154
  H  H198  1  0.048100  0.077400  0.857700  1.0  0.1162
  H  H199  1  0.825700  0.074700  0.233800  1.0  0.0716
  H  H200  1  0.861100  0.047200  0.313800  1.0  0.1261
  H  H201  1  0.837800  0.112800  0.473100  1.0  0.1142
  H  H202  1  0.800700  0.137300  0.391000  1.0  0.0839
  H  H203  1  0.887900  0.041600  0.430100  1.0  0.0702
  H  H204  1  0.895000  0.076300  0.470200  1.0  0.0734
  H  H205  1  0.270400  0.122000  0.920200  1.0  0.1194
  H  H206  1  0.292400  0.137900  0.806600  1.0  0.1016
  H  H207  1  0.281200  0.189400  0.754700  1.0  0.1243
  H  H208  1  0.255800  0.230100  0.832600  1.0  0.1104
  H  H209  1  0.150100  0.274900  0.130500  1.0  0.1245
  H  H210  1  0.179900  0.276000  0.189300  1.0  0.1115
  H  H211  1  0.122600  0.236200  0.201200  1.0  0.1123
  H  H212  1  0.132800  0.266000  0.255600  1.0  0.1143
  H  H213  1  0.153500  0.232300  0.256500  1.0  0.1195
  H  H214  1  0.121600  0.310900  0.893200  1.0  0.1144
  H  H215  1  0.080200  0.348100  0.920300  1.0  0.1003
  H  H216  1  0.084300  0.384300  0.022000  1.0  0.1106
  H  H217  1  0.130800  0.382100  0.098600  1.0  0.1023
  H  H218  1  0.295900  0.297000  0.182600  1.0  0.1031
  H  H219  1  0.294800  0.336200  0.171900  1.0  0.1122
  H  H220  1  0.323100  0.291900  0.065300  1.0  0.1292
  H  H221  1  0.344000  0.314300  0.122200  1.0  0.1163
  H  H222  1  0.322800  0.331300  0.056900  1.0  0.1224
  H  H223  1  0.222800  0.364500  0.939700  1.0  0.0587
  H  H224  1  0.253700  0.398500  0.864500  1.0  0.0979
  H  H225  1  0.313100  0.324900  0.824600  1.0  0.1236
  H  H226  1  0.281800  0.292000  0.905300  1.0  0.109
  H  H227  1  0.284300  0.405200  0.755200  1.0  0.081
  H  H228  1  0.318200  0.396500  0.796600  1.0  0.0753
  H  H229  1  0.240900  0.041700  0.345800  1.0  0.1074
  H  H230  1  0.199000  0.008700  0.297000  1.0  0.1166
  H  H231  1  0.165700  0.028100  0.198100  1.0  0.1168
  H  H232  1  0.174500  0.080900  0.151200  1.0  0.0933
  H  H233  1  0.262300  0.231800  0.124900  1.0  0.0869
  H  H234  1  0.291100  0.237300  0.185600  1.0  0.0858
  H  H235  1  0.299000  0.201200  0.045100  1.0  0.119
  H  H236  1  0.317300  0.235200  0.065000  1.0  0.1168
  H  H237  1  0.327400  0.201900  0.107700  1.0  0.1153
  H  H238  1  0.324700  0.424300  0.483800  1.0  0.0721
  H  H239  1  0.297200  0.388900  0.563800  1.0  0.1261
  H  H240  1  0.362800  0.412200  0.723100  1.0  0.1143
  H  H241  1  0.387300  0.449300  0.641000  1.0  0.0834
  H  H242  1  0.291600  0.362100  0.680100  1.0  0.0694
  H  H243  1  0.326300  0.355000  0.720200  1.0  0.0744
  H  H244  1  0.770400  0.622000  0.420200  1.0  0.1194
  H  H245  1  0.792400  0.637900  0.306600  1.0  0.1016
  H  H246  1  0.781200  0.689400  0.254700  1.0  0.1243
  H  H247  1  0.755800  0.730100  0.332600  1.0  0.1104
  H  H248  1  0.650100  0.774900  0.630500  1.0  0.1245
  H  H249  1  0.679900  0.776000  0.689300  1.0  0.1115
  H  H250  1  0.622600  0.736200  0.701200  1.0  0.1123
  H  H251  1  0.632800  0.766000  0.755600  1.0  0.1143
  H  H252  1  0.653500  0.732300  0.756500  1.0  0.1195
  H  H253  1  0.621600  0.810900  0.393200  1.0  0.1144
  H  H254  1  0.580200  0.848100  0.420300  1.0  0.1003
  H  H255  1  0.584300  0.884300  0.522000  1.0  0.1106
  H  H256  1  0.630800  0.882100  0.598600  1.0  0.1023
  H  H257  1  0.795900  0.797000  0.682600  1.0  0.1031
  H  H258  1  0.794800  0.836200  0.671900  1.0  0.1122
  H  H259  1  0.823100  0.791900  0.565300  1.0  0.1292
  H  H260  1  0.844000  0.814300  0.622200  1.0  0.1163
  H  H261  1  0.822800  0.831300  0.556900  1.0  0.1224
  H  H262  1  0.722800  0.864500  0.439700  1.0  0.0587
  H  H263  1  0.753700  0.898500  0.364500  1.0  0.0979
  H  H264  1  0.813100  0.824900  0.324600  1.0  0.1236
  H  H265  1  0.781800  0.792000  0.405300  1.0  0.109
  H  H266  1  0.784300  0.905200  0.255200  1.0  0.081
  H  H267  1  0.818200  0.896500  0.296600  1.0  0.0753
  H  H268  1  0.740900  0.541700  0.845800  1.0  0.1074
  H  H269  1  0.699000  0.508700  0.797000  1.0  0.1166
  H  H270  1  0.665700  0.528100  0.698100  1.0  0.1168
  H  H271  1  0.674500  0.580900  0.651200  1.0  0.0933
  H  H272  1  0.762300  0.731800  0.624900  1.0  0.0869
  H  H273  1  0.791100  0.737300  0.685600  1.0  0.0858
  H  H274  1  0.799000  0.701200  0.545100  1.0  0.119
  H  H275  1  0.817300  0.735200  0.565000  1.0  0.1168
  H  H276  1  0.827400  0.701900  0.607700  1.0  0.1153
  H  H277  1  0.824700  0.924300  0.983800  1.0  0.0721
  H  H278  1  0.797200  0.888900  0.063800  1.0  0.1261
  H  H279  1  0.862800  0.912200  0.223100  1.0  0.1143
  H  H280  1  0.887300  0.949300  0.141000  1.0  0.0834
  H  H281  1  0.791600  0.862100  0.180100  1.0  0.0694
  H  H282  1  0.826300  0.855000  0.220200  1.0  0.0744
  H  H283  1  0.229600  0.878000  0.420200  1.0  0.1198
  H  H284  1  0.207600  0.862100  0.306600  1.0  0.1025
  H  H285  1  0.218800  0.810600  0.254700  1.0  0.1246
  H  H286  1  0.244200  0.769900  0.332600  1.0  0.1102
  H  H287  1  0.349900  0.725100  0.630500  1.0  0.1256
  H  H288  1  0.320100  0.724000  0.689300  1.0  0.1125
  H  H289  1  0.377400  0.763800  0.701200  1.0  0.1105
  H  H290  1  0.367200  0.734000  0.755600  1.0  0.114
  H  H291  1  0.346500  0.767700  0.756500  1.0  0.1208
  H  H292  1  0.378400  0.689100  0.393200  1.0  0.1152
  H  H293  1  0.419800  0.651900  0.420300  1.0  0.0999
  H  H294  1  0.415700  0.615700  0.522000  1.0  0.1109
  H  H295  1  0.369200  0.617900  0.598600  1.0  0.1023
  H  H296  1  0.204100  0.703000  0.682600  1.0  0.1027
  H  H297  1  0.205200  0.663800  0.671900  1.0  0.1135
  H  H298  1  0.176900  0.708100  0.565300  1.0  0.1281
  H  H299  1  0.156000  0.685700  0.622200  1.0  0.1134
  H  H300  1  0.177200  0.668700  0.556900  1.0  0.121
  H  H301  1  0.277200  0.635500  0.439700  1.0  0.0592
  H  H302  1  0.246300  0.601500  0.364500  1.0  0.099
  H  H303  1  0.186900  0.675100  0.324600  1.0  0.1238
  H  H304  1  0.218200  0.708000  0.405300  1.0  0.1107
  H  H305  1  0.215700  0.594800  0.255200  1.0  0.0796
  H  H306  1  0.181800  0.603500  0.296600  1.0  0.0764
  H  H307  1  0.259100  0.958300  0.845800  1.0  0.107
  H  H308  1  0.301000  0.991300  0.797000  1.0  0.1161
  H  H309  1  0.334300  0.971900  0.698100  1.0  0.1163
  H  H310  1  0.325500  0.919100  0.651200  1.0  0.0928
  H  H311  1  0.237700  0.768200  0.624900  1.0  0.0867
  H  H312  1  0.208900  0.762700  0.685600  1.0  0.0856
  H  H313  1  0.201000  0.798800  0.545100  1.0  0.1179
  H  H314  1  0.182700  0.764800  0.565000  1.0  0.1148
  H  H315  1  0.172600  0.798100  0.607700  1.0  0.1161
  H  H316  1  0.175300  0.575700  0.983800  1.0  0.0723
  H  H317  1  0.202800  0.611100  0.063800  1.0  0.126
  H  H318  1  0.137200  0.587800  0.223100  1.0  0.1144
  H  H319  1  0.112700  0.550700  0.141000  1.0  0.0835
  H  H320  1  0.208400  0.637900  0.180100  1.0  0.0689
  H  H321  1  0.173700  0.645000  0.220200  1.0  0.0723
  H  H322  1  0.729600  0.378000  0.920200  1.0  0.1198
  H  H323  1  0.707600  0.362100  0.806600  1.0  0.1025
  H  H324  1  0.718800  0.310600  0.754700  1.0  0.1246
  H  H325  1  0.744200  0.269900  0.832600  1.0  0.1102
  H  H326  1  0.849900  0.225100  0.130500  1.0  0.1256
  H  H327  1  0.820100  0.224000  0.189300  1.0  0.1125
  H  H328  1  0.877400  0.263800  0.201200  1.0  0.1105
  H  H329  1  0.867200  0.234000  0.255600  1.0  0.114
  H  H330  1  0.846500  0.267700  0.256500  1.0  0.1208
  H  H331  1  0.878400  0.189100  0.893200  1.0  0.1152
  H  H332  1  0.919800  0.151900  0.920300  1.0  0.0999
  H  H333  1  0.915700  0.115700  0.022000  1.0  0.1109
  H  H334  1  0.869200  0.117900  0.098600  1.0  0.1023
  H  H335  1  0.704100  0.203000  0.182600  1.0  0.1027
  H  H336  1  0.705200  0.163800  0.171900  1.0  0.1135
  H  H337  1  0.676900  0.208100  0.065300  1.0  0.1281
  H  H338  1  0.656000  0.185700  0.122200  1.0  0.1134
  H  H339  1  0.677200  0.168700  0.056900  1.0  0.121
  H  H340  1  0.777200  0.135500  0.939700  1.0  0.0592
  H  H341  1  0.746300  0.101500  0.864500  1.0  0.099
  H  H342  1  0.686900  0.175100  0.824600  1.0  0.1238
  H  H343  1  0.718200  0.208000  0.905300  1.0  0.1107
  H  H344  1  0.715700  0.094800  0.755200  1.0  0.0796
  H  H345  1  0.681800  0.103500  0.796600  1.0  0.0764
  H  H346  1  0.759100  0.458300  0.345800  1.0  0.107
  H  H347  1  0.801000  0.491300  0.297000  1.0  0.1161
  H  H348  1  0.834300  0.471900  0.198100  1.0  0.1163
  H  H349  1  0.825500  0.419100  0.151200  1.0  0.0928
  H  H350  1  0.737700  0.268200  0.124900  1.0  0.0867
  H  H351  1  0.708900  0.262700  0.185600  1.0  0.0856
  H  H352  1  0.701000  0.298800  0.045100  1.0  0.1179
  H  H353  1  0.682700  0.264800  0.065000  1.0  0.1148
  H  H354  1  0.672600  0.298100  0.107700  1.0  0.1161
  H  H355  1  0.675300  0.075700  0.483800  1.0  0.0723
  H  H356  1  0.702800  0.111100  0.563800  1.0  0.126
  H  H357  1  0.637200  0.087800  0.723100  1.0  0.1144
  H  H358  1  0.612700  0.050700  0.641000  1.0  0.0835
  H  H359  1  0.708400  0.137900  0.680100  1.0  0.0689
  H  H360  1  0.673700  0.145000  0.720200  1.0  0.0723
  H  H361  1  0.128000  0.520400  0.329800  1.0  0.1197
  H  H362  1  0.112100  0.542400  0.443400  1.0  0.102
  H  H363  1  0.060600  0.531200  0.495300  1.0  0.1247
  H  H364  1  0.019900  0.505800  0.417400  1.0  0.1097
  H  H365  1  0.975100  0.400100  0.119500  1.0  0.1267
  H  H366  1  0.974000  0.429900  0.060700  1.0  0.1112
  H  H367  1  0.013800  0.372600  0.048800  1.0  0.111
  H  H368  1  0.984000  0.382800  0.994400  1.0  0.1145
  H  H369  1  0.017700  0.403500  0.993500  1.0  0.1181
  H  H370  1  0.939100  0.371600  0.356800  1.0  0.1165
  H  H371  1  0.901900  0.330200  0.329700  1.0  0.099
  H  H372  1  0.865700  0.334300  0.228000  1.0  0.1108
  H  H373  1  0.867900  0.380800  0.151400  1.0  0.1019
  H  H374  1  0.953000  0.545900  0.067400  1.0  0.1022
  H  H375  1  0.913800  0.544800  0.078100  1.0  0.113
  H  H376  1  0.958100  0.573100  0.184700  1.0  0.1271
  H  H377  1  0.935700  0.594000  0.127800  1.0  0.1121
  H  H378  1  0.918700  0.572800  0.193100  1.0  0.1208
  H  H379  1  0.885500  0.472800  0.310300  1.0  0.0587
  H  H380  1  0.851500  0.503700  0.385500  1.0  0.0974
  H  H381  1  0.925100  0.563100  0.425400  1.0  0.123
  H  H382  1  0.958000  0.531800  0.344700  1.0  0.11
  H  H383  1  0.844800  0.534300  0.494800  1.0  0.0799
  H  H384  1  0.853500  0.568200  0.453400  1.0  0.0772
  H  H385  1  0.208300  0.490900  0.904200  1.0  0.1047
  H  H386  1  0.241300  0.449000  0.953000  1.0  0.1167
  H  H387  1  0.221900  0.415700  0.051900  1.0  0.1172
  H  H388  1  0.169100  0.424500  0.098800  1.0  0.0928
  H  H389  1  0.018200  0.512300  0.125100  1.0  0.0881
  H  H390  1  0.012700  0.541100  0.064400  1.0  0.0862
  H  H391  1  0.048800  0.549000  0.204900  1.0  0.1185
  H  H392  1  0.014800  0.567300  0.185000  1.0  0.1135
  H  H393  1  0.048100  0.577400  0.142300  1.0  0.1157
  H  H394  1  0.825700  0.574700  0.766200  1.0  0.071
  H  H395  1  0.861100  0.547200  0.686200  1.0  0.1267
  H  H396  1  0.837800  0.612800  0.526900  1.0  0.1141
  H  H397  1  0.800700  0.637300  0.609000  1.0  0.0838
  H  H398  1  0.887900  0.541600  0.569900  1.0  0.0689
  H  H399  1  0.895000  0.576300  0.529800  1.0  0.0731
  H  H400  1  0.628000  0.020400  0.829800  1.0  0.1197
  H  H401  1  0.612100  0.042400  0.943400  1.0  0.102
  H  H402  1  0.560600  0.031200  0.995300  1.0  0.1247
  H  H403  1  0.519900  0.005800  0.917400  1.0  0.1097
  H  H404  1  0.475100  0.900100  0.619500  1.0  0.1267
  H  H405  1  0.474000  0.929900  0.560700  1.0  0.1112
  H  H406  1  0.513800  0.872600  0.548800  1.0  0.111
  H  H407  1  0.484000  0.882800  0.494400  1.0  0.1145
  H  H408  1  0.517700  0.903500  0.493500  1.0  0.1181
  H  H409  1  0.439100  0.871600  0.856800  1.0  0.1158
  H  H410  1  0.401900  0.830200  0.829700  1.0  0.099
  H  H411  1  0.365700  0.834300  0.728000  1.0  0.1108
  H  H412  1  0.367900  0.880800  0.651400  1.0  0.1019
  H  H413  1  0.453000  0.045900  0.567400  1.0  0.1022
  H  H414  1  0.413800  0.044800  0.578100  1.0  0.113
  H  H415  1  0.458100  0.073100  0.684700  1.0  0.1271
  H  H416  1  0.435700  0.094000  0.627800  1.0  0.1121
  H  H417  1  0.418700  0.072800  0.693100  1.0  0.1208
  H  H418  1  0.385500  0.972800  0.810300  1.0  0.0587
  H  H419  1  0.351500  0.003700  0.885500  1.0  0.0974
  H  H420  1  0.425100  0.063100  0.925400  1.0  0.123
  H  H421  1  0.458000  0.031800  0.844700  1.0  0.11
  H  H422  1  0.344800  0.034300  0.994800  1.0  0.0799
  H  H423  1  0.353500  0.068200  0.953400  1.0  0.0772
  H  H424  1  0.708300  0.990900  0.404200  1.0  0.1047
  H  H425  1  0.741300  0.949000  0.453000  1.0  0.1167
  H  H426  1  0.721900  0.915700  0.551900  1.0  0.1172
  H  H427  1  0.669100  0.924500  0.598800  1.0  0.0928
  H  H428  1  0.518200  0.012300  0.625100  1.0  0.0881
  H  H429  1  0.512700  0.041100  0.564400  1.0  0.0862
  H  H430  1  0.548800  0.049000  0.704900  1.0  0.1185
  H  H431  1  0.514800  0.067300  0.685000  1.0  0.1135
  H  H432  1  0.548100  0.077400  0.642300  1.0  0.1157
  H  H433  1  0.325700  0.074700  0.266200  1.0  0.071
  H  H434  1  0.361100  0.047200  0.186200  1.0  0.1267
  H  H435  1  0.337800  0.112800  0.026900  1.0  0.1141
  H  H436  1  0.300700  0.137300  0.109000  1.0  0.0838
  H  H437  1  0.387900  0.041600  0.069900  1.0  0.0689
  H  H438  1  0.395000  0.076300  0.029800  1.0  0.0731
  H  H439  1  0.372000  0.479600  0.829800  1.0  0.1198
  H  H440  1  0.387900  0.457600  0.943400  1.0  0.1025
  H  H441  1  0.439400  0.468800  0.995300  1.0  0.1246
  H  H442  1  0.480100  0.494200  0.917400  1.0  0.1099
  H  H443  1  0.524900  0.599900  0.619500  1.0  0.1249
  H  H444  1  0.526000  0.570100  0.560700  1.0  0.1123
  H  H445  1  0.486200  0.627400  0.548800  1.0  0.1136
  H  H446  1  0.516000  0.617200  0.494400  1.0  0.1137
  H  H447  1  0.482300  0.596500  0.493500  1.0  0.1182
  H  H448  1  0.560900  0.628400  0.856800  1.0  0.1162
  H  H449  1  0.598100  0.669800  0.829700  1.0  0.0998
  H  H450  1  0.634300  0.665700  0.728000  1.0  0.1099
  H  H451  1  0.632100  0.619200  0.651400  1.0  0.1015
  H  H452  1  0.547000  0.454100  0.567400  1.0  0.1021
  H  H453  1  0.586200  0.455200  0.578100  1.0  0.113
  H  H454  1  0.541900  0.426900  0.684700  1.0  0.1267
  H  H455  1  0.564300  0.406000  0.627800  1.0  0.11
  H  H456  1  0.581300  0.427200  0.693100  1.0  0.1212
  H  H457  1  0.614500  0.527200  0.810300  1.0  0.0586
  H  H458  1  0.648500  0.496300  0.885500  1.0  0.0978
  H  H459  1  0.574900  0.436900  0.925400  1.0  0.1232
  H  H460  1  0.542000  0.468200  0.844700  1.0  0.1096
  H  H461  1  0.655200  0.465700  0.994800  1.0  0.0811
  H  H462  1  0.646500  0.431800  0.953400  1.0  0.076
  H  H463  1  0.291700  0.509100  0.404200  1.0  0.1055
  H  H464  1  0.258700  0.551000  0.453000  1.0  0.1169
  H  H465  1  0.278100  0.584300  0.551900  1.0  0.1177
  H  H466  1  0.330900  0.575500  0.598800  1.0  0.0923
  H  H467  1  0.481800  0.487700  0.625100  1.0  0.0875
  H  H468  1  0.487300  0.458900  0.564400  1.0  0.0853
  H  H469  1  0.451200  0.451000  0.704900  1.0  0.1173
  H  H470  1  0.485200  0.432700  0.685000  1.0  0.1131
  H  H471  1  0.451900  0.422600  0.642300  1.0  0.1152
  H  H472  1  0.674300  0.425300  0.266200  1.0  0.0708
  H  H473  1  0.638900  0.452800  0.186200  1.0  0.126
  H  H474  1  0.662200  0.387200  0.026900  1.0  0.1142
  H  H475  1  0.699300  0.362700  0.109000  1.0  0.0836
  H  H476  1  0.612100  0.458400  0.069900  1.0  0.0682
  H  H477  1  0.605000  0.423700  0.029800  1.0  0.0727
  H  H478  1  0.872000  0.979600  0.329800  1.0  0.1198
  H  H479  1  0.887900  0.957600  0.443400  1.0  0.1025
  H  H480  1  0.939400  0.968800  0.495300  1.0  0.1246
  H  H481  1  0.980100  0.994200  0.417400  1.0  0.1099
  H  H482  1  0.024900  0.099900  0.119500  1.0  0.1249
  H  H483  1  0.026000  0.070100  0.060700  1.0  0.1123
  H  H484  1  0.986200  0.127400  0.048800  1.0  0.1136
  H  H485  1  0.016000  0.117200  0.994400  1.0  0.1137
  H  H486  1  0.982300  0.096500  0.993500  1.0  0.1182
  H  H487  1  0.060900  0.128400  0.356800  1.0  0.1168
  H  H488  1  0.098100  0.169800  0.329700  1.0  0.0998
  H  H489  1  0.134300  0.165700  0.228000  1.0  0.1099
  H  H490  1  0.132100  0.119200  0.151400  1.0  0.1015
  H  H491  1  0.047000  0.954100  0.067400  1.0  0.1021
  H  H492  1  0.086200  0.955200  0.078100  1.0  0.113
  H  H493  1  0.041900  0.926900  0.184700  1.0  0.1267
  H  H494  1  0.064300  0.906000  0.127800  1.0  0.11
  H  H495  1  0.081300  0.927200  0.193100  1.0  0.1212
  H  H496  1  0.114500  0.027200  0.310300  1.0  0.0586
  H  H497  1  0.148500  0.996300  0.385500  1.0  0.0978
  H  H498  1  0.074900  0.936900  0.425400  1.0  0.1232
  H  H499  1  0.042000  0.968200  0.344700  1.0  0.1096
  H  H500  1  0.155200  0.965700  0.494800  1.0  0.0811
  H  H501  1  0.146500  0.931800  0.453400  1.0  0.076
  H  H502  1  0.791700  0.009100  0.904200  1.0  0.1055
  H  H503  1  0.758700  0.051000  0.953000  1.0  0.1169
  H  H504  1  0.778100  0.084300  0.051900  1.0  0.1177
  H  H505  1  0.830900  0.075500  0.098800  1.0  0.0923
  H  H506  1  0.981800  0.987700  0.125100  1.0  0.0875
  H  H507  1  0.987300  0.958900  0.064400  1.0  0.0853
  H  H508  1  0.951200  0.951000  0.204900  1.0  0.1173
  H  H509  1  0.985200  0.932700  0.185000  1.0  0.1131
  H  H510  1  0.951900  0.922600  0.142300  1.0  0.1152
  H  H511  1  0.174300  0.925300  0.766200  1.0  0.0708
  H  H512  1  0.138900  0.952800  0.686200  1.0  0.126
  H  H513  1  0.162200  0.887200  0.526900  1.0  0.1142
  H  H514  1  0.199300  0.862700  0.609000  1.0  0.0836
  H  H515  1  0.112100  0.958400  0.569900  1.0  0.0682
  H  H516  1  0.105000  0.923700  0.529800  1.0  0.0727
  H  H517  1  0.729600  0.878000  0.079800  1.0  0.1196
  H  H518  1  0.707600  0.862100  0.193400  1.0  0.1019
  H  H519  1  0.718800  0.810600  0.245300  1.0  0.1246
  H  H520  1  0.744200  0.769900  0.167400  1.0  0.1104
  H  H521  1  0.849900  0.725100  0.869500  1.0  0.1258
  H  H522  1  0.820100  0.724000  0.810700  1.0  0.1124
  H  H523  1  0.877400  0.763800  0.798800  1.0  0.1105
  H  H524  1  0.867200  0.734000  0.744400  1.0  0.114
  H  H525  1  0.846500  0.767700  0.743500  1.0  0.1226
  H  H526  1  0.878400  0.689100  0.106800  1.0  0.1161
  H  H527  1  0.919800  0.651900  0.079700  1.0  0.1003
  H  H528  1  0.915700  0.615700  0.978000  1.0  0.1109
  H  H529  1  0.869200  0.617900  0.901400  1.0  0.1026
  H  H530  1  0.704100  0.703000  0.817400  1.0  0.1025
  H  H531  1  0.705200  0.663800  0.828100  1.0  0.1131
  H  H532  1  0.676900  0.708100  0.934700  1.0  0.1285
  H  H533  1  0.656000  0.685700  0.877800  1.0  0.1152
  H  H534  1  0.677200  0.668700  0.943100  1.0  0.1225
  H  H535  1  0.777200  0.635500  0.060300  1.0  0.0595
  H  H536  1  0.746300  0.601500  0.135500  1.0  0.0989
  H  H537  1  0.686900  0.675100  0.175400  1.0  0.1235
  H  H538  1  0.718200  0.708000  0.094700  1.0  0.1106
  H  H539  1  0.715700  0.594800  0.244800  1.0  0.0803
  H  H540  1  0.681800  0.603500  0.203400  1.0  0.0762
  H  H541  1  0.759100  0.958300  0.654200  1.0  0.1061
  H  H542  1  0.801000  0.991300  0.703000  1.0  0.1161
  H  H543  1  0.834300  0.971900  0.801900  1.0  0.1161
  H  H544  1  0.825500  0.919100  0.848800  1.0  0.0929
  H  H545  1  0.737700  0.768200  0.875100  1.0  0.0874
  H  H546  1  0.708900  0.762700  0.814400  1.0  0.0843
  H  H547  1  0.701000  0.798800  0.954900  1.0  0.1196
  H  H548  1  0.682700  0.764800  0.935000  1.0  0.1149
  H  H549  1  0.672600  0.798100  0.892300  1.0  0.1159
  H  H550  1  0.675300  0.575700  0.516200  1.0  0.0718
  H  H551  1  0.702800  0.611100  0.436200  1.0  0.1264
  H  H552  1  0.637200  0.587800  0.276900  1.0  0.1142
  H  H553  1  0.612700  0.550700  0.359000  1.0  0.0834
  H  H554  1  0.708400  0.637900  0.319900  1.0  0.0678
  H  H555  1  0.673700  0.645000  0.279800  1.0  0.0722
  H  H556  1  0.229600  0.378000  0.579800  1.0  0.1196
  H  H557  1  0.207600  0.362100  0.693400  1.0  0.1019
  H  H558  1  0.218800  0.310600  0.745300  1.0  0.1246
  H  H559  1  0.244200  0.269900  0.667400  1.0  0.1104
  H  H560  1  0.349900  0.225100  0.369500  1.0  0.1258
  H  H561  1  0.320100  0.224000  0.310700  1.0  0.1124
  H  H562  1  0.377400  0.263800  0.298800  1.0  0.1105
  H  H563  1  0.367200  0.234000  0.244400  1.0  0.114
  H  H564  1  0.346500  0.267700  0.243500  1.0  0.1226
  H  H565  1  0.378400  0.189100  0.606800  1.0  0.1161
  H  H566  1  0.419800  0.151900  0.579700  1.0  0.1003
  H  H567  1  0.415700  0.115700  0.478000  1.0  0.1109
  H  H568  1  0.369200  0.117900  0.401400  1.0  0.1026
  H  H569  1  0.204100  0.203000  0.317400  1.0  0.1025
  H  H570  1  0.205200  0.163800  0.328100  1.0  0.1131
  H  H571  1  0.176900  0.208100  0.434700  1.0  0.1285
  H  H572  1  0.156000  0.185700  0.377800  1.0  0.1152
  H  H573  1  0.177200  0.168700  0.443100  1.0  0.1225
  H  H574  1  0.277200  0.135500  0.560300  1.0  0.0595
  H  H575  1  0.246300  0.101500  0.635500  1.0  0.0989
  H  H576  1  0.186900  0.175100  0.675400  1.0  0.1235
  H  H577  1  0.218200  0.208000  0.594700  1.0  0.1106
  H  H578  1  0.215700  0.094800  0.744800  1.0  0.0803
  H  H579  1  0.181800  0.103500  0.703400  1.0  0.0762
  H  H580  1  0.259100  0.458300  0.154200  1.0  0.1061
  H  H581  1  0.301000  0.491300  0.203000  1.0  0.1161
  H  H582  1  0.334300  0.471900  0.301900  1.0  0.1161
  H  H583  1  0.325500  0.419100  0.348800  1.0  0.0929
  H  H584  1  0.237700  0.268200  0.375100  1.0  0.0874
  H  H585  1  0.208900  0.262700  0.314400  1.0  0.0843
  H  H586  1  0.201000  0.298800  0.454900  1.0  0.1196
  H  H587  1  0.182700  0.264800  0.435000  1.0  0.1149
  H  H588  1  0.172600  0.298100  0.392300  1.0  0.1159
  H  H589  1  0.175300  0.075700  0.016200  1.0  0.0718
  H  H590  1  0.202800  0.111100  0.936200  1.0  0.1264
  H  H591  1  0.137200  0.087800  0.776900  1.0  0.1142
  H  H592  1  0.112700  0.050700  0.859000  1.0  0.0834
  H  H593  1  0.208400  0.137900  0.819900  1.0  0.0678
  H  H594  1  0.173700  0.145000  0.779800  1.0  0.0722
  H  H595  1  0.770400  0.122000  0.579800  1.0  0.1196
  H  H596  1  0.792400  0.137900  0.693400  1.0  0.1013
  H  H597  1  0.781200  0.189400  0.745300  1.0  0.1235
  H  H598  1  0.755800  0.230100  0.667400  1.0  0.1102
  H  H599  1  0.650100  0.274900  0.369500  1.0  0.125
  H  H600  1  0.679900  0.276000  0.310700  1.0  0.1113
  H  H601  1  0.622600  0.236200  0.298800  1.0  0.112
  H  H602  1  0.632800  0.266000  0.244400  1.0  0.1144
  H  H603  1  0.653500  0.232300  0.243500  1.0  0.1196
  H  H604  1  0.621600  0.310900  0.606800  1.0  0.1162
  H  H605  1  0.580200  0.348100  0.579700  1.0  0.1007
  H  H606  1  0.584300  0.384300  0.478000  1.0  0.1103
  H  H607  1  0.630800  0.382100  0.401400  1.0  0.1024
  H  H608  1  0.795900  0.297000  0.317400  1.0  0.103
  H  H609  1  0.794800  0.336200  0.328100  1.0  0.1128
  H  H610  1  0.823100  0.291900  0.434700  1.0  0.1291
  H  H611  1  0.844000  0.314300  0.377800  1.0  0.1161
  H  H612  1  0.822800  0.331300  0.443100  1.0  0.1223
  H  H613  1  0.722800  0.364500  0.560300  1.0  0.0589
  H  H614  1  0.753700  0.398500  0.635500  1.0  0.0979
  H  H615  1  0.813100  0.324900  0.675400  1.0  0.1231
  H  H616  1  0.781800  0.292000  0.594700  1.0  0.1093
  H  H617  1  0.784300  0.405200  0.744800  1.0  0.0812
  H  H618  1  0.818200  0.396500  0.703400  1.0  0.0776
  H  H619  1  0.740900  0.041700  0.154200  1.0  0.1064
  H  H620  1  0.699000  0.008700  0.203000  1.0  0.1165
  H  H621  1  0.665700  0.028100  0.301900  1.0  0.1166
  H  H622  1  0.674500  0.080900  0.348800  1.0  0.0931
  H  H623  1  0.762300  0.231800  0.375100  1.0  0.0872
  H  H624  1  0.791100  0.237300  0.314400  1.0  0.0851
  H  H625  1  0.799000  0.201200  0.454900  1.0  0.1197
  H  H626  1  0.817300  0.235200  0.435000  1.0  0.1151
  H  H627  1  0.827400  0.201900  0.392300  1.0  0.1143
  H  H628  1  0.824700  0.424300  0.016200  1.0  0.0716
  H  H629  1  0.797200  0.388900  0.936200  1.0  0.1261
  H  H630  1  0.862800  0.412200  0.776900  1.0  0.1149
  H  H631  1  0.887300  0.449300  0.859000  1.0  0.083
  H  H632  1  0.791600  0.362100  0.819900  1.0  0.0687
  H  H633  1  0.826300  0.355000  0.779800  1.0  0.0743
  H  H634  1  0.270400  0.622000  0.079800  1.0  0.1196
  H  H635  1  0.292400  0.637900  0.193400  1.0  0.1013
  H  H636  1  0.281200  0.689400  0.245300  1.0  0.1235
  H  H637  1  0.255800  0.730100  0.167400  1.0  0.1102
  H  H638  1  0.150100  0.774900  0.869500  1.0  0.125
  H  H639  1  0.179900  0.776000  0.810700  1.0  0.1113
  H  H640  1  0.122600  0.736200  0.798800  1.0  0.112
  H  H641  1  0.132800  0.766000  0.744400  1.0  0.1144
  H  H642  1  0.153500  0.732300  0.743500  1.0  0.1196
  H  H643  1  0.121600  0.810900  0.106800  1.0  0.1162
  H  H644  1  0.080200  0.848100  0.079700  1.0  0.1007
  H  H645  1  0.084300  0.884300  0.978000  1.0  0.1103
  H  H646  1  0.130800  0.882100  0.901400  1.0  0.1024
  H  H647  1  0.295900  0.797000  0.817400  1.0  0.103
  H  H648  1  0.294800  0.836200  0.828100  1.0  0.1128
  H  H649  1  0.323100  0.791900  0.934700  1.0  0.1291
  H  H650  1  0.344000  0.814300  0.877800  1.0  0.1161
  H  H651  1  0.322800  0.831300  0.943100  1.0  0.1223
  H  H652  1  0.222800  0.864500  0.060300  1.0  0.0589
  H  H653  1  0.253700  0.898500  0.135500  1.0  0.0979
  H  H654  1  0.313100  0.824900  0.175400  1.0  0.1231
  H  H655  1  0.281800  0.792000  0.094700  1.0  0.1093
  H  H656  1  0.284300  0.905200  0.244800  1.0  0.0812
  H  H657  1  0.318200  0.896500  0.203400  1.0  0.0776
  H  H658  1  0.240900  0.541700  0.654200  1.0  0.1064
  H  H659  1  0.199000  0.508700  0.703000  1.0  0.1165
  H  H660  1  0.165700  0.528100  0.801900  1.0  0.1166
  H  H661  1  0.174500  0.580900  0.848800  1.0  0.0931
  H  H662  1  0.262300  0.731800  0.875100  1.0  0.0872
  H  H663  1  0.291100  0.737300  0.814400  1.0  0.0851
  H  H664  1  0.299000  0.701200  0.954900  1.0  0.1197
  H  H665  1  0.317300  0.735200  0.935000  1.0  0.1151
  H  H666  1  0.327400  0.701900  0.892300  1.0  0.1143
  H  H667  1  0.324700  0.924300  0.516200  1.0  0.0716
  H  H668  1  0.297200  0.888900  0.436200  1.0  0.1261
  H  H669  1  0.362800  0.912200  0.276900  1.0  0.1149
  H  H670  1  0.387300  0.949300  0.359000  1.0  0.083
  H  H671  1  0.291600  0.862100  0.319900  1.0  0.0687
  H  H672  1  0.326300  0.855000  0.279800  1.0  0.0743
  C  C673  1  0.916340  0.502040  0.696800  1.0  0.3256
  C  C674  1  0.893870  0.483310  0.652400  1.0  -0.1561
  C  C675  1  0.903320  0.470500  0.584100  1.0  -0.1028
  C  C676  1  0.934200  0.475800  0.554200  1.0  -0.1118
  C  C677  1  0.957980  0.492000  0.599800  1.0  -0.0823
  C  C678  1  0.949170  0.504510  0.669600  1.0  -0.144
  C  C679  1  0.975250  0.521290  0.712300  1.0  0.525
  C  C680  1  0.986000  0.568210  0.869890  1.0  0.4709
  C  C681  1  0.011260  0.586460  0.915100  1.0  -0.3381
  C  C682  1  0.997770  0.608820  0.974800  1.0  -0.32
  C  C683  1  0.073130  0.597440  0.730500  1.0  0.3151
  C  C684  1  0.075170  0.626160  0.685300  1.0  -0.2217
  C  C685  1  0.097400  0.650720  0.701400  1.0  -0.1218
  C  C686  1  0.118870  0.648490  0.761900  1.0  -0.1236
  C  C687  1  0.117430  0.620880  0.807100  1.0  -0.0658
  C  C688  1  0.094700  0.594940  0.793100  1.0  -0.0998
  C  C689  1  0.095790  0.565670  0.842260  1.0  0.565
  C  C690  1  0.061860  0.488640  0.856600  1.0  0.5376
  C  C691  1  0.064810  0.455980  0.894800  1.0  -0.2581
  C  C692  1  0.062900  0.426370  0.842700  1.0  -0.3073
  C  C693  1  0.104540  0.510000  0.661200  1.0  0.1944
  C  C694  1  0.125480  0.491600  0.614700  1.0  -0.1194
  C  C695  1  0.114630  0.469600  0.574200  1.0  0.228
  C  C696  1  0.082700  0.457400  0.593900  1.0  -0.1846
  C  C697  1  0.063240  0.476000  0.641300  1.0  0.13
  C  C698  1  0.136740  0.450900  0.519600  1.0  -0.1164
  C  C699  1  0.831590  0.516510  0.028200  1.0  0.2694
  C  C700  1  0.799920  0.522440  0.056000  1.0  -0.2399
  C  C701  1  0.780130  0.547420  0.027000  1.0  -0.1161
  C  C702  1  0.791610  0.567330  0.968400  1.0  -0.1342
  C  C703  1  0.822830  0.561900  0.940600  1.0  -0.0484
  C  C704  1  0.843220  0.536640  0.969100  1.0  -0.1347
  C  C705  1  0.875780  0.531910  0.933900  1.0  0.5559
  C  C706  1  0.939720  0.477070  0.935200  1.0  0.5718
  C  C707  1  0.971680  0.467920  0.898000  1.0  -0.2723
  C  C708  1  0.964300  0.441000  0.835500  1.0  -0.3264
  C  C709  1  0.171950  0.417360  0.283700  1.0  0.1845
  C  C710  1  0.150620  0.433910  0.330800  1.0  -0.2222
  C  C711  1  0.146670  0.422550  0.402700  1.0  0.107
  C  C712  1  0.164500  0.395800  0.423800  1.0  -0.2068
  C  C713  1  0.186290  0.380750  0.374100  1.0  0.1494
  C  C714  1  0.122600  0.439600  0.456500  1.0  -0.1395
  C  C715  1  0.416340  0.002040  0.196800  1.0  0.3256
  C  C716  1  0.393870  0.983310  0.152400  1.0  -0.1561
  C  C717  1  0.403320  0.970500  0.084100  1.0  -0.1028
  C  C718  1  0.434200  0.975800  0.054200  1.0  -0.1118
  C  C719  1  0.457980  0.992000  0.099800  1.0  -0.0823
  C  C720  1  0.449170  0.004510  0.169600  1.0  -0.144
  C  C721  1  0.475250  0.021290  0.212300  1.0  0.525
  C  C722  1  0.486000  0.068210  0.369890  1.0  0.4709
  C  C723  1  0.511260  0.086460  0.415100  1.0  -0.3381
  C  C724  1  0.497770  0.108820  0.474800  1.0  -0.32
  C  C725  1  0.573130  0.097440  0.230500  1.0  0.3151
  C  C726  1  0.575170  0.126160  0.185300  1.0  -0.2217
  C  C727  1  0.597400  0.150720  0.201400  1.0  -0.1218
  C  C728  1  0.618870  0.148490  0.261900  1.0  -0.1236
  C  C729  1  0.617430  0.120880  0.307100  1.0  -0.0658
  C  C730  1  0.594700  0.094940  0.293100  1.0  -0.0998
  C  C731  1  0.595790  0.065670  0.342260  1.0  0.565
  C  C732  1  0.561860  0.988640  0.356600  1.0  0.5376
  C  C733  1  0.564810  0.955980  0.394800  1.0  -0.2581
  C  C734  1  0.562900  0.926370  0.342700  1.0  -0.3073
  C  C735  1  0.604540  0.010000  0.161200  1.0  0.1944
  C  C736  1  0.625480  0.991600  0.114700  1.0  -0.1194
  C  C737  1  0.614630  0.969600  0.074200  1.0  0.228
  C  C738  1  0.582700  0.957400  0.093900  1.0  -0.1846
  C  C739  1  0.563240  0.976000  0.141300  1.0  0.13
  C  C740  1  0.636740  0.950900  0.019600  1.0  -0.1164
  C  C741  1  0.331590  0.016510  0.528200  1.0  0.2694
  C  C742  1  0.299920  0.022440  0.556000  1.0  -0.2399
  C  C743  1  0.280130  0.047420  0.527000  1.0  -0.1161
  C  C744  1  0.291610  0.067330  0.468400  1.0  -0.1342
  C  C745  1  0.322830  0.061900  0.440600  1.0  -0.0484
  C  C746  1  0.343220  0.036640  0.469100  1.0  -0.1347
  C  C747  1  0.375780  0.031910  0.433900  1.0  0.5559
  C  C748  1  0.439720  0.977070  0.435200  1.0  0.5718
  C  C749  1  0.471680  0.967920  0.398000  1.0  -0.2723
  C  C750  1  0.464300  0.941000  0.335500  1.0  -0.3264
  C  C751  1  0.671950  0.917360  0.783700  1.0  0.1845
  C  C752  1  0.650620  0.933910  0.830800  1.0  -0.2222
  C  C753  1  0.646670  0.922550  0.902700  1.0  0.107
  C  C754  1  0.664500  0.895800  0.923800  1.0  -0.2068
  C  C755  1  0.686290  0.880750  0.874100  1.0  0.1494
  C  C756  1  0.622600  0.939600  0.956500  1.0  -0.1395
  C  C757  1  0.583660  0.497960  0.196800  1.0  0.325
  C  C758  1  0.606130  0.516690  0.152400  1.0  -0.1551
  C  C759  1  0.596680  0.529500  0.084100  1.0  -0.1031
  C  C760  1  0.565800  0.524200  0.054200  1.0  -0.1122
  C  C761  1  0.542020  0.508000  0.099800  1.0  -0.0803
  C  C762  1  0.550830  0.495490  0.169600  1.0  -0.1445
  C  C763  1  0.524750  0.478710  0.212300  1.0  0.5265
  C  C764  1  0.514000  0.431790  0.369890  1.0  0.4723
  C  C765  1  0.488740  0.413540  0.415100  1.0  -0.338
  C  C766  1  0.502230  0.391180  0.474800  1.0  -0.3208
  C  C767  1  0.426870  0.402560  0.230500  1.0  0.3154
  C  C768  1  0.424830  0.373840  0.185300  1.0  -0.2222
  C  C769  1  0.402600  0.349280  0.201400  1.0  -0.1211
  C  C770  1  0.381130  0.351510  0.261900  1.0  -0.123
  C  C771  1  0.382570  0.379120  0.307100  1.0  -0.065
  C  C772  1  0.405300  0.405060  0.293100  1.0  -0.1001
  C  C773  1  0.404210  0.434330  0.342260  1.0  0.5646
  C  C774  1  0.438140  0.511360  0.356600  1.0  0.5378
  C  C775  1  0.435190  0.544020  0.394800  1.0  -0.2585
  C  C776  1  0.437100  0.573630  0.342700  1.0  -0.306
  C  C777  1  0.395460  0.490000  0.161200  1.0  0.1952
  C  C778  1  0.374520  0.508400  0.114700  1.0  -0.1194
  C  C779  1  0.385370  0.530400  0.074200  1.0  0.2268
  C  C780  1  0.417300  0.542600  0.093900  1.0  -0.184
  C  C781  1  0.436760  0.524000  0.141300  1.0  0.1304
  C  C782  1  0.363260  0.549100  0.019600  1.0  -0.1183
  C  C783  1  0.668410  0.483490  0.528200  1.0  0.2689
  C  C784  1  0.700080  0.477560  0.556000  1.0  -0.2406
  C  C785  1  0.719870  0.452580  0.527000  1.0  -0.112
  C  C786  1  0.708390  0.432670  0.468400  1.0  -0.1343
  C  C787  1  0.677170  0.438100  0.440600  1.0  -0.0484
  C  C788  1  0.656780  0.463360  0.469100  1.0  -0.1342
  C  C789  1  0.624220  0.468090  0.433900  1.0  0.5554
  C  C790  1  0.560280  0.522930  0.435200  1.0  0.5717
  C  C791  1  0.528320  0.532080  0.398000  1.0  -0.2723
  C  C792  1  0.535700  0.559000  0.335500  1.0  -0.3274
  C  C793  1  0.328050  0.582640  0.783700  1.0  0.1841
  C  C794  1  0.349380  0.566090  0.830800  1.0  -0.2226
  C  C795  1  0.353330  0.577450  0.902700  1.0  0.1069
  C  C796  1  0.335500  0.604200  0.923800  1.0  -0.2072
  C  C797  1  0.313710  0.619250  0.874100  1.0  0.1498
  C  C798  1  0.377400  0.560400  0.956500  1.0  -0.1379
  C  C799  1  0.083660  0.997960  0.696800  1.0  0.325
  C  C800  1  0.106130  0.016690  0.652400  1.0  -0.1551
  C  C801  1  0.096680  0.029500  0.584100  1.0  -0.1031
  C  C802  1  0.065800  0.024200  0.554200  1.0  -0.1122
  C  C803  1  0.042020  0.008000  0.599800  1.0  -0.0803
  C  C804  1  0.050830  0.995490  0.669600  1.0  -0.1445
  C  C805  1  0.024750  0.978710  0.712300  1.0  0.5265
  C  C806  1  0.014000  0.931790  0.869890  1.0  0.4723
  C  C807  1  0.988740  0.913540  0.915100  1.0  -0.338
  C  C808  1  0.002230  0.891180  0.974800  1.0  -0.3208
  C  C809  1  0.926870  0.902560  0.730500  1.0  0.3154
  C  C810  1  0.924830  0.873840  0.685300  1.0  -0.2222
  C  C811  1  0.902600  0.849280  0.701400  1.0  -0.1211
  C  C812  1  0.881130  0.851510  0.761900  1.0  -0.123
  C  C813  1  0.882570  0.879120  0.807100  1.0  -0.065
  C  C814  1  0.905300  0.905060  0.793100  1.0  -0.1001
  C  C815  1  0.904210  0.934330  0.842260  1.0  0.5646
  C  C816  1  0.938140  0.011360  0.856600  1.0  0.5378
  C  C817  1  0.935190  0.044020  0.894800  1.0  -0.2585
  C  C818  1  0.937100  0.073630  0.842700  1.0  -0.306
  C  C819  1  0.895460  0.990000  0.661200  1.0  0.1952
  C  C820  1  0.874520  0.008400  0.614700  1.0  -0.1194
  C  C821  1  0.885370  0.030400  0.574200  1.0  0.2268
  C  C822  1  0.917300  0.042600  0.593900  1.0  -0.184
  C  C823  1  0.936760  0.024000  0.641300  1.0  0.1304
  C  C824  1  0.863260  0.049100  0.519600  1.0  -0.1183
  C  C825  1  0.168410  0.983490  0.028200  1.0  0.2689
  C  C826  1  0.200080  0.977560  0.056000  1.0  -0.2406
  C  C827  1  0.219870  0.952580  0.027000  1.0  -0.112
  C  C828  1  0.208390  0.932670  0.968400  1.0  -0.1343
  C  C829  1  0.177170  0.938100  0.940600  1.0  -0.0484
  C  C830  1  0.156780  0.963360  0.969100  1.0  -0.1342
  C  C831  1  0.124220  0.968090  0.933900  1.0  0.5554
  C  C832  1  0.060280  0.022930  0.935200  1.0  0.5717
  C  C833  1  0.028320  0.032080  0.898000  1.0  -0.2723
  C  C834  1  0.035700  0.059000  0.835500  1.0  -0.3274
  C  C835  1  0.828050  0.082640  0.283700  1.0  0.1841
  C  C836  1  0.849380  0.066090  0.330800  1.0  -0.2226
  C  C837  1  0.853330  0.077450  0.402700  1.0  0.1069
  C  C838  1  0.835500  0.104200  0.423800  1.0  -0.2072
  C  C839  1  0.813710  0.119250  0.374100  1.0  0.1498
  C  C840  1  0.877400  0.060400  0.456500  1.0  -0.1379
  C  C841  1  0.247960  0.166340  0.946800  1.0  0.3256
  C  C842  1  0.266690  0.143870  0.902400  1.0  -0.1543
  C  C843  1  0.279500  0.153320  0.834100  1.0  -0.1059
  C  C844  1  0.274200  0.184200  0.804200  1.0  -0.1099
  C  C845  1  0.258000  0.207980  0.849800  1.0  -0.0857
  C  C846  1  0.245490  0.199170  0.919600  1.0  -0.143
  C  C847  1  0.228710  0.225250  0.962300  1.0  0.5256
  C  C848  1  0.181790  0.236000  0.119890  1.0  0.4708
  C  C849  1  0.163540  0.261260  0.165100  1.0  -0.3362
  C  C850  1  0.141180  0.247770  0.224800  1.0  -0.3216
  C  C851  1  0.152560  0.323130  0.980500  1.0  0.3174
  C  C852  1  0.123840  0.325170  0.935300  1.0  -0.2202
  C  C853  1  0.099280  0.347400  0.951400  1.0  -0.1248
  C  C854  1  0.101510  0.368870  0.011900  1.0  -0.1252
  C  C855  1  0.129120  0.367430  0.057100  1.0  -0.0666
  C  C856  1  0.155060  0.344700  0.043100  1.0  -0.099
  C  C857  1  0.184330  0.345790  0.092260  1.0  0.5646
  C  C858  1  0.261360  0.311860  0.106600  1.0  0.5395
  C  C859  1  0.294020  0.314810  0.144800  1.0  -0.2581
  C  C860  1  0.323630  0.312900  0.092700  1.0  -0.3068
  C  C861  1  0.240000  0.354540  0.911200  1.0  0.1956
  C  C862  1  0.258400  0.375480  0.864700  1.0  -0.1217
  C  C863  1  0.280400  0.364630  0.824200  1.0  0.2276
  C  C864  1  0.292600  0.332700  0.843900  1.0  -0.1859
  C  C865  1  0.274000  0.313240  0.891300  1.0  0.1275
  C  C866  1  0.299100  0.386740  0.769600  1.0  -0.1212
  C  C867  1  0.233490  0.081590  0.278200  1.0  0.2678
  C  C868  1  0.227560  0.049920  0.306000  1.0  -0.2444
  C  C869  1  0.202580  0.030130  0.277000  1.0  -0.1134
  C  C870  1  0.182670  0.041610  0.218400  1.0  -0.1309
  C  C871  1  0.188100  0.072830  0.190600  1.0  -0.0462
  C  C872  1  0.213360  0.093220  0.219100  1.0  -0.1357
  C  C873  1  0.218090  0.125780  0.183900  1.0  0.5557
  C  C874  1  0.272930  0.189720  0.185200  1.0  0.5714
  C  C875  1  0.282080  0.221680  0.148000  1.0  -0.2724
  C  C876  1  0.309000  0.214300  0.085500  1.0  -0.3273
  C  C877  1  0.332640  0.421950  0.533700  1.0  0.1852
  C  C878  1  0.316090  0.400620  0.580800  1.0  -0.2224
  C  C879  1  0.327450  0.396670  0.652700  1.0  0.1077
  C  C880  1  0.354200  0.414500  0.673800  1.0  -0.2067
  C  C881  1  0.369250  0.436290  0.624100  1.0  0.1506
  C  C882  1  0.310400  0.372600  0.706500  1.0  -0.1442
  C  C883  1  0.747960  0.666340  0.446800  1.0  0.3256
  C  C884  1  0.766690  0.643870  0.402400  1.0  -0.1543
  C  C885  1  0.779500  0.653320  0.334100  1.0  -0.1059
  C  C886  1  0.774200  0.684200  0.304200  1.0  -0.1099
  C  C887  1  0.758000  0.707980  0.349800  1.0  -0.0857
  C  C888  1  0.745490  0.699170  0.419600  1.0  -0.143
  C  C889  1  0.728710  0.725250  0.462300  1.0  0.5256
  C  C890  1  0.681790  0.736000  0.619890  1.0  0.4708
  C  C891  1  0.663540  0.761260  0.665100  1.0  -0.3362
  C  C892  1  0.641180  0.747770  0.724800  1.0  -0.3216
  C  C893  1  0.652560  0.823130  0.480500  1.0  0.3174
  C  C894  1  0.623840  0.825170  0.435300  1.0  -0.2202
  C  C895  1  0.599280  0.847400  0.451400  1.0  -0.1248
  C  C896  1  0.601510  0.868870  0.511900  1.0  -0.1252
  C  C897  1  0.629120  0.867430  0.557100  1.0  -0.0666
  C  C898  1  0.655060  0.844700  0.543100  1.0  -0.099
  C  C899  1  0.684330  0.845790  0.592260  1.0  0.5646
  C  C900  1  0.761360  0.811860  0.606600  1.0  0.5395
  C  C901  1  0.794020  0.814810  0.644800  1.0  -0.2581
  C  C902  1  0.823630  0.812900  0.592700  1.0  -0.3068
  C  C903  1  0.740000  0.854540  0.411200  1.0  0.1956
  C  C904  1  0.758400  0.875480  0.364700  1.0  -0.1217
  C  C905  1  0.780400  0.864630  0.324200  1.0  0.2276
  C  C906  1  0.792600  0.832700  0.343900  1.0  -0.1859
  C  C907  1  0.774000  0.813240  0.391300  1.0  0.1275
  C  C908  1  0.799100  0.886740  0.269600  1.0  -0.1212
  C  C909  1  0.733490  0.581590  0.778200  1.0  0.2678
  C  C910  1  0.727560  0.549920  0.806000  1.0  -0.2444
  C  C911  1  0.702580  0.530130  0.777000  1.0  -0.1134
  C  C912  1  0.682670  0.541610  0.718400  1.0  -0.1309
  C  C913  1  0.688100  0.572830  0.690600  1.0  -0.0462
  C  C914  1  0.713360  0.593220  0.719100  1.0  -0.1357
  C  C915  1  0.718090  0.625780  0.683900  1.0  0.5557
  C  C916  1  0.772930  0.689720  0.685200  1.0  0.5714
  C  C917  1  0.782080  0.721680  0.648000  1.0  -0.2724
  C  C918  1  0.809000  0.714300  0.585500  1.0  -0.3273
  C  C919  1  0.832640  0.921950  0.033700  1.0  0.1852
  C  C920  1  0.816090  0.900620  0.080800  1.0  -0.2224
  C  C921  1  0.827450  0.896670  0.152700  1.0  0.1077
  C  C922  1  0.854200  0.914500  0.173800  1.0  -0.2067
  C  C923  1  0.869250  0.936290  0.124100  1.0  0.1506
  C  C924  1  0.810400  0.872600  0.206500  1.0  -0.1442
  C  C925  1  0.252040  0.833660  0.446800  1.0  0.3257
  C  C926  1  0.233310  0.856130  0.402400  1.0  -0.1569
  C  C927  1  0.220500  0.846680  0.334100  1.0  -0.1068
  C  C928  1  0.225800  0.815800  0.304200  1.0  -0.1124
  C  C929  1  0.242000  0.792020  0.349800  1.0  -0.0842
  C  C930  1  0.254510  0.800830  0.419600  1.0  -0.143
  C  C931  1  0.271290  0.774750  0.462300  1.0  0.5249
  C  C932  1  0.318210  0.764000  0.619890  1.0  0.4726
  C  C933  1  0.336460  0.738740  0.665100  1.0  -0.3387
  C  C934  1  0.358820  0.752230  0.724800  1.0  -0.3214
  C  C935  1  0.347440  0.676870  0.480500  1.0  0.3171
  C  C936  1  0.376160  0.674830  0.435300  1.0  -0.2222
  C  C937  1  0.400720  0.652600  0.451400  1.0  -0.1237
  C  C938  1  0.398490  0.631130  0.511900  1.0  -0.124
  C  C939  1  0.370880  0.632570  0.557100  1.0  -0.0672
  C  C940  1  0.344940  0.655300  0.543100  1.0  -0.0993
  C  C941  1  0.315670  0.654210  0.592260  1.0  0.564
  C  C942  1  0.238640  0.688140  0.606600  1.0  0.5378
  C  C943  1  0.205980  0.685190  0.644800  1.0  -0.2592
  C  C944  1  0.176370  0.687100  0.592700  1.0  -0.3081
  C  C945  1  0.260000  0.645460  0.411200  1.0  0.1954
  C  C946  1  0.241600  0.624520  0.364700  1.0  -0.1214
  C  C947  1  0.219600  0.635370  0.324200  1.0  0.2244
  C  C948  1  0.207400  0.667300  0.343900  1.0  -0.1865
  C  C949  1  0.226000  0.686760  0.391300  1.0  0.1274
  C  C950  1  0.200900  0.613260  0.269600  1.0  -0.1233
  C  C951  1  0.266510  0.918410  0.778200  1.0  0.2684
  C  C952  1  0.272440  0.950080  0.806000  1.0  -0.2445
  C  C953  1  0.297420  0.969870  0.777000  1.0  -0.1131
  C  C954  1  0.317330  0.958390  0.718400  1.0  -0.1318
  C  C955  1  0.311900  0.927170  0.690600  1.0  -0.0473
  C  C956  1  0.286640  0.906780  0.719100  1.0  -0.1357
  C  C957  1  0.281910  0.874220  0.683900  1.0  0.556
  C  C958  1  0.227070  0.810280  0.685200  1.0  0.5726
  C  C959  1  0.217920  0.778320  0.648000  1.0  -0.2753
  C  C960  1  0.191000  0.785700  0.585500  1.0  -0.3273
  C  C961  1  0.167360  0.578050  0.033700  1.0  0.184
  C  C962  1  0.183910  0.599380  0.080800  1.0  -0.2219
  C  C963  1  0.172550  0.603330  0.152700  1.0  0.1072
  C  C964  1  0.145800  0.585500  0.173800  1.0  -0.2049
  C  C965  1  0.130750  0.563710  0.124100  1.0  0.1504
  C  C966  1  0.189600  0.627400  0.206500  1.0  -0.1437
  C  C967  1  0.752040  0.333660  0.946800  1.0  0.3257
  C  C968  1  0.733310  0.356130  0.902400  1.0  -0.1569
  C  C969  1  0.720500  0.346680  0.834100  1.0  -0.1068
  C  C970  1  0.725800  0.315800  0.804200  1.0  -0.1124
  C  C971  1  0.742000  0.292020  0.849800  1.0  -0.0842
  C  C972  1  0.754510  0.300830  0.919600  1.0  -0.143
  C  C973  1  0.771290  0.274750  0.962300  1.0  0.5249
  C  C974  1  0.818210  0.264000  0.119890  1.0  0.4726
  C  C975  1  0.836460  0.238740  0.165100  1.0  -0.3387
  C  C976  1  0.858820  0.252230  0.224800  1.0  -0.3214
  C  C977  1  0.847440  0.176870  0.980500  1.0  0.3171
  C  C978  1  0.876160  0.174830  0.935300  1.0  -0.2222
  C  C979  1  0.900720  0.152600  0.951400  1.0  -0.1237
  C  C980  1  0.898490  0.131130  0.011900  1.0  -0.124
  C  C981  1  0.870880  0.132570  0.057100  1.0  -0.0672
  C  C982  1  0.844940  0.155300  0.043100  1.0  -0.0993
  C  C983  1  0.815670  0.154210  0.092260  1.0  0.564
  C  C984  1  0.738640  0.188140  0.106600  1.0  0.5378
  C  C985  1  0.705980  0.185190  0.144800  1.0  -0.2592
  C  C986  1  0.676370  0.187100  0.092700  1.0  -0.3081
  C  C987  1  0.760000  0.145460  0.911200  1.0  0.1954
  C  C988  1  0.741600  0.124520  0.864700  1.0  -0.1214
  C  C989  1  0.719600  0.135370  0.824200  1.0  0.2244
  C  C990  1  0.707400  0.167300  0.843900  1.0  -0.1865
  C  C991  1  0.726000  0.186760  0.891300  1.0  0.1274
  C  C992  1  0.700900  0.113260  0.769600  1.0  -0.1233
  C  C993  1  0.766510  0.418410  0.278200  1.0  0.2684
  C  C994  1  0.772440  0.450080  0.306000  1.0  -0.2445
  C  C995  1  0.797420  0.469870  0.277000  1.0  -0.1131
  C  C996  1  0.817330  0.458390  0.218400  1.0  -0.1318
  C  C997  1  0.811900  0.427170  0.190600  1.0  -0.0473
  C  C998  1  0.786640  0.406780  0.219100  1.0  -0.1357
  C  C999  1  0.781910  0.374220  0.183900  1.0  0.556
  C  C1000  1  0.727070  0.310280  0.185200  1.0  0.5726
  C  C1001  1  0.717920  0.278320  0.148000  1.0  -0.2753
  C  C1002  1  0.691000  0.285700  0.085500  1.0  -0.3273
  C  C1003  1  0.667360  0.078050  0.533700  1.0  0.184
  C  C1004  1  0.683910  0.099380  0.580800  1.0  -0.2219
  C  C1005  1  0.672550  0.103330  0.652700  1.0  0.1072
  C  C1006  1  0.645800  0.085500  0.673800  1.0  -0.2049
  C  C1007  1  0.630750  0.063710  0.624100  1.0  0.1504
  C  C1008  1  0.689600  0.127400  0.706500  1.0  -0.1437
  C  C1009  1  0.083660  0.497960  0.303200  1.0  0.3255
  C  C1010  1  0.106130  0.516690  0.347600  1.0  -0.1549
  C  C1011  1  0.096680  0.529500  0.415900  1.0  -0.1025
  C  C1012  1  0.065800  0.524200  0.445800  1.0  -0.1131
  C  C1013  1  0.042020  0.508000  0.400200  1.0  -0.0806
  C  C1014  1  0.050830  0.495490  0.330400  1.0  -0.1449
  C  C1015  1  0.024750  0.478710  0.287700  1.0  0.5269
  C  C1016  1  0.014000  0.431790  0.130110  1.0  0.472
  C  C1017  1  0.988740  0.413540  0.084900  1.0  -0.3395
  C  C1018  1  0.002230  0.391180  0.025200  1.0  -0.321
  C  C1019  1  0.926870  0.402560  0.269500  1.0  0.3149
  C  C1020  1  0.924830  0.373840  0.314700  1.0  -0.2192
  C  C1021  1  0.902600  0.349280  0.298600  1.0  -0.122
  C  C1022  1  0.881130  0.351510  0.238100  1.0  -0.1226
  C  C1023  1  0.882570  0.379120  0.192900  1.0  -0.0646
  C  C1024  1  0.905300  0.405060  0.206900  1.0  -0.1005
  C  C1025  1  0.904210  0.434330  0.157740  1.0  0.5642
  C  C1026  1  0.938140  0.511360  0.143400  1.0  0.538
  C  C1027  1  0.935190  0.544020  0.105200  1.0  -0.2588
  C  C1028  1  0.937100  0.573630  0.157300  1.0  -0.3086
  C  C1029  1  0.895460  0.490000  0.338800  1.0  0.1958
  C  C1030  1  0.874520  0.508400  0.385300  1.0  -0.1207
  C  C1031  1  0.885370  0.530400  0.425800  1.0  0.2258
  C  C1032  1  0.917300  0.542600  0.406100  1.0  -0.1837
  C  C1033  1  0.936760  0.524000  0.358700  1.0  0.1303
  C  C1034  1  0.863260  0.549100  0.480400  1.0  -0.1179
  C  C1035  1  0.168410  0.483490  0.971800  1.0  0.2683
  C  C1036  1  0.200080  0.477560  0.944000  1.0  -0.2429
  C  C1037  1  0.219870  0.452580  0.973000  1.0  -0.1115
  C  C1038  1  0.208390  0.432670  0.031600  1.0  -0.1345
  C  C1039  1  0.177170  0.438100  0.059400  1.0  -0.048
  C  C1040  1  0.156780  0.463360  0.030900  1.0  -0.1343
  C  C1041  1  0.124220  0.468090  0.066100  1.0  0.5559
  C  C1042  1  0.060280  0.522930  0.064800  1.0  0.5733
  C  C1043  1  0.028320  0.532080  0.102000  1.0  -0.2721
  C  C1044  1  0.035700  0.559000  0.164500  1.0  -0.3288
  C  C1045  1  0.828050  0.582640  0.716300  1.0  0.1859
  C  C1046  1  0.849380  0.566090  0.669200  1.0  -0.2229
  C  C1047  1  0.853330  0.577450  0.597300  1.0  0.1067
  C  C1048  1  0.835500  0.604200  0.576200  1.0  -0.2071
  C  C1049  1  0.813710  0.619250  0.625900  1.0  0.15
  C  C1050  1  0.877400  0.560400  0.543500  1.0  -0.1383
  C  C1051  1  0.583660  0.997960  0.803200  1.0  0.3255
  C  C1052  1  0.606130  0.016690  0.847600  1.0  -0.1549
  C  C1053  1  0.596680  0.029500  0.915900  1.0  -0.1025
  C  C1054  1  0.565800  0.024200  0.945800  1.0  -0.1131
  C  C1055  1  0.542020  0.008000  0.900200  1.0  -0.0806
  C  C1056  1  0.550830  0.995490  0.830400  1.0  -0.1449
  C  C1057  1  0.524750  0.978710  0.787700  1.0  0.5269
  C  C1058  1  0.514000  0.931790  0.630110  1.0  0.472
  C  C1059  1  0.488740  0.913540  0.584900  1.0  -0.3395
  C  C1060  1  0.502230  0.891180  0.525200  1.0  -0.321
  C  C1061  1  0.426870  0.902560  0.769500  1.0  0.3149
  C  C1062  1  0.424830  0.873840  0.814700  1.0  -0.2192
  C  C1063  1  0.402600  0.849280  0.798600  1.0  -0.122
  C  C1064  1  0.381130  0.851510  0.738100  1.0  -0.1226
  C  C1065  1  0.382570  0.879120  0.692900  1.0  -0.0646
  C  C1066  1  0.405300  0.905060  0.706900  1.0  -0.1005
  C  C1067  1  0.404210  0.934330  0.657740  1.0  0.5642
  C  C1068  1  0.438140  0.011360  0.643400  1.0  0.538
  C  C1069  1  0.435190  0.044020  0.605200  1.0  -0.2588
  C  C1070  1  0.437100  0.073630  0.657300  1.0  -0.3086
  C  C1071  1  0.395460  0.990000  0.838800  1.0  0.1958
  C  C1072  1  0.374520  0.008400  0.885300  1.0  -0.1207
  C  C1073  1  0.385370  0.030400  0.925800  1.0  0.2258
  C  C1074  1  0.417300  0.042600  0.906100  1.0  -0.1837
  C  C1075  1  0.436760  0.024000  0.858700  1.0  0.1303
  C  C1076  1  0.363260  0.049100  0.980400  1.0  -0.1179
  C  C1077  1  0.668410  0.983490  0.471800  1.0  0.2683
  C  C1078  1  0.700080  0.977560  0.444000  1.0  -0.2429
  C  C1079  1  0.719870  0.952580  0.473000  1.0  -0.1115
  C  C1080  1  0.708390  0.932670  0.531600  1.0  -0.1345
  C  C1081  1  0.677170  0.938100  0.559400  1.0  -0.048
  C  C1082  1  0.656780  0.963360  0.530900  1.0  -0.1343
  C  C1083  1  0.624220  0.968090  0.566100  1.0  0.5559
  C  C1084  1  0.560280  0.022930  0.564800  1.0  0.5733
  C  C1085  1  0.528320  0.032080  0.602000  1.0  -0.2721
  C  C1086  1  0.535700  0.059000  0.664500  1.0  -0.3288
  C  C1087  1  0.328050  0.082640  0.216300  1.0  0.1859
  C  C1088  1  0.349380  0.066090  0.169200  1.0  -0.2229
  C  C1089  1  0.353330  0.077450  0.097300  1.0  0.1067
  C  C1090  1  0.335500  0.104200  0.076200  1.0  -0.2071
  C  C1091  1  0.313710  0.119250  0.125900  1.0  0.15
  C  C1092  1  0.377400  0.060400  0.043500  1.0  -0.1383
  C  C1093  1  0.416340  0.502040  0.803200  1.0  0.3262
  C  C1094  1  0.393870  0.483310  0.847600  1.0  -0.1564
  C  C1095  1  0.403320  0.470500  0.915900  1.0  -0.1021
  C  C1096  1  0.434200  0.475800  0.945800  1.0  -0.1118
  C  C1097  1  0.457980  0.492000  0.900200  1.0  -0.0825
  C  C1098  1  0.449170  0.504510  0.830400  1.0  -0.1442
  C  C1099  1  0.475250  0.521290  0.787700  1.0  0.5253
  C  C1100  1  0.486000  0.568210  0.630110  1.0  0.4701
  C  C1101  1  0.511260  0.586460  0.584900  1.0  -0.3397
  C  C1102  1  0.497770  0.608820  0.525200  1.0  -0.3206
  C  C1103  1  0.573130  0.597440  0.769500  1.0  0.3143
  C  C1104  1  0.575170  0.626160  0.814700  1.0  -0.2197
  C  C1105  1  0.597400  0.650720  0.798600  1.0  -0.123
  C  C1106  1  0.618870  0.648490  0.738100  1.0  -0.123
  C  C1107  1  0.617430  0.620880  0.692900  1.0  -0.0648
  C  C1108  1  0.594700  0.594940  0.706900  1.0  -0.1002
  C  C1109  1  0.595790  0.565670  0.657740  1.0  0.5646
  C  C1110  1  0.561860  0.488640  0.643400  1.0  0.5379
  C  C1111  1  0.564810  0.455980  0.605200  1.0  -0.2573
  C  C1112  1  0.562900  0.426370  0.657300  1.0  -0.3073
  C  C1113  1  0.604540  0.510000  0.838800  1.0  0.1958
  C  C1114  1  0.625480  0.491600  0.885300  1.0  -0.1195
  C  C1115  1  0.614630  0.469600  0.925800  1.0  0.2264
  C  C1116  1  0.582700  0.457400  0.906100  1.0  -0.1851
  C  C1117  1  0.563240  0.476000  0.858700  1.0  0.1298
  C  C1118  1  0.636740  0.450900  0.980400  1.0  -0.1163
  C  C1119  1  0.331590  0.516510  0.471800  1.0  0.2687
  C  C1120  1  0.299920  0.522440  0.444000  1.0  -0.2416
  C  C1121  1  0.280130  0.547420  0.473000  1.0  -0.1152
  C  C1122  1  0.291610  0.567330  0.531600  1.0  -0.1344
  C  C1123  1  0.322830  0.561900  0.559400  1.0  -0.0483
  C  C1124  1  0.343220  0.536640  0.530900  1.0  -0.1347
  C  C1125  1  0.375780  0.531910  0.566100  1.0  0.5559
  C  C1126  1  0.439720  0.477070  0.564800  1.0  0.5738
  C  C1127  1  0.471680  0.467920  0.602000  1.0  -0.2721
  C  C1128  1  0.464300  0.441000  0.664500  1.0  -0.3288
  C  C1129  1  0.671950  0.417360  0.216300  1.0  0.1857
  C  C1130  1  0.650620  0.433910  0.169200  1.0  -0.2226
  C  C1131  1  0.646670  0.422550  0.097300  1.0  0.1073
  C  C1132  1  0.664500  0.395800  0.076200  1.0  -0.2076
  C  C1133  1  0.686290  0.380750  0.125900  1.0  0.1495
  C  C1134  1  0.622600  0.439600  0.043500  1.0  -0.1392
  C  C1135  1  0.916340  0.002040  0.303200  1.0  0.3262
  C  C1136  1  0.893870  0.983310  0.347600  1.0  -0.1564
  C  C1137  1  0.903320  0.970500  0.415900  1.0  -0.1021
  C  C1138  1  0.934200  0.975800  0.445800  1.0  -0.1118
  C  C1139  1  0.957980  0.992000  0.400200  1.0  -0.0825
  C  C1140  1  0.949170  0.004510  0.330400  1.0  -0.1442
  C  C1141  1  0.975250  0.021290  0.287700  1.0  0.5253
  C  C1142  1  0.986000  0.068210  0.130110  1.0  0.4701
  C  C1143  1  0.011260  0.086460  0.084900  1.0  -0.3397
  C  C1144  1  0.997770  0.108820  0.025200  1.0  -0.3206
  C  C1145  1  0.073130  0.097440  0.269500  1.0  0.3143
  C  C1146  1  0.075170  0.126160  0.314700  1.0  -0.2197
  C  C1147  1  0.097400  0.150720  0.298600  1.0  -0.123
  C  C1148  1  0.118870  0.148490  0.238100  1.0  -0.123
  C  C1149  1  0.117430  0.120880  0.192900  1.0  -0.0648
  C  C1150  1  0.094700  0.094940  0.206900  1.0  -0.1002
  C  C1151  1  0.095790  0.065670  0.157740  1.0  0.5646
  C  C1152  1  0.061860  0.988640  0.143400  1.0  0.5379
  C  C1153  1  0.064810  0.955980  0.105200  1.0  -0.2573
  C  C1154  1  0.062900  0.926370  0.157300  1.0  -0.3073
  C  C1155  1  0.104540  0.010000  0.338800  1.0  0.1958
  C  C1156  1  0.125480  0.991600  0.385300  1.0  -0.1195
  C  C1157  1  0.114630  0.969600  0.425800  1.0  0.2264
  C  C1158  1  0.082700  0.957400  0.406100  1.0  -0.1851
  C  C1159  1  0.063240  0.976000  0.358700  1.0  0.1298
  C  C1160  1  0.136740  0.950900  0.480400  1.0  -0.1163
  C  C1161  1  0.831590  0.016510  0.971800  1.0  0.2687
  C  C1162  1  0.799920  0.022440  0.944000  1.0  -0.2416
  C  C1163  1  0.780130  0.047420  0.973000  1.0  -0.1152
  C  C1164  1  0.791610  0.067330  0.031600  1.0  -0.1344
  C  C1165  1  0.822830  0.061900  0.059400  1.0  -0.0483
  C  C1166  1  0.843220  0.036640  0.030900  1.0  -0.1347
  C  C1167  1  0.875780  0.031910  0.066100  1.0  0.5559
  C  C1168  1  0.939720  0.977070  0.064800  1.0  0.5738
  C  C1169  1  0.971680  0.967920  0.102000  1.0  -0.2721
  C  C1170  1  0.964300  0.941000  0.164500  1.0  -0.3288
  C  C1171  1  0.171950  0.917360  0.716300  1.0  0.1857
  C  C1172  1  0.150620  0.933910  0.669200  1.0  -0.2226
  C  C1173  1  0.146670  0.922550  0.597300  1.0  0.1073
  C  C1174  1  0.164500  0.895800  0.576200  1.0  -0.2076
  C  C1175  1  0.186290  0.880750  0.625900  1.0  0.1495
  C  C1176  1  0.122600  0.939600  0.543500  1.0  -0.1392
  C  C1177  1  0.752040  0.833660  0.053200  1.0  0.3264
  C  C1178  1  0.733310  0.856130  0.097600  1.0  -0.1564
  C  C1179  1  0.720500  0.846680  0.165900  1.0  -0.106
  C  C1180  1  0.725800  0.815800  0.195800  1.0  -0.1122
  C  C1181  1  0.742000  0.792020  0.150200  1.0  -0.0839
  C  C1182  1  0.754510  0.800830  0.080400  1.0  -0.1436
  C  C1183  1  0.771290  0.774750  0.037700  1.0  0.5252
  C  C1184  1  0.818210  0.764000  0.880110  1.0  0.4723
  C  C1185  1  0.836460  0.738740  0.834900  1.0  -0.3404
  C  C1186  1  0.858820  0.752230  0.775200  1.0  -0.3224
  C  C1187  1  0.847440  0.676870  0.019500  1.0  0.3164
  C  C1188  1  0.876160  0.674830  0.064700  1.0  -0.2177
  C  C1189  1  0.900720  0.652600  0.048600  1.0  -0.1245
  C  C1190  1  0.898490  0.631130  0.988100  1.0  -0.1237
  C  C1191  1  0.870880  0.632570  0.942900  1.0  -0.066
  C  C1192  1  0.844940  0.655300  0.956900  1.0  -0.0996
  C  C1193  1  0.815670  0.654210  0.907740  1.0  0.5636
  C  C1194  1  0.738640  0.688140  0.893400  1.0  0.5377
  C  C1195  1  0.705980  0.685190  0.855200  1.0  -0.2575
  C  C1196  1  0.676370  0.687100  0.907300  1.0  -0.309
  C  C1197  1  0.760000  0.645460  0.088800  1.0  0.1963
  C  C1198  1  0.741600  0.624520  0.135300  1.0  -0.1229
  C  C1199  1  0.719600  0.635370  0.175800  1.0  0.2232
  C  C1200  1  0.707400  0.667300  0.156100  1.0  -0.1868
  C  C1201  1  0.726000  0.686760  0.108700  1.0  0.1273
  C  C1202  1  0.700900  0.613260  0.230400  1.0  -0.1231
  C  C1203  1  0.766510  0.918410  0.721800  1.0  0.2679
  C  C1204  1  0.772440  0.950080  0.694000  1.0  -0.2465
  C  C1205  1  0.797420  0.969870  0.723000  1.0  -0.1119
  C  C1206  1  0.817330  0.958390  0.781600  1.0  -0.132
  C  C1207  1  0.811900  0.927170  0.809400  1.0  -0.047
  C  C1208  1  0.786640  0.906780  0.780900  1.0  -0.1358
  C  C1209  1  0.781910  0.874220  0.816100  1.0  0.556
  C  C1210  1  0.727070  0.810280  0.814800  1.0  0.5744
  C  C1211  1  0.717920  0.778320  0.852000  1.0  -0.2753
  C  C1212  1  0.691000  0.785700  0.914500  1.0  -0.3283
  C  C1213  1  0.667360  0.578050  0.466300  1.0  0.1863
  C  C1214  1  0.683910  0.599380  0.419200  1.0  -0.2222
  C  C1215  1  0.672550  0.603330  0.347300  1.0  0.1069
  C  C1216  1  0.645800  0.585500  0.326200  1.0  -0.2049
  C  C1217  1  0.630750  0.563710  0.375900  1.0  0.1505
  C  C1218  1  0.689600  0.627400  0.293500  1.0  -0.1443
  C  C1219  1  0.252040  0.333660  0.553200  1.0  0.3264
  C  C1220  1  0.233310  0.356130  0.597600  1.0  -0.1564
  C  C1221  1  0.220500  0.346680  0.665900  1.0  -0.106
  C  C1222  1  0.225800  0.315800  0.695800  1.0  -0.1122
  C  C1223  1  0.242000  0.292020  0.650200  1.0  -0.0839
  C  C1224  1  0.254510  0.300830  0.580400  1.0  -0.1436
  C  C1225  1  0.271290  0.274750  0.537700  1.0  0.5252
  C  C1226  1  0.318210  0.264000  0.380110  1.0  0.4723
  C  C1227  1  0.336460  0.238740  0.334900  1.0  -0.3404
  C  C1228  1  0.358820  0.252230  0.275200  1.0  -0.3224
  C  C1229  1  0.347440  0.176870  0.519500  1.0  0.3164
  C  C1230  1  0.376160  0.174830  0.564700  1.0  -0.2177
  C  C1231  1  0.400720  0.152600  0.548600  1.0  -0.1245
  C  C1232  1  0.398490  0.131130  0.488100  1.0  -0.1237
  C  C1233  1  0.370880  0.132570  0.442900  1.0  -0.066
  C  C1234  1  0.344940  0.155300  0.456900  1.0  -0.0996
  C  C1235  1  0.315670  0.154210  0.407740  1.0  0.5636
  C  C1236  1  0.238640  0.188140  0.393400  1.0  0.5377
  C  C1237  1  0.205980  0.185190  0.355200  1.0  -0.2575
  C  C1238  1  0.176370  0.187100  0.407300  1.0  -0.309
  C  C1239  1  0.260000  0.145460  0.588800  1.0  0.1963
  C  C1240  1  0.241600  0.124520  0.635300  1.0  -0.1229
  C  C1241  1  0.219600  0.135370  0.675800  1.0  0.2232
  C  C1242  1  0.207400  0.167300  0.656100  1.0  -0.1868
  C  C1243  1  0.226000  0.186760  0.608700  1.0  0.1273
  C  C1244  1  0.200900  0.113260  0.730400  1.0  -0.1231
  C  C1245  1  0.266510  0.418410  0.221800  1.0  0.2679
  C  C1246  1  0.272440  0.450080  0.194000  1.0  -0.2465
  C  C1247  1  0.297420  0.469870  0.223000  1.0  -0.1119
  C  C1248  1  0.317330  0.458390  0.281600  1.0  -0.132
  C  C1249  1  0.311900  0.427170  0.309400  1.0  -0.047
  C  C1250  1  0.286640  0.406780  0.280900  1.0  -0.1358
  C  C1251  1  0.281910  0.374220  0.316100  1.0  0.556
  C  C1252  1  0.227070  0.310280  0.314800  1.0  0.5744
  C  C1253  1  0.217920  0.278320  0.352000  1.0  -0.2753
  C  C1254  1  0.191000  0.285700  0.414500  1.0  -0.3283
  C  C1255  1  0.167360  0.078050  0.966300  1.0  0.1863
  C  C1256  1  0.183910  0.099380  0.919200  1.0  -0.2222
  C  C1257  1  0.172550  0.103330  0.847300  1.0  0.1069
  C  C1258  1  0.145800  0.085500  0.826200  1.0  -0.2049
  C  C1259  1  0.130750  0.063710  0.875900  1.0  0.1505
  C  C1260  1  0.189600  0.127400  0.793500  1.0  -0.1443
  C  C1261  1  0.747960  0.166340  0.553200  1.0  0.3263
  C  C1262  1  0.766690  0.143870  0.597600  1.0  -0.1548
  C  C1263  1  0.779500  0.153320  0.665900  1.0  -0.1044
  C  C1264  1  0.774200  0.184200  0.695800  1.0  -0.1107
  C  C1265  1  0.758000  0.207980  0.650200  1.0  -0.0853
  C  C1266  1  0.745490  0.199170  0.580400  1.0  -0.1435
  C  C1267  1  0.728710  0.225250  0.537700  1.0  0.5261
  C  C1268  1  0.681790  0.236000  0.380110  1.0  0.4706
  C  C1269  1  0.663540  0.261260  0.334900  1.0  -0.3366
  C  C1270  1  0.641180  0.247770  0.275200  1.0  -0.3224
  C  C1271  1  0.652560  0.323130  0.519500  1.0  0.3169
  C  C1272  1  0.623840  0.325170  0.564700  1.0  -0.2201
  C  C1273  1  0.599280  0.347400  0.548600  1.0  -0.1256
  C  C1274  1  0.601510  0.368870  0.488100  1.0  -0.1248
  C  C1275  1  0.629120  0.367430  0.442900  1.0  -0.0662
  C  C1276  1  0.655060  0.344700  0.456900  1.0  -0.0996
  C  C1277  1  0.684330  0.345790  0.407740  1.0  0.5643
  C  C1278  1  0.761360  0.311860  0.393400  1.0  0.5398
  C  C1279  1  0.794020  0.314810  0.355200  1.0  -0.2577
  C  C1280  1  0.823630  0.312900  0.407300  1.0  -0.3067
  C  C1281  1  0.740000  0.354540  0.588800  1.0  0.197
  C  C1282  1  0.758400  0.375480  0.635300  1.0  -0.1231
  C  C1283  1  0.780400  0.364630  0.675800  1.0  0.2263
  C  C1284  1  0.792600  0.332700  0.656100  1.0  -0.1859
  C  C1285  1  0.774000  0.313240  0.608700  1.0  0.1272
  C  C1286  1  0.799100  0.386740  0.730400  1.0  -0.1206
  C  C1287  1  0.733490  0.081590  0.221800  1.0  0.2671
  C  C1288  1  0.727560  0.049920  0.194000  1.0  -0.2463
  C  C1289  1  0.702580  0.030130  0.223000  1.0  -0.1132
  C  C1290  1  0.682670  0.041610  0.281600  1.0  -0.1315
  C  C1291  1  0.688100  0.072830  0.309400  1.0  -0.0462
  C  C1292  1  0.713360  0.093220  0.280900  1.0  -0.1357
  C  C1293  1  0.718090  0.125780  0.316100  1.0  0.5564
  C  C1294  1  0.772930  0.189720  0.314800  1.0  0.5731
  C  C1295  1  0.782080  0.221680  0.352000  1.0  -0.2716
  C  C1296  1  0.809000  0.214300  0.414500  1.0  -0.3281
  C  C1297  1  0.832640  0.421950  0.966300  1.0  0.1864
  C  C1298  1  0.816090  0.400620  0.919200  1.0  -0.223
  C  C1299  1  0.827450  0.396670  0.847300  1.0  0.1075
  C  C1300  1  0.854200  0.414500  0.826200  1.0  -0.2071
  C  C1301  1  0.869250  0.436290  0.875900  1.0  0.1509
  C  C1302  1  0.810400  0.372600  0.793500  1.0  -0.144
  C  C1303  1  0.247960  0.666340  0.053200  1.0  0.3263
  C  C1304  1  0.266690  0.643870  0.097600  1.0  -0.1548
  C  C1305  1  0.279500  0.653320  0.165900  1.0  -0.1044
  C  C1306  1  0.274200  0.684200  0.195800  1.0  -0.1107
  C  C1307  1  0.258000  0.707980  0.150200  1.0  -0.0853
  C  C1308  1  0.245490  0.699170  0.080400  1.0  -0.1435
  C  C1309  1  0.228710  0.725250  0.037700  1.0  0.5261
  C  C1310  1  0.181790  0.736000  0.880110  1.0  0.4706
  C  C1311  1  0.163540  0.761260  0.834900  1.0  -0.3366
  C  C1312  1  0.141180  0.747770  0.775200  1.0  -0.3224
  C  C1313  1  0.152560  0.823130  0.019500  1.0  0.3169
  C  C1314  1  0.123840  0.825170  0.064700  1.0  -0.2201
  C  C1315  1  0.099280  0.847400  0.048600  1.0  -0.1256
  C  C1316  1  0.101510  0.868870  0.988100  1.0  -0.1248
  C  C1317  1  0.129120  0.867430  0.942900  1.0  -0.0662
  C  C1318  1  0.155060  0.844700  0.956900  1.0  -0.0996
  C  C1319  1  0.184330  0.845790  0.907740  1.0  0.5643
  C  C1320  1  0.261360  0.811860  0.893400  1.0  0.5398
  C  C1321  1  0.294020  0.814810  0.855200  1.0  -0.2577
  C  C1322  1  0.323630  0.812900  0.907300  1.0  -0.3067
  C  C1323  1  0.240000  0.854540  0.088800  1.0  0.197
  C  C1324  1  0.258400  0.875480  0.135300  1.0  -0.1231
  C  C1325  1  0.280400  0.864630  0.175800  1.0  0.2263
  C  C1326  1  0.292600  0.832700  0.156100  1.0  -0.1859
  C  C1327  1  0.274000  0.813240  0.108700  1.0  0.1272
  C  C1328  1  0.299100  0.886740  0.230400  1.0  -0.1206
  C  C1329  1  0.233490  0.581590  0.721800  1.0  0.2671
  C  C1330  1  0.227560  0.549920  0.694000  1.0  -0.2463
  C  C1331  1  0.202580  0.530130  0.723000  1.0  -0.1132
  C  C1332  1  0.182670  0.541610  0.781600  1.0  -0.1315
  C  C1333  1  0.188100  0.572830  0.809400  1.0  -0.0462
  C  C1334  1  0.213360  0.593220  0.780900  1.0  -0.1357
  C  C1335  1  0.218090  0.625780  0.816100  1.0  0.5564
  C  C1336  1  0.272930  0.689720  0.814800  1.0  0.5731
  C  C1337  1  0.282080  0.721680  0.852000  1.0  -0.2716
  C  C1338  1  0.309000  0.714300  0.914500  1.0  -0.3281
  C  C1339  1  0.332640  0.921950  0.466300  1.0  0.1864
  C  C1340  1  0.316090  0.900620  0.419200  1.0  -0.223
  C  C1341  1  0.327450  0.896670  0.347300  1.0  0.1075
  C  C1342  1  0.354200  0.914500  0.326200  1.0  -0.2071
  C  C1343  1  0.369250  0.936290  0.375900  1.0  0.1509
  C  C1344  1  0.310400  0.872600  0.293500  1.0  -0.144
  N  N1345  1  0.967930  0.535950  0.776440  1.0  -0.2508
  N  N1346  1  0.995410  0.551600  0.810970  1.0  -0.2798
  N  N1347  1  0.076890  0.539940  0.825970  1.0  -0.2523
  N  N1348  1  0.082360  0.512100  0.872430  1.0  -0.2408
  N  N1349  1  0.074500  0.506220  0.668900  1.0  -0.3106
  N  N1350  1  0.894300  0.506360  0.954860  1.0  -0.3201
  N  N1351  1  0.924490  0.503780  0.915150  1.0  -0.2591
  N  N1352  1  0.189370  0.390960  0.303730  1.0  -0.3208
  N  N1353  1  0.467930  0.035950  0.276440  1.0  -0.2508
  N  N1354  1  0.495410  0.051600  0.310970  1.0  -0.2798
  N  N1355  1  0.576890  0.039940  0.325970  1.0  -0.2523
  N  N1356  1  0.582360  0.012100  0.372430  1.0  -0.2408
  N  N1357  1  0.574500  0.006220  0.168900  1.0  -0.3106
  N  N1358  1  0.394300  0.006360  0.454860  1.0  -0.3201
  N  N1359  1  0.424490  0.003780  0.415150  1.0  -0.2591
  N  N1360  1  0.689370  0.890960  0.803730  1.0  -0.3208
  N  N1361  1  0.532070  0.464050  0.276440  1.0  -0.2498
  N  N1362  1  0.504590  0.448400  0.310970  1.0  -0.2805
  N  N1363  1  0.423110  0.460060  0.325970  1.0  -0.2514
  N  N1364  1  0.417640  0.487900  0.372430  1.0  -0.2407
  N  N1365  1  0.425500  0.493780  0.168900  1.0  -0.3079
  N  N1366  1  0.605700  0.493640  0.454860  1.0  -0.3199
  N  N1367  1  0.575510  0.496220  0.415150  1.0  -0.2577
  N  N1368  1  0.310630  0.609040  0.803730  1.0  -0.3222
  N  N1369  1  0.032070  0.964050  0.776440  1.0  -0.2498
  N  N1370  1  0.004590  0.948400  0.810970  1.0  -0.2805
  N  N1371  1  0.923110  0.960060  0.825970  1.0  -0.2514
  N  N1372  1  0.917640  0.987900  0.872430  1.0  -0.2407
  N  N1373  1  0.925500  0.993780  0.668900  1.0  -0.3079
  N  N1374  1  0.105700  0.993640  0.954860  1.0  -0.3199
  N  N1375  1  0.075510  0.996220  0.915150  1.0  -0.2577
  N  N1376  1  0.810630  0.109040  0.303730  1.0  -0.3222
  N  N1377  1  0.214050  0.217930  0.026440  1.0  -0.2498
  N  N1378  1  0.198400  0.245410  0.060970  1.0  -0.2792
  N  N1379  1  0.210060  0.326890  0.075970  1.0  -0.2528
  N  N1380  1  0.237900  0.332360  0.122430  1.0  -0.2423
  N  N1381  1  0.243780  0.324500  0.918900  1.0  -0.311
  N  N1382  1  0.243640  0.144300  0.204860  1.0  -0.3196
  N  N1383  1  0.246220  0.174490  0.165150  1.0  -0.257
  N  N1384  1  0.359040  0.439370  0.553730  1.0  -0.3217
  N  N1385  1  0.714050  0.717930  0.526440  1.0  -0.2498
  N  N1386  1  0.698400  0.745410  0.560970  1.0  -0.2792
  N  N1387  1  0.710060  0.826890  0.575970  1.0  -0.2528
  N  N1388  1  0.737900  0.832360  0.622430  1.0  -0.2423
  N  N1389  1  0.743780  0.824500  0.418900  1.0  -0.311
  N  N1390  1  0.743640  0.644300  0.704860  1.0  -0.3196
  N  N1391  1  0.746220  0.674490  0.665150  1.0  -0.257
  N  N1392  1  0.859040  0.939370  0.053730  1.0  -0.3217
  N  N1393  1  0.285950  0.782070  0.526440  1.0  -0.2499
  N  N1394  1  0.301600  0.754590  0.560970  1.0  -0.2792
  N  N1395  1  0.289940  0.673110  0.575970  1.0  -0.2523
  N  N1396  1  0.262100  0.667640  0.622430  1.0  -0.2406
  N  N1397  1  0.256220  0.675500  0.418900  1.0  -0.3087
  N  N1398  1  0.256360  0.855700  0.704860  1.0  -0.3193
  N  N1399  1  0.253780  0.825510  0.665150  1.0  -0.2575
  N  N1400  1  0.140960  0.560630  0.053730  1.0  -0.323
  N  N1401  1  0.785950  0.282070  0.026440  1.0  -0.2499
  N  N1402  1  0.801600  0.254590  0.060970  1.0  -0.2792
  N  N1403  1  0.789940  0.173110  0.075970  1.0  -0.2523
  N  N1404  1  0.762100  0.167640  0.122430  1.0  -0.2406
  N  N1405  1  0.756220  0.175500  0.918900  1.0  -0.3087
  N  N1406  1  0.756360  0.355700  0.204860  1.0  -0.3193
  N  N1407  1  0.753780  0.325510  0.165150  1.0  -0.2575
  N  N1408  1  0.640960  0.060630  0.553730  1.0  -0.323
  N  N1409  1  0.032070  0.464050  0.223560  1.0  -0.2497
  N  N1410  1  0.004590  0.448400  0.189030  1.0  -0.2802
  N  N1411  1  0.923110  0.460060  0.174030  1.0  -0.2512
  N  N1412  1  0.917640  0.487900  0.127570  1.0  -0.2405
  N  N1413  1  0.925500  0.493780  0.331100  1.0  -0.3071
  N  N1414  1  0.105700  0.493640  0.045140  1.0  -0.3201
  N  N1415  1  0.075510  0.496220  0.084850  1.0  -0.2573
  N  N1416  1  0.810630  0.609040  0.696270  1.0  -0.3234
  N  N1417  1  0.532070  0.964050  0.723560  1.0  -0.2497
  N  N1418  1  0.504590  0.948400  0.689030  1.0  -0.2802
  N  N1419  1  0.423110  0.960060  0.674030  1.0  -0.2512
  N  N1420  1  0.417640  0.987900  0.627570  1.0  -0.2405
  N  N1421  1  0.425500  0.993780  0.831100  1.0  -0.3071
  N  N1422  1  0.605700  0.993640  0.545140  1.0  -0.3201
  N  N1423  1  0.575510  0.996220  0.584850  1.0  -0.2573
  N  N1424  1  0.310630  0.109040  0.196270  1.0  -0.3234
  N  N1425  1  0.467930  0.535950  0.723560  1.0  -0.2509
  N  N1426  1  0.495410  0.551600  0.689030  1.0  -0.2797
  N  N1427  1  0.576890  0.539940  0.674030  1.0  -0.2526
  N  N1428  1  0.582360  0.512100  0.627570  1.0  -0.241
  N  N1429  1  0.574500  0.506220  0.831100  1.0  -0.31
  N  N1430  1  0.394300  0.506360  0.545140  1.0  -0.3203
  N  N1431  1  0.424490  0.503780  0.584850  1.0  -0.2588
  N  N1432  1  0.689370  0.390960  0.196270  1.0  -0.3211
  N  N1433  1  0.967930  0.035950  0.223560  1.0  -0.2509
  N  N1434  1  0.995410  0.051600  0.189030  1.0  -0.2797
  N  N1435  1  0.076890  0.039940  0.174030  1.0  -0.2526
  N  N1436  1  0.082360  0.012100  0.127570  1.0  -0.241
  N  N1437  1  0.074500  0.006220  0.331100  1.0  -0.31
  N  N1438  1  0.894300  0.006360  0.045140  1.0  -0.3203
  N  N1439  1  0.924490  0.003780  0.084850  1.0  -0.2588
  N  N1440  1  0.189370  0.890960  0.696270  1.0  -0.3211
  N  N1441  1  0.785950  0.782070  0.973560  1.0  -0.2504
  N  N1442  1  0.801600  0.754590  0.939030  1.0  -0.2787
  N  N1443  1  0.789940  0.673110  0.924030  1.0  -0.2527
  N  N1444  1  0.762100  0.667640  0.877570  1.0  -0.2406
  N  N1445  1  0.756220  0.675500  0.081100  1.0  -0.3078
  N  N1446  1  0.756360  0.855700  0.795140  1.0  -0.3195
  N  N1447  1  0.753780  0.825510  0.834850  1.0  -0.2572
  N  N1448  1  0.640960  0.560630  0.446270  1.0  -0.3236
  N  N1449  1  0.285950  0.282070  0.473560  1.0  -0.2504
  N  N1450  1  0.301600  0.254590  0.439030  1.0  -0.2787
  N  N1451  1  0.289940  0.173110  0.424030  1.0  -0.2527
  N  N1452  1  0.262100  0.167640  0.377570  1.0  -0.2406
  N  N1453  1  0.256220  0.175500  0.581100  1.0  -0.3078
  N  N1454  1  0.256360  0.355700  0.295140  1.0  -0.3195
  N  N1455  1  0.253780  0.325510  0.334850  1.0  -0.2572
  N  N1456  1  0.140960  0.060630  0.946270  1.0  -0.3236
  N  N1457  1  0.714050  0.217930  0.473560  1.0  -0.2491
  N  N1458  1  0.698400  0.245410  0.439030  1.0  -0.2791
  N  N1459  1  0.710060  0.326890  0.424030  1.0  -0.2526
  N  N1460  1  0.737900  0.332360  0.377570  1.0  -0.2423
  N  N1461  1  0.743780  0.324500  0.581100  1.0  -0.3108
  N  N1462  1  0.743640  0.144300  0.295140  1.0  -0.3201
  N  N1463  1  0.746220  0.174490  0.334850  1.0  -0.2568
  N  N1464  1  0.859040  0.439370  0.946270  1.0  -0.3227
  N  N1465  1  0.214050  0.717930  0.973560  1.0  -0.2491
  N  N1466  1  0.198400  0.745410  0.939030  1.0  -0.2791
  N  N1467  1  0.210060  0.826890  0.924030  1.0  -0.2526
  N  N1468  1  0.237900  0.832360  0.877570  1.0  -0.2423
  N  N1469  1  0.243780  0.824500  0.081100  1.0  -0.3108
  N  N1470  1  0.243640  0.644300  0.795140  1.0  -0.3201
  N  N1471  1  0.246220  0.674490  0.834850  1.0  -0.2568
  N  N1472  1  0.359040  0.939370  0.446270  1.0  -0.3227
  O  O1473  1  0.904730  0.516250  0.756290  1.0  -0.5889
  O  O1474  1  0.004850  0.521370  0.686160  1.0  -0.5883
  O  O1475  1  0.954770  0.569530  0.890000  1.0  -0.5807
  O  O1476  1  0.051000  0.574870  0.711460  1.0  -0.5773
  O  O1477  1  0.115280  0.565780  0.898850  1.0  -0.5788
  O  O1478  1  0.039150  0.492140  0.805610  1.0  -0.5799
  O  O1479  1  0.848610  0.491840  0.060210  1.0  -0.56
  O  O1480  1  0.885220  0.551970  0.882450  1.0  -0.5841
  O  O1481  1  0.927760  0.456280  0.984630  1.0  -0.5886
  O  O1482  1  0.404730  0.016250  0.256290  1.0  -0.5889
  O  O1483  1  0.504850  0.021370  0.186160  1.0  -0.5883
  O  O1484  1  0.454770  0.069530  0.390000  1.0  -0.5807
  O  O1485  1  0.551000  0.074870  0.211460  1.0  -0.5773
  O  O1486  1  0.615280  0.065780  0.398850  1.0  -0.5788
  O  O1487  1  0.539150  0.992140  0.305610  1.0  -0.5799
  O  O1488  1  0.348610  0.991840  0.560210  1.0  -0.56
  O  O1489  1  0.385220  0.051970  0.382450  1.0  -0.5841
  O  O1490  1  0.427760  0.956280  0.484630  1.0  -0.5886
  O  O1491  1  0.595270  0.483750  0.256290  1.0  -0.5889
  O  O1492  1  0.495150  0.478630  0.186160  1.0  -0.5879
  O  O1493  1  0.545230  0.430470  0.390000  1.0  -0.58
  O  O1494  1  0.449000  0.425130  0.211460  1.0  -0.5758
  O  O1495  1  0.384720  0.434220  0.398850  1.0  -0.5795
  O  O1496  1  0.460850  0.507860  0.305610  1.0  -0.58
  O  O1497  1  0.651390  0.508160  0.560210  1.0  -0.5593
  O  O1498  1  0.614780  0.448030  0.382450  1.0  -0.583
  O  O1499  1  0.572240  0.543720  0.484630  1.0  -0.5903
  O  O1500  1  0.095270  0.983750  0.756290  1.0  -0.5889
  O  O1501  1  0.995150  0.978630  0.686160  1.0  -0.5879
  O  O1502  1  0.045230  0.930470  0.890000  1.0  -0.58
  O  O1503  1  0.949000  0.925130  0.711460  1.0  -0.5758
  O  O1504  1  0.884720  0.934220  0.898850  1.0  -0.5795
  O  O1505  1  0.960850  0.007860  0.805610  1.0  -0.58
  O  O1506  1  0.151390  0.008160  0.060210  1.0  -0.5593
  O  O1507  1  0.114780  0.948030  0.882450  1.0  -0.583
  O  O1508  1  0.072240  0.043720  0.984630  1.0  -0.5903
  O  O1509  1  0.233750  0.154730  0.006290  1.0  -0.5899
  O  O1510  1  0.228630  0.254850  0.936160  1.0  -0.5878
  O  O1511  1  0.180470  0.204770  0.140000  1.0  -0.5812
  O  O1512  1  0.175130  0.301000  0.961460  1.0  -0.5787
  O  O1513  1  0.184220  0.365280  0.148850  1.0  -0.5774
  O  O1514  1  0.257860  0.289150  0.055610  1.0  -0.579
  O  O1515  1  0.258160  0.098610  0.310210  1.0  -0.5589
  O  O1516  1  0.198030  0.135220  0.132450  1.0  -0.582
  O  O1517  1  0.293720  0.177760  0.234630  1.0  -0.5857
  O  O1518  1  0.733750  0.654730  0.506290  1.0  -0.5899
  O  O1519  1  0.728630  0.754850  0.436160  1.0  -0.5878
  O  O1520  1  0.680470  0.704770  0.640000  1.0  -0.5812
  O  O1521  1  0.675130  0.801000  0.461460  1.0  -0.5787
  O  O1522  1  0.684220  0.865280  0.648850  1.0  -0.5774
  O  O1523  1  0.757860  0.789150  0.555610  1.0  -0.579
  O  O1524  1  0.758160  0.598610  0.810210  1.0  -0.5589
  O  O1525  1  0.698030  0.635220  0.632450  1.0  -0.582
  O  O1526  1  0.793720  0.677760  0.734630  1.0  -0.5857
  O  O1527  1  0.266250  0.845270  0.506290  1.0  -0.5913
  O  O1528  1  0.271370  0.745150  0.436160  1.0  -0.5898
  O  O1529  1  0.319530  0.795230  0.640000  1.0  -0.5816
  O  O1530  1  0.324870  0.699000  0.461460  1.0  -0.5769
  O  O1531  1  0.315780  0.634720  0.648850  1.0  -0.5785
  O  O1532  1  0.242140  0.710850  0.555610  1.0  -0.58
  O  O1533  1  0.241840  0.901390  0.810210  1.0  -0.5601
  O  O1534  1  0.301970  0.864780  0.632450  1.0  -0.5824
  O  O1535  1  0.206280  0.822240  0.734630  1.0  -0.5862
  O  O1536  1  0.766250  0.345270  0.006290  1.0  -0.5913
  O  O1537  1  0.771370  0.245150  0.936160  1.0  -0.5898
  O  O1538  1  0.819530  0.295230  0.140000  1.0  -0.5816
  O  O1539  1  0.824870  0.199000  0.961460  1.0  -0.5769
  O  O1540  1  0.815780  0.134720  0.148850  1.0  -0.5785
  O  O1541  1  0.742140  0.210850  0.055610  1.0  -0.58
  O  O1542  1  0.741840  0.401390  0.310210  1.0  -0.5601
  O  O1543  1  0.801970  0.364780  0.132450  1.0  -0.5824
  O  O1544  1  0.706280  0.322240  0.234630  1.0  -0.5862
  O  O1545  1  0.095270  0.483750  0.243710  1.0  -0.5908
  O  O1546  1  0.995150  0.478630  0.313840  1.0  -0.5872
  O  O1547  1  0.045230  0.430470  0.110000  1.0  -0.5791
  O  O1548  1  0.949000  0.425130  0.288540  1.0  -0.5773
  O  O1549  1  0.884720  0.434220  0.101150  1.0  -0.5796
  O  O1550  1  0.960850  0.507860  0.194390  1.0  -0.5807
  O  O1551  1  0.151390  0.508160  0.939790  1.0  -0.5585
  O  O1552  1  0.114780  0.448030  0.117550  1.0  -0.5826
  O  O1553  1  0.072240  0.543720  0.015370  1.0  -0.5903
  O  O1554  1  0.595270  0.983750  0.743710  1.0  -0.5908
  O  O1555  1  0.495150  0.978630  0.813840  1.0  -0.5872
  O  O1556  1  0.545230  0.930470  0.610000  1.0  -0.5791
  O  O1557  1  0.449000  0.925130  0.788540  1.0  -0.5773
  O  O1558  1  0.384720  0.934220  0.601150  1.0  -0.5796
  O  O1559  1  0.460850  0.007860  0.694390  1.0  -0.5807
  O  O1560  1  0.651390  0.008160  0.439790  1.0  -0.5585
  O  O1561  1  0.614780  0.948030  0.617550  1.0  -0.5826
  O  O1562  1  0.572240  0.043720  0.515370  1.0  -0.5903
  O  O1563  1  0.404730  0.516250  0.743710  1.0  -0.5907
  O  O1564  1  0.504850  0.521370  0.813840  1.0  -0.5867
  O  O1565  1  0.454770  0.569530  0.610000  1.0  -0.5805
  O  O1566  1  0.551000  0.574870  0.788540  1.0  -0.5763
  O  O1567  1  0.615280  0.565780  0.601150  1.0  -0.5794
  O  O1568  1  0.539150  0.492140  0.694390  1.0  -0.5804
  O  O1569  1  0.348610  0.491840  0.439790  1.0  -0.5591
  O  O1570  1  0.385220  0.551970  0.617550  1.0  -0.5837
  O  O1571  1  0.427760  0.456280  0.515370  1.0  -0.5879
  O  O1572  1  0.904730  0.016250  0.243710  1.0  -0.5907
  O  O1573  1  0.004850  0.021370  0.313840  1.0  -0.5867
  O  O1574  1  0.954770  0.069530  0.110000  1.0  -0.5805
  O  O1575  1  0.051000  0.074870  0.288540  1.0  -0.5763
  O  O1576  1  0.115280  0.065780  0.101150  1.0  -0.5794
  O  O1577  1  0.039150  0.992140  0.194390  1.0  -0.5804
  O  O1578  1  0.848610  0.991840  0.939790  1.0  -0.5591
  O  O1579  1  0.885220  0.051970  0.117550  1.0  -0.5837
  O  O1580  1  0.927760  0.956280  0.015370  1.0  -0.5879
  O  O1581  1  0.766250  0.845270  0.993710  1.0  -0.593
  O  O1582  1  0.771370  0.745150  0.063840  1.0  -0.5883
  O  O1583  1  0.819530  0.795230  0.860000  1.0  -0.5809
  O  O1584  1  0.824870  0.699000  0.038540  1.0  -0.5776
  O  O1585  1  0.815780  0.634720  0.851150  1.0  -0.5789
  O  O1586  1  0.742140  0.710850  0.944390  1.0  -0.5804
  O  O1587  1  0.741840  0.901390  0.689790  1.0  -0.5594
  O  O1588  1  0.801970  0.864780  0.867550  1.0  -0.5822
  O  O1589  1  0.706280  0.822240  0.765370  1.0  -0.5861
  O  O1590  1  0.266250  0.345270  0.493710  1.0  -0.593
  O  O1591  1  0.271370  0.245150  0.563840  1.0  -0.5883
  O  O1592  1  0.319530  0.295230  0.360000  1.0  -0.5809
  O  O1593  1  0.324870  0.199000  0.538540  1.0  -0.5776
  O  O1594  1  0.315780  0.134720  0.351150  1.0  -0.5789
  O  O1595  1  0.242140  0.210850  0.444390  1.0  -0.5804
  O  O1596  1  0.241840  0.401390  0.189790  1.0  -0.5594
  O  O1597  1  0.301970  0.364780  0.367550  1.0  -0.5822
  O  O1598  1  0.206280  0.322240  0.265370  1.0  -0.5861
  O  O1599  1  0.733750  0.154730  0.493710  1.0  -0.5917
  O  O1600  1  0.728630  0.254850  0.563840  1.0  -0.5887
  O  O1601  1  0.680470  0.204770  0.360000  1.0  -0.5809
  O  O1602  1  0.675130  0.301000  0.538540  1.0  -0.578
  O  O1603  1  0.684220  0.365280  0.351150  1.0  -0.5778
  O  O1604  1  0.757860  0.289150  0.444390  1.0  -0.5795
  O  O1605  1  0.758160  0.098610  0.189790  1.0  -0.5581
  O  O1606  1  0.698030  0.135220  0.367550  1.0  -0.5812
  O  O1607  1  0.793720  0.177760  0.265370  1.0  -0.5852
  O  O1608  1  0.233750  0.654730  0.993710  1.0  -0.5917
  O  O1609  1  0.228630  0.754850  0.063840  1.0  -0.5887
  O  O1610  1  0.180470  0.704770  0.860000  1.0  -0.5809
  O  O1611  1  0.175130  0.801000  0.038540  1.0  -0.578
  O  O1612  1  0.184220  0.865280  0.851150  1.0  -0.5778
  O  O1613  1  0.257860  0.789150  0.944390  1.0  -0.5795
  O  O1614  1  0.258160  0.598610  0.689790  1.0  -0.5581
  O  O1615  1  0.198030  0.635220  0.867550  1.0  -0.5812
  O  O1616  1  0.293720  0.677760  0.765370  1.0  -0.5852
