# generated using pymatgen
data_Mn3H39C42N8O9
_symmetry_space_group_name_H-M   'P 1'
_cell_length_a   17.21510000
_cell_length_b   30.20780000
_cell_length_c   30.20780000
_cell_angle_alpha   85.34280000
_cell_angle_beta   73.44450000
_cell_angle_gamma   73.44450000
_symmetry_Int_Tables_number   1
_chemical_formula_structural   Mn3H39C42N8O9
_chemical_formula_sum   'Mn24 H312 C336 N64 O72'
_cell_volume   14433.51160610
_cell_formula_units_Z   8
loop_
 _symmetry_equiv_pos_site_id
 _symmetry_equiv_pos_as_xyz
  1  'x, y, z'
loop_
 _atom_site_type_symbol
 _atom_site_label
 _atom_site_symmetry_multiplicity
 _atom_site_fract_x
 _atom_site_fract_y
 _atom_site_fract_z
 _atom_site_occupancy
 _atom_site_charge
  Mn  Mn1  1  0.870330  0.879790  0.028750  1.0  0.988
  Mn  Mn2  1  0.791820  0.000890  0.920570  1.0  0.9779
  Mn  Mn3  1  0.997090  0.916510  0.141350  1.0  0.9663
  Mn  Mn4  1  0.278870  0.620210  0.471250  1.0  0.991
  Mn  Mn5  1  0.213280  0.499110  0.579430  1.0  0.975
  Mn  Mn6  1  0.554950  0.583490  0.358650  1.0  0.965
  Mn  Mn7  1  0.899080  0.971250  0.379790  1.0  0.9883
  Mn  Mn8  1  0.712390  0.079430  0.500890  1.0  0.9815
  Mn  Mn9  1  0.138440  0.858650  0.416510  1.0  0.965
  Mn  Mn10  1  0.750120  0.528750  0.120210  1.0  0.992
  Mn  Mn11  1  0.792710  0.420570  0.999110  1.0  0.9795
  Mn  Mn12  1  0.913600  0.641350  0.083490  1.0  0.9643
  Mn  Mn13  1  0.129670  0.120210  0.971250  1.0  0.9908
  Mn  Mn14  1  0.208180  0.999110  0.079430  1.0  0.9785
  Mn  Mn15  1  0.002910  0.083490  0.858650  1.0  0.9665
  Mn  Mn16  1  0.721130  0.379790  0.528750  1.0  0.9892
  Mn  Mn17  1  0.786720  0.500890  0.420570  1.0  0.9741
  Mn  Mn18  1  0.445050  0.416510  0.641350  1.0  0.9671
  Mn  Mn19  1  0.100920  0.028750  0.620210  1.0  0.9865
  Mn  Mn20  1  0.287610  0.920570  0.499110  1.0  0.9769
  Mn  Mn21  1  0.861560  0.141350  0.583490  1.0  0.965
  Mn  Mn22  1  0.249880  0.471250  0.879790  1.0  0.9921
  Mn  Mn23  1  0.207290  0.579430  0.000890  1.0  0.9778
  Mn  Mn24  1  0.086400  0.358650  0.916510  1.0  0.9645
  H  H25  1  0.644500  0.892000  0.142200  1.0  0.1187
  H  H26  1  0.508700  0.936600  0.151800  1.0  0.1085
  H  H27  1  0.468400  0.982900  0.091100  1.0  0.1191
  H  H28  1  0.572000  0.986000  0.021200  1.0  0.1099
  H  H29  1  0.025200  0.949200  0.909200  1.0  0.1014
  H  H30  1  0.987700  0.926000  0.877600  1.0  0.1125
  H  H31  1  0.079400  0.857800  0.880200  1.0  0.1076
  H  H32  1  0.131800  0.895400  0.869000  1.0  0.095
  H  H33  1  0.108800  0.874700  0.920100  1.0  0.1156
  H  H34  1  0.776300  0.929200  0.805800  1.0  0.1146
  H  H35  1  0.840900  0.928700  0.728500  1.0  0.1159
  H  H36  1  0.939800  0.971700  0.698300  1.0  0.1173
  H  H37  1  0.971600  0.012400  0.749400  1.0  0.0964
  H  H38  1  0.892300  0.118600  0.959200  1.0  0.1
  H  H39  1  0.885600  0.083200  0.001400  1.0  0.1001
  H  H40  1  0.731600  0.117300  0.004100  1.0  0.1109
  H  H41  1  0.779200  0.135200  0.034400  1.0  0.0984
  H  H42  1  0.768900  0.160500  0.986900  1.0  0.1097
  H  H43  1  0.631000  0.066400  0.981200  1.0  0.0855
  H  H44  1  0.519300  0.132800  0.980400  1.0  0.1357
  H  H45  1  0.610200  0.135400  0.844400  1.0  0.1013
  H  H46  1  0.714800  0.069600  0.847800  1.0  0.0777
  H  H47  1  0.465500  0.178800  0.876000  1.0  0.0931
  H  H48  1  0.498500  0.209100  0.903500  1.0  0.0853
  H  H49  1  0.122200  0.785900  0.192900  1.0  0.1135
  H  H50  1  0.119000  0.712700  0.184300  1.0  0.1109
  H  H51  1  0.048800  0.695800  0.134800  1.0  0.122
  H  H52  1  0.981500  0.756100  0.094300  1.0  0.0947
  H  H53  1  0.841000  0.990600  0.036600  1.0  0.0956
  H  H54  1  0.875600  0.025900  0.057500  1.0  0.1079
  H  H55  1  0.726600  0.994800  0.111200  1.0  0.1307
  H  H56  1  0.717900  0.045100  0.088500  1.0  0.1178
  H  H57  1  0.759900  0.031700  0.130300  1.0  0.1204
  H  H58  1  0.155500  0.249800  0.907200  1.0  0.074
  H  H59  1  0.263600  0.187900  0.917500  1.0  0.1206
  H  H60  1  0.382000  0.279700  0.936900  1.0  0.1276
  H  H61  1  0.270800  0.338000  0.923400  1.0  0.0758
  H  H62  1  0.390700  0.158100  0.944300  1.0  0.0773
  H  H63  1  0.417500  0.194700  0.968100  1.0  0.073
  H  H64  1  0.178700  0.608000  0.357800  1.0  0.1188
  H  H65  1  0.097100  0.563400  0.348200  1.0  0.1085
  H  H66  1  0.042400  0.517100  0.408900  1.0  0.1198
  H  H67  1  0.079200  0.514000  0.478800  1.0  0.1091
  H  H68  1  0.383600  0.550800  0.590800  1.0  0.1022
  H  H69  1  0.291300  0.574000  0.622400  1.0  0.1116
  H  H70  1  0.317400  0.642200  0.619800  1.0  0.1083
  H  H71  1  0.396200  0.604600  0.631000  1.0  0.0955
  H  H72  1  0.403600  0.625300  0.579900  1.0  0.114
  H  H73  1  0.011300  0.570800  0.694200  1.0  0.1148
  H  H74  1  0.998100  0.571300  0.771500  1.0  0.117
  H  H75  1  0.109800  0.528300  0.801700  1.0  0.1162
  H  H76  1  0.233400  0.487600  0.750600  1.0  0.0952
  H  H77  1  0.470100  0.381400  0.540800  1.0  0.0993
  H  H78  1  0.470200  0.416800  0.498600  1.0  0.1003
  H  H79  1  0.353000  0.382700  0.495900  1.0  0.1083
  H  H80  1  0.448800  0.364800  0.465600  1.0  0.0997
  H  H81  1  0.416300  0.339500  0.513100  1.0  0.1057
  H  H82  1  0.178600  0.433600  0.518800  1.0  0.0851
  H  H83  1  0.132500  0.367200  0.519600  1.0  0.1367
  H  H84  1  0.090000  0.364600  0.655600  1.0  0.1023
  H  H85  1  0.132200  0.430400  0.652200  1.0  0.0781
  H  H86  1  0.020300  0.321200  0.624000  1.0  0.0923
  H  H87  1  0.111100  0.290900  0.596500  1.0  0.0867
  H  H88  1  0.601000  0.714100  0.307100  1.0  0.1132
  H  H89  1  0.516000  0.787300  0.315700  1.0  0.1094
  H  H90  1  0.379400  0.804200  0.365200  1.0  0.1234
  H  H91  1  0.331900  0.743900  0.405700  1.0  0.093
  H  H92  1  0.368200  0.509400  0.463400  1.0  0.0953
  H  H93  1  0.459000  0.474100  0.442500  1.0  0.1065
  H  H94  1  0.332600  0.505200  0.388800  1.0  0.1329
  H  H95  1  0.351500  0.454900  0.411500  1.0  0.1187
  H  H96  1  0.421900  0.468300  0.369700  1.0  0.1174
  H  H97  1  0.812500  0.250200  0.592800  1.0  0.0747
  H  H98  1  0.869000  0.312100  0.582500  1.0  0.1205
  H  H99  1  0.098600  0.220300  0.563100  1.0  0.1281
  H  H100  1  0.032200  0.162000  0.576600  1.0  0.0754
  H  H101  1  0.993100  0.341900  0.555700  1.0  0.0777
  H  H102  1  0.080300  0.305300  0.531900  1.0  0.0716
  H  H103  1  0.786700  0.857800  0.392000  1.0  0.1176
  H  H104  1  0.660500  0.848200  0.436600  1.0  0.1088
  H  H105  1  0.559500  0.908900  0.482900  1.0  0.12
  H  H106  1  0.593200  0.978800  0.486000  1.0  0.1083
  H  H107  1  0.934400  0.090800  0.449200  1.0  0.0984
  H  H108  1  0.865300  0.122400  0.426000  1.0  0.1118
  H  H109  1  0.959600  0.119800  0.357800  1.0  0.1088
  H  H110  1  0.000800  0.131000  0.395400  1.0  0.0936
  H  H111  1  0.028900  0.079900  0.374700  1.0  0.117
  H  H112  1  0.582100  0.194200  0.429200  1.0  0.1129
  H  H113  1  0.569400  0.271500  0.428700  1.0  0.1153
  H  H114  1  0.638100  0.301700  0.471700  1.0  0.117
  H  H115  1  0.721000  0.250600  0.512400  1.0  0.0964
  H  H116  1  0.851500  0.040800  0.618600  1.0  0.1
  H  H117  1  0.887000  0.998600  0.583200  1.0  0.1031
  H  H118  1  0.735700  0.995900  0.617300  1.0  0.11
  H  H119  1  0.813600  0.965600  0.635200  1.0  0.0972
  H  H120  1  0.755800  0.013100  0.660500  1.0  0.1088
  H  H121  1  0.612200  0.018800  0.566400  1.0  0.0854
  H  H122  1  0.499700  0.019600  0.632800  1.0  0.1347
  H  H123  1  0.454600  0.155600  0.635400  1.0  0.1027
  H  H124  1  0.562600  0.152200  0.569600  1.0  0.0779
  H  H125  1  0.341500  0.124000  0.678800  1.0  0.0877
  H  H126  1  0.402000  0.096500  0.709100  1.0  0.0896
  H  H127  1  0.315100  0.807100  0.285900  1.0  0.1124
  H  H128  1  0.303300  0.815700  0.212700  1.0  0.1097
  H  H129  1  0.183600  0.865200  0.195800  1.0  0.1199
  H  H130  1  0.075800  0.905700  0.256100  1.0  0.0941
  H  H131  1  0.877600  0.963400  0.490600  1.0  0.0949
  H  H132  1  0.933100  0.942500  0.525900  1.0  0.1068
  H  H133  1  0.837800  0.888800  0.494800  1.0  0.1305
  H  H134  1  0.806400  0.911500  0.545100  1.0  0.12
  H  H135  1  0.890200  0.869700  0.531700  1.0  0.116
  H  H136  1  0.062700  0.092800  0.749800  1.0  0.0748
  H  H137  1  0.181100  0.082500  0.687900  1.0  0.1219
  H  H138  1  0.318900  0.063100  0.779700  1.0  0.1275
  H  H139  1  0.194200  0.076600  0.838000  1.0  0.0765
  H  H140  1  0.335000  0.055700  0.658100  1.0  0.0772
  H  H141  1  0.385600  0.031900  0.694700  1.0  0.0675
  H  H142  1  0.536500  0.642200  0.108000  1.0  0.1165
  H  H143  1  0.445300  0.651800  0.063400  1.0  0.1107
  H  H144  1  0.451300  0.591100  0.017100  1.0  0.1174
  H  H145  1  0.558000  0.521200  0.014000  1.0  0.1091
  H  H146  1  0.974400  0.409200  0.050800  1.0  0.1005
  H  H147  1  0.913700  0.377600  0.074000  1.0  0.1119
  H  H148  1  0.937200  0.380200  0.142200  1.0  0.1077
  H  H149  1  0.027200  0.369000  0.104600  1.0  0.0938
  H  H150  1  0.983500  0.420100  0.125300  1.0  0.1156
  H  H151  1  0.705500  0.305800  0.070800  1.0  0.1146
  H  H152  1  0.769600  0.228500  0.071300  1.0  0.1157
  H  H153  1  0.911500  0.198300  0.028300  1.0  0.1162
  H  H154  1  0.984000  0.249400  0.987600  1.0  0.0962
  H  H155  1  0.010900  0.459200  0.881400  1.0  0.0995
  H  H156  1  0.968800  0.501400  0.916800  1.0  0.0983
  H  H157  1  0.848900  0.504100  0.882700  1.0  0.1107
  H  H158  1  0.914400  0.534400  0.864800  1.0  0.1019
  H  H159  1  0.929400  0.486900  0.839500  1.0  0.111
  H  H160  1  0.697400  0.481200  0.933600  1.0  0.0856
  H  H161  1  0.652100  0.480400  0.867200  1.0  0.1357
  H  H162  1  0.745600  0.344400  0.864600  1.0  0.1025
  H  H163  1  0.784400  0.347800  0.930400  1.0  0.0777
  H  H164  1  0.644300  0.376000  0.821200  1.0  0.0869
  H  H165  1  0.707600  0.403500  0.790900  1.0  0.0856
  H  H166  1  0.908100  0.692900  0.214100  1.0  0.1126
  H  H167  1  0.831700  0.684300  0.287300  1.0  0.1117
  H  H168  1  0.744600  0.634800  0.304200  1.0  0.1209
  H  H169  1  0.737600  0.594300  0.243900  1.0  0.0934
  H  H170  1  0.831600  0.536600  0.009400  1.0  0.0956
  H  H171  1  0.901500  0.557500  0.974100  1.0  0.1064
  H  H172  1  0.721400  0.611200  0.005200  1.0  0.1266
  H  H173  1  0.763000  0.588500  0.954900  1.0  0.1194
  H  H174  1  0.791600  0.630300  0.968300  1.0  0.1168
  H  H175  1  0.405300  0.407200  0.750200  1.0  0.0749
  H  H176  1  0.451500  0.417500  0.812100  1.0  0.1207
  H  H177  1  0.661700  0.436900  0.720300  1.0  0.1281
  H  H178  1  0.608800  0.423400  0.662000  1.0  0.0759
  H  H179  1  0.548800  0.444300  0.841900  1.0  0.0757
  H  H180  1  0.612200  0.468100  0.805300  1.0  0.0672
  H  H181  1  0.355500  0.108000  0.857800  1.0  0.1185
  H  H182  1  0.491300  0.063400  0.848200  1.0  0.1074
  H  H183  1  0.531600  0.017100  0.908900  1.0  0.1198
  H  H184  1  0.428000  0.014000  0.978800  1.0  0.1106
  H  H185  1  0.974800  0.050800  0.090800  1.0  0.1011
  H  H186  1  0.012300  0.074000  0.122400  1.0  0.1116
  H  H187  1  0.920600  0.142200  0.119800  1.0  0.1097
  H  H188  1  0.868200  0.104600  0.131000  1.0  0.0955
  H  H189  1  0.891200  0.125300  0.079900  1.0  0.1154
  H  H190  1  0.223700  0.070800  0.194200  1.0  0.1148
  H  H191  1  0.159100  0.071300  0.271500  1.0  0.1155
  H  H192  1  0.060200  0.028300  0.301700  1.0  0.1165
  H  H193  1  0.028400  0.987600  0.250600  1.0  0.0955
  H  H194  1  0.107700  0.881400  0.040800  1.0  0.0984
  H  H195  1  0.114400  0.916800  0.998600  1.0  0.0975
  H  H196  1  0.268400  0.882700  0.995900  1.0  0.1093
  H  H197  1  0.220800  0.864800  0.965600  1.0  0.1006
  H  H198  1  0.231100  0.839500  0.013100  1.0  0.1061
  H  H199  1  0.369000  0.933600  0.018800  1.0  0.0855
  H  H200  1  0.480700  0.867200  0.019600  1.0  0.1366
  H  H201  1  0.389800  0.864600  0.155600  1.0  0.1013
  H  H202  1  0.285200  0.930400  0.152200  1.0  0.0781
  H  H203  1  0.534500  0.821200  0.124000  1.0  0.0927
  H  H204  1  0.501500  0.790900  0.096500  1.0  0.0855
  H  H205  1  0.877800  0.214100  0.807100  1.0  0.113
  H  H206  1  0.881000  0.287300  0.815700  1.0  0.1098
  H  H207  1  0.951200  0.304200  0.865200  1.0  0.1217
  H  H208  1  0.018500  0.243900  0.905700  1.0  0.0945
  H  H209  1  0.159000  0.009400  0.963400  1.0  0.0953
  H  H210  1  0.124400  0.974100  0.942500  1.0  0.1075
  H  H211  1  0.273400  0.005200  0.888800  1.0  0.1317
  H  H212  1  0.282100  0.954900  0.911500  1.0  0.1179
  H  H213  1  0.240100  0.968300  0.869700  1.0  0.1208
  H  H214  1  0.844500  0.750200  0.092800  1.0  0.0741
  H  H215  1  0.736400  0.812100  0.082500  1.0  0.12
  H  H216  1  0.618000  0.720300  0.063100  1.0  0.1277
  H  H217  1  0.729200  0.662000  0.076600  1.0  0.0761
  H  H218  1  0.609300  0.841900  0.055700  1.0  0.0775
  H  H219  1  0.582500  0.805300  0.031900  1.0  0.0729
  H  H220  1  0.821300  0.392000  0.642200  1.0  0.1188
  H  H221  1  0.902900  0.436600  0.651800  1.0  0.1078
  H  H222  1  0.957600  0.482900  0.591100  1.0  0.1198
  H  H223  1  0.920800  0.486000  0.521200  1.0  0.1094
  H  H224  1  0.616400  0.449200  0.409200  1.0  0.1033
  H  H225  1  0.708700  0.426000  0.377600  1.0  0.1106
  H  H226  1  0.682600  0.357800  0.380200  1.0  0.1062
  H  H227  1  0.603800  0.395400  0.369000  1.0  0.0963
  H  H228  1  0.596400  0.374700  0.420100  1.0  0.113
  H  H229  1  0.988700  0.429200  0.305800  1.0  0.1151
  H  H230  1  0.001900  0.428700  0.228500  1.0  0.1154
  H  H231  1  0.890200  0.471700  0.198300  1.0  0.1174
  H  H232  1  0.766600  0.512400  0.249400  1.0  0.095
  H  H233  1  0.529900  0.618600  0.459200  1.0  0.0983
  H  H234  1  0.529800  0.583200  0.501400  1.0  0.1016
  H  H235  1  0.647000  0.617300  0.504100  1.0  0.1074
  H  H236  1  0.551200  0.635200  0.534400  1.0  0.1004
  H  H237  1  0.583700  0.660500  0.486900  1.0  0.1079
  H  H238  1  0.821400  0.566400  0.481200  1.0  0.0858
  H  H239  1  0.867500  0.632800  0.480400  1.0  0.1353
  H  H240  1  0.910000  0.635400  0.344400  1.0  0.102
  H  H241  1  0.867800  0.569600  0.347800  1.0  0.0784
  H  H242  1  0.979700  0.678800  0.376000  1.0  0.0921
  H  H243  1  0.888900  0.709100  0.403500  1.0  0.0868
  H  H244  1  0.399000  0.285900  0.692900  1.0  0.113
  H  H245  1  0.484000  0.212700  0.684300  1.0  0.11
  H  H246  1  0.620600  0.195800  0.634800  1.0  0.1228
  H  H247  1  0.668100  0.256100  0.594300  1.0  0.0935
  H  H248  1  0.631800  0.490600  0.536600  1.0  0.0951
  H  H249  1  0.541000  0.525900  0.557500  1.0  0.1072
  H  H250  1  0.667400  0.494800  0.611200  1.0  0.1325
  H  H251  1  0.648500  0.545100  0.588500  1.0  0.1169
  H  H252  1  0.578100  0.531700  0.630300  1.0  0.1192
  H  H253  1  0.187500  0.749800  0.407200  1.0  0.0744
  H  H254  1  0.131000  0.687900  0.417500  1.0  0.1205
  H  H255  1  0.901400  0.779700  0.436900  1.0  0.127
  H  H256  1  0.967800  0.838000  0.423400  1.0  0.0757
  H  H257  1  0.006900  0.658100  0.444300  1.0  0.0767
  H  H258  1  0.919700  0.694700  0.468100  1.0  0.0715
  H  H259  1  0.213300  0.142200  0.608000  1.0  0.1186
  H  H260  1  0.339500  0.151800  0.563400  1.0  0.109
  H  H261  1  0.440500  0.091100  0.517100  1.0  0.1187
  H  H262  1  0.406800  0.021200  0.514000  1.0  0.1086
  H  H263  1  0.065600  0.909200  0.550800  1.0  0.099
  H  H264  1  0.134700  0.877600  0.574000  1.0  0.1122
  H  H265  1  0.040400  0.880200  0.642200  1.0  0.11
  H  H266  1  0.999200  0.869000  0.604600  1.0  0.0938
  H  H267  1  0.971100  0.920100  0.625300  1.0  0.1166
  H  H268  1  0.417900  0.805800  0.570800  1.0  0.1137
  H  H269  1  0.430600  0.728500  0.571300  1.0  0.1157
  H  H270  1  0.361900  0.698300  0.528300  1.0  0.1173
  H  H271  1  0.279000  0.749400  0.487600  1.0  0.0955
  H  H272  1  0.148500  0.959200  0.381400  1.0  0.0984
  H  H273  1  0.113000  0.001400  0.416800  1.0  0.1029
  H  H274  1  0.264300  0.004100  0.382700  1.0  0.1094
  H  H275  1  0.186400  0.034400  0.364800  1.0  0.1005
  H  H276  1  0.244200  0.986900  0.339500  1.0  0.1114
  H  H277  1  0.387800  0.981200  0.433600  1.0  0.0858
  H  H278  1  0.500300  0.980400  0.367200  1.0  0.1369
  H  H279  1  0.545400  0.844400  0.364600  1.0  0.1028
  H  H280  1  0.437400  0.847800  0.430400  1.0  0.0772
  H  H281  1  0.658500  0.876000  0.321200  1.0  0.0859
  H  H282  1  0.598000  0.903500  0.290900  1.0  0.0906
  H  H283  1  0.684900  0.192900  0.714100  1.0  0.1129
  H  H284  1  0.696700  0.184300  0.787300  1.0  0.1104
  H  H285  1  0.816400  0.134800  0.804200  1.0  0.1196
  H  H286  1  0.924200  0.094300  0.743900  1.0  0.0937
  H  H287  1  0.122400  0.036600  0.509400  1.0  0.0957
  H  H288  1  0.066900  0.057500  0.474100  1.0  0.1074
  H  H289  1  0.162200  0.111200  0.505200  1.0  0.1311
  H  H290  1  0.193600  0.088500  0.454900  1.0  0.1181
  H  H291  1  0.109800  0.130300  0.468300  1.0  0.1175
  H  H292  1  0.937300  0.907200  0.250200  1.0  0.075
  H  H293  1  0.818900  0.917500  0.312100  1.0  0.1212
  H  H294  1  0.681100  0.936900  0.220300  1.0  0.1278
  H  H295  1  0.805800  0.923400  0.162000  1.0  0.0786
  H  H296  1  0.665000  0.944300  0.341900  1.0  0.0755
  H  H297  1  0.614400  0.968100  0.305300  1.0  0.0682
  H  H298  1  0.463500  0.357800  0.892000  1.0  0.1165
  H  H299  1  0.554700  0.348200  0.936600  1.0  0.1095
  H  H300  1  0.548700  0.408900  0.982900  1.0  0.1196
  H  H301  1  0.442000  0.478800  0.986000  1.0  0.1093
  H  H302  1  0.025600  0.590800  0.949200  1.0  0.0991
  H  H303  1  0.086300  0.622400  0.926000  1.0  0.1108
  H  H304  1  0.062800  0.619800  0.857800  1.0  0.107
  H  H305  1  0.972800  0.631000  0.895400  1.0  0.095
  H  H306  1  0.016500  0.579900  0.874700  1.0  0.1161
  H  H307  1  0.294500  0.694200  0.929200  1.0  0.1142
  H  H308  1  0.230400  0.771500  0.928700  1.0  0.1151
  H  H309  1  0.088500  0.801700  0.971700  1.0  0.1157
  H  H310  1  0.016000  0.750600  0.012400  1.0  0.0956
  H  H311  1  0.989100  0.540800  0.118600  1.0  0.0995
  H  H312  1  0.031200  0.498600  0.083200  1.0  0.0981
  H  H313  1  0.151100  0.495900  0.117300  1.0  0.1079
  H  H314  1  0.085600  0.465600  0.135200  1.0  0.1
  H  H315  1  0.070600  0.513100  0.160500  1.0  0.1106
  H  H316  1  0.302600  0.518800  0.066400  1.0  0.0853
  H  H317  1  0.347900  0.519600  0.132800  1.0  0.1329
  H  H318  1  0.254400  0.655600  0.135400  1.0  0.1024
  H  H319  1  0.215600  0.652200  0.069600  1.0  0.0771
  H  H320  1  0.355700  0.624000  0.178800  1.0  0.0878
  H  H321  1  0.292400  0.596500  0.209100  1.0  0.0845
  H  H322  1  0.091900  0.307100  0.785900  1.0  0.1119
  H  H323  1  0.168300  0.315700  0.712700  1.0  0.1108
  H  H324  1  0.255400  0.365200  0.695800  1.0  0.1198
  H  H325  1  0.262400  0.405700  0.756100  1.0  0.0931
  H  H326  1  0.168400  0.463400  0.990600  1.0  0.0959
  H  H327  1  0.098500  0.442500  0.025900  1.0  0.1065
  H  H328  1  0.278600  0.388800  0.994800  1.0  0.129
  H  H329  1  0.237000  0.411500  0.045100  1.0  0.1201
  H  H330  1  0.208400  0.369700  0.031700  1.0  0.1186
  H  H331  1  0.594700  0.592800  0.249800  1.0  0.0747
  H  H332  1  0.548500  0.582500  0.187900  1.0  0.1206
  H  H333  1  0.338300  0.563100  0.279700  1.0  0.1272
  H  H334  1  0.391200  0.576600  0.338000  1.0  0.0755
  H  H335  1  0.451200  0.555700  0.158100  1.0  0.077
  H  H336  1  0.387800  0.531900  0.194700  1.0  0.0657
  C  C337  1  0.692960  0.912770  0.076110  1.0  0.3504
  C  C338  1  0.630150  0.911380  0.117720  1.0  -0.1934
  C  C339  1  0.549620  0.937430  0.123130  1.0  -0.0917
  C  C340  1  0.525370  0.965530  0.087330  1.0  -0.0961
  C  C341  1  0.587250  0.967430  0.045870  1.0  -0.0901
  C  C342  1  0.671060  0.942210  0.040670  1.0  -0.0835
  C  C343  1  0.733080  0.948480  0.998360  1.0  0.5148
  C  C344  1  0.943530  0.913750  0.946190  1.0  0.4636
  C  C345  1  0.011320  0.920700  0.904460  1.0  -0.2732
  C  C346  1  0.089060  0.884190  0.892490  1.0  -0.3347
  C  C347  1  0.832440  0.971530  0.825990  1.0  0.3498
  C  C348  1  0.816000  0.946650  0.794550  1.0  -0.1673
  C  C349  1  0.854210  0.946200  0.748580  1.0  -0.1287
  C  C350  1  0.913160  0.971420  0.730460  1.0  -0.1317
  C  C351  1  0.930850  0.995600  0.761100  1.0  -0.0261
  C  C352  1  0.892840  0.996900  0.807820  1.0  -0.1139
  C  C353  1  0.913860  0.025840  0.837040  1.0  0.5581
  C  C354  1  0.850750  0.064840  0.947860  1.0  0.4967
  C  C355  1  0.856570  0.099860  0.978400  1.0  -0.2173
  C  C356  1  0.777840  0.130660  0.002860  1.0  -0.3947
  C  C357  1  0.625350  0.079890  0.952410  1.0  0.1471
  C  C358  1  0.558140  0.119580  0.952340  1.0  -0.2787
  C  C359  1  0.550440  0.138760  0.909960  1.0  0.1209
  C  C360  1  0.610410  0.120910  0.873470  1.0  -0.1708
  C  C361  1  0.674070  0.081750  0.875710  1.0  0.1741
  C  C362  1  0.478370  0.181200  0.905460  1.0  -0.1412
  C  C363  1  0.051920  0.817230  0.149330  1.0  0.3076
  C  C364  1  0.092580  0.780250  0.172790  1.0  -0.1968
  C  C365  1  0.091060  0.736960  0.167520  1.0  -0.1302
  C  C366  1  0.049780  0.726590  0.138250  1.0  -0.1328
  C  C367  1  0.010320  0.762470  0.114490  1.0  -0.0242
  C  C368  1  0.011010  0.807510  0.118870  1.0  -0.1126
  C  C369  1  0.966690  0.844640  0.092180  1.0  0.5636
  C  C370  1  0.899380  0.961490  0.086350  1.0  0.5468
  C  C371  1  0.847440  0.000790  0.065330  1.0  -0.2947
  C  C372  1  0.753330  0.020060  0.102680  1.0  -0.35
  C  C373  1  0.202480  0.255710  0.913730  1.0  0.189
  C  C374  1  0.266490  0.218620  0.919600  1.0  -0.209
  C  C375  1  0.334550  0.226630  0.928470  1.0  0.0979
  C  C376  1  0.335900  0.272590  0.930610  1.0  -0.245
  C  C377  1  0.268720  0.306940  0.923420  1.0  0.187
  C  C378  1  0.407550  0.187260  0.939240  1.0  -0.1033
  C  C379  1  0.181840  0.587230  0.423890  1.0  0.3506
  C  C380  1  0.159250  0.588620  0.382280  1.0  -0.1955
  C  C381  1  0.110180  0.562570  0.376870  1.0  -0.0891
  C  C382  1  0.078230  0.534470  0.412670  1.0  -0.0954
  C  C383  1  0.100550  0.532570  0.454130  1.0  -0.0911
  C  C384  1  0.153940  0.557790  0.459330  1.0  -0.0846
  C  C385  1  0.179920  0.551520  0.501640  1.0  0.5152
  C  C386  1  0.303470  0.586250  0.553810  1.0  0.4638
  C  C387  1  0.336480  0.579300  0.595540  1.0  -0.2719
  C  C388  1  0.365740  0.615810  0.607510  1.0  -0.3343
  C  C389  1  0.129960  0.528470  0.674010  1.0  0.3512
  C  C390  1  0.057200  0.553350  0.705450  1.0  -0.1681
  C  C391  1  0.048990  0.553800  0.751420  1.0  -0.1296
  C  C392  1  0.115040  0.528580  0.769540  1.0  -0.1315
  C  C393  1  0.187550  0.504400  0.738900  1.0  -0.0298
  C  C394  1  0.197560  0.503100  0.692180  1.0  -0.114
  C  C395  1  0.276740  0.474160  0.662960  1.0  0.5584
  C  C396  1  0.363450  0.435160  0.552140  1.0  0.496
  C  C397  1  0.434830  0.400140  0.521600  1.0  -0.2198
  C  C398  1  0.411360  0.369340  0.497140  1.0  -0.3946
  C  C399  1  0.157650  0.420110  0.547590  1.0  0.1455
  C  C400  1  0.130060  0.380420  0.547660  1.0  -0.2801
  C  C401  1  0.099160  0.361240  0.590040  1.0  0.1214
  C  C402  1  0.104790  0.379090  0.626530  1.0  -0.1744
  C  C403  1  0.131530  0.418250  0.624290  1.0  0.1759
  C  C404  1  0.065030  0.318800  0.594540  1.0  -0.1443
  C  C405  1  0.518480  0.682770  0.350670  1.0  0.3074
  C  C406  1  0.545620  0.719750  0.327210  1.0  -0.1937
  C  C407  1  0.495540  0.763040  0.332480  1.0  -0.1295
  C  C408  1  0.414620  0.773410  0.361750  1.0  -0.1335
  C  C409  1  0.387280  0.737530  0.385510  1.0  -0.0233
  C  C410  1  0.437390  0.692490  0.381130  1.0  -0.1135
  C  C411  1  0.403510  0.655360  0.407820  1.0  0.5632
  C  C412  1  0.447220  0.538510  0.413650  1.0  0.5473
  C  C413  1  0.413560  0.499210  0.434670  1.0  -0.292
  C  C414  1  0.376070  0.479940  0.397320  1.0  -0.348
  C  C415  1  0.871920  0.244290  0.586270  1.0  0.19
  C  C416  1  0.904710  0.281380  0.580400  1.0  -0.2095
  C  C417  1  0.989650  0.273370  0.571530  1.0  0.098
  C  C418  1  0.039100  0.227410  0.569390  1.0  -0.2457
  C  C419  1  0.999080  0.193060  0.576580  1.0  0.1858
  C  C420  1  0.034050  0.312740  0.560760  1.0  -0.1029
  C  C421  1  0.769070  0.923890  0.412770  1.0  0.3499
  C  C422  1  0.747870  0.882280  0.411380  1.0  -0.1949
  C  C423  1  0.672750  0.876870  0.437430  1.0  -0.0966
  C  C424  1  0.612700  0.912670  0.465530  1.0  -0.0993
  C  C425  1  0.633120  0.954130  0.467430  1.0  -0.0901
  C  C426  1  0.711730  0.959330  0.442210  1.0  -0.0828
  C  C427  1  0.731440  0.001640  0.448480  1.0  0.5138
  C  C428  1  0.889720  0.053810  0.413750  1.0  0.462
  C  C429  1  0.915780  0.095540  0.420700  1.0  -0.2716
  C  C430  1  0.981550  0.107510  0.384190  1.0  -0.3308
  C  C431  1  0.658430  0.174010  0.471530  1.0  0.3451
  C  C432  1  0.610550  0.205450  0.446650  1.0  -0.1644
  C  C433  1  0.602790  0.251420  0.446200  1.0  -0.1294
  C  C434  1  0.643620  0.269540  0.471420  1.0  -0.1351
  C  C435  1  0.691950  0.238900  0.495600  1.0  -0.0265
  C  C436  1  0.700660  0.192180  0.496900  1.0  -0.1131
  C  C437  1  0.750900  0.162960  0.525840  1.0  0.5589
  C  C438  1  0.798610  0.052140  0.564840  1.0  0.4983
  C  C439  1  0.834970  0.021600  0.599860  1.0  -0.2173
  C  C440  1  0.780700  0.997140  0.630660  1.0  -0.3971
  C  C441  1  0.577760  0.047590  0.579890  1.0  0.1431
  C  C442  1  0.510480  0.047660  0.619580  1.0  -0.2824
  C  C443  1  0.460400  0.090040  0.638760  1.0  0.1193
  C  C444  1  0.483880  0.126530  0.620910  1.0  -0.1785
  C  C445  1  0.549780  0.124290  0.581750  1.0  0.173
  C  C446  1  0.383830  0.094540  0.681200  1.0  -0.1464
  C  C447  1  0.201250  0.850670  0.317230  1.0  0.3119
  C  C448  1  0.265370  0.827210  0.280250  1.0  -0.1915
  C  C449  1  0.258580  0.832480  0.236960  1.0  -0.1311
  C  C450  1  0.188030  0.861750  0.226590  1.0  -0.1295
  C  C451  1  0.124810  0.885510  0.262470  1.0  -0.0235
  C  C452  1  0.129880  0.881130  0.307510  1.0  -0.1127
  C  C453  1  0.058870  0.907820  0.344640  1.0  0.5637
  C  C454  1  0.985730  0.913650  0.461490  1.0  0.5466
  C  C455  1  0.912770  0.934670  0.500790  1.0  -0.2884
  C  C456  1  0.856010  0.897320  0.520060  1.0  -0.3488
  C  C457  1  0.116210  0.086270  0.755710  1.0  0.1894
  C  C458  1  0.186090  0.080400  0.718620  1.0  -0.2072
  C  C459  1  0.263020  0.071530  0.726630  1.0  0.0983
  C  C460  1  0.266510  0.069390  0.772590  1.0  -0.2446
  C  C461  1  0.192140  0.076580  0.806940  1.0  0.1879
  C  C462  1  0.346790  0.060760  0.687260  1.0  -0.1043
  C  C463  1  0.605730  0.576110  0.087230  1.0  0.3508
  C  C464  1  0.541530  0.617720  0.088620  1.0  -0.1909
  C  C465  1  0.487050  0.623130  0.062570  1.0  -0.0936
  C  C466  1  0.490900  0.587330  0.034470  1.0  -0.094
  C  C467  1  0.554680  0.545870  0.032570  1.0  -0.0898
  C  C468  1  0.613270  0.540670  0.057790  1.0  -0.0827
  C  C469  1  0.681560  0.498360  0.051520  1.0  0.5147
  C  C470  1  0.857280  0.446190  0.086250  1.0  0.4615
  C  C471  1  0.932020  0.404460  0.079300  1.0  -0.2715
  C  C472  1  0.973250  0.392490  0.115810  1.0  -0.3333
  C  C473  1  0.803970  0.325990  0.028470  1.0  0.347
  C  C474  1  0.762650  0.294550  0.053350  1.0  -0.1704
  C  C475  1  0.800410  0.248580  0.053800  1.0  -0.1314
  C  C476  1  0.884580  0.230460  0.028580  1.0  -0.1361
  C  C477  1  0.926450  0.261100  0.004400  1.0  -0.0288
  C  C478  1  0.889740  0.307820  0.003100  1.0  -0.1146
  C  C479  1  0.939700  0.337040  0.974160  1.0  0.5583
  C  C480  1  0.915590  0.447860  0.935160  1.0  0.4977
  C  C481  1  0.956430  0.478400  0.900140  1.0  -0.2201
  C  C482  1  0.908500  0.502860  0.869340  1.0  -0.3947
  C  C483  1  0.705240  0.452410  0.920110  1.0  0.1459
  C  C484  1  0.677720  0.452340  0.880420  1.0  -0.284
  C  C485  1  0.689200  0.409960  0.861240  1.0  0.1225
  C  C486  1  0.731320  0.373470  0.879090  1.0  -0.175
  C  C487  1  0.755820  0.375710  0.918250  1.0  0.1765
  C  C488  1  0.659570  0.405460  0.818800  1.0  -0.1432
  C  C489  1  0.869150  0.649330  0.182770  1.0  0.3103
  C  C490  1  0.872830  0.672790  0.219750  1.0  -0.1943
  C  C491  1  0.828020  0.667520  0.263040  1.0  -0.1309
  C  C492  1  0.776370  0.638250  0.273410  1.0  -0.1312
  C  C493  1  0.772790  0.614490  0.237530  1.0  -0.0235
  C  C494  1  0.818520  0.618870  0.192490  1.0  -0.1132
  C  C495  1  0.811330  0.592180  0.155360  1.0  0.5643
  C  C496  1  0.860870  0.586350  0.038510  1.0  0.5476
  C  C497  1  0.848230  0.565330  0.999210  1.0  -0.294
  C  C498  1  0.773390  0.602680  0.979940  1.0  -0.3481
  C  C499  1  0.458190  0.413730  0.744290  1.0  0.1901
  C  C500  1  0.485110  0.419600  0.781380  1.0  -0.2097
  C  C501  1  0.561180  0.428470  0.773370  1.0  0.0991
  C  C502  1  0.608490  0.430610  0.727410  1.0  -0.246
  C  C503  1  0.575660  0.423420  0.693060  1.0  0.1889
  C  C504  1  0.594810  0.439240  0.812740  1.0  -0.1043
  C  C505  1  0.307040  0.087230  0.923890  1.0  0.3498
  C  C506  1  0.369850  0.088620  0.882280  1.0  -0.1935
  C  C507  1  0.450380  0.062570  0.876870  1.0  -0.0912
  C  C508  1  0.474630  0.034470  0.912670  1.0  -0.0955
  C  C509  1  0.412750  0.032570  0.954130  1.0  -0.0927
  C  C510  1  0.328940  0.057790  0.959330  1.0  -0.0826
  C  C511  1  0.266920  0.051520  0.001640  1.0  0.5149
  C  C512  1  0.056470  0.086250  0.053810  1.0  0.4623
  C  C513  1  0.988680  0.079300  0.095540  1.0  -0.2724
  C  C514  1  0.910940  0.115810  0.107510  1.0  -0.3322
  C  C515  1  0.167560  0.028470  0.174010  1.0  0.3509
  C  C516  1  0.184000  0.053350  0.205450  1.0  -0.1656
  C  C517  1  0.145790  0.053800  0.251420  1.0  -0.1293
  C  C518  1  0.086840  0.028580  0.269540  1.0  -0.1322
  C  C519  1  0.069150  0.004400  0.238900  1.0  -0.0273
  C  C520  1  0.107160  0.003100  0.192180  1.0  -0.1127
  C  C521  1  0.086140  0.974160  0.162960  1.0  0.5594
  C  C522  1  0.149250  0.935160  0.052140  1.0  0.4981
  C  C523  1  0.143430  0.900140  0.021600  1.0  -0.2168
  C  C524  1  0.222160  0.869340  0.997140  1.0  -0.3947
  C  C525  1  0.374650  0.920110  0.047590  1.0  0.1465
  C  C526  1  0.441860  0.880420  0.047660  1.0  -0.2784
  C  C527  1  0.449560  0.861240  0.090040  1.0  0.1207
  C  C528  1  0.389590  0.879090  0.126530  1.0  -0.1697
  C  C529  1  0.325930  0.918250  0.124290  1.0  0.1749
  C  C530  1  0.521630  0.818800  0.094540  1.0  -0.1405
  C  C531  1  0.948080  0.182770  0.850670  1.0  0.3075
  C  C532  1  0.907420  0.219750  0.827210  1.0  -0.1978
  C  C533  1  0.908940  0.263040  0.832480  1.0  -0.1301
  C  C534  1  0.950220  0.273410  0.861750  1.0  -0.1323
  C  C535  1  0.989680  0.237530  0.885510  1.0  -0.0247
  C  C536  1  0.988990  0.192490  0.881130  1.0  -0.1135
  C  C537  1  0.033310  0.155360  0.907820  1.0  0.5626
  C  C538  1  0.100620  0.038510  0.913650  1.0  0.5467
  C  C539  1  0.152560  0.999210  0.934670  1.0  -0.2949
  C  C540  1  0.246670  0.979940  0.897320  1.0  -0.3473
  C  C541  1  0.797520  0.744290  0.086270  1.0  0.1902
  C  C542  1  0.733510  0.781380  0.080400  1.0  -0.207
  C  C543  1  0.665450  0.773370  0.071530  1.0  0.0987
  C  C544  1  0.664100  0.727410  0.069390  1.0  -0.2436
  C  C545  1  0.731280  0.693060  0.076580  1.0  0.1852
  C  C546  1  0.592450  0.812740  0.060760  1.0  -0.101
  C  C547  1  0.818160  0.412770  0.576110  1.0  0.3505
  C  C548  1  0.840750  0.411380  0.617720  1.0  -0.1952
  C  C549  1  0.889820  0.437430  0.623130  1.0  -0.0904
  C  C550  1  0.921770  0.465530  0.587330  1.0  -0.0948
  C  C551  1  0.899450  0.467430  0.545870  1.0  -0.0892
  C  C552  1  0.846060  0.442210  0.540670  1.0  -0.0836
  C  C553  1  0.820080  0.448480  0.498360  1.0  0.5154
  C  C554  1  0.696530  0.413750  0.446190  1.0  0.4663
  C  C555  1  0.663520  0.420700  0.404460  1.0  -0.2711
  C  C556  1  0.634260  0.384190  0.392490  1.0  -0.3332
  C  C557  1  0.870040  0.471530  0.325990  1.0  0.3491
  C  C558  1  0.942800  0.446650  0.294550  1.0  -0.1644
  C  C559  1  0.951010  0.446200  0.248580  1.0  -0.1298
  C  C560  1  0.884960  0.471420  0.230460  1.0  -0.1308
  C  C561  1  0.812450  0.495600  0.261100  1.0  -0.0287
  C  C562  1  0.802440  0.496900  0.307820  1.0  -0.1149
  C  C563  1  0.723260  0.525840  0.337040  1.0  0.5592
  C  C564  1  0.636550  0.564840  0.447860  1.0  0.4955
  C  C565  1  0.565170  0.599860  0.478400  1.0  -0.2197
  C  C566  1  0.588640  0.630660  0.502860  1.0  -0.3961
  C  C567  1  0.842350  0.579890  0.452410  1.0  0.1454
  C  C568  1  0.869940  0.619580  0.452340  1.0  -0.28
  C  C569  1  0.900840  0.638760  0.409960  1.0  0.1215
  C  C570  1  0.895210  0.620910  0.373470  1.0  -0.1725
  C  C571  1  0.868470  0.581750  0.375710  1.0  0.1758
  C  C572  1  0.934970  0.681200  0.405460  1.0  -0.143
  C  C573  1  0.481520  0.317230  0.649330  1.0  0.3064
  C  C574  1  0.454380  0.280250  0.672790  1.0  -0.1954
  C  C575  1  0.504460  0.236960  0.667520  1.0  -0.1284
  C  C576  1  0.585380  0.226590  0.638250  1.0  -0.1328
  C  C577  1  0.612720  0.262470  0.614490  1.0  -0.0242
  C  C578  1  0.562610  0.307510  0.618870  1.0  -0.1127
  C  C579  1  0.596490  0.344640  0.592180  1.0  0.5631
  C  C580  1  0.552780  0.461490  0.586350  1.0  0.547
  C  C581  1  0.586440  0.500790  0.565330  1.0  -0.2952
  C  C582  1  0.623930  0.520060  0.602680  1.0  -0.3507
  C  C583  1  0.128080  0.755710  0.413730  1.0  0.1925
  C  C584  1  0.095290  0.718620  0.419600  1.0  -0.2084
  C  C585  1  0.010350  0.726630  0.428470  1.0  0.0985
  C  C586  1  0.960900  0.772590  0.430610  1.0  -0.2444
  C  C587  1  0.000920  0.806940  0.423420  1.0  0.1861
  C  C588  1  0.965950  0.687260  0.439240  1.0  -0.1037
  C  C589  1  0.230930  0.076110  0.587230  1.0  0.3493
  C  C590  1  0.252130  0.117720  0.588620  1.0  -0.1947
  C  C591  1  0.327250  0.123130  0.562570  1.0  -0.0941
  C  C592  1  0.387300  0.087330  0.534470  1.0  -0.0981
  C  C593  1  0.366880  0.045870  0.532570  1.0  -0.0889
  C  C594  1  0.288270  0.040670  0.557790  1.0  -0.0829
  C  C595  1  0.268560  0.998360  0.551520  1.0  0.5144
  C  C596  1  0.110280  0.946190  0.586250  1.0  0.4641
  C  C597  1  0.084220  0.904460  0.579300  1.0  -0.2709
  C  C598  1  0.018450  0.892490  0.615810  1.0  -0.3313
  C  C599  1  0.341570  0.825990  0.528470  1.0  0.3494
  C  C600  1  0.389450  0.794550  0.553350  1.0  -0.1643
  C  C601  1  0.397210  0.748580  0.553800  1.0  -0.1293
  C  C602  1  0.356380  0.730460  0.528580  1.0  -0.1362
  C  C603  1  0.308050  0.761100  0.504400  1.0  -0.0253
  C  C604  1  0.299340  0.807820  0.503100  1.0  -0.1138
  C  C605  1  0.249100  0.837040  0.474160  1.0  0.5597
  C  C606  1  0.201390  0.947860  0.435160  1.0  0.4983
  C  C607  1  0.165030  0.978400  0.400140  1.0  -0.217
  C  C608  1  0.219300  0.002860  0.369340  1.0  -0.398
  C  C609  1  0.422240  0.952410  0.420110  1.0  0.1434
  C  C610  1  0.489520  0.952340  0.380420  1.0  -0.2813
  C  C611  1  0.539600  0.909960  0.361240  1.0  0.1199
  C  C612  1  0.516120  0.873470  0.379090  1.0  -0.1758
  C  C613  1  0.450220  0.875710  0.418250  1.0  0.1737
  C  C614  1  0.616170  0.905460  0.318800  1.0  -0.1442
  C  C615  1  0.798750  0.149330  0.682770  1.0  0.3114
  C  C616  1  0.734630  0.172790  0.719750  1.0  -0.1928
  C  C617  1  0.741420  0.167520  0.763040  1.0  -0.1311
  C  C618  1  0.811970  0.138250  0.773410  1.0  -0.1299
  C  C619  1  0.875190  0.114490  0.737530  1.0  -0.0247
  C  C620  1  0.870120  0.118870  0.692490  1.0  -0.1125
  C  C621  1  0.941130  0.092180  0.655360  1.0  0.5644
  C  C622  1  0.014270  0.086350  0.538510  1.0  0.5461
  C  C623  1  0.087230  0.065330  0.499210  1.0  -0.2926
  C  C624  1  0.143990  0.102680  0.479940  1.0  -0.3486
  C  C625  1  0.883790  0.913730  0.244290  1.0  0.1908
  C  C626  1  0.813910  0.919600  0.281380  1.0  -0.2067
  C  C627  1  0.736980  0.928470  0.273370  1.0  0.0994
  C  C628  1  0.733490  0.930610  0.227410  1.0  -0.2443
  C  C629  1  0.807860  0.923420  0.193060  1.0  0.1869
  C  C630  1  0.653210  0.939240  0.312740  1.0  -0.1043
  C  C631  1  0.394270  0.423890  0.912770  1.0  0.3508
  C  C632  1  0.458470  0.382280  0.911380  1.0  -0.1906
  C  C633  1  0.512950  0.376870  0.937430  1.0  -0.0952
  C  C634  1  0.509100  0.412670  0.965530  1.0  -0.0934
  C  C635  1  0.445320  0.454130  0.967430  1.0  -0.091
  C  C636  1  0.386730  0.459330  0.942210  1.0  -0.0826
  C  C637  1  0.318440  0.501640  0.948480  1.0  0.5152
  C  C638  1  0.142720  0.553810  0.913750  1.0  0.4609
  C  C639  1  0.067980  0.595540  0.920700  1.0  -0.271
  C  C640  1  0.026750  0.607510  0.884190  1.0  -0.3314
  C  C641  1  0.196030  0.674010  0.971530  1.0  0.3458
  C  C642  1  0.237350  0.705450  0.946650  1.0  -0.1688
  C  C643  1  0.199590  0.751420  0.946200  1.0  -0.1289
  C  C644  1  0.115420  0.769540  0.971420  1.0  -0.1381
  C  C645  1  0.073550  0.738900  0.995600  1.0  -0.0287
  C  C646  1  0.110260  0.692180  0.996900  1.0  -0.1124
  C  C647  1  0.060300  0.662960  0.025840  1.0  0.5593
  C  C648  1  0.084410  0.552140  0.064840  1.0  0.4984
  C  C649  1  0.043570  0.521600  0.099860  1.0  -0.2173
  C  C650  1  0.091500  0.497140  0.130660  1.0  -0.3936
  C  C651  1  0.294760  0.547590  0.079890  1.0  0.145
  C  C652  1  0.322280  0.547660  0.119580  1.0  -0.2839
  C  C653  1  0.310800  0.590040  0.138760  1.0  0.1205
  C  C654  1  0.268680  0.626530  0.120910  1.0  -0.176
  C  C655  1  0.244180  0.624290  0.081750  1.0  0.1746
  C  C656  1  0.340430  0.594540  0.181200  1.0  -0.1436
  C  C657  1  0.130850  0.350670  0.817230  1.0  0.3101
  C  C658  1  0.127170  0.327210  0.780250  1.0  -0.1943
  C  C659  1  0.171980  0.332480  0.736960  1.0  -0.1312
  C  C660  1  0.223630  0.361750  0.726590  1.0  -0.1313
  C  C661  1  0.227210  0.385510  0.762470  1.0  -0.0239
  C  C662  1  0.181480  0.381130  0.807510  1.0  -0.1124
  C  C663  1  0.188670  0.407820  0.844640  1.0  0.5634
  C  C664  1  0.139130  0.413650  0.961490  1.0  0.5472
  C  C665  1  0.151770  0.434670  0.000790  1.0  -0.2904
  C  C666  1  0.226610  0.397320  0.020060  1.0  -0.3498
  C  C667  1  0.541810  0.586270  0.255710  1.0  0.1923
  C  C668  1  0.514890  0.580400  0.218620  1.0  -0.2071
  C  C669  1  0.438820  0.571530  0.226630  1.0  0.0993
  C  C670  1  0.391510  0.569390  0.272590  1.0  -0.2443
  C  C671  1  0.424340  0.576580  0.306940  1.0  0.1892
  C  C672  1  0.405190  0.560760  0.187260  1.0  -0.1032
  N  N673  1  0.813270  0.926390  0.992370  1.0  -0.2183
  N  N674  1  0.866580  0.937780  0.950200  1.0  -0.2869
  N  N675  1  0.872560  0.030580  0.881680  1.0  -0.2901
  N  N676  1  0.891350  0.063110  0.904710  1.0  -0.2464
  N  N677  1  0.681030  0.060560  0.914180  1.0  -0.2988
  N  N678  1  0.958950  0.888100  0.099280  1.0  -0.2344
  N  N679  1  0.912910  0.919410  0.072770  1.0  -0.2292
  N  N680  1  0.202060  0.299230  0.916650  1.0  -0.3217
  N  N681  1  0.232030  0.573610  0.507630  1.0  -0.2181
  N  N682  1  0.254560  0.562220  0.549800  1.0  -0.2881
  N  N683  1  0.284820  0.469420  0.618320  1.0  -0.2903
  N  N684  1  0.359170  0.436890  0.595290  1.0  -0.2471
  N  N685  1  0.155770  0.439440  0.585820  1.0  -0.3005
  N  N686  1  0.446330  0.611900  0.400720  1.0  -0.2345
  N  N687  1  0.405090  0.580590  0.427230  1.0  -0.2309
  N  N688  1  0.917940  0.200770  0.583350  1.0  -0.3222
  N  N689  1  0.805640  0.007630  0.426390  1.0  -0.2155
  N  N690  1  0.816780  0.049800  0.437780  1.0  -0.2859
  N  N691  1  0.754240  0.118320  0.530580  1.0  -0.2881
  N  N692  1  0.796060  0.095290  0.563110  1.0  -0.248
  N  N693  1  0.595210  0.085820  0.560560  1.0  -0.3018
  N  N694  1  0.058230  0.900720  0.388100  1.0  -0.2339
  N  N695  1  0.985680  0.927230  0.419410  1.0  -0.2312
  N  N696  1  0.118710  0.083350  0.799230  1.0  -0.322
  N  N697  1  0.739660  0.492370  0.073610  1.0  -0.2155
  N  N698  1  0.804360  0.450200  0.062220  1.0  -0.2872
  N  N699  1  0.903140  0.381680  0.969420  1.0  -0.2903
  N  N700  1  0.954460  0.404710  0.936890  1.0  -0.2459
  N  N701  1  0.741590  0.414180  0.939440  1.0  -0.3034
  N  N702  1  0.847050  0.599280  0.111900  1.0  -0.2352
  N  N703  1  0.832320  0.572770  0.080590  1.0  -0.2295
  N  N704  1  0.501290  0.416650  0.700770  1.0  -0.3226
  N  N705  1  0.186730  0.073610  0.007630  1.0  -0.2177
  N  N706  1  0.133420  0.062220  0.049800  1.0  -0.2879
  N  N707  1  0.127440  0.969420  0.118320  1.0  -0.2906
  N  N708  1  0.108650  0.936890  0.095290  1.0  -0.247
  N  N709  1  0.318970  0.939440  0.085820  1.0  -0.3009
  N  N710  1  0.041050  0.111900  0.900720  1.0  -0.2343
  N  N711  1  0.087090  0.080590  0.927230  1.0  -0.2303
  N  N712  1  0.797940  0.700770  0.083350  1.0  -0.3217
  N  N713  1  0.767970  0.426390  0.492370  1.0  -0.218
  N  N714  1  0.745440  0.437780  0.450200  1.0  -0.2899
  N  N715  1  0.715180  0.530580  0.381680  1.0  -0.2921
  N  N716  1  0.640830  0.563110  0.404710  1.0  -0.2483
  N  N717  1  0.844230  0.560560  0.414180  1.0  -0.2993
  N  N718  1  0.553670  0.388100  0.599280  1.0  -0.2341
  N  N719  1  0.594910  0.419410  0.572770  1.0  -0.2306
  N  N720  1  0.082060  0.799230  0.416650  1.0  -0.322
  N  N721  1  0.194360  0.992370  0.573610  1.0  -0.2142
  N  N722  1  0.183220  0.950200  0.562220  1.0  -0.286
  N  N723  1  0.245760  0.881680  0.469420  1.0  -0.2909
  N  N724  1  0.203940  0.904710  0.436890  1.0  -0.2478
  N  N725  1  0.404790  0.914180  0.439440  1.0  -0.3013
  N  N726  1  0.941770  0.099280  0.611900  1.0  -0.2335
  N  N727  1  0.014320  0.072770  0.580590  1.0  -0.23
  N  N728  1  0.881290  0.916650  0.200770  1.0  -0.3212
  N  N729  1  0.260340  0.507630  0.926390  1.0  -0.2142
  N  N730  1  0.195640  0.549800  0.937780  1.0  -0.288
  N  N731  1  0.096860  0.618320  0.030580  1.0  -0.2907
  N  N732  1  0.045540  0.595290  0.063110  1.0  -0.2469
  N  N733  1  0.258410  0.585820  0.060560  1.0  -0.3051
  N  N734  1  0.152950  0.400720  0.888100  1.0  -0.235
  N  N735  1  0.167680  0.427230  0.919410  1.0  -0.2309
  N  N736  1  0.498710  0.583350  0.299230  1.0  -0.322
  O  O737  1  0.769200  0.884260  0.073320  1.0  -0.5644
  O  O738  1  0.707590  0.976820  0.967780  1.0  -0.5772
  O  O739  1  0.965000  0.882940  0.976300  1.0  -0.59
  O  O740  1  0.790830  0.970680  0.869800  1.0  -0.5873
  O  O741  1  0.968950  0.047910  0.818670  1.0  -0.5747
  O  O742  1  0.802640  0.037890  0.965730  1.0  -0.5894
  O  O743  1  0.057130  0.859540  0.157100  1.0  -0.5643
  O  O744  1  0.935130  0.832350  0.062550  1.0  -0.5832
  O  O745  1  0.929250  0.970960  0.118420  1.0  -0.5902
  O  O746  1  0.226780  0.615740  0.426680  1.0  -0.5644
  O  O747  1  0.152190  0.523180  0.532220  1.0  -0.5762
  O  O748  1  0.324240  0.617060  0.523700  1.0  -0.5887
  O  O749  1  0.131310  0.529320  0.630200  1.0  -0.5899
  O  O750  1  0.335530  0.452090  0.681330  1.0  -0.577
  O  O751  1  0.306260  0.462110  0.534270  1.0  -0.5884
  O  O752  1  0.573770  0.640460  0.342900  1.0  -0.5642
  O  O753  1  0.330030  0.667650  0.437450  1.0  -0.5824
  O  O754  1  0.518630  0.529040  0.381580  1.0  -0.5869
  O  O755  1  0.842520  0.926680  0.384260  1.0  -0.5625
  O  O756  1  0.675370  0.032220  0.476820  1.0  -0.5761
  O  O757  1  0.941300  0.023700  0.382940  1.0  -0.5869
  O  O758  1  0.660630  0.130200  0.470680  1.0  -0.5851
  O  O759  1  0.787620  0.181330  0.547910  1.0  -0.5767
  O  O760  1  0.768370  0.034270  0.537890  1.0  -0.5894
  O  O761  1  0.214230  0.842900  0.359540  1.0  -0.5657
  O  O762  1  0.997680  0.937450  0.332350  1.0  -0.5843
  O  O763  1  0.047670  0.881580  0.470960  1.0  -0.5881
  O  O764  1  0.653460  0.573320  0.115740  1.0  -0.5663
  O  O765  1  0.684410  0.467780  0.023180  1.0  -0.5756
  O  O766  1  0.847940  0.476300  0.117060  1.0  -0.5874
  O  O767  1  0.761510  0.369800  0.029320  1.0  -0.5826
  O  O768  1  0.016860  0.318670  0.952090  1.0  -0.5756
  O  O769  1  0.840530  0.465730  0.962110  1.0  -0.5893
  O  O770  1  0.916670  0.657100  0.140460  1.0  -0.5654
  O  O771  1  0.767480  0.562550  0.167650  1.0  -0.5808
  O  O772  1  0.900210  0.618420  0.029040  1.0  -0.5873
  O  O773  1  0.230800  0.115740  0.926680  1.0  -0.5642
  O  O774  1  0.292410  0.023180  0.032220  1.0  -0.579
  O  O775  1  0.035000  0.117060  0.023700  1.0  -0.5887
  O  O776  1  0.209170  0.029320  0.130200  1.0  -0.5861
  O  O777  1  0.031050  0.952090  0.181330  1.0  -0.5761
  O  O778  1  0.197360  0.962110  0.034270  1.0  -0.5881
  O  O779  1  0.942870  0.140460  0.842900  1.0  -0.5635
  O  O780  1  0.064870  0.167650  0.937450  1.0  -0.583
  O  O781  1  0.070750  0.029040  0.881580  1.0  -0.5883
  O  O782  1  0.773220  0.384260  0.573320  1.0  -0.5635
  O  O783  1  0.847810  0.476820  0.467780  1.0  -0.577
  O  O784  1  0.675760  0.382940  0.476300  1.0  -0.5888
  O  O785  1  0.868690  0.470680  0.369800  1.0  -0.5895
  O  O786  1  0.664470  0.547910  0.318670  1.0  -0.5782
  O  O787  1  0.693740  0.537890  0.465730  1.0  -0.5886
  O  O788  1  0.426230  0.359540  0.657100  1.0  -0.5638
  O  O789  1  0.669970  0.332350  0.562550  1.0  -0.5824
  O  O790  1  0.481370  0.470960  0.618420  1.0  -0.5886
  O  O791  1  0.157480  0.073320  0.615740  1.0  -0.5633
  O  O792  1  0.324630  0.967780  0.523180  1.0  -0.5785
  O  O793  1  0.058700  0.976300  0.617060  1.0  -0.5852
  O  O794  1  0.339370  0.869800  0.529320  1.0  -0.5768
  O  O795  1  0.212380  0.818670  0.452090  1.0  -0.5769
  O  O796  1  0.231630  0.965730  0.462110  1.0  -0.5874
  O  O797  1  0.785770  0.157100  0.640460  1.0  -0.5665
  O  O798  1  0.002320  0.062550  0.667650  1.0  -0.5847
  O  O799  1  0.952330  0.118420  0.529040  1.0  -0.5896
  O  O800  1  0.346540  0.426680  0.884260  1.0  -0.5662
  O  O801  1  0.315590  0.532220  0.976820  1.0  -0.5763
  O  O802  1  0.152060  0.523700  0.882940  1.0  -0.5886
  O  O803  1  0.238490  0.630200  0.970680  1.0  -0.582
  O  O804  1  0.983140  0.681330  0.047910  1.0  -0.5772
  O  O805  1  0.159470  0.534270  0.037890  1.0  -0.5891
  O  O806  1  0.083330  0.342900  0.859540  1.0  -0.5664
  O  O807  1  0.232520  0.437450  0.832350  1.0  -0.5822
  O  O808  1  0.099790  0.381580  0.970960  1.0  -0.5862
