# generated using pymatgen
data_Mn3H39C42N8O9
_symmetry_space_group_name_H-M   'P 1'
_cell_length_a   17.41320000
_cell_length_b   30.00580000
_cell_length_c   30.00580000
_cell_angle_alpha   85.17020000
_cell_angle_beta   73.13220000
_cell_angle_gamma   73.13220000
_symmetry_Int_Tables_number   1
_chemical_formula_structural   Mn3H39C42N8O9
_chemical_formula_sum   'Mn24 H312 C336 N64 O72'
_cell_volume   14357.93004393
_cell_formula_units_Z   8
loop_
 _symmetry_equiv_pos_site_id
 _symmetry_equiv_pos_as_xyz
  1  'x, y, z'
loop_
 _atom_site_type_symbol
 _atom_site_label
 _atom_site_symmetry_multiplicity
 _atom_site_fract_x
 _atom_site_fract_y
 _atom_site_fract_z
 _atom_site_occupancy
 _atom_site_charge
  Mn  Mn1  1  0.373120  0.879480  0.028940  1.0  0.9897
  Mn  Mn2  1  0.293250  0.001810  0.920770  1.0  0.9757
  Mn  Mn3  1  0.496750  0.915960  0.142780  1.0  0.9718
  Mn  Mn4  1  0.781540  0.620520  0.471060  1.0  0.9928
  Mn  Mn5  1  0.715830  0.498190  0.579230  1.0  0.9739
  Mn  Mn6  1  0.055490  0.584040  0.357220  1.0  0.9714
  Mn  Mn7  1  0.402060  0.971060  0.379480  1.0  0.9894
  Mn  Mn8  1  0.214020  0.079230  0.501810  1.0  0.9798
  Mn  Mn9  1  0.639530  0.857220  0.415960  1.0  0.9707
  Mn  Mn10  1  0.252600  0.528940  0.120520  1.0  0.9929
  Mn  Mn11  1  0.295060  0.420770  0.998190  1.0  0.9745
  Mn  Mn12  1  0.412710  0.642780  0.084040  1.0  0.9692
  Mn  Mn13  1  0.626880  0.120520  0.971060  1.0  0.9913
  Mn  Mn14  1  0.706750  0.998190  0.079230  1.0  0.9764
  Mn  Mn15  1  0.503250  0.084040  0.857220  1.0  0.972
  Mn  Mn16  1  0.218460  0.379480  0.528940  1.0  0.9916
  Mn  Mn17  1  0.284170  0.501810  0.420770  1.0  0.9718
  Mn  Mn18  1  0.944510  0.415960  0.642780  1.0  0.9725
  Mn  Mn19  1  0.597940  0.028940  0.620520  1.0  0.9887
  Mn  Mn20  1  0.785980  0.920770  0.498190  1.0  0.9753
  Mn  Mn21  1  0.360470  0.142780  0.584040  1.0  0.9699
  Mn  Mn22  1  0.747400  0.471060  0.879480  1.0  0.995
  Mn  Mn23  1  0.704940  0.579230  0.001810  1.0  0.975
  Mn  Mn24  1  0.587290  0.357220  0.915960  1.0  0.9705
  H  H25  1  0.146300  0.890800  0.143000  1.0  0.1089
  H  H26  1  0.013200  0.934200  0.151000  1.0  0.1053
  H  H27  1  0.972700  0.978600  0.091400  1.0  0.1261
  H  H28  1  0.078100  0.983200  0.020400  1.0  0.113
  H  H29  1  0.523000  0.951700  0.907100  1.0  0.0963
  H  H30  1  0.487100  0.926800  0.876000  1.0  0.1093
  H  H31  1  0.582600  0.859700  0.876300  1.0  0.1094
  H  H32  1  0.633200  0.897600  0.870200  1.0  0.1105
  H  H33  1  0.605300  0.874200  0.920000  1.0  0.1107
  H  H34  1  0.281200  0.927800  0.806000  1.0  0.113
  H  H35  1  0.344300  0.927600  0.727400  1.0  0.1219
  H  H36  1  0.440700  0.971100  0.697300  1.0  0.1212
  H  H37  1  0.474700  0.010700  0.748100  1.0  0.0926
  H  H38  1  0.380900  0.125600  0.958400  1.0  0.1173
  H  H39  1  0.394900  0.086600  0.997200  1.0  0.1109
  H  H40  1  0.244000  0.105100  0.025500  1.0  0.123
  H  H41  1  0.285100  0.143500  0.034700  1.0  0.1211
  H  H42  1  0.242200  0.150500  0.993100  1.0  0.1274
  H  H43  1  0.133400  0.068800  0.980400  1.0  0.0853
  H  H44  1  0.026900  0.137900  0.977900  1.0  0.133
  H  H45  1  0.110000  0.133100  0.842100  1.0  0.1015
  H  H46  1  0.212600  0.067100  0.848900  1.0  0.0663
  H  H47  1  0.966500  0.174800  0.870400  1.0  0.0882
  H  H48  1  0.999900  0.207900  0.894500  1.0  0.0865
  H  H49  1  0.616500  0.784300  0.196900  1.0  0.107
  H  H50  1  0.612600  0.709800  0.188400  1.0  0.1189
  H  H51  1  0.545000  0.693900  0.136300  1.0  0.1234
  H  H52  1  0.483800  0.754200  0.094600  1.0  0.0896
  H  H53  1  0.345600  0.991600  0.035800  1.0  0.1064
  H  H54  1  0.378200  0.027100  0.057700  1.0  0.1052
  H  H55  1  0.240400  0.993000  0.119600  1.0  0.1337
  H  H56  1  0.216100  0.036300  0.086500  1.0  0.116
  H  H57  1  0.259200  0.040900  0.125700  1.0  0.1157
  H  H58  1  0.656800  0.248000  0.910600  1.0  0.0733
  H  H59  1  0.765900  0.186400  0.920800  1.0  0.1181
  H  H60  1  0.884300  0.280200  0.930600  1.0  0.1069
  H  H61  1  0.772400  0.337800  0.922400  1.0  0.0796
  H  H62  1  0.891700  0.158400  0.940000  1.0  0.0765
  H  H63  1  0.923300  0.193200  0.963000  1.0  0.0747
  H  H64  1  0.680100  0.609200  0.357000  1.0  0.1096
  H  H65  1  0.598400  0.565800  0.349000  1.0  0.1051
  H  H66  1  0.542700  0.521400  0.408600  1.0  0.1273
  H  H67  1  0.581700  0.516800  0.479600  1.0  0.1111
  H  H68  1  0.881800  0.548300  0.592900  1.0  0.0974
  H  H69  1  0.789900  0.573200  0.624000  1.0  0.1096
  H  H70  1  0.818600  0.640300  0.623700  1.0  0.1104
  H  H71  1  0.901000  0.602400  0.629800  1.0  0.1109
  H  H72  1  0.899500  0.625800  0.580000  1.0  0.1081
  H  H73  1  0.515000  0.572200  0.694000  1.0  0.1123
  H  H74  1  0.499300  0.572400  0.772600  1.0  0.1225
  H  H75  1  0.609100  0.528900  0.802700  1.0  0.1216
  H  H76  1  0.733500  0.489300  0.751900  1.0  0.0915
  H  H77  1  0.964900  0.374400  0.541600  1.0  0.1167
  H  H78  1  0.978700  0.413400  0.502800  1.0  0.1123
  H  H79  1  0.874600  0.394900  0.474500  1.0  0.1237
  H  H80  1  0.963300  0.356500  0.465300  1.0  0.1186
  H  H81  1  0.885800  0.349500  0.506900  1.0  0.1252
  H  H82  1  0.682600  0.431200  0.519600  1.0  0.0865
  H  H83  1  0.642700  0.362100  0.522100  1.0  0.1341
  H  H84  1  0.585200  0.366900  0.657900  1.0  0.1017
  H  H85  1  0.628600  0.432900  0.651100  1.0  0.0647
  H  H86  1  0.511700  0.325200  0.629600  1.0  0.0888
  H  H87  1  0.602300  0.292100  0.605500  1.0  0.0872
  H  H88  1  0.097700  0.715700  0.303100  1.0  0.1065
  H  H89  1  0.010800  0.790200  0.311600  1.0  0.1179
  H  H90  1  0.875200  0.806100  0.363700  1.0  0.1248
  H  H91  1  0.832600  0.745800  0.405400  1.0  0.0883
  H  H92  1  0.873000  0.508400  0.464200  1.0  0.106
  H  H93  1  0.963000  0.472900  0.442300  1.0  0.1036
  H  H94  1  0.853000  0.507000  0.380400  1.0  0.1362
  H  H95  1  0.838900  0.463700  0.413500  1.0  0.1159
  H  H96  1  0.925800  0.459100  0.374300  1.0  0.1157
  H  H97  1  0.315400  0.252000  0.589400  1.0  0.0732
  H  H98  1  0.373100  0.313600  0.579200  1.0  0.1181
  H  H99  1  0.595100  0.219800  0.569400  1.0  0.107
  H  H100  1  0.532600  0.162200  0.577600  1.0  0.0787
  H  H101  1  0.490100  0.341600  0.560000  1.0  0.0757
  H  H102  1  0.579500  0.306800  0.537000  1.0  0.0761
  H  H103  1  0.289300  0.857000  0.390800  1.0  0.1084
  H  H104  1  0.164200  0.849000  0.434200  1.0  0.1055
  H  H105  1  0.064100  0.908600  0.478600  1.0  0.1256
  H  H106  1  0.098500  0.979600  0.483200  1.0  0.1103
  H  H107  1  0.430100  0.092900  0.451700  1.0  0.0942
  H  H108  1  0.363100  0.124000  0.426800  1.0  0.1103
  H  H109  1  0.458900  0.123700  0.359700  1.0  0.1108
  H  H110  1  0.503400  0.129800  0.397600  1.0  0.1085
  H  H111  1  0.525300  0.080000  0.374200  1.0  0.1117
  H  H112  1  0.087200  0.194000  0.427800  1.0  0.1106
  H  H113  1  0.071700  0.272600  0.427600  1.0  0.121
  H  H114  1  0.138000  0.302700  0.471100  1.0  0.12
  H  H115  1  0.222800  0.251900  0.510700  1.0  0.0928
  H  H116  1  0.339300  0.041600  0.625600  1.0  0.1152
  H  H117  1  0.392100  0.002800  0.586600  1.0  0.1109
  H  H118  1  0.269500  0.974500  0.605100  1.0  0.1235
  H  H119  1  0.319800  0.965300  0.643500  1.0  0.121
  H  H120  1  0.235300  0.006900  0.650500  1.0  0.1271
  H  H121  1  0.113800  0.019600  0.568800  1.0  0.086
  H  H122  1  0.004800  0.022100  0.637900  1.0  0.1327
  H  H123  1  0.952100  0.157900  0.633100  1.0  0.1011
  H  H124  1  0.061500  0.151100  0.567100  1.0  0.0666
  H  H125  1  0.836900  0.129600  0.674800  1.0  0.0833
  H  H126  1  0.894400  0.105500  0.707900  1.0  0.091
  H  H127  1  0.813400  0.803100  0.284300  1.0  0.1052
  H  H128  1  0.801000  0.811600  0.209800  1.0  0.1184
  H  H129  1  0.681300  0.863700  0.193900  1.0  0.1217
  H  H130  1  0.578400  0.905400  0.254200  1.0  0.0886
  H  H131  1  0.381400  0.964200  0.491600  1.0  0.1072
  H  H132  1  0.435900  0.942300  0.527100  1.0  0.1047
  H  H133  1  0.360000  0.880400  0.493000  1.0  0.1347
  H  H134  1  0.302600  0.913500  0.536300  1.0  0.1159
  H  H135  1  0.384900  0.874300  0.540900  1.0  0.1151
  H  H136  1  0.567400  0.089400  0.748000  1.0  0.0736
  H  H137  1  0.686700  0.079200  0.686400  1.0  0.1192
  H  H138  1  0.814900  0.069400  0.780200  1.0  0.1062
  H  H139  1  0.694800  0.077600  0.837800  1.0  0.0801
  H  H140  1  0.831700  0.060000  0.658400  1.0  0.078
  H  H141  1  0.886300  0.037000  0.693200  1.0  0.0711
  H  H142  1  0.037100  0.643000  0.109200  1.0  0.1075
  H  H143  1  0.947400  0.651000  0.065800  1.0  0.1066
  H  H144  1  0.951300  0.591400  0.021400  1.0  0.1255
  H  H145  1  0.061300  0.520400  0.016800  1.0  0.1115
  H  H146  1  0.474700  0.407100  0.048300  1.0  0.0943
  H  H147  1  0.413900  0.376000  0.073200  1.0  0.11
  H  H148  1  0.442300  0.376300  0.140300  1.0  0.1103
  H  H149  1  0.530800  0.370200  0.102400  1.0  0.1084
  H  H150  1  0.479500  0.420000  0.125800  1.0  0.1098
  H  H151  1  0.209000  0.306000  0.072200  1.0  0.1122
  H  H152  1  0.271900  0.227400  0.072400  1.0  0.1213
  H  H153  1  0.411800  0.197300  0.028900  1.0  0.1207
  H  H154  1  0.485400  0.248100  0.989300  1.0  0.0928
  H  H155  1  0.506500  0.458400  0.874400  1.0  0.1165
  H  H156  1  0.481500  0.497200  0.913400  1.0  0.1091
  H  H157  1  0.349100  0.525500  0.894900  1.0  0.1234
  H  H158  1  0.428600  0.534700  0.856500  1.0  0.1203
  H  H159  1  0.392700  0.493100  0.849500  1.0  0.1279
  H  H160  1  0.202200  0.480400  0.931200  1.0  0.0862
  H  H161  1  0.164800  0.477900  0.862100  1.0  0.1324
  H  H162  1  0.243100  0.342100  0.866900  1.0  0.1011
  H  H163  1  0.279700  0.348900  0.932900  1.0  0.0644
  H  H164  1  0.141300  0.370400  0.825200  1.0  0.0845
  H  H165  1  0.207800  0.394500  0.792100  1.0  0.0843
  H  H166  1  0.400800  0.696900  0.215700  1.0  0.1056
  H  H167  1  0.322400  0.688400  0.290200  1.0  0.1197
  H  H168  1  0.238900  0.636300  0.306100  1.0  0.122
  H  H169  1  0.238000  0.594600  0.245800  1.0  0.0882
  H  H170  1  0.337200  0.535800  0.008400  1.0  0.1074
  H  H171  1  0.405300  0.557700  0.972900  1.0  0.103
  H  H172  1  0.233400  0.619600  0.007000  1.0  0.1317
  H  H173  1  0.252400  0.586500  0.963700  1.0  0.1161
  H  H174  1  0.300100  0.625700  0.959100  1.0  0.1156
  H  H175  1  0.904800  0.410600  0.752000  1.0  0.0738
  H  H176  1  0.952300  0.420800  0.813600  1.0  0.1183
  H  H177  1  0.164500  0.430600  0.719800  1.0  0.1067
  H  H178  1  0.110200  0.422400  0.662200  1.0  0.0793
  H  H179  1  0.050100  0.440000  0.841600  1.0  0.0742
  H  H180  1  0.116500  0.463000  0.806800  1.0  0.0741
  H  H181  1  0.853700  0.109200  0.857000  1.0  0.1093
  H  H182  1  0.986800  0.065800  0.849000  1.0  0.1047
  H  H183  1  0.027300  0.021400  0.908600  1.0  0.126
  H  H184  1  0.921900  0.016800  0.979600  1.0  0.1136
  H  H185  1  0.477000  0.048300  0.092900  1.0  0.0963
  H  H186  1  0.512900  0.073200  0.124000  1.0  0.1093
  H  H187  1  0.417400  0.140300  0.123700  1.0  0.1107
  H  H188  1  0.366800  0.102400  0.129800  1.0  0.1105
  H  H189  1  0.394700  0.125800  0.080000  1.0  0.1093
  H  H190  1  0.718800  0.072200  0.194000  1.0  0.1133
  H  H191  1  0.655700  0.072400  0.272600  1.0  0.1215
  H  H192  1  0.559300  0.028900  0.302700  1.0  0.121
  H  H193  1  0.525300  0.989300  0.251900  1.0  0.0915
  H  H194  1  0.619100  0.874400  0.041600  1.0  0.1169
  H  H195  1  0.605100  0.913400  0.002800  1.0  0.1116
  H  H196  1  0.756000  0.894900  0.974500  1.0  0.1233
  H  H197  1  0.714900  0.856500  0.965300  1.0  0.1232
  H  H198  1  0.757800  0.849500  0.006900  1.0  0.1271
  H  H199  1  0.866600  0.931200  0.019600  1.0  0.086
  H  H200  1  0.973100  0.862100  0.022100  1.0  0.1341
  H  H201  1  0.890000  0.866900  0.157900  1.0  0.1021
  H  H202  1  0.787400  0.932900  0.151100  1.0  0.0656
  H  H203  1  0.033500  0.825200  0.129600  1.0  0.0894
  H  H204  1  0.000100  0.792100  0.105500  1.0  0.0878
  H  H205  1  0.383500  0.215700  0.803100  1.0  0.1062
  H  H206  1  0.387400  0.290200  0.811600  1.0  0.1179
  H  H207  1  0.455000  0.306100  0.863700  1.0  0.1239
  H  H208  1  0.516200  0.245800  0.905400  1.0  0.0892
  H  H209  1  0.654400  0.008400  0.964200  1.0  0.1063
  H  H210  1  0.621800  0.972900  0.942300  1.0  0.1053
  H  H211  1  0.759600  0.007000  0.880400  1.0  0.1332
  H  H212  1  0.783900  0.963700  0.913500  1.0  0.1157
  H  H213  1  0.740800  0.959100  0.874300  1.0  0.1144
  H  H214  1  0.343200  0.752000  0.089400  1.0  0.0733
  H  H215  1  0.234100  0.813600  0.079200  1.0  0.119
  H  H216  1  0.115700  0.719800  0.069400  1.0  0.107
  H  H217  1  0.227600  0.662200  0.077600  1.0  0.0794
  H  H218  1  0.108300  0.841600  0.060000  1.0  0.076
  H  H219  1  0.076700  0.806800  0.037000  1.0  0.0744
  H  H220  1  0.319900  0.390800  0.643000  1.0  0.1098
  H  H221  1  0.401600  0.434200  0.651000  1.0  0.1051
  H  H222  1  0.457300  0.478600  0.591400  1.0  0.1268
  H  H223  1  0.418300  0.483200  0.520400  1.0  0.1115
  H  H224  1  0.118200  0.451700  0.407100  1.0  0.0979
  H  H225  1  0.210100  0.426800  0.376000  1.0  0.1091
  H  H226  1  0.181400  0.359700  0.376300  1.0  0.1098
  H  H227  1  0.099000  0.397600  0.370200  1.0  0.1113
  H  H228  1  0.100500  0.374200  0.420000  1.0  0.1096
  H  H229  1  0.485000  0.427800  0.306000  1.0  0.1131
  H  H230  1  0.500700  0.427600  0.227400  1.0  0.1216
  H  H231  1  0.390900  0.471100  0.197300  1.0  0.1213
  H  H232  1  0.266500  0.510700  0.248100  1.0  0.0908
  H  H233  1  0.035100  0.625600  0.458400  1.0  0.1129
  H  H234  1  0.021300  0.586600  0.497200  1.0  0.1117
  H  H235  1  0.125400  0.605100  0.525500  1.0  0.1235
  H  H236  1  0.036700  0.643500  0.534700  1.0  0.1193
  H  H237  1  0.114200  0.650500  0.493100  1.0  0.1261
  H  H238  1  0.317400  0.568800  0.480400  1.0  0.0866
  H  H239  1  0.357300  0.637900  0.477900  1.0  0.1332
  H  H240  1  0.414800  0.633100  0.342100  1.0  0.102
  H  H241  1  0.371400  0.567100  0.348900  1.0  0.0673
  H  H242  1  0.488300  0.674800  0.370400  1.0  0.0869
  H  H243  1  0.397700  0.707900  0.394500  1.0  0.0871
  H  H244  1  0.902300  0.284300  0.696900  1.0  0.1061
  H  H245  1  0.989200  0.209800  0.688400  1.0  0.1177
  H  H246  1  0.124800  0.193900  0.636300  1.0  0.124
  H  H247  1  0.167400  0.254200  0.594600  1.0  0.0883
  H  H248  1  0.127000  0.491600  0.535800  1.0  0.1068
  H  H249  1  0.037000  0.527100  0.557700  1.0  0.1037
  H  H250  1  0.147000  0.493000  0.619600  1.0  0.1356
  H  H251  1  0.161100  0.536300  0.586500  1.0  0.1109
  H  H252  1  0.074200  0.540900  0.625700  1.0  0.1166
  H  H253  1  0.684600  0.748000  0.410600  1.0  0.0735
  H  H254  1  0.626900  0.686400  0.420800  1.0  0.1181
  H  H255  1  0.404900  0.780200  0.430600  1.0  0.1071
  H  H256  1  0.467400  0.837800  0.422400  1.0  0.0791
  H  H257  1  0.509900  0.658400  0.440000  1.0  0.0768
  H  H258  1  0.420500  0.693200  0.463000  1.0  0.0756
  H  H259  1  0.710700  0.143000  0.609200  1.0  0.109
  H  H260  1  0.835800  0.151000  0.565800  1.0  0.1057
  H  H261  1  0.935900  0.091400  0.521400  1.0  0.1255
  H  H262  1  0.901500  0.020400  0.516800  1.0  0.1108
  H  H263  1  0.569900  0.907100  0.548300  1.0  0.093
  H  H264  1  0.636900  0.876000  0.573200  1.0  0.1108
  H  H265  1  0.541100  0.876300  0.640300  1.0  0.1113
  H  H266  1  0.496600  0.870200  0.602400  1.0  0.1095
  H  H267  1  0.474700  0.920000  0.625800  1.0  0.1109
  H  H268  1  0.912800  0.806000  0.572200  1.0  0.1111
  H  H269  1  0.928300  0.727400  0.572400  1.0  0.1212
  H  H270  1  0.862000  0.697300  0.528900  1.0  0.122
  H  H271  1  0.777200  0.748100  0.489300  1.0  0.0916
  H  H272  1  0.660700  0.958400  0.374400  1.0  0.1121
  H  H273  1  0.607900  0.997200  0.413400  1.0  0.1129
  H  H274  1  0.730500  0.025500  0.394900  1.0  0.1235
  H  H275  1  0.680200  0.034700  0.356500  1.0  0.1218
  H  H276  1  0.764700  0.993100  0.349500  1.0  0.1283
  H  H277  1  0.886200  0.980400  0.431200  1.0  0.0867
  H  H278  1  0.995200  0.977900  0.362100  1.0  0.1326
  H  H279  1  0.047900  0.842100  0.366900  1.0  0.1012
  H  H280  1  0.938500  0.848900  0.432900  1.0  0.0652
  H  H281  1  0.163100  0.870400  0.325200  1.0  0.0824
  H  H282  1  0.105600  0.894500  0.292100  1.0  0.0924
  H  H283  1  0.186600  0.196900  0.715700  1.0  0.1062
  H  H284  1  0.199000  0.188400  0.790200  1.0  0.1183
  H  H285  1  0.318700  0.136300  0.806100  1.0  0.1215
  H  H286  1  0.421600  0.094600  0.745800  1.0  0.0886
  H  H287  1  0.618600  0.035800  0.508400  1.0  0.1076
  H  H288  1  0.564100  0.057700  0.472900  1.0  0.1048
  H  H289  1  0.640000  0.119600  0.507000  1.0  0.134
  H  H290  1  0.697400  0.086500  0.463700  1.0  0.1136
  H  H291  1  0.615100  0.125700  0.459100  1.0  0.1146
  H  H292  1  0.432600  0.910600  0.252000  1.0  0.0739
  H  H293  1  0.313300  0.920800  0.313600  1.0  0.1186
  H  H294  1  0.185100  0.930600  0.219800  1.0  0.107
  H  H295  1  0.305200  0.922400  0.162200  1.0  0.0814
  H  H296  1  0.168300  0.940000  0.341600  1.0  0.076
  H  H297  1  0.113700  0.963000  0.306800  1.0  0.0754
  H  H298  1  0.962900  0.357000  0.890800  1.0  0.1072
  H  H299  1  0.052600  0.349000  0.934200  1.0  0.1061
  H  H300  1  0.048700  0.408600  0.978600  1.0  0.1253
  H  H301  1  0.938700  0.479600  0.983200  1.0  0.1116
  H  H302  1  0.525300  0.592900  0.951700  1.0  0.0944
  H  H303  1  0.586100  0.624000  0.926800  1.0  0.1096
  H  H304  1  0.557700  0.623700  0.859700  1.0  0.1097
  H  H305  1  0.469200  0.629800  0.897600  1.0  0.1092
  H  H306  1  0.520500  0.580000  0.874200  1.0  0.1106
  H  H307  1  0.791000  0.694000  0.927800  1.0  0.1119
  H  H308  1  0.728100  0.772600  0.927600  1.0  0.1207
  H  H309  1  0.588200  0.802700  0.971100  1.0  0.1217
  H  H310  1  0.514600  0.751900  0.010700  1.0  0.0918
  H  H311  1  0.493500  0.541600  0.125600  1.0  0.1164
  H  H312  1  0.518500  0.502800  0.086600  1.0  0.1097
  H  H313  1  0.650900  0.474500  0.105100  1.0  0.1234
  H  H314  1  0.571400  0.465300  0.143500  1.0  0.122
  H  H315  1  0.607300  0.506900  0.150500  1.0  0.1284
  H  H316  1  0.797800  0.519600  0.068800  1.0  0.0858
  H  H317  1  0.835200  0.522100  0.137900  1.0  0.1319
  H  H318  1  0.756900  0.657900  0.133100  1.0  0.1005
  H  H319  1  0.720300  0.651100  0.067100  1.0  0.0666
  H  H320  1  0.858700  0.629600  0.174800  1.0  0.0838
  H  H321  1  0.792200  0.605500  0.207900  1.0  0.085
  H  H322  1  0.599200  0.303100  0.784300  1.0  0.1055
  H  H323  1  0.677600  0.311600  0.709800  1.0  0.1194
  H  H324  1  0.761100  0.363700  0.693900  1.0  0.1218
  H  H325  1  0.762000  0.405400  0.754200  1.0  0.088
  H  H326  1  0.662800  0.464200  0.991600  1.0  0.1075
  H  H327  1  0.594700  0.442300  0.027100  1.0  0.1029
  H  H328  1  0.766600  0.380400  0.993000  1.0  0.131
  H  H329  1  0.747600  0.413500  0.036300  1.0  0.1179
  H  H330  1  0.699900  0.374300  0.040900  1.0  0.1169
  H  H331  1  0.095200  0.589400  0.248000  1.0  0.0737
  H  H332  1  0.047700  0.579200  0.186400  1.0  0.119
  H  H333  1  0.835500  0.569400  0.280200  1.0  0.1082
  H  H334  1  0.889800  0.577600  0.337800  1.0  0.0787
  H  H335  1  0.949900  0.560000  0.158400  1.0  0.076
  H  H336  1  0.883500  0.537000  0.193200  1.0  0.0698
  C  C337  1  0.197490  0.911320  0.077500  1.0  0.3234
  C  C338  1  0.133400  0.910100  0.117900  1.0  -0.1625
  C  C339  1  0.054000  0.935300  0.122300  1.0  -0.1
  C  C340  1  0.029700  0.962200  0.087800  1.0  -0.147
  C  C341  1  0.092900  0.965000  0.045800  1.0  -0.0913
  C  C342  1  0.175470  0.941530  0.041930  1.0  -0.1786
  C  C343  1  0.235240  0.949350  0.998770  1.0  0.5205
  C  C344  1  0.445120  0.914340  0.945820  1.0  0.4822
  C  C345  1  0.510740  0.922430  0.902890  1.0  -0.2813
  C  C346  1  0.589500  0.885400  0.891400  1.0  -0.3186
  C  C347  1  0.334970  0.971120  0.825940  1.0  0.3207
  C  C348  1  0.319700  0.945720  0.794480  1.0  -0.1545
  C  C349  1  0.357310  0.945200  0.747580  1.0  -0.1196
  C  C350  1  0.414740  0.970550  0.729770  1.0  -0.1611
  C  C351  1  0.432990  0.994820  0.760200  1.0  -0.0829
  C  C352  1  0.394850  0.997340  0.806360  1.0  -0.1493
  C  C353  1  0.413840  0.026610  0.836110  1.0  0.5493
  C  C354  1  0.351500  0.066290  0.947110  1.0  0.562
  C  C355  1  0.356490  0.102420  0.978400  1.0  -0.3029
  C  C356  1  0.275000  0.127500  0.010700  1.0  -0.3119
  C  C357  1  0.128100  0.081600  0.951000  1.0  0.152
  C  C358  1  0.062700  0.121800  0.950400  1.0  -0.2292
  C  C359  1  0.054100  0.136600  0.905600  1.0  0.1986
  C  C360  1  0.109400  0.119600  0.872000  1.0  -0.1432
  C  C361  1  0.172300  0.080500  0.876700  1.0  0.173
  C  C362  1  0.980100  0.179700  0.899100  1.0  -0.1424
  C  C363  1  0.550000  0.815720  0.152480  1.0  0.2721
  C  C364  1  0.588040  0.778770  0.176150  1.0  -0.1727
  C  C365  1  0.586440  0.734390  0.170930  1.0  -0.126
  C  C366  1  0.546570  0.724720  0.140140  1.0  -0.157
  C  C367  1  0.510290  0.760670  0.115950  1.0  -0.0451
  C  C368  1  0.509430  0.806890  0.120450  1.0  -0.0928
  C  C369  1  0.467460  0.842980  0.093700  1.0  0.5795
  C  C370  1  0.403150  0.961420  0.086080  1.0  0.5537
  C  C371  1  0.351200  0.001520  0.065080  1.0  -0.317
  C  C372  1  0.257000  0.019800  0.103200  1.0  -0.3608
  C  C373  1  0.703610  0.254560  0.915820  1.0  0.189
  C  C374  1  0.768800  0.217500  0.921500  1.0  -0.2312
  C  C375  1  0.839300  0.226400  0.928000  1.0  0.1501
  C  C376  1  0.837300  0.272300  0.927300  1.0  -0.2255
  C  C377  1  0.770830  0.306450  0.922290  1.0  0.1785
  C  C378  1  0.910000  0.187200  0.934600  1.0  -0.1504
  C  C379  1  0.686310  0.588680  0.422500  1.0  0.3257
  C  C380  1  0.661400  0.589900  0.382100  1.0  -0.162
  C  C381  1  0.611600  0.564700  0.377700  1.0  -0.0995
  C  C382  1  0.579700  0.537800  0.412200  1.0  -0.1445
  C  C383  1  0.603700  0.535000  0.454200  1.0  -0.091
  C  C384  1  0.658930  0.558470  0.458070  1.0  -0.1788
  C  C385  1  0.683360  0.550650  0.501230  1.0  0.5197
  C  C386  1  0.805280  0.585660  0.554180  1.0  0.485
  C  C387  1  0.836060  0.577570  0.597110  1.0  -0.2812
  C  C388  1  0.866300  0.614600  0.608600  1.0  -0.3189
  C  C389  1  0.632030  0.528880  0.674060  1.0  0.3225
  C  C390  1  0.559900  0.554280  0.705520  1.0  -0.1535
  C  C391  1  0.550090  0.554800  0.752420  1.0  -0.1199
  C  C392  1  0.615060  0.529450  0.770230  1.0  -0.1597
  C  C393  1  0.688010  0.505180  0.739800  1.0  -0.0832
  C  C394  1  0.698550  0.502660  0.693640  1.0  -0.1485
  C  C395  1  0.776560  0.473390  0.663890  1.0  0.5491
  C  C396  1  0.864900  0.433710  0.552890  1.0  0.562
  C  C397  1  0.937310  0.397580  0.521600  1.0  -0.3031
  C  C398  1  0.913200  0.372500  0.489300  1.0  -0.3124
  C  C399  1  0.660700  0.418400  0.549000  1.0  0.1533
  C  C400  1  0.634900  0.378200  0.549600  1.0  -0.233
  C  C401  1  0.596300  0.363400  0.594400  1.0  0.199
  C  C402  1  0.601000  0.380400  0.628000  1.0  -0.1451
  C  C403  1  0.629500  0.419500  0.623300  1.0  0.1744
  C  C404  1  0.558900  0.320300  0.600900  1.0  -0.1413
  C  C405  1  0.018200  0.684280  0.347520  1.0  0.2725
  C  C406  1  0.042960  0.721230  0.323850  1.0  -0.1714
  C  C407  1  0.991760  0.765610  0.329070  1.0  -0.1277
  C  C408  1  0.911430  0.775280  0.359860  1.0  -0.1547
  C  C409  1  0.886910  0.739330  0.384050  1.0  -0.0439
  C  C410  1  0.936770  0.693110  0.379550  1.0  -0.0922
  C  C411  1  0.904140  0.657020  0.406300  1.0  0.5794
  C  C412  1  0.950650  0.538580  0.413920  1.0  0.5533
  C  C413  1  0.917800  0.498480  0.434920  1.0  -0.3137
  C  C414  1  0.880000  0.480200  0.396800  1.0  -0.3579
  C  C415  1  0.373990  0.245440  0.584180  1.0  0.19
  C  C416  1  0.407800  0.282500  0.578500  1.0  -0.2301
  C  C417  1  0.493700  0.273600  0.572000  1.0  0.1498
  C  C418  1  0.536900  0.227700  0.572700  1.0  -0.2238
  C  C419  1  0.499570  0.193550  0.577710  1.0  0.178
  C  C420  1  0.531800  0.312800  0.565400  1.0  -0.1502
  C  C421  1  0.274990  0.922500  0.411320  1.0  0.3235
  C  C422  1  0.251300  0.882100  0.410100  1.0  -0.1616
  C  C423  1  0.176300  0.877700  0.435300  1.0  -0.1067
  C  C424  1  0.117500  0.912200  0.462200  1.0  -0.1484
  C  C425  1  0.138700  0.954200  0.465000  1.0  -0.0894
  C  C426  1  0.217400  0.958070  0.441530  1.0  -0.1795
  C  C427  1  0.234010  0.001230  0.449350  1.0  0.5194
  C  C428  1  0.390940  0.054180  0.414340  1.0  0.4834
  C  C429  1  0.413630  0.097110  0.422430  1.0  -0.2813
  C  C430  1  0.480900  0.108600  0.385400  1.0  -0.3145
  C  C431  1  0.160910  0.174060  0.471120  1.0  0.3199
  C  C432  1  0.114180  0.205520  0.445720  1.0  -0.1532
  C  C433  1  0.104890  0.252420  0.445200  1.0  -0.1198
  C  C434  1  0.144510  0.270230  0.470550  1.0  -0.1654
  C  C435  1  0.193190  0.239800  0.494820  1.0  -0.0826
  C  C436  1  0.201210  0.193640  0.497340  1.0  -0.1488
  C  C437  1  0.249950  0.163890  0.526610  1.0  0.5483
  C  C438  1  0.298610  0.052890  0.566290  1.0  0.5635
  C  C439  1  0.334890  0.021600  0.602420  1.0  -0.3006
  C  C440  1  0.285700  0.989300  0.627500  1.0  -0.315
  C  C441  1  0.079100  0.049000  0.581600  1.0  0.1487
  C  C442  1  0.013100  0.049600  0.621800  1.0  -0.2347
  C  C443  1  0.959700  0.094400  0.636600  1.0  0.2014
  C  C444  1  0.981400  0.128000  0.619600  1.0  -0.1493
  C  C445  1  0.049000  0.123300  0.580500  1.0  0.1709
  C  C446  1  0.879200  0.100900  0.679700  1.0  -0.1443
  C  C447  1  0.702480  0.847520  0.315720  1.0  0.2766
  C  C448  1  0.764190  0.823850  0.278770  1.0  -0.1708
  C  C449  1  0.757370  0.829070  0.234390  1.0  -0.1279
  C  C450  1  0.686710  0.859860  0.224720  1.0  -0.155
  C  C451  1  0.626240  0.884050  0.260670  1.0  -0.0442
  C  C452  1  0.629880  0.879550  0.306890  1.0  -0.0941
  C  C453  1  0.561160  0.906300  0.342980  1.0  0.5795
  C  C454  1  0.489230  0.913920  0.461420  1.0  0.5525
  C  C455  1  0.416280  0.934920  0.501520  1.0  -0.3098
  C  C456  1  0.360200  0.896800  0.519800  1.0  -0.3593
  C  C457  1  0.619430  0.084180  0.754560  1.0  0.1882
  C  C458  1  0.690300  0.078500  0.717500  1.0  -0.2293
  C  C459  1  0.767300  0.072000  0.726400  1.0  0.1495
  C  C460  1  0.764600  0.072700  0.772300  1.0  -0.2227
  C  C461  1  0.693120  0.077710  0.806450  1.0  0.1788
  C  C462  1  0.844600  0.065400  0.687200  1.0  -0.15
  C  C463  1  0.108810  0.577500  0.088680  1.0  0.3246
  C  C464  1  0.043500  0.617900  0.089900  1.0  -0.1568
  C  C465  1  0.989300  0.622300  0.064700  1.0  -0.1062
  C  C466  1  0.991900  0.587800  0.037800  1.0  -0.1419
  C  C467  1  0.057900  0.545800  0.035000  1.0  -0.0882
  C  C468  1  0.117000  0.541930  0.058470  1.0  -0.1794
  C  C469  1  0.184590  0.498770  0.050650  1.0  0.5211
  C  C470  1  0.359460  0.445820  0.085660  1.0  0.482
  C  C471  1  0.433170  0.402890  0.077570  1.0  -0.2818
  C  C472  1  0.474900  0.391400  0.114600  1.0  -0.3183
  C  C473  1  0.306090  0.325940  0.028880  1.0  0.3189
  C  C474  1  0.265420  0.294480  0.054280  1.0  -0.1559
  C  C475  1  0.302510  0.247580  0.054800  1.0  -0.1224
  C  C476  1  0.385290  0.229770  0.029450  1.0  -0.1641
  C  C477  1  0.427810  0.260200  0.005180  1.0  -0.0847
  C  C478  1  0.392190  0.306360  0.002660  1.0  -0.1477
  C  C479  1  0.440450  0.336110  0.973390  1.0  0.5502
  C  C480  1  0.417790  0.447110  0.933710  1.0  0.5614
  C  C481  1  0.458910  0.478400  0.897580  1.0  -0.3015
  C  C482  1  0.402500  0.510700  0.872500  1.0  -0.3101
  C  C483  1  0.209700  0.451000  0.918400  1.0  0.1522
  C  C484  1  0.184500  0.450400  0.878200  1.0  -0.2336
  C  C485  1  0.190700  0.405600  0.863400  1.0  0.1972
  C  C486  1  0.229000  0.372000  0.880400  1.0  -0.1485
  C  C487  1  0.252800  0.376700  0.919500  1.0  0.1745
  C  C488  1  0.159800  0.399100  0.820300  1.0  -0.1406
  C  C489  1  0.365720  0.652480  0.184280  1.0  0.2752
  C  C490  1  0.366810  0.676150  0.221230  1.0  -0.1721
  C  C491  1  0.320830  0.670930  0.265610  1.0  -0.127
  C  C492  1  0.271290  0.640140  0.275280  1.0  -0.1556
  C  C493  1  0.270960  0.615950  0.239330  1.0  -0.044
  C  C494  1  0.316320  0.620450  0.193110  1.0  -0.0955
  C  C495  1  0.310440  0.593700  0.157020  1.0  0.5806
  C  C496  1  0.364570  0.586080  0.038580  1.0  0.5534
  C  C497  1  0.352720  0.565080  0.998480  1.0  -0.3149
  C  C498  1  0.276800  0.603200  0.980200  1.0  -0.3599
  C  C499  1  0.958170  0.415820  0.745440  1.0  0.1894
  C  C500  1  0.986300  0.421500  0.782500  1.0  -0.2314
  C  C501  1  0.065700  0.428000  0.773600  1.0  0.1514
  C  C502  1  0.109600  0.427300  0.727700  1.0  -0.2228
  C  C503  1  0.077280  0.422290  0.693550  1.0  0.1826
  C  C504  1  0.097200  0.434600  0.812800  1.0  -0.1479
  C  C505  1  0.802510  0.088680  0.922500  1.0  0.3224
  C  C506  1  0.866600  0.089900  0.882100  1.0  -0.1608
  C  C507  1  0.946000  0.064700  0.877700  1.0  -0.1018
  C  C508  1  0.970300  0.037800  0.912200  1.0  -0.1463
  C  C509  1  0.907100  0.035000  0.954200  1.0  -0.0916
  C  C510  1  0.824530  0.058470  0.958070  1.0  -0.1789
  C  C511  1  0.764760  0.050650  0.001230  1.0  0.5189
  C  C512  1  0.554880  0.085660  0.054180  1.0  0.4811
  C  C513  1  0.489260  0.077570  0.097110  1.0  -0.2826
  C  C514  1  0.410500  0.114600  0.108600  1.0  -0.3169
  C  C515  1  0.665030  0.028880  0.174060  1.0  0.321
  C  C516  1  0.680300  0.054280  0.205520  1.0  -0.1516
  C  C517  1  0.642690  0.054800  0.252420  1.0  -0.1174
  C  C518  1  0.585260  0.029450  0.270230  1.0  -0.1622
  C  C519  1  0.567010  0.005180  0.239800  1.0  -0.086
  C  C520  1  0.605150  0.002660  0.193640  1.0  -0.1481
  C  C521  1  0.586160  0.973390  0.163890  1.0  0.5499
  C  C522  1  0.648500  0.933710  0.052890  1.0  0.5622
  C  C523  1  0.643510  0.897580  0.021600  1.0  -0.3003
  C  C524  1  0.725000  0.872500  0.989300  1.0  -0.313
  C  C525  1  0.871900  0.918400  0.049000  1.0  0.1532
  C  C526  1  0.937300  0.878200  0.049600  1.0  -0.2296
  C  C527  1  0.945900  0.863400  0.094400  1.0  0.1971
  C  C528  1  0.890600  0.880400  0.128000  1.0  -0.1458
  C  C529  1  0.827700  0.919500  0.123300  1.0  0.1723
  C  C530  1  0.019900  0.820300  0.100900  1.0  -0.1401
  C  C531  1  0.450000  0.184280  0.847520  1.0  0.2726
  C  C532  1  0.411960  0.221230  0.823850  1.0  -0.174
  C  C533  1  0.413560  0.265610  0.829070  1.0  -0.1255
  C  C534  1  0.453430  0.275280  0.859860  1.0  -0.1546
  C  C535  1  0.489710  0.239330  0.884050  1.0  -0.0451
  C  C536  1  0.490570  0.193110  0.879550  1.0  -0.0935
  C  C537  1  0.532540  0.157020  0.906300  1.0  0.5789
  C  C538  1  0.596850  0.038580  0.913920  1.0  0.5531
  C  C539  1  0.648800  0.998480  0.934920  1.0  -0.3163
  C  C540  1  0.743000  0.980200  0.896800  1.0  -0.3588
  C  C541  1  0.296390  0.745440  0.084180  1.0  0.1909
  C  C542  1  0.231200  0.782500  0.078500  1.0  -0.2309
  C  C543  1  0.160700  0.773600  0.072000  1.0  0.1502
  C  C544  1  0.162700  0.727700  0.072700  1.0  -0.2233
  C  C545  1  0.229170  0.693550  0.077710  1.0  0.1776
  C  C546  1  0.090000  0.812800  0.065400  1.0  -0.1491
  C  C547  1  0.313690  0.411320  0.577500  1.0  0.324
  C  C548  1  0.338600  0.410100  0.617900  1.0  -0.1623
  C  C549  1  0.388400  0.435300  0.622300  1.0  -0.0976
  C  C550  1  0.420300  0.462200  0.587800  1.0  -0.1439
  C  C551  1  0.396300  0.465000  0.545800  1.0  -0.0906
  C  C552  1  0.341070  0.441530  0.541930  1.0  -0.1799
  C  C553  1  0.316640  0.449350  0.498770  1.0  0.5202
  C  C554  1  0.194720  0.414340  0.445820  1.0  0.4859
  C  C555  1  0.163940  0.422430  0.402890  1.0  -0.2805
  C  C556  1  0.133700  0.385400  0.391400  1.0  -0.3173
  C  C557  1  0.367970  0.471120  0.325940  1.0  0.3194
  C  C558  1  0.440100  0.445720  0.294480  1.0  -0.1529
  C  C559  1  0.449910  0.445200  0.247580  1.0  -0.1186
  C  C560  1  0.384940  0.470550  0.229770  1.0  -0.1597
  C  C561  1  0.311990  0.494820  0.260200  1.0  -0.0871
  C  C562  1  0.301450  0.497340  0.306360  1.0  -0.1488
  C  C563  1  0.223440  0.526610  0.336110  1.0  0.5501
  C  C564  1  0.135100  0.566290  0.447110  1.0  0.5611
  C  C565  1  0.062690  0.602420  0.478400  1.0  -0.3021
  C  C566  1  0.086800  0.627500  0.510700  1.0  -0.3122
  C  C567  1  0.339300  0.581600  0.451000  1.0  0.1536
  C  C568  1  0.365100  0.621800  0.450400  1.0  -0.2317
  C  C569  1  0.403700  0.636600  0.405600  1.0  0.1989
  C  C570  1  0.399000  0.619600  0.372000  1.0  -0.1415
  C  C571  1  0.370500  0.580500  0.376700  1.0  0.1741
  C  C572  1  0.441100  0.679700  0.399100  1.0  -0.1433
  C  C573  1  0.981800  0.315720  0.652480  1.0  0.2726
  C  C574  1  0.957040  0.278770  0.676150  1.0  -0.1714
  C  C575  1  0.008240  0.234390  0.670930  1.0  -0.1267
  C  C576  1  0.088570  0.224720  0.640140  1.0  -0.1559
  C  C577  1  0.113090  0.260670  0.615950  1.0  -0.0443
  C  C578  1  0.063230  0.306890  0.620450  1.0  -0.0927
  C  C579  1  0.095860  0.342980  0.593700  1.0  0.5798
  C  C580  1  0.049350  0.461420  0.586080  1.0  0.5531
  C  C581  1  0.082200  0.501520  0.565080  1.0  -0.3167
  C  C582  1  0.120000  0.519800  0.603200  1.0  -0.3621
  C  C583  1  0.626010  0.754560  0.415820  1.0  0.1916
  C  C584  1  0.592200  0.717500  0.421500  1.0  -0.23
  C  C585  1  0.506300  0.726400  0.428000  1.0  0.15
  C  C586  1  0.463100  0.772300  0.427300  1.0  -0.2243
  C  C587  1  0.500430  0.806450  0.422290  1.0  0.1793
  C  C588  1  0.468200  0.687200  0.434600  1.0  -0.1521
  C  C589  1  0.725010  0.077500  0.588680  1.0  0.3222
  C  C590  1  0.748700  0.117900  0.589900  1.0  -0.1605
  C  C591  1  0.823700  0.122300  0.564700  1.0  -0.1043
  C  C592  1  0.882500  0.087800  0.537800  1.0  -0.1463
  C  C593  1  0.861300  0.045800  0.535000  1.0  -0.0889
  C  C594  1  0.782600  0.041930  0.558470  1.0  -0.1814
  C  C595  1  0.765990  0.998770  0.550650  1.0  0.5183
  C  C596  1  0.609060  0.945820  0.585660  1.0  0.4832
  C  C597  1  0.586370  0.902890  0.577570  1.0  -0.2806
  C  C598  1  0.519100  0.891400  0.614600  1.0  -0.3147
  C  C599  1  0.839090  0.825940  0.528880  1.0  0.3195
  C  C600  1  0.885820  0.794480  0.554280  1.0  -0.1509
  C  C601  1  0.895110  0.747580  0.554800  1.0  -0.1202
  C  C602  1  0.855490  0.729770  0.529450  1.0  -0.164
  C  C603  1  0.806810  0.760200  0.505180  1.0  -0.0858
  C  C604  1  0.798790  0.806360  0.502660  1.0  -0.1484
  C  C605  1  0.750050  0.836110  0.473390  1.0  0.5501
  C  C606  1  0.701390  0.947110  0.433710  1.0  0.5619
  C  C607  1  0.665110  0.978400  0.397580  1.0  -0.3003
  C  C608  1  0.714300  0.010700  0.372500  1.0  -0.3142
  C  C609  1  0.920900  0.951000  0.418400  1.0  0.1495
  C  C610  1  0.986900  0.950400  0.378200  1.0  -0.2317
  C  C611  1  0.040300  0.905600  0.363400  1.0  0.2013
  C  C612  1  0.018600  0.872000  0.380400  1.0  -0.1493
  C  C613  1  0.951000  0.876700  0.419500  1.0  0.1725
  C  C614  1  0.120800  0.899100  0.320300  1.0  -0.1422
  C  C615  1  0.297520  0.152480  0.684280  1.0  0.2783
  C  C616  1  0.235810  0.176150  0.721230  1.0  -0.1722
  C  C617  1  0.242630  0.170930  0.765610  1.0  -0.1287
  C  C618  1  0.313290  0.140140  0.775280  1.0  -0.1556
  C  C619  1  0.373760  0.115950  0.739330  1.0  -0.0454
  C  C620  1  0.370120  0.120450  0.693110  1.0  -0.0945
  C  C621  1  0.438840  0.093700  0.657020  1.0  0.5795
  C  C622  1  0.510770  0.086080  0.538580  1.0  0.5521
  C  C623  1  0.583720  0.065080  0.498480  1.0  -0.3123
  C  C624  1  0.639800  0.103200  0.480200  1.0  -0.3607
  C  C625  1  0.380570  0.915820  0.245440  1.0  0.1901
  C  C626  1  0.309700  0.921500  0.282500  1.0  -0.2296
  C  C627  1  0.232700  0.928000  0.273600  1.0  0.15
  C  C628  1  0.235400  0.927300  0.227700  1.0  -0.2238
  C  C629  1  0.306880  0.922290  0.193550  1.0  0.1781
  C  C630  1  0.155400  0.934600  0.312800  1.0  -0.1511
  C  C631  1  0.891190  0.422500  0.911320  1.0  0.3231
  C  C632  1  0.956500  0.382100  0.910100  1.0  -0.1588
  C  C633  1  0.010700  0.377700  0.935300  1.0  -0.1089
  C  C634  1  0.008100  0.412200  0.962200  1.0  -0.1412
  C  C635  1  0.942100  0.454200  0.965000  1.0  -0.0894
  C  C636  1  0.883000  0.458070  0.941530  1.0  -0.1796
  C  C637  1  0.815410  0.501230  0.949350  1.0  0.5211
  C  C638  1  0.640540  0.554180  0.914340  1.0  0.48
  C  C639  1  0.566830  0.597110  0.922430  1.0  -0.2821
  C  C640  1  0.525100  0.608600  0.885400  1.0  -0.3164
  C  C641  1  0.693910  0.674060  0.971120  1.0  0.3179
  C  C642  1  0.734580  0.705520  0.945720  1.0  -0.1562
  C  C643  1  0.697490  0.752420  0.945200  1.0  -0.1197
  C  C644  1  0.614710  0.770230  0.970550  1.0  -0.1659
  C  C645  1  0.572190  0.739800  0.994820  1.0  -0.088
  C  C646  1  0.607810  0.693640  0.997340  1.0  -0.1482
  C  C647  1  0.559550  0.663890  0.026610  1.0  0.5497
  C  C648  1  0.582210  0.552890  0.066290  1.0  0.5628
  C  C649  1  0.541090  0.521600  0.102420  1.0  -0.2993
  C  C650  1  0.597500  0.489300  0.127500  1.0  -0.3105
  C  C651  1  0.790300  0.549000  0.081600  1.0  0.1512
  C  C652  1  0.815500  0.549600  0.121800  1.0  -0.2338
  C  C653  1  0.809300  0.594400  0.136600  1.0  0.1985
  C  C654  1  0.771000  0.628000  0.119600  1.0  -0.1476
  C  C655  1  0.747200  0.623300  0.080500  1.0  0.1724
  C  C656  1  0.840200  0.600900  0.179700  1.0  -0.142
  C  C657  1  0.634280  0.347520  0.815720  1.0  0.2757
  C  C658  1  0.633190  0.323850  0.778770  1.0  -0.1724
  C  C659  1  0.679170  0.329070  0.734390  1.0  -0.127
  C  C660  1  0.728710  0.359860  0.724720  1.0  -0.157
  C  C661  1  0.729040  0.384050  0.760670  1.0  -0.0435
  C  C662  1  0.683680  0.379550  0.806890  1.0  -0.0959
  C  C663  1  0.689560  0.406300  0.842980  1.0  0.58
  C  C664  1  0.635430  0.413920  0.961420  1.0  0.5538
  C  C665  1  0.647280  0.434920  0.001520  1.0  -0.3106
  C  C666  1  0.723200  0.396800  0.019800  1.0  -0.361
  C  C667  1  0.041830  0.584180  0.254560  1.0  0.1913
  C  C668  1  0.013700  0.578500  0.217500  1.0  -0.2305
  C  C669  1  0.934300  0.572000  0.226400  1.0  0.1506
  C  C670  1  0.890400  0.572700  0.272300  1.0  -0.2246
  C  C671  1  0.922720  0.577710  0.306450  1.0  0.1829
  C  C672  1  0.902800  0.565400  0.187200  1.0  -0.1496
  N  N673  1  0.315710  0.927250  0.993330  1.0  -0.2724
  N  N674  1  0.368680  0.938800  0.950840  1.0  -0.2796
  N  N675  1  0.372240  0.032300  0.881220  1.0  -0.2889
  N  N676  1  0.390020  0.065380  0.903980  1.0  -0.224
  N  N677  1  0.180990  0.061170  0.914250  1.0  -0.2553
  N  N678  1  0.460360  0.887270  0.100210  1.0  -0.2615
  N  N679  1  0.415440  0.919080  0.073640  1.0  -0.2473
  N  N680  1  0.702130  0.298160  0.917180  1.0  -0.3171
  N  N681  1  0.736290  0.572750  0.506670  1.0  -0.272
  N  N682  1  0.758320  0.561200  0.549160  1.0  -0.281
  N  N683  1  0.785760  0.467700  0.618780  1.0  -0.29
  N  N684  1  0.859380  0.434620  0.596020  1.0  -0.2244
  N  N685  1  0.656410  0.438830  0.585750  1.0  -0.2583
  N  N686  1  0.947840  0.612730  0.399790  1.0  -0.262
  N  N687  1  0.908160  0.580920  0.426360  1.0  -0.2458
  N  N688  1  0.417470  0.201840  0.582820  1.0  -0.317
  N  N689  1  0.309040  0.006670  0.427250  1.0  -0.269
  N  N690  1  0.319520  0.049160  0.438800  1.0  -0.2786
  N  N691  1  0.253460  0.118780  0.532300  1.0  -0.2889
  N  N692  1  0.294000  0.096020  0.565380  1.0  -0.2249
  N  N693  1  0.095240  0.085750  0.561170  1.0  -0.2601
  N  N694  1  0.560570  0.899790  0.387270  1.0  -0.2604
  N  N695  1  0.489080  0.926360  0.419080  1.0  -0.2454
  N  N696  1  0.619310  0.082820  0.798160  1.0  -0.316
  N  N697  1  0.242960  0.493330  0.072750  1.0  -0.269
  N  N698  1  0.307480  0.450840  0.061200  1.0  -0.2775
  N  N699  1  0.404540  0.381220  0.967700  1.0  -0.2899
  N  N700  1  0.455400  0.403980  0.934620  1.0  -0.2244
  N  N701  1  0.242160  0.414250  0.938830  1.0  -0.2574
  N  N702  1  0.347630  0.600210  0.112730  1.0  -0.2611
  N  N703  1  0.334520  0.573640  0.080920  1.0  -0.2456
  N  N704  1  0.000290  0.417180  0.701840  1.0  -0.3179
  N  N705  1  0.684290  0.072750  0.006670  1.0  -0.2708
  N  N706  1  0.631320  0.061200  0.049160  1.0  -0.2802
  N  N707  1  0.627760  0.967700  0.118780  1.0  -0.2904
  N  N708  1  0.609980  0.934620  0.096020  1.0  -0.2225
  N  N709  1  0.819010  0.938830  0.085750  1.0  -0.2588
  N  N710  1  0.539640  0.112730  0.899790  1.0  -0.2609
  N  N711  1  0.584560  0.080920  0.926360  1.0  -0.2465
  N  N712  1  0.297870  0.701840  0.082820  1.0  -0.3167
  N  N713  1  0.263710  0.427250  0.493330  1.0  -0.2726
  N  N714  1  0.241680  0.438800  0.450840  1.0  -0.2823
  N  N715  1  0.214240  0.532300  0.381220  1.0  -0.2916
  N  N716  1  0.140620  0.565380  0.403980  1.0  -0.2264
  N  N717  1  0.343590  0.561170  0.414250  1.0  -0.2562
  N  N718  1  0.052160  0.387270  0.600210  1.0  -0.2621
  N  N719  1  0.091840  0.419080  0.573640  1.0  -0.2469
  N  N720  1  0.582530  0.798160  0.417180  1.0  -0.3174
  N  N721  1  0.690960  0.993330  0.572750  1.0  -0.2682
  N  N722  1  0.680480  0.950840  0.561200  1.0  -0.2795
  N  N723  1  0.746540  0.881220  0.467700  1.0  -0.2904
  N  N724  1  0.706000  0.903980  0.434620  1.0  -0.2276
  N  N725  1  0.904760  0.914250  0.438830  1.0  -0.2555
  N  N726  1  0.439430  0.100210  0.612730  1.0  -0.261
  N  N727  1  0.510920  0.073640  0.580920  1.0  -0.2453
  N  N728  1  0.380690  0.917180  0.201840  1.0  -0.3162
  N  N729  1  0.757040  0.506670  0.927250  1.0  -0.2681
  N  N730  1  0.692520  0.549160  0.938800  1.0  -0.2808
  N  N731  1  0.595460  0.618780  0.032300  1.0  -0.29
  N  N732  1  0.544600  0.596020  0.065380  1.0  -0.2234
  N  N733  1  0.757840  0.585750  0.061170  1.0  -0.2579
  N  N734  1  0.652370  0.399790  0.887270  1.0  -0.2621
  N  N735  1  0.665480  0.426360  0.919080  1.0  -0.2472
  N  N736  1  0.999710  0.582820  0.298160  1.0  -0.3181
  O  O737  1  0.273030  0.883400  0.074740  1.0  -0.5582
  O  O738  1  0.210470  0.977730  0.968730  1.0  -0.5752
  O  O739  1  0.466850  0.883320  0.975580  1.0  -0.5891
  O  O740  1  0.292950  0.970900  0.869800  1.0  -0.5922
  O  O741  1  0.469270  0.048230  0.816830  1.0  -0.5616
  O  O742  1  0.302840  0.040000  0.966520  1.0  -0.5821
  O  O743  1  0.554160  0.858250  0.159830  1.0  -0.5579
  O  O744  1  0.438040  0.831230  0.062890  1.0  -0.5787
  O  O745  1  0.431750  0.971010  0.118690  1.0  -0.5887
  O  O746  1  0.731170  0.616600  0.425260  1.0  -0.5567
  O  O747  1  0.656930  0.522270  0.531270  1.0  -0.5739
  O  O748  1  0.825750  0.616680  0.524420  1.0  -0.5881
  O  O749  1  0.633650  0.529100  0.630200  1.0  -0.5944
  O  O750  1  0.834330  0.451770  0.683170  1.0  -0.565
  O  O751  1  0.809360  0.460000  0.533480  1.0  -0.5812
  O  O752  1  0.072240  0.641750  0.340170  1.0  -0.5575
  O  O753  1  0.832160  0.668770  0.437110  1.0  -0.5781
  O  O754  1  0.021450  0.528990  0.381310  1.0  -0.5858
  O  O755  1  0.347770  0.925260  0.383400  1.0  -0.555
  O  O756  1  0.179200  0.031270  0.477730  1.0  -0.5747
  O  O757  1  0.442430  0.024420  0.383320  1.0  -0.5877
  O  O758  1  0.162750  0.130200  0.470900  1.0  -0.5938
  O  O759  1  0.286100  0.183170  0.548230  1.0  -0.5641
  O  O760  1  0.269360  0.033480  0.540000  1.0  -0.5821
  O  O761  1  0.713990  0.840170  0.358250  1.0  -0.5584
  O  O762  1  0.500930  0.937110  0.331230  1.0  -0.5801
  O  O763  1  0.550440  0.881310  0.471010  1.0  -0.5865
  O  O764  1  0.156430  0.574740  0.116600  1.0  -0.559
  O  O765  1  0.188200  0.468730  0.022270  1.0  -0.5742
  O  O766  1  0.350170  0.475580  0.116680  1.0  -0.5877
  O  O767  1  0.263850  0.369800  0.029100  1.0  -0.5879
  O  O768  1  0.517500  0.316830  0.951770  1.0  -0.5633
  O  O769  1  0.342840  0.466520  0.960000  1.0  -0.582
  O  O770  1  0.412410  0.659830  0.141750  1.0  -0.5577
  O  O771  1  0.269270  0.562890  0.168770  1.0  -0.577
  O  O772  1  0.402760  0.618690  0.028990  1.0  -0.5857
  O  O773  1  0.726970  0.116600  0.925260  1.0  -0.5579
  O  O774  1  0.789530  0.022270  0.031270  1.0  -0.5762
  O  O775  1  0.533150  0.116680  0.024420  1.0  -0.5867
  O  O776  1  0.707050  0.029100  0.130200  1.0  -0.5944
  O  O777  1  0.530730  0.951770  0.183170  1.0  -0.5633
  O  O778  1  0.697160  0.960000  0.033480  1.0  -0.5803
  O  O779  1  0.445840  0.141750  0.840170  1.0  -0.5563
  O  O780  1  0.561960  0.168770  0.937110  1.0  -0.581
  O  O781  1  0.568250  0.028990  0.881310  1.0  -0.5876
  O  O782  1  0.268830  0.383400  0.574740  1.0  -0.5574
  O  O783  1  0.343070  0.477730  0.468730  1.0  -0.5733
  O  O784  1  0.174250  0.383320  0.475580  1.0  -0.587
  O  O785  1  0.366350  0.470900  0.369800  1.0  -0.5941
  O  O786  1  0.165670  0.548230  0.316830  1.0  -0.5644
  O  O787  1  0.190640  0.540000  0.466520  1.0  -0.5813
  O  O788  1  0.927760  0.358250  0.659830  1.0  -0.5575
  O  O789  1  0.167840  0.331230  0.562890  1.0  -0.5793
  O  O790  1  0.978550  0.471010  0.618690  1.0  -0.5869
  O  O791  1  0.652230  0.074740  0.616600  1.0  -0.5565
  O  O792  1  0.820800  0.968730  0.522270  1.0  -0.5759
  O  O793  1  0.557570  0.975580  0.616680  1.0  -0.5855
  O  O794  1  0.837250  0.869800  0.529100  1.0  -0.5874
  O  O795  1  0.713900  0.816830  0.451770  1.0  -0.5643
  O  O796  1  0.730640  0.966520  0.460000  1.0  -0.5808
  O  O797  1  0.286010  0.159830  0.641750  1.0  -0.5593
  O  O798  1  0.499070  0.062890  0.668770  1.0  -0.5803
  O  O799  1  0.449560  0.118690  0.528990  1.0  -0.5878
  O  O800  1  0.843570  0.425260  0.883400  1.0  -0.5601
  O  O801  1  0.811800  0.531270  0.977730  1.0  -0.5738
  O  O802  1  0.649830  0.524420  0.883320  1.0  -0.588
  O  O803  1  0.736150  0.630200  0.970900  1.0  -0.5867
  O  O804  1  0.482500  0.683170  0.048230  1.0  -0.5644
  O  O805  1  0.657160  0.533480  0.040000  1.0  -0.5803
  O  O806  1  0.587590  0.340170  0.858250  1.0  -0.5591
  O  O807  1  0.730730  0.437110  0.831230  1.0  -0.5783
  O  O808  1  0.597240  0.381310  0.971010  1.0  -0.5866
