# generated using pymatgen
data_Mn3H57C51N8O9
_symmetry_space_group_name_H-M   'P 1'
_cell_length_a   40.90640000
_cell_length_b   40.90640000
_cell_length_c   17.45740000
_cell_angle_alpha   90.00000000
_cell_angle_beta   90.00000000
_cell_angle_gamma   90.00000000
_symmetry_Int_Tables_number   1
_chemical_formula_structural   Mn3H57C51N8O9
_chemical_formula_sum   'Mn48 H912 C816 N128 O144'
_cell_volume   29212.05330710
_cell_formula_units_Z   16
loop_
 _symmetry_equiv_pos_site_id
 _symmetry_equiv_pos_as_xyz
  1  'x, y, z'
loop_
 _atom_site_type_symbol
 _atom_site_label
 _atom_site_symmetry_multiplicity
 _atom_site_fract_x
 _atom_site_fract_y
 _atom_site_fract_z
 _atom_site_occupancy
 _atom_site_charge
  Mn  Mn1  1  0.076620  0.040190  0.184110  1.0  0.9852
  Mn  Mn2  1  0.960170  0.037850  0.245070  1.0  0.9993
  Mn  Mn3  1  0.112880  0.970010  0.974160  1.0  0.9584
  Mn  Mn4  1  0.576620  0.540190  0.684110  1.0  0.9852
  Mn  Mn5  1  0.460170  0.537850  0.745070  1.0  0.9993
  Mn  Mn6  1  0.612880  0.470010  0.474160  1.0  0.9584
  Mn  Mn7  1  0.423380  0.959810  0.684110  1.0  0.9843
  Mn  Mn8  1  0.539830  0.962150  0.745070  1.0  0.998
  Mn  Mn9  1  0.387120  0.029990  0.474160  1.0  0.9606
  Mn  Mn10  1  0.923380  0.459810  0.184110  1.0  0.9843
  Mn  Mn11  1  0.039830  0.462150  0.245070  1.0  0.998
  Mn  Mn12  1  0.887120  0.529990  0.974160  1.0  0.9606
  Mn  Mn13  1  0.709810  0.326620  0.434110  1.0  0.9862
  Mn  Mn14  1  0.712150  0.210170  0.495070  1.0  0.9999
  Mn  Mn15  1  0.779990  0.362880  0.224160  1.0  0.9595
  Mn  Mn16  1  0.209810  0.826620  0.934110  1.0  0.9862
  Mn  Mn17  1  0.212150  0.710170  0.995070  1.0  0.9999
  Mn  Mn18  1  0.279990  0.862880  0.724160  1.0  0.9595
  Mn  Mn19  1  0.790190  0.673380  0.934110  1.0  0.982
  Mn  Mn20  1  0.787850  0.789830  0.995070  1.0  0.9983
  Mn  Mn21  1  0.720010  0.637120  0.724160  1.0  0.9591
  Mn  Mn22  1  0.290190  0.173380  0.434110  1.0  0.982
  Mn  Mn23  1  0.287850  0.289830  0.495070  1.0  0.9983
  Mn  Mn24  1  0.220010  0.137120  0.224160  1.0  0.9591
  Mn  Mn25  1  0.923380  0.959810  0.815890  1.0  0.9879
  Mn  Mn26  1  0.039830  0.962150  0.754930  1.0  0.9996
  Mn  Mn27  1  0.887120  0.029990  0.025840  1.0  0.9615
  Mn  Mn28  1  0.423380  0.459810  0.315890  1.0  0.9879
  Mn  Mn29  1  0.539830  0.462150  0.254930  1.0  0.9996
  Mn  Mn30  1  0.387120  0.529990  0.525840  1.0  0.9615
  Mn  Mn31  1  0.576620  0.040190  0.315890  1.0  0.9882
  Mn  Mn32  1  0.460170  0.037850  0.254930  1.0  1.0015
  Mn  Mn33  1  0.612880  0.970010  0.525840  1.0  0.9591
  Mn  Mn34  1  0.076620  0.540190  0.815890  1.0  0.9882
  Mn  Mn35  1  0.960170  0.537850  0.754930  1.0  1.0015
  Mn  Mn36  1  0.112880  0.470010  0.025840  1.0  0.9591
  Mn  Mn37  1  0.290190  0.673380  0.565890  1.0  0.9861
  Mn  Mn38  1  0.287850  0.789830  0.504930  1.0  1.0002
  Mn  Mn39  1  0.220010  0.637120  0.775840  1.0  0.9599
  Mn  Mn40  1  0.790190  0.173380  0.065890  1.0  0.9861
  Mn  Mn41  1  0.787850  0.289830  0.004930  1.0  1.0002
  Mn  Mn42  1  0.720010  0.137120  0.275840  1.0  0.9599
  Mn  Mn43  1  0.209810  0.326620  0.065890  1.0  0.9887
  Mn  Mn44  1  0.212150  0.210170  0.004930  1.0  1.0018
  Mn  Mn45  1  0.279990  0.362880  0.275840  1.0  0.9603
  Mn  Mn46  1  0.709810  0.826620  0.565890  1.0  0.9887
  Mn  Mn47  1  0.712150  0.710170  0.504930  1.0  1.0018
  Mn  Mn48  1  0.779990  0.862880  0.775840  1.0  0.9603
  H  H49  1  0.122100  0.975600  0.352900  1.0  0.1127
  H  H50  1  0.102100  0.953400  0.465600  1.0  0.0971
  H  H51  1  0.049100  0.965100  0.507500  1.0  0.1161
  H  H52  1  0.015000  0.996400  0.428900  1.0  0.0924
  H  H53  1  0.974800  0.080600  0.091000  1.0  0.1044
  H  H54  1  0.999500  0.072700  0.022400  1.0  0.1123
  H  H55  1  0.991400  0.128800  0.024800  1.0  0.0965
  H  H56  1  0.028400  0.121900  0.049800  1.0  0.0839
  H  H57  1  0.014300  0.129300  0.180400  1.0  0.0758
  H  H58  1  0.976800  0.134600  0.157400  1.0  0.0808
  H  H59  1  0.991200  0.184000  0.092100  1.0  0.0909
  H  H60  1  0.028600  0.178800  0.116400  1.0  0.0851
  H  H61  1  0.977600  0.187100  0.228300  1.0  0.1128
  H  H62  1  0.000000  0.216800  0.200000  1.0  0.1136
  H  H63  1  0.016000  0.187100  0.246300  1.0  0.1093
  H  H64  1  0.940300  0.131500  0.354900  1.0  0.111
  H  H65  1  0.899400  0.169600  0.333900  1.0  0.1037
  H  H66  1  0.861400  0.162200  0.236700  1.0  0.1105
  H  H67  1  0.865800  0.117300  0.156500  1.0  0.0928
  H  H68  1  0.962000  0.953400  0.082900  1.0  0.106
  H  H69  1  0.926100  0.962300  0.052300  1.0  0.1025
  H  H70  1  0.927600  0.912700  0.129100  1.0  0.0801
  H  H71  1  0.937500  0.934500  0.201400  1.0  0.0766
  H  H72  1  0.877000  0.940500  0.121500  1.0  0.0715
  H  H73  1  0.886800  0.961900  0.194500  1.0  0.0676
  H  H74  1  0.886600  0.913800  0.271200  1.0  0.087
  H  H75  1  0.876000  0.892800  0.198000  1.0  0.0908
  H  H76  1  0.835700  0.944000  0.259000  1.0  0.1208
  H  H77  1  0.830300  0.906200  0.279500  1.0  0.1105
  H  H78  1  0.825000  0.918800  0.193600  1.0  0.1094
  H  H79  1  0.889400  0.042500  0.329400  1.0  0.0744
  H  H80  1  0.853000  0.010000  0.396700  1.0  0.112
  H  H81  1  0.921300  0.940400  0.408500  1.0  0.1117
  H  H82  1  0.956300  0.974000  0.341700  1.0  0.0789
  H  H83  1  0.837300  0.955300  0.442800  1.0  0.0794
  H  H84  1  0.863500  0.926200  0.438100  1.0  0.0676
  H  H85  1  0.202400  0.012000  0.885300  1.0  0.1092
  H  H86  1  0.235100  0.053800  0.931200  1.0  0.0979
  H  H87  1  0.219300  0.084500  0.038200  1.0  0.1178
  H  H88  1  0.170000  0.072600  0.097600  1.0  0.0909
  H  H89  1  0.027900  0.978200  0.159700  1.0  0.0926
  H  H90  1  0.018500  0.952900  0.093100  1.0  0.0815
  H  H91  1  0.062800  0.938800  0.217700  1.0  0.0879
  H  H92  1  0.056800  0.913900  0.148600  1.0  0.1015
  H  H93  1  0.020100  0.892100  0.217600  1.0  0.0649
  H  H94  1  0.997900  0.922600  0.195700  1.0  0.0851
  H  H95  1  0.033900  0.917700  0.315900  1.0  0.0804
  H  H96  1  0.007400  0.944400  0.293600  1.0  0.0792
  H  H97  1  0.981300  0.881400  0.302200  1.0  0.0954
  H  H98  1  0.994600  0.895200  0.382100  1.0  0.1078
  H  H99  1  0.966800  0.914600  0.336600  1.0  0.0936
  H  H100  1  0.792400  0.873600  0.598700  1.0  0.0651
  H  H101  1  0.822600  0.903100  0.510400  1.0  0.1253
  H  H102  1  0.860900  0.954200  0.686500  1.0  0.1054
  H  H103  1  0.830200  0.922500  0.769100  1.0  0.0777
  H  H104  1  0.863200  0.975500  0.548600  1.0  0.091
  H  H105  1  0.889400  0.946700  0.543800  1.0  0.1003
  H  H106  1  0.622100  0.475600  0.852900  1.0  0.1127
  H  H107  1  0.602100  0.453400  0.965600  1.0  0.0971
  H  H108  1  0.549100  0.465100  0.007500  1.0  0.1161
  H  H109  1  0.515000  0.496400  0.928900  1.0  0.0924
  H  H110  1  0.474800  0.580600  0.591000  1.0  0.1044
  H  H111  1  0.499500  0.572700  0.522400  1.0  0.1123
  H  H112  1  0.491400  0.628800  0.524800  1.0  0.0965
  H  H113  1  0.528400  0.621900  0.549800  1.0  0.0839
  H  H114  1  0.514300  0.629300  0.680400  1.0  0.0757
  H  H115  1  0.476800  0.634600  0.657400  1.0  0.0808
  H  H116  1  0.491200  0.684000  0.592100  1.0  0.0909
  H  H117  1  0.528600  0.678800  0.616400  1.0  0.0851
  H  H118  1  0.477600  0.687100  0.728300  1.0  0.1128
  H  H119  1  0.500000  0.716800  0.700000  1.0  0.1136
  H  H120  1  0.516000  0.687100  0.746300  1.0  0.1093
  H  H121  1  0.440300  0.631500  0.854900  1.0  0.111
  H  H122  1  0.399400  0.669600  0.833900  1.0  0.1037
  H  H123  1  0.361400  0.662200  0.736700  1.0  0.1105
  H  H124  1  0.365800  0.617300  0.656500  1.0  0.0928
  H  H125  1  0.462000  0.453400  0.582900  1.0  0.106
  H  H126  1  0.426100  0.462300  0.552300  1.0  0.1025
  H  H127  1  0.427600  0.412700  0.629100  1.0  0.0801
  H  H128  1  0.437500  0.434500  0.701400  1.0  0.0766
  H  H129  1  0.377000  0.440500  0.621500  1.0  0.0715
  H  H130  1  0.386800  0.461900  0.694500  1.0  0.0676
  H  H131  1  0.386600  0.413800  0.771200  1.0  0.087
  H  H132  1  0.376000  0.392800  0.698000  1.0  0.0908
  H  H133  1  0.335700  0.444000  0.759000  1.0  0.1208
  H  H134  1  0.330300  0.406200  0.779500  1.0  0.1105
  H  H135  1  0.325000  0.418800  0.693600  1.0  0.1094
  H  H136  1  0.389400  0.542500  0.829400  1.0  0.0744
  H  H137  1  0.353000  0.510000  0.896700  1.0  0.112
  H  H138  1  0.421300  0.440400  0.908500  1.0  0.1117
  H  H139  1  0.456300  0.474000  0.841700  1.0  0.0789
  H  H140  1  0.337300  0.455300  0.942800  1.0  0.0784
  H  H141  1  0.363500  0.426200  0.938100  1.0  0.0676
  H  H142  1  0.702400  0.512000  0.385300  1.0  0.1092
  H  H143  1  0.735100  0.553800  0.431200  1.0  0.0979
  H  H144  1  0.719300  0.584500  0.538200  1.0  0.1178
  H  H145  1  0.670000  0.572600  0.597600  1.0  0.0909
  H  H146  1  0.527900  0.478200  0.659700  1.0  0.0926
  H  H147  1  0.518500  0.452900  0.593100  1.0  0.0815
  H  H148  1  0.562800  0.438800  0.717700  1.0  0.0879
  H  H149  1  0.556800  0.413900  0.648600  1.0  0.1015
  H  H150  1  0.520100  0.392100  0.717600  1.0  0.068
  H  H151  1  0.497900  0.422600  0.695700  1.0  0.0851
  H  H152  1  0.533900  0.417700  0.815900  1.0  0.0804
  H  H153  1  0.507400  0.444400  0.793600  1.0  0.0792
  H  H154  1  0.481300  0.381400  0.802200  1.0  0.0954
  H  H155  1  0.494600  0.395200  0.882100  1.0  0.1078
  H  H156  1  0.466800  0.414600  0.836600  1.0  0.0936
  H  H157  1  0.292400  0.373600  0.098700  1.0  0.0651
  H  H158  1  0.322600  0.403100  0.010400  1.0  0.1253
  H  H159  1  0.360900  0.454200  0.186500  1.0  0.1054
  H  H160  1  0.330200  0.422500  0.269100  1.0  0.0777
  H  H161  1  0.363200  0.475500  0.048600  1.0  0.091
  H  H162  1  0.389400  0.446700  0.043800  1.0  0.1003
  H  H163  1  0.377900  0.024400  0.852900  1.0  0.1128
  H  H164  1  0.397900  0.046600  0.965600  1.0  0.0966
  H  H165  1  0.450900  0.034900  0.007500  1.0  0.1157
  H  H166  1  0.485000  0.003600  0.928900  1.0  0.0927
  H  H167  1  0.525200  0.919400  0.591000  1.0  0.1029
  H  H168  1  0.500500  0.927300  0.522400  1.0  0.1124
  H  H169  1  0.508600  0.871200  0.524800  1.0  0.0959
  H  H170  1  0.471600  0.878100  0.549800  1.0  0.0872
  H  H171  1  0.485700  0.870700  0.680400  1.0  0.0764
  H  H172  1  0.523200  0.865400  0.657400  1.0  0.0791
  H  H173  1  0.508800  0.816000  0.592100  1.0  0.0908
  H  H174  1  0.471400  0.821200  0.616400  1.0  0.0863
  H  H175  1  0.522400  0.812900  0.728300  1.0  0.1127
  H  H176  1  0.500000  0.783200  0.700000  1.0  0.1133
  H  H177  1  0.484000  0.812900  0.746300  1.0  0.1097
  H  H178  1  0.559700  0.868500  0.854900  1.0  0.112
  H  H179  1  0.600600  0.830400  0.833900  1.0  0.1046
  H  H180  1  0.638600  0.837800  0.736700  1.0  0.1091
  H  H181  1  0.634200  0.882700  0.656500  1.0  0.0928
  H  H182  1  0.538000  0.046600  0.582900  1.0  0.1053
  H  H183  1  0.573900  0.037700  0.552300  1.0  0.1021
  H  H184  1  0.572400  0.087300  0.629100  1.0  0.079
  H  H185  1  0.562500  0.065500  0.701400  1.0  0.076
  H  H186  1  0.623000  0.059500  0.621500  1.0  0.0709
  H  H187  1  0.613200  0.038100  0.694500  1.0  0.0691
  H  H188  1  0.613400  0.086200  0.771200  1.0  0.0871
  H  H189  1  0.624000  0.107200  0.698000  1.0  0.092
  H  H190  1  0.664300  0.056000  0.759000  1.0  0.121
  H  H191  1  0.669700  0.093800  0.779500  1.0  0.1096
  H  H192  1  0.675000  0.081200  0.693600  1.0  0.1091
  H  H193  1  0.610600  0.957500  0.829400  1.0  0.0745
  H  H194  1  0.647000  0.990000  0.896700  1.0  0.1137
  H  H195  1  0.578700  0.059600  0.908500  1.0  0.112
  H  H196  1  0.543700  0.026000  0.841700  1.0  0.0787
  H  H197  1  0.662700  0.044700  0.942800  1.0  0.0771
  H  H198  1  0.636500  0.073800  0.938100  1.0  0.0698
  H  H199  1  0.297600  0.988000  0.385300  1.0  0.1098
  H  H200  1  0.264900  0.946200  0.431200  1.0  0.098
  H  H201  1  0.280700  0.915500  0.538200  1.0  0.1179
  H  H202  1  0.330000  0.927400  0.597600  1.0  0.0922
  H  H203  1  0.472100  0.021800  0.659700  1.0  0.0941
  H  H204  1  0.481500  0.047100  0.593100  1.0  0.0812
  H  H205  1  0.437200  0.061200  0.717700  1.0  0.0894
  H  H206  1  0.443200  0.086100  0.648600  1.0  0.1024
  H  H207  1  0.479900  0.107900  0.717600  1.0  0.071
  H  H208  1  0.502100  0.077400  0.695700  1.0  0.0796
  H  H209  1  0.466100  0.082300  0.815900  1.0  0.0742
  H  H210  1  0.492600  0.055600  0.793600  1.0  0.0774
  H  H211  1  0.518700  0.118600  0.802200  1.0  0.097
  H  H212  1  0.505400  0.104800  0.882100  1.0  0.1085
  H  H213  1  0.533200  0.085400  0.836600  1.0  0.0955
  H  H214  1  0.707600  0.126400  0.098700  1.0  0.0645
  H  H215  1  0.677400  0.096900  0.010400  1.0  0.1262
  H  H216  1  0.639100  0.045800  0.186500  1.0  0.1053
  H  H217  1  0.669800  0.077500  0.269100  1.0  0.0778
  H  H218  1  0.636800  0.024500  0.048600  1.0  0.092
  H  H219  1  0.610600  0.053300  0.043800  1.0  0.1038
  H  H220  1  0.877900  0.524400  0.352900  1.0  0.1128
  H  H221  1  0.897900  0.546600  0.465600  1.0  0.0966
  H  H222  1  0.950900  0.534900  0.507500  1.0  0.1157
  H  H223  1  0.985000  0.503600  0.428900  1.0  0.0927
  H  H224  1  0.025200  0.419400  0.091000  1.0  0.1029
  H  H225  1  0.000500  0.427300  0.022400  1.0  0.1124
  H  H226  1  0.008600  0.371200  0.024800  1.0  0.0959
  H  H227  1  0.971600  0.378100  0.049800  1.0  0.0879
  H  H228  1  0.985700  0.370700  0.180400  1.0  0.0765
  H  H229  1  0.023200  0.365400  0.157400  1.0  0.0791
  H  H230  1  0.008800  0.316000  0.092100  1.0  0.0908
  H  H231  1  0.971400  0.321200  0.116400  1.0  0.0863
  H  H232  1  0.022400  0.312900  0.228300  1.0  0.1127
  H  H233  1  0.000000  0.283200  0.200000  1.0  0.1133
  H  H234  1  0.984000  0.312900  0.246300  1.0  0.1097
  H  H235  1  0.059700  0.368500  0.354900  1.0  0.112
  H  H236  1  0.100600  0.330400  0.333900  1.0  0.1046
  H  H237  1  0.138600  0.337800  0.236700  1.0  0.1091
  H  H238  1  0.134200  0.382700  0.156500  1.0  0.0928
  H  H239  1  0.038000  0.546600  0.082900  1.0  0.1053
  H  H240  1  0.073900  0.537700  0.052300  1.0  0.1021
  H  H241  1  0.072400  0.587300  0.129100  1.0  0.079
  H  H242  1  0.062500  0.565500  0.201400  1.0  0.076
  H  H243  1  0.123000  0.559500  0.121500  1.0  0.0709
  H  H244  1  0.113200  0.538100  0.194500  1.0  0.0691
  H  H245  1  0.113400  0.586200  0.271200  1.0  0.0871
  H  H246  1  0.124000  0.607200  0.198000  1.0  0.092
  H  H247  1  0.164300  0.556000  0.259000  1.0  0.121
  H  H248  1  0.169700  0.593800  0.279500  1.0  0.1096
  H  H249  1  0.175000  0.581200  0.193600  1.0  0.1091
  H  H250  1  0.110600  0.457500  0.329400  1.0  0.0745
  H  H251  1  0.147000  0.490000  0.396700  1.0  0.1137
  H  H252  1  0.078700  0.559600  0.408500  1.0  0.112
  H  H253  1  0.043700  0.526000  0.341700  1.0  0.0787
  H  H254  1  0.162700  0.544700  0.442800  1.0  0.0771
  H  H255  1  0.136500  0.573800  0.438100  1.0  0.0698
  H  H256  1  0.797600  0.488000  0.885300  1.0  0.1098
  H  H257  1  0.764900  0.446200  0.931200  1.0  0.098
  H  H258  1  0.780700  0.415500  0.038200  1.0  0.1179
  H  H259  1  0.830000  0.427400  0.097600  1.0  0.0922
  H  H260  1  0.972100  0.521800  0.159700  1.0  0.0941
  H  H261  1  0.981500  0.547100  0.093100  1.0  0.0812
  H  H262  1  0.937200  0.561200  0.217700  1.0  0.0894
  H  H263  1  0.943200  0.586100  0.148600  1.0  0.1029
  H  H264  1  0.979900  0.607900  0.217600  1.0  0.071
  H  H265  1  0.002100  0.577400  0.195700  1.0  0.0796
  H  H266  1  0.966100  0.582300  0.315900  1.0  0.0742
  H  H267  1  0.992600  0.555600  0.293600  1.0  0.0774
  H  H268  1  0.018700  0.618600  0.302200  1.0  0.097
  H  H269  1  0.005400  0.604800  0.382100  1.0  0.1085
  H  H270  1  0.033200  0.585400  0.336600  1.0  0.0955
  H  H271  1  0.207600  0.626400  0.598700  1.0  0.0645
  H  H272  1  0.177400  0.596900  0.510400  1.0  0.1262
  H  H273  1  0.139100  0.545800  0.686500  1.0  0.1053
  H  H274  1  0.169800  0.577500  0.769100  1.0  0.0778
  H  H275  1  0.136800  0.524500  0.548600  1.0  0.092
  H  H276  1  0.110600  0.553300  0.543800  1.0  0.1038
  H  H277  1  0.774400  0.372100  0.602900  1.0  0.1125
  H  H278  1  0.796600  0.352100  0.715600  1.0  0.0955
  H  H279  1  0.784900  0.299100  0.757500  1.0  0.1151
  H  H280  1  0.753600  0.265000  0.678900  1.0  0.0933
  H  H281  1  0.669400  0.224800  0.341000  1.0  0.1032
  H  H282  1  0.677300  0.249500  0.272400  1.0  0.1125
  H  H283  1  0.621200  0.241400  0.274800  1.0  0.0961
  H  H284  1  0.628100  0.278400  0.299800  1.0  0.0937
  H  H285  1  0.620700  0.264300  0.430400  1.0  0.076
  H  H286  1  0.615400  0.226800  0.407400  1.0  0.0794
  H  H287  1  0.566000  0.241200  0.342100  1.0  0.0903
  H  H288  1  0.571200  0.278600  0.366400  1.0  0.0859
  H  H289  1  0.562900  0.227600  0.478300  1.0  0.1156
  H  H290  1  0.533200  0.250000  0.450000  1.0  0.1102
  H  H291  1  0.562900  0.266000  0.496300  1.0  0.1098
  H  H292  1  0.618500  0.190300  0.604900  1.0  0.1111
  H  H293  1  0.580400  0.149400  0.583900  1.0  0.1058
  H  H294  1  0.587800  0.111400  0.486700  1.0  0.1106
  H  H295  1  0.632700  0.115800  0.406500  1.0  0.0928
  H  H296  1  0.796600  0.212000  0.332900  1.0  0.1049
  H  H297  1  0.787700  0.176100  0.302300  1.0  0.102
  H  H298  1  0.837300  0.177600  0.379100  1.0  0.0849
  H  H299  1  0.815500  0.187500  0.451400  1.0  0.0772
  H  H300  1  0.809500  0.127000  0.371500  1.0  0.0737
  H  H301  1  0.788100  0.136800  0.444500  1.0  0.0721
  H  H302  1  0.836200  0.136600  0.521200  1.0  0.0864
  H  H303  1  0.857200  0.126000  0.448000  1.0  0.0917
  H  H304  1  0.806000  0.085700  0.509000  1.0  0.1158
  H  H305  1  0.843800  0.080300  0.529500  1.0  0.1098
  H  H306  1  0.831200  0.075000  0.443600  1.0  0.1083
  H  H307  1  0.707500  0.139400  0.579400  1.0  0.0742
  H  H308  1  0.740000  0.103000  0.646700  1.0  0.1126
  H  H309  1  0.809600  0.171300  0.658500  1.0  0.1124
  H  H310  1  0.776000  0.206300  0.591700  1.0  0.079
  H  H311  1  0.794700  0.087300  0.692800  1.0  0.0795
  H  H312  1  0.823800  0.113500  0.688100  1.0  0.0723
  H  H313  1  0.738000  0.452400  0.135300  1.0  0.1106
  H  H314  1  0.696200  0.485100  0.181200  1.0  0.0993
  H  H315  1  0.665500  0.469300  0.288200  1.0  0.1182
  H  H316  1  0.677400  0.420000  0.347600  1.0  0.0919
  H  H317  1  0.771800  0.277900  0.409700  1.0  0.0944
  H  H318  1  0.797100  0.268500  0.343100  1.0  0.0829
  H  H319  1  0.811200  0.312800  0.467700  1.0  0.0909
  H  H320  1  0.836100  0.306800  0.398600  1.0  0.1014
  H  H321  1  0.857900  0.270100  0.467600  1.0  0.0754
  H  H322  1  0.827400  0.247900  0.445700  1.0  0.0839
  H  H323  1  0.832300  0.283900  0.565900  1.0  0.0708
  H  H324  1  0.805600  0.257400  0.543600  1.0  0.0807
  H  H325  1  0.868600  0.231300  0.552200  1.0  0.0943
  H  H326  1  0.854800  0.244600  0.632100  1.0  0.1083
  H  H327  1  0.835400  0.216800  0.586600  1.0  0.0993
  H  H328  1  0.876400  0.042400  0.848700  1.0  0.0643
  H  H329  1  0.846900  0.072600  0.760400  1.0  0.1266
  H  H330  1  0.795800  0.110900  0.936500  1.0  0.1056
  H  H331  1  0.827500  0.080200  0.019100  1.0  0.078
  H  H332  1  0.774500  0.113200  0.798600  1.0  0.0918
  H  H333  1  0.803300  0.139400  0.793800  1.0  0.1046
  H  H334  1  0.274400  0.872100  0.102900  1.0  0.1125
  H  H335  1  0.296600  0.852100  0.215600  1.0  0.0955
  H  H336  1  0.284900  0.799100  0.257500  1.0  0.1151
  H  H337  1  0.253600  0.765000  0.178900  1.0  0.0933
  H  H338  1  0.169400  0.724800  0.841000  1.0  0.1032
  H  H339  1  0.177300  0.749500  0.772400  1.0  0.1125
  H  H340  1  0.121200  0.741400  0.774800  1.0  0.0961
  H  H341  1  0.128100  0.778400  0.799800  1.0  0.0937
  H  H342  1  0.120700  0.764300  0.930400  1.0  0.076
  H  H343  1  0.115400  0.726800  0.907400  1.0  0.0794
  H  H344  1  0.066000  0.741200  0.842100  1.0  0.0903
  H  H345  1  0.071200  0.778600  0.866400  1.0  0.0859
  H  H346  1  0.062900  0.727600  0.978300  1.0  0.1156
  H  H347  1  0.033200  0.750000  0.950000  1.0  0.1102
  H  H348  1  0.062900  0.766000  0.996300  1.0  0.1098
  H  H349  1  0.118500  0.690300  0.104900  1.0  0.1119
  H  H350  1  0.080400  0.649400  0.083900  1.0  0.1058
  H  H351  1  0.087800  0.611400  0.986700  1.0  0.1106
  H  H352  1  0.132700  0.615800  0.906500  1.0  0.0928
  H  H353  1  0.296600  0.712000  0.832900  1.0  0.1049
  H  H354  1  0.287700  0.676100  0.802300  1.0  0.102
  H  H355  1  0.337300  0.677600  0.879100  1.0  0.0849
  H  H356  1  0.315500  0.687500  0.951400  1.0  0.0772
  H  H357  1  0.309500  0.627000  0.871500  1.0  0.0737
  H  H358  1  0.288100  0.636800  0.944500  1.0  0.0721
  H  H359  1  0.336200  0.636600  0.021200  1.0  0.0864
  H  H360  1  0.357200  0.626000  0.948000  1.0  0.0917
  H  H361  1  0.306000  0.585700  0.009000  1.0  0.1158
  H  H362  1  0.343800  0.580300  0.029500  1.0  0.1098
  H  H363  1  0.331200  0.575000  0.943600  1.0  0.1083
  H  H364  1  0.207500  0.639400  0.079400  1.0  0.0742
  H  H365  1  0.240000  0.603000  0.146700  1.0  0.1126
  H  H366  1  0.309600  0.671300  0.158500  1.0  0.1124
  H  H367  1  0.276000  0.706300  0.091700  1.0  0.079
  H  H368  1  0.294700  0.587300  0.192800  1.0  0.0795
  H  H369  1  0.323800  0.613500  0.188100  1.0  0.0723
  H  H370  1  0.238000  0.952400  0.635300  1.0  0.1106
  H  H371  1  0.196200  0.985100  0.681200  1.0  0.0993
  H  H372  1  0.165500  0.969300  0.788200  1.0  0.1182
  H  H373  1  0.177400  0.920000  0.847600  1.0  0.0919
  H  H374  1  0.271800  0.777900  0.909700  1.0  0.0944
  H  H375  1  0.297100  0.768500  0.843100  1.0  0.0829
  H  H376  1  0.311200  0.812800  0.967700  1.0  0.0909
  H  H377  1  0.336100  0.806800  0.898600  1.0  0.1014
  H  H378  1  0.357900  0.770100  0.967600  1.0  0.0754
  H  H379  1  0.327400  0.747900  0.945700  1.0  0.0839
  H  H380  1  0.332300  0.783900  0.065900  1.0  0.0708
  H  H381  1  0.305600  0.757400  0.043600  1.0  0.0807
  H  H382  1  0.368600  0.731300  0.052200  1.0  0.0943
  H  H383  1  0.354800  0.744600  0.132100  1.0  0.1083
  H  H384  1  0.335400  0.716800  0.086600  1.0  0.0993
  H  H385  1  0.376400  0.542400  0.348700  1.0  0.0642
  H  H386  1  0.346900  0.572600  0.260400  1.0  0.1266
  H  H387  1  0.295800  0.610900  0.436500  1.0  0.1056
  H  H388  1  0.327500  0.580200  0.519100  1.0  0.078
  H  H389  1  0.274500  0.613200  0.298600  1.0  0.0918
  H  H390  1  0.303300  0.639400  0.293800  1.0  0.1046
  H  H391  1  0.725600  0.627900  0.102900  1.0  0.1128
  H  H392  1  0.703400  0.647900  0.215600  1.0  0.0957
  H  H393  1  0.715100  0.700900  0.257500  1.0  0.1158
  H  H394  1  0.746400  0.735000  0.178900  1.0  0.093
  H  H395  1  0.830600  0.775200  0.841000  1.0  0.1034
  H  H396  1  0.822700  0.750500  0.772400  1.0  0.1125
  H  H397  1  0.878800  0.758600  0.774800  1.0  0.0974
  H  H398  1  0.871900  0.721600  0.799800  1.0  0.0887
  H  H399  1  0.879300  0.735700  0.930400  1.0  0.077
  H  H400  1  0.884600  0.773200  0.907400  1.0  0.0785
  H  H401  1  0.934000  0.758800  0.842100  1.0  0.091
  H  H402  1  0.928800  0.721400  0.866400  1.0  0.0865
  H  H403  1  0.937100  0.772400  0.978300  1.0  0.1153
  H  H404  1  0.966800  0.750000  0.950000  1.0  0.1077
  H  H405  1  0.937100  0.734000  0.996300  1.0  0.1104
  H  H406  1  0.881500  0.809700  0.104900  1.0  0.112
  H  H407  1  0.919600  0.850600  0.083900  1.0  0.1058
  H  H408  1  0.912200  0.888600  0.986700  1.0  0.1104
  H  H409  1  0.867300  0.884200  0.906500  1.0  0.0927
  H  H410  1  0.703400  0.788000  0.832900  1.0  0.1041
  H  H411  1  0.712300  0.823900  0.802300  1.0  0.1017
  H  H412  1  0.662700  0.822400  0.879100  1.0  0.0813
  H  H413  1  0.684500  0.812500  0.951400  1.0  0.0773
  H  H414  1  0.690500  0.873000  0.871500  1.0  0.0714
  H  H415  1  0.711900  0.863200  0.944500  1.0  0.0717
  H  H416  1  0.663800  0.863400  0.021200  1.0  0.0881
  H  H417  1  0.642800  0.874000  0.948000  1.0  0.0944
  H  H418  1  0.694000  0.914300  0.009000  1.0  0.1154
  H  H419  1  0.656200  0.919700  0.029500  1.0  0.1098
  H  H420  1  0.668800  0.925000  0.943600  1.0  0.1087
  H  H421  1  0.792500  0.860600  0.079400  1.0  0.0737
  H  H422  1  0.760000  0.897000  0.146700  1.0  0.1132
  H  H423  1  0.690400  0.828700  0.158500  1.0  0.112
  H  H424  1  0.724000  0.793700  0.091700  1.0  0.0796
  H  H425  1  0.705300  0.912700  0.192800  1.0  0.0766
  H  H426  1  0.676200  0.886500  0.188100  1.0  0.074
  H  H427  1  0.762000  0.547600  0.635300  1.0  0.1106
  H  H428  1  0.803800  0.514900  0.681200  1.0  0.0983
  H  H429  1  0.834500  0.530700  0.788200  1.0  0.1175
  H  H430  1  0.822600  0.580000  0.847600  1.0  0.0931
  H  H431  1  0.728200  0.722100  0.909700  1.0  0.0948
  H  H432  1  0.702900  0.731500  0.843100  1.0  0.0818
  H  H433  1  0.688800  0.687200  0.967700  1.0  0.0913
  H  H434  1  0.663900  0.693200  0.898600  1.0  0.1026
  H  H435  1  0.642100  0.729900  0.967600  1.0  0.0779
  H  H436  1  0.672600  0.752100  0.945700  1.0  0.0846
  H  H437  1  0.667700  0.716100  0.065900  1.0  0.0702
  H  H438  1  0.694400  0.742600  0.043600  1.0  0.0805
  H  H439  1  0.631400  0.768700  0.052200  1.0  0.0958
  H  H440  1  0.645200  0.755400  0.132100  1.0  0.109
  H  H441  1  0.664600  0.783200  0.086600  1.0  0.0981
  H  H442  1  0.623600  0.957600  0.348700  1.0  0.0638
  H  H443  1  0.653100  0.927400  0.260400  1.0  0.1253
  H  H444  1  0.704200  0.889100  0.436500  1.0  0.1061
  H  H445  1  0.672500  0.919800  0.519100  1.0  0.078
  H  H446  1  0.725500  0.886800  0.298600  1.0  0.0945
  H  H447  1  0.696700  0.860600  0.293800  1.0  0.1044
  H  H448  1  0.225600  0.127900  0.602900  1.0  0.1128
  H  H449  1  0.203400  0.147900  0.715600  1.0  0.0957
  H  H450  1  0.215100  0.200900  0.757500  1.0  0.1158
  H  H451  1  0.246400  0.235000  0.678900  1.0  0.093
  H  H452  1  0.330600  0.275200  0.341000  1.0  0.1034
  H  H453  1  0.322700  0.250500  0.272400  1.0  0.1125
  H  H454  1  0.378800  0.258600  0.274800  1.0  0.0974
  H  H455  1  0.371900  0.221600  0.299800  1.0  0.0887
  H  H456  1  0.379300  0.235700  0.430400  1.0  0.077
  H  H457  1  0.384600  0.273200  0.407400  1.0  0.0785
  H  H458  1  0.434000  0.258800  0.342100  1.0  0.091
  H  H459  1  0.428800  0.221400  0.366400  1.0  0.0865
  H  H460  1  0.437100  0.272400  0.478300  1.0  0.1153
  H  H461  1  0.466800  0.250000  0.450000  1.0  0.1077
  H  H462  1  0.437100  0.234000  0.496300  1.0  0.1104
  H  H463  1  0.381500  0.309700  0.604900  1.0  0.112
  H  H464  1  0.419600  0.350600  0.583900  1.0  0.1058
  H  H465  1  0.412200  0.388600  0.486700  1.0  0.1104
  H  H466  1  0.367300  0.384200  0.406500  1.0  0.0927
  H  H467  1  0.203400  0.288000  0.332900  1.0  0.1041
  H  H468  1  0.212300  0.323900  0.302300  1.0  0.1017
  H  H469  1  0.162700  0.322400  0.379100  1.0  0.0813
  H  H470  1  0.184500  0.312500  0.451400  1.0  0.0773
  H  H471  1  0.190500  0.373000  0.371500  1.0  0.0714
  H  H472  1  0.211900  0.363200  0.444500  1.0  0.0717
  H  H473  1  0.163800  0.363400  0.521200  1.0  0.0881
  H  H474  1  0.142800  0.374000  0.448000  1.0  0.0925
  H  H475  1  0.194000  0.414300  0.509000  1.0  0.1154
  H  H476  1  0.156200  0.419700  0.529500  1.0  0.1098
  H  H477  1  0.168800  0.425000  0.443600  1.0  0.1087
  H  H478  1  0.292500  0.360600  0.579400  1.0  0.0737
  H  H479  1  0.260000  0.397000  0.646700  1.0  0.1132
  H  H480  1  0.190400  0.328700  0.658500  1.0  0.112
  H  H481  1  0.224000  0.293700  0.591700  1.0  0.0796
  H  H482  1  0.205300  0.412700  0.692800  1.0  0.0766
  H  H483  1  0.176200  0.386500  0.688100  1.0  0.074
  H  H484  1  0.262000  0.047600  0.135300  1.0  0.1106
  H  H485  1  0.303800  0.014900  0.181200  1.0  0.0983
  H  H486  1  0.334500  0.030700  0.288200  1.0  0.1175
  H  H487  1  0.322600  0.080000  0.347600  1.0  0.0931
  H  H488  1  0.228200  0.222100  0.409700  1.0  0.0948
  H  H489  1  0.202900  0.231500  0.343100  1.0  0.0818
  H  H490  1  0.188800  0.187200  0.467700  1.0  0.0913
  H  H491  1  0.163900  0.193200  0.398600  1.0  0.1026
  H  H492  1  0.142100  0.229900  0.467600  1.0  0.0779
  H  H493  1  0.172600  0.252100  0.445700  1.0  0.0846
  H  H494  1  0.167700  0.216100  0.565900  1.0  0.0702
  H  H495  1  0.194400  0.242600  0.543600  1.0  0.0805
  H  H496  1  0.131400  0.268700  0.552200  1.0  0.0958
  H  H497  1  0.145200  0.255400  0.632100  1.0  0.109
  H  H498  1  0.164600  0.283200  0.586600  1.0  0.0981
  H  H499  1  0.123600  0.457600  0.848700  1.0  0.0638
  H  H500  1  0.153100  0.427400  0.760400  1.0  0.1253
  H  H501  1  0.204200  0.389100  0.936500  1.0  0.1061
  H  H502  1  0.172500  0.419800  0.019100  1.0  0.078
  H  H503  1  0.225500  0.386800  0.798600  1.0  0.0945
  H  H504  1  0.196700  0.360600  0.793800  1.0  0.1044
  H  H505  1  0.877900  0.024400  0.647100  1.0  0.1126
  H  H506  1  0.897900  0.046600  0.534400  1.0  0.0964
  H  H507  1  0.950900  0.034900  0.492500  1.0  0.1156
  H  H508  1  0.985000  0.003600  0.571100  1.0  0.0924
  H  H509  1  0.025200  0.919400  0.909000  1.0  0.1027
  H  H510  1  0.000500  0.927300  0.977600  1.0  0.1103
  H  H511  1  0.008600  0.871200  0.975200  1.0  0.0969
  H  H512  1  0.971600  0.878100  0.950200  1.0  0.0869
  H  H513  1  0.985700  0.870700  0.819600  1.0  0.0764
  H  H514  1  0.023200  0.865400  0.842600  1.0  0.0785
  H  H515  1  0.008800  0.816000  0.907900  1.0  0.0907
  H  H516  1  0.971400  0.821200  0.883600  1.0  0.0862
  H  H517  1  0.022400  0.812900  0.771700  1.0  0.1125
  H  H518  1  0.000000  0.783200  0.800000  1.0  0.1138
  H  H519  1  0.984000  0.812900  0.753700  1.0  0.1085
  H  H520  1  0.059700  0.868500  0.645100  1.0  0.1102
  H  H521  1  0.100600  0.830400  0.666100  1.0  0.1033
  H  H522  1  0.138600  0.837800  0.763300  1.0  0.1095
  H  H523  1  0.134200  0.882700  0.843500  1.0  0.0928
  H  H524  1  0.038000  0.046600  0.917100  1.0  0.1049
  H  H525  1  0.073900  0.037700  0.947700  1.0  0.1016
  H  H526  1  0.072400  0.087300  0.870900  1.0  0.0786
  H  H527  1  0.062500  0.065500  0.798600  1.0  0.0769
  H  H528  1  0.123000  0.059500  0.878500  1.0  0.0708
  H  H529  1  0.113200  0.038100  0.805500  1.0  0.0686
  H  H530  1  0.113400  0.086200  0.728800  1.0  0.0875
  H  H531  1  0.124000  0.107200  0.802000  1.0  0.091
  H  H532  1  0.164300  0.056000  0.741000  1.0  0.1196
  H  H533  1  0.169700  0.093800  0.720500  1.0  0.1096
  H  H534  1  0.175000  0.081200  0.806400  1.0  0.1097
  H  H535  1  0.110600  0.957500  0.670600  1.0  0.0742
  H  H536  1  0.147000  0.990000  0.603300  1.0  0.1134
  H  H537  1  0.078700  0.059600  0.591500  1.0  0.1119
  H  H538  1  0.043700  0.026000  0.658300  1.0  0.0787
  H  H539  1  0.162700  0.044700  0.557200  1.0  0.0781
  H  H540  1  0.136500  0.073800  0.561900  1.0  0.0716
  H  H541  1  0.797600  0.988000  0.114700  1.0  0.109
  H  H542  1  0.764900  0.946200  0.068800  1.0  0.099
  H  H543  1  0.780700  0.915500  0.961800  1.0  0.1179
  H  H544  1  0.830000  0.927400  0.902400  1.0  0.0912
  H  H545  1  0.972100  0.021800  0.840300  1.0  0.0938
  H  H546  1  0.981500  0.047100  0.906900  1.0  0.0807
  H  H547  1  0.937200  0.061200  0.782300  1.0  0.0899
  H  H548  1  0.943200  0.086100  0.851400  1.0  0.1014
  H  H549  1  0.979900  0.107900  0.782400  1.0  0.0669
  H  H550  1  0.002100  0.077400  0.804300  1.0  0.0787
  H  H551  1  0.966100  0.082300  0.684100  1.0  0.0748
  H  H552  1  0.992600  0.055600  0.706400  1.0  0.0803
  H  H553  1  0.018700  0.118600  0.697800  1.0  0.0971
  H  H554  1  0.005400  0.104800  0.617900  1.0  0.1093
  H  H555  1  0.033200  0.085400  0.663400  1.0  0.0955
  H  H556  1  0.207600  0.126400  0.401300  1.0  0.0652
  H  H557  1  0.177400  0.096900  0.489600  1.0  0.1268
  H  H558  1  0.139100  0.045800  0.313500  1.0  0.1057
  H  H559  1  0.169800  0.077500  0.230900  1.0  0.078
  H  H560  1  0.136800  0.024500  0.451400  1.0  0.0919
  H  H561  1  0.110600  0.053300  0.456200  1.0  0.1039
  H  H562  1  0.377900  0.524400  0.147100  1.0  0.1126
  H  H563  1  0.397900  0.546600  0.034400  1.0  0.0964
  H  H564  1  0.450900  0.534900  0.992500  1.0  0.1156
  H  H565  1  0.485000  0.503600  0.071100  1.0  0.0924
  H  H566  1  0.525200  0.419400  0.409000  1.0  0.1027
  H  H567  1  0.500500  0.427300  0.477600  1.0  0.1103
  H  H568  1  0.508600  0.371200  0.475200  1.0  0.0969
  H  H569  1  0.471600  0.378100  0.450200  1.0  0.0868
  H  H570  1  0.485700  0.370700  0.319600  1.0  0.0764
  H  H571  1  0.523200  0.365400  0.342600  1.0  0.0785
  H  H572  1  0.508800  0.316000  0.407900  1.0  0.0907
  H  H573  1  0.471400  0.321200  0.383600  1.0  0.0862
  H  H574  1  0.522400  0.312900  0.271700  1.0  0.1125
  H  H575  1  0.500000  0.283200  0.300000  1.0  0.1138
  H  H576  1  0.484000  0.312900  0.253700  1.0  0.1085
  H  H577  1  0.559700  0.368500  0.145100  1.0  0.1102
  H  H578  1  0.600600  0.330400  0.166100  1.0  0.1033
  H  H579  1  0.638600  0.337800  0.263300  1.0  0.1095
  H  H580  1  0.634200  0.382700  0.343500  1.0  0.0928
  H  H581  1  0.538000  0.546600  0.417100  1.0  0.1049
  H  H582  1  0.573900  0.537700  0.447700  1.0  0.1016
  H  H583  1  0.572400  0.587300  0.370900  1.0  0.0786
  H  H584  1  0.562500  0.565500  0.298600  1.0  0.0769
  H  H585  1  0.623000  0.559500  0.378500  1.0  0.0708
  H  H586  1  0.613200  0.538100  0.305500  1.0  0.0686
  H  H587  1  0.613400  0.586200  0.228800  1.0  0.0875
  H  H588  1  0.624000  0.607200  0.302000  1.0  0.091
  H  H589  1  0.664300  0.556000  0.241000  1.0  0.1196
  H  H590  1  0.669700  0.593800  0.220500  1.0  0.1096
  H  H591  1  0.675000  0.581200  0.306400  1.0  0.1097
  H  H592  1  0.610600  0.457500  0.170600  1.0  0.0742
  H  H593  1  0.647000  0.490000  0.103300  1.0  0.1134
  H  H594  1  0.578700  0.559600  0.091500  1.0  0.1119
  H  H595  1  0.543700  0.526000  0.158300  1.0  0.0787
  H  H596  1  0.662700  0.544700  0.057200  1.0  0.0781
  H  H597  1  0.636500  0.573800  0.061900  1.0  0.0716
  H  H598  1  0.297600  0.488000  0.614700  1.0  0.1089
  H  H599  1  0.264900  0.446200  0.568800  1.0  0.099
  H  H600  1  0.280700  0.415500  0.461800  1.0  0.1179
  H  H601  1  0.330000  0.427400  0.402400  1.0  0.0912
  H  H602  1  0.472100  0.521800  0.340300  1.0  0.0938
  H  H603  1  0.481500  0.547100  0.406900  1.0  0.0807
  H  H604  1  0.437200  0.561200  0.282300  1.0  0.0899
  H  H605  1  0.443200  0.586100  0.351400  1.0  0.1006
  H  H606  1  0.479900  0.607900  0.282400  1.0  0.0669
  H  H607  1  0.502100  0.577400  0.304300  1.0  0.0787
  H  H608  1  0.466100  0.582300  0.184100  1.0  0.0748
  H  H609  1  0.492600  0.555600  0.206400  1.0  0.0803
  H  H610  1  0.518700  0.618600  0.197800  1.0  0.0971
  H  H611  1  0.505400  0.604800  0.117900  1.0  0.1093
  H  H612  1  0.533200  0.585400  0.163400  1.0  0.0955
  H  H613  1  0.707600  0.626400  0.901300  1.0  0.0652
  H  H614  1  0.677400  0.596900  0.989600  1.0  0.1268
  H  H615  1  0.639100  0.545800  0.813500  1.0  0.1057
  H  H616  1  0.669800  0.577500  0.730900  1.0  0.078
  H  H617  1  0.636800  0.524500  0.951400  1.0  0.0919
  H  H618  1  0.610600  0.553300  0.956200  1.0  0.1039
  H  H619  1  0.622100  0.975600  0.147100  1.0  0.1131
  H  H620  1  0.602100  0.953400  0.034400  1.0  0.0964
  H  H621  1  0.549100  0.965100  0.992500  1.0  0.116
  H  H622  1  0.515000  0.996400  0.071100  1.0  0.0927
  H  H623  1  0.474800  0.080600  0.409000  1.0  0.1068
  H  H624  1  0.499500  0.072700  0.477600  1.0  0.1108
  H  H625  1  0.491400  0.128800  0.475200  1.0  0.096
  H  H626  1  0.528400  0.121900  0.450200  1.0  0.0837
  H  H627  1  0.514300  0.129300  0.319600  1.0  0.0757
  H  H628  1  0.476800  0.134600  0.342600  1.0  0.0813
  H  H629  1  0.491200  0.184000  0.407900  1.0  0.0905
  H  H630  1  0.528600  0.178800  0.383600  1.0  0.0854
  H  H631  1  0.477600  0.187100  0.271700  1.0  0.1098
  H  H632  1  0.500000  0.216800  0.300000  1.0  0.1132
  H  H633  1  0.516000  0.187100  0.253700  1.0  0.1094
  H  H634  1  0.440300  0.131500  0.145100  1.0  0.1102
  H  H635  1  0.399400  0.169600  0.166100  1.0  0.1037
  H  H636  1  0.361400  0.162200  0.263300  1.0  0.1089
  H  H637  1  0.365800  0.117300  0.343500  1.0  0.0928
  H  H638  1  0.462000  0.953400  0.417100  1.0  0.1059
  H  H639  1  0.426100  0.962300  0.447700  1.0  0.1019
  H  H640  1  0.427600  0.912700  0.370900  1.0  0.0802
  H  H641  1  0.437500  0.934500  0.298600  1.0  0.0772
  H  H642  1  0.377000  0.940500  0.378500  1.0  0.0714
  H  H643  1  0.386800  0.961900  0.305500  1.0  0.0672
  H  H644  1  0.386600  0.913800  0.228800  1.0  0.0861
  H  H645  1  0.376000  0.892800  0.302000  1.0  0.0911
  H  H646  1  0.335700  0.944000  0.241000  1.0  0.1208
  H  H647  1  0.330300  0.906200  0.220500  1.0  0.1095
  H  H648  1  0.325000  0.918800  0.306400  1.0  0.1091
  H  H649  1  0.389400  0.042500  0.170600  1.0  0.0741
  H  H650  1  0.353000  0.010000  0.103300  1.0  0.1122
  H  H651  1  0.421300  0.940400  0.091500  1.0  0.1109
  H  H652  1  0.456300  0.974000  0.158300  1.0  0.0787
  H  H653  1  0.337300  0.955300  0.057200  1.0  0.0797
  H  H654  1  0.363500  0.926200  0.061900  1.0  0.0702
  H  H655  1  0.702400  0.012000  0.614700  1.0  0.1089
  H  H656  1  0.735100  0.053800  0.568800  1.0  0.0978
  H  H657  1  0.719300  0.084500  0.461800  1.0  0.1175
  H  H658  1  0.670000  0.072600  0.402400  1.0  0.09
  H  H659  1  0.527900  0.978200  0.340300  1.0  0.0928
  H  H660  1  0.518500  0.952900  0.406900  1.0  0.081
  H  H661  1  0.562800  0.938800  0.282300  1.0  0.0873
  H  H662  1  0.556800  0.913900  0.351400  1.0  0.1017
  H  H663  1  0.520100  0.892100  0.282400  1.0  0.0638
  H  H664  1  0.497900  0.922600  0.304300  1.0  0.0849
  H  H665  1  0.533900  0.917700  0.184100  1.0  0.0837
  H  H666  1  0.507400  0.944400  0.206400  1.0  0.0798
  H  H667  1  0.481300  0.881400  0.197800  1.0  0.096
  H  H668  1  0.494600  0.895200  0.117900  1.0  0.1079
  H  H669  1  0.466800  0.914600  0.163400  1.0  0.0934
  H  H670  1  0.292400  0.873600  0.901300  1.0  0.0649
  H  H671  1  0.322600  0.903100  0.989600  1.0  0.1268
  H  H672  1  0.360900  0.954200  0.813500  1.0  0.1061
  H  H673  1  0.330200  0.922500  0.730900  1.0  0.0782
  H  H674  1  0.363200  0.975500  0.951400  1.0  0.0912
  H  H675  1  0.389400  0.946700  0.956200  1.0  0.1006
  H  H676  1  0.122100  0.475600  0.647100  1.0  0.1131
  H  H677  1  0.102100  0.453400  0.534400  1.0  0.0964
  H  H678  1  0.049100  0.465100  0.492500  1.0  0.116
  H  H679  1  0.015000  0.496400  0.571100  1.0  0.0927
  H  H680  1  0.974800  0.580600  0.909000  1.0  0.1068
  H  H681  1  0.999500  0.572700  0.977600  1.0  0.1108
  H  H682  1  0.991400  0.628800  0.975200  1.0  0.096
  H  H683  1  0.028400  0.621900  0.950200  1.0  0.0837
  H  H684  1  0.014300  0.629300  0.819600  1.0  0.0758
  H  H685  1  0.976800  0.634600  0.842600  1.0  0.0813
  H  H686  1  0.991200  0.684000  0.907900  1.0  0.0905
  H  H687  1  0.028600  0.678800  0.883600  1.0  0.0854
  H  H688  1  0.977600  0.687100  0.771700  1.0  0.1098
  H  H689  1  0.000000  0.716800  0.800000  1.0  0.1132
  H  H690  1  0.016000  0.687100  0.753700  1.0  0.1094
  H  H691  1  0.940300  0.631500  0.645100  1.0  0.1102
  H  H692  1  0.899400  0.669600  0.666100  1.0  0.1037
  H  H693  1  0.861400  0.662200  0.763300  1.0  0.1089
  H  H694  1  0.865800  0.617300  0.843500  1.0  0.0928
  H  H695  1  0.962000  0.453400  0.917100  1.0  0.1059
  H  H696  1  0.926100  0.462300  0.947700  1.0  0.1019
  H  H697  1  0.927600  0.412700  0.870900  1.0  0.0802
  H  H698  1  0.937500  0.434500  0.798600  1.0  0.0772
  H  H699  1  0.877000  0.440500  0.878500  1.0  0.0714
  H  H700  1  0.886800  0.461900  0.805500  1.0  0.0672
  H  H701  1  0.886600  0.413800  0.728800  1.0  0.0861
  H  H702  1  0.876000  0.392800  0.802000  1.0  0.0911
  H  H703  1  0.835700  0.444000  0.741000  1.0  0.1208
  H  H704  1  0.830300  0.406200  0.720500  1.0  0.1095
  H  H705  1  0.825000  0.418800  0.806400  1.0  0.1091
  H  H706  1  0.889400  0.542500  0.670600  1.0  0.0741
  H  H707  1  0.853000  0.510000  0.603300  1.0  0.1122
  H  H708  1  0.921300  0.440400  0.591500  1.0  0.1109
  H  H709  1  0.956300  0.474000  0.658300  1.0  0.0787
  H  H710  1  0.837300  0.455300  0.557200  1.0  0.0793
  H  H711  1  0.863500  0.426200  0.561900  1.0  0.0702
  H  H712  1  0.202400  0.512000  0.114700  1.0  0.1089
  H  H713  1  0.235100  0.553800  0.068800  1.0  0.0978
  H  H714  1  0.219300  0.584500  0.961800  1.0  0.1175
  H  H715  1  0.170000  0.572600  0.902400  1.0  0.09
  H  H716  1  0.027900  0.478200  0.840300  1.0  0.0928
  H  H717  1  0.018500  0.452900  0.906900  1.0  0.081
  H  H718  1  0.062800  0.438800  0.782300  1.0  0.0873
  H  H719  1  0.056800  0.413900  0.851400  1.0  0.1017
  H  H720  1  0.020100  0.392100  0.782400  1.0  0.0643
  H  H721  1  0.997900  0.422600  0.804300  1.0  0.0849
  H  H722  1  0.033900  0.417700  0.684100  1.0  0.0837
  H  H723  1  0.007400  0.444400  0.706400  1.0  0.0798
  H  H724  1  0.981300  0.381400  0.697800  1.0  0.096
  H  H725  1  0.994600  0.395200  0.617900  1.0  0.1079
  H  H726  1  0.966800  0.414600  0.663400  1.0  0.0934
  H  H727  1  0.792400  0.373600  0.401300  1.0  0.0649
  H  H728  1  0.822600  0.403100  0.489600  1.0  0.1268
  H  H729  1  0.860900  0.454200  0.313500  1.0  0.1061
  H  H730  1  0.830200  0.422500  0.230900  1.0  0.0782
  H  H731  1  0.863200  0.475500  0.451400  1.0  0.0912
  H  H732  1  0.889400  0.446700  0.456200  1.0  0.1006
  H  H733  1  0.225600  0.627900  0.397100  1.0  0.113
  H  H734  1  0.203400  0.647900  0.284400  1.0  0.095
  H  H735  1  0.215100  0.700900  0.242500  1.0  0.1157
  H  H736  1  0.246400  0.735000  0.321100  1.0  0.0931
  H  H737  1  0.330600  0.775200  0.659000  1.0  0.1058
  H  H738  1  0.322700  0.750500  0.727600  1.0  0.111
  H  H739  1  0.378800  0.758600  0.725200  1.0  0.0969
  H  H740  1  0.371900  0.721600  0.700200  1.0  0.0891
  H  H741  1  0.379300  0.735700  0.569600  1.0  0.0762
  H  H742  1  0.384600  0.773200  0.592600  1.0  0.0789
  H  H743  1  0.434000  0.758800  0.657900  1.0  0.0903
  H  H744  1  0.428800  0.721400  0.633600  1.0  0.087
  H  H745  1  0.437100  0.772400  0.521700  1.0  0.1155
  H  H746  1  0.466800  0.750000  0.550000  1.0  0.1082
  H  H747  1  0.437100  0.734000  0.503700  1.0  0.1088
  H  H748  1  0.381500  0.809700  0.395100  1.0  0.1109
  H  H749  1  0.419600  0.850600  0.416100  1.0  0.1053
  H  H750  1  0.412200  0.888600  0.513300  1.0  0.1104
  H  H751  1  0.367300  0.884200  0.593500  1.0  0.0929
  H  H752  1  0.203400  0.788000  0.667100  1.0  0.1041
  H  H753  1  0.212300  0.823900  0.697700  1.0  0.1011
  H  H754  1  0.162700  0.822400  0.620900  1.0  0.0812
  H  H755  1  0.184500  0.812500  0.548600  1.0  0.0786
  H  H756  1  0.190500  0.873000  0.628500  1.0  0.0703
  H  H757  1  0.211900  0.863200  0.555500  1.0  0.0711
  H  H758  1  0.163800  0.863400  0.478800  1.0  0.0878
  H  H759  1  0.142800  0.874000  0.552000  1.0  0.0916
  H  H760  1  0.194000  0.914300  0.491000  1.0  0.1146
  H  H761  1  0.156200  0.919700  0.470500  1.0  0.1094
  H  H762  1  0.168800  0.925000  0.556400  1.0  0.1083
  H  H763  1  0.292500  0.860600  0.420600  1.0  0.0735
  H  H764  1  0.260000  0.897000  0.353300  1.0  0.1134
  H  H765  1  0.190400  0.828700  0.341500  1.0  0.1117
  H  H766  1  0.224000  0.793700  0.408300  1.0  0.0791
  H  H767  1  0.205300  0.912700  0.307200  1.0  0.0764
  H  H768  1  0.176200  0.886500  0.311900  1.0  0.0761
  H  H769  1  0.262000  0.547600  0.864700  1.0  0.1104
  H  H770  1  0.303800  0.514900  0.818800  1.0  0.099
  H  H771  1  0.334500  0.530700  0.711800  1.0  0.1168
  H  H772  1  0.322600  0.580000  0.652400  1.0  0.0921
  H  H773  1  0.228200  0.722100  0.590300  1.0  0.0945
  H  H774  1  0.202900  0.731500  0.656900  1.0  0.0806
  H  H775  1  0.188800  0.687200  0.532300  1.0  0.09
  H  H776  1  0.163900  0.693200  0.601400  1.0  0.1021
  H  H777  1  0.142100  0.729900  0.532400  1.0  0.0781
  H  H778  1  0.172600  0.752100  0.554300  1.0  0.0834
  H  H779  1  0.167700  0.716100  0.434100  1.0  0.0714
  H  H780  1  0.194400  0.742600  0.456400  1.0  0.0816
  H  H781  1  0.131400  0.768700  0.447800  1.0  0.0956
  H  H782  1  0.145200  0.755400  0.367900  1.0  0.1083
  H  H783  1  0.164600  0.783200  0.413400  1.0  0.0983
  H  H784  1  0.123600  0.957600  0.151300  1.0  0.064
  H  H785  1  0.153100  0.927400  0.239600  1.0  0.1268
  H  H786  1  0.204200  0.889100  0.063500  1.0  0.1065
  H  H787  1  0.172500  0.919800  0.980900  1.0  0.078
  H  H788  1  0.225500  0.886800  0.201400  1.0  0.0944
  H  H789  1  0.196700  0.860600  0.206200  1.0  0.1043
  H  H790  1  0.725600  0.127900  0.897100  1.0  0.113
  H  H791  1  0.703400  0.147900  0.784400  1.0  0.095
  H  H792  1  0.715100  0.200900  0.742500  1.0  0.1157
  H  H793  1  0.746400  0.235000  0.821100  1.0  0.0931
  H  H794  1  0.830600  0.275200  0.159000  1.0  0.1058
  H  H795  1  0.822700  0.250500  0.227600  1.0  0.111
  H  H796  1  0.878800  0.258600  0.225200  1.0  0.0969
  H  H797  1  0.871900  0.221600  0.200200  1.0  0.0891
  H  H798  1  0.879300  0.235700  0.069600  1.0  0.0762
  H  H799  1  0.884600  0.273200  0.092600  1.0  0.0789
  H  H800  1  0.934000  0.258800  0.157900  1.0  0.0903
  H  H801  1  0.928800  0.221400  0.133600  1.0  0.087
  H  H802  1  0.937100  0.272400  0.021700  1.0  0.1155
  H  H803  1  0.966800  0.250000  0.050000  1.0  0.1082
  H  H804  1  0.937100  0.234000  0.003700  1.0  0.1088
  H  H805  1  0.881500  0.309700  0.895100  1.0  0.1109
  H  H806  1  0.919600  0.350600  0.916100  1.0  0.1053
  H  H807  1  0.912200  0.388600  0.013300  1.0  0.1104
  H  H808  1  0.867300  0.384200  0.093500  1.0  0.0929
  H  H809  1  0.703400  0.288000  0.167100  1.0  0.1041
  H  H810  1  0.712300  0.323900  0.197700  1.0  0.1011
  H  H811  1  0.662700  0.322400  0.120900  1.0  0.0812
  H  H812  1  0.684500  0.312500  0.048600  1.0  0.0786
  H  H813  1  0.690500  0.373000  0.128500  1.0  0.0703
  H  H814  1  0.711900  0.363200  0.055500  1.0  0.0711
  H  H815  1  0.663800  0.363400  0.978800  1.0  0.0878
  H  H816  1  0.642800  0.374000  0.052000  1.0  0.0916
  H  H817  1  0.694000  0.414300  0.991000  1.0  0.1146
  H  H818  1  0.656200  0.419700  0.970500  1.0  0.1094
  H  H819  1  0.668800  0.425000  0.056400  1.0  0.1083
  H  H820  1  0.792500  0.360600  0.920600  1.0  0.0735
  H  H821  1  0.760000  0.397000  0.853300  1.0  0.1134
  H  H822  1  0.690400  0.328700  0.841500  1.0  0.1117
  H  H823  1  0.724000  0.293700  0.908300  1.0  0.0791
  H  H824  1  0.705300  0.412700  0.807200  1.0  0.0764
  H  H825  1  0.676200  0.386500  0.811900  1.0  0.0761
  H  H826  1  0.762000  0.047600  0.364700  1.0  0.1104
  H  H827  1  0.803800  0.014900  0.318800  1.0  0.099
  H  H828  1  0.834500  0.030700  0.211800  1.0  0.1168
  H  H829  1  0.822600  0.080000  0.152400  1.0  0.0921
  H  H830  1  0.728200  0.222100  0.090300  1.0  0.0945
  H  H831  1  0.702900  0.231500  0.156900  1.0  0.0806
  H  H832  1  0.688800  0.187200  0.032300  1.0  0.09
  H  H833  1  0.663900  0.193200  0.101400  1.0  0.1021
  H  H834  1  0.642100  0.229900  0.032400  1.0  0.0781
  H  H835  1  0.672600  0.252100  0.054300  1.0  0.0832
  H  H836  1  0.667700  0.216100  0.934100  1.0  0.0714
  H  H837  1  0.694400  0.242600  0.956400  1.0  0.0816
  H  H838  1  0.631400  0.268700  0.947800  1.0  0.0956
  H  H839  1  0.645200  0.255400  0.867900  1.0  0.1083
  H  H840  1  0.664600  0.283200  0.913400  1.0  0.0983
  H  H841  1  0.623600  0.457600  0.651300  1.0  0.064
  H  H842  1  0.653100  0.427400  0.739600  1.0  0.1268
  H  H843  1  0.704200  0.389100  0.563500  1.0  0.1065
  H  H844  1  0.672500  0.419800  0.480900  1.0  0.078
  H  H845  1  0.725500  0.386800  0.701400  1.0  0.0944
  H  H846  1  0.696700  0.360600  0.706200  1.0  0.1043
  H  H847  1  0.274400  0.372100  0.897100  1.0  0.1125
  H  H848  1  0.296600  0.352100  0.784400  1.0  0.0951
  H  H849  1  0.284900  0.299100  0.742500  1.0  0.1151
  H  H850  1  0.253600  0.265000  0.821100  1.0  0.0931
  H  H851  1  0.169400  0.224800  0.159000  1.0  0.1031
  H  H852  1  0.177300  0.249500  0.227600  1.0  0.1113
  H  H853  1  0.121200  0.241400  0.225200  1.0  0.0977
  H  H854  1  0.128100  0.278400  0.200200  1.0  0.0929
  H  H855  1  0.120700  0.264300  0.069600  1.0  0.0762
  H  H856  1  0.115400  0.226800  0.092600  1.0  0.0795
  H  H857  1  0.066000  0.241200  0.157900  1.0  0.0905
  H  H858  1  0.071200  0.278600  0.133600  1.0  0.0863
  H  H859  1  0.062900  0.227600  0.021700  1.0  0.1141
  H  H860  1  0.033200  0.250000  0.050000  1.0  0.11
  H  H861  1  0.062900  0.266000  0.003700  1.0  0.1087
  H  H862  1  0.118500  0.190300  0.895100  1.0  0.1096
  H  H863  1  0.080400  0.149400  0.916100  1.0  0.1051
  H  H864  1  0.087800  0.111400  0.013300  1.0  0.1091
  H  H865  1  0.132700  0.115800  0.093500  1.0  0.0932
  H  H866  1  0.296600  0.212000  0.167100  1.0  0.1034
  H  H867  1  0.287700  0.176100  0.197700  1.0  0.1015
  H  H868  1  0.337300  0.177600  0.120900  1.0  0.0847
  H  H869  1  0.315500  0.187500  0.048600  1.0  0.0781
  H  H870  1  0.309500  0.127000  0.128500  1.0  0.0732
  H  H871  1  0.288100  0.136800  0.055500  1.0  0.0717
  H  H872  1  0.336200  0.136600  0.978800  1.0  0.0877
  H  H873  1  0.357200  0.126000  0.052000  1.0  0.0913
  H  H874  1  0.306000  0.085700  0.991000  1.0  0.1149
  H  H875  1  0.343800  0.080300  0.970500  1.0  0.1091
  H  H876  1  0.331200  0.075000  0.056400  1.0  0.1092
  H  H877  1  0.207500  0.139400  0.920600  1.0  0.074
  H  H878  1  0.240000  0.103000  0.853300  1.0  0.1124
  H  H879  1  0.309600  0.171300  0.841500  1.0  0.1128
  H  H880  1  0.276000  0.206300  0.908300  1.0  0.0796
  H  H881  1  0.294700  0.087300  0.807200  1.0  0.081
  H  H882  1  0.323800  0.113500  0.811900  1.0  0.0726
  H  H883  1  0.238000  0.452400  0.364700  1.0  0.1102
  H  H884  1  0.196200  0.485100  0.318800  1.0  0.099
  H  H885  1  0.165500  0.469300  0.211800  1.0  0.1182
  H  H886  1  0.177400  0.420000  0.152400  1.0  0.0912
  H  H887  1  0.271800  0.277900  0.090300  1.0  0.0946
  H  H888  1  0.297100  0.268500  0.156900  1.0  0.0817
  H  H889  1  0.311200  0.312800  0.032300  1.0  0.0918
  H  H890  1  0.336100  0.306800  0.101400  1.0  0.1013
  H  H891  1  0.357900  0.270100  0.032400  1.0  0.0752
  H  H892  1  0.327400  0.247900  0.054300  1.0  0.0825
  H  H893  1  0.332300  0.283900  0.934100  1.0  0.0733
  H  H894  1  0.305600  0.257400  0.956400  1.0  0.0827
  H  H895  1  0.368600  0.231300  0.947800  1.0  0.0956
  H  H896  1  0.354800  0.244600  0.867900  1.0  0.1094
  H  H897  1  0.335400  0.216800  0.913400  1.0  0.099
  H  H898  1  0.376400  0.042400  0.651300  1.0  0.0648
  H  H899  1  0.346900  0.072600  0.739600  1.0  0.1272
  H  H900  1  0.295800  0.110900  0.563500  1.0  0.1062
  H  H901  1  0.327500  0.080200  0.480900  1.0  0.0783
  H  H902  1  0.274500  0.113200  0.701400  1.0  0.0917
  H  H903  1  0.303300  0.139400  0.706200  1.0  0.1046
  H  H904  1  0.774400  0.872100  0.397100  1.0  0.1125
  H  H905  1  0.796600  0.852100  0.284400  1.0  0.0951
  H  H906  1  0.784900  0.799100  0.242500  1.0  0.1151
  H  H907  1  0.753600  0.765000  0.321100  1.0  0.0931
  H  H908  1  0.669400  0.724800  0.659000  1.0  0.1031
  H  H909  1  0.677300  0.749500  0.727600  1.0  0.1113
  H  H910  1  0.621200  0.741400  0.725200  1.0  0.0977
  H  H911  1  0.628100  0.778400  0.700200  1.0  0.0929
  H  H912  1  0.620700  0.764300  0.569600  1.0  0.0762
  H  H913  1  0.615400  0.726800  0.592600  1.0  0.0795
  H  H914  1  0.566000  0.741200  0.657900  1.0  0.0905
  H  H915  1  0.571200  0.778600  0.633600  1.0  0.0863
  H  H916  1  0.562900  0.727600  0.521700  1.0  0.1141
  H  H917  1  0.533200  0.750000  0.550000  1.0  0.11
  H  H918  1  0.562900  0.766000  0.503700  1.0  0.1087
  H  H919  1  0.618500  0.690300  0.395100  1.0  0.1096
  H  H920  1  0.580400  0.649400  0.416100  1.0  0.1051
  H  H921  1  0.587800  0.611400  0.513300  1.0  0.1091
  H  H922  1  0.632700  0.615800  0.593500  1.0  0.0932
  H  H923  1  0.796600  0.712000  0.667100  1.0  0.1034
  H  H924  1  0.787700  0.676100  0.697700  1.0  0.1015
  H  H925  1  0.837300  0.677600  0.620900  1.0  0.0847
  H  H926  1  0.815500  0.687500  0.548600  1.0  0.0781
  H  H927  1  0.809500  0.627000  0.628500  1.0  0.0732
  H  H928  1  0.788100  0.636800  0.555500  1.0  0.0717
  H  H929  1  0.836200  0.636600  0.478800  1.0  0.0877
  H  H930  1  0.857200  0.626000  0.552000  1.0  0.0913
  H  H931  1  0.806000  0.585700  0.491000  1.0  0.1149
  H  H932  1  0.843800  0.580300  0.470500  1.0  0.1091
  H  H933  1  0.831200  0.575000  0.556400  1.0  0.1092
  H  H934  1  0.707500  0.639400  0.420600  1.0  0.074
  H  H935  1  0.740000  0.603000  0.353300  1.0  0.1124
  H  H936  1  0.809600  0.671300  0.341500  1.0  0.1128
  H  H937  1  0.776000  0.706300  0.408300  1.0  0.0796
  H  H938  1  0.794700  0.587300  0.307200  1.0  0.081
  H  H939  1  0.823800  0.613500  0.311900  1.0  0.0726
  H  H940  1  0.738000  0.952400  0.864700  1.0  0.1102
  H  H941  1  0.696200  0.985100  0.818800  1.0  0.099
  H  H942  1  0.665500  0.969300  0.711800  1.0  0.1182
  H  H943  1  0.677400  0.920000  0.652400  1.0  0.0912
  H  H944  1  0.771800  0.777900  0.590300  1.0  0.0946
  H  H945  1  0.797100  0.768500  0.656900  1.0  0.0817
  H  H946  1  0.811200  0.812800  0.532300  1.0  0.0918
  H  H947  1  0.836100  0.806800  0.601400  1.0  0.1013
  H  H948  1  0.857900  0.770100  0.532400  1.0  0.0754
  H  H949  1  0.827400  0.747900  0.554300  1.0  0.0827
  H  H950  1  0.832300  0.783900  0.434100  1.0  0.0733
  H  H951  1  0.805600  0.757400  0.456400  1.0  0.0827
  H  H952  1  0.868600  0.731300  0.447800  1.0  0.0956
  H  H953  1  0.854800  0.744600  0.367900  1.0  0.1094
  H  H954  1  0.835400  0.716800  0.413400  1.0  0.099
  H  H955  1  0.876400  0.542400  0.151300  1.0  0.0644
  H  H956  1  0.846900  0.572600  0.239600  1.0  0.1272
  H  H957  1  0.795800  0.610900  0.063500  1.0  0.1062
  H  H958  1  0.827500  0.580200  0.980900  1.0  0.0783
  H  H959  1  0.774500  0.613200  0.201400  1.0  0.0917
  H  H960  1  0.803300  0.639400  0.206200  1.0  0.1046
  C  C961  1  0.080750  0.000160  0.322130  1.0  0.3407
  C  C962  1  0.100290  0.980210  0.368100  1.0  -0.1579
  C  C963  1  0.088400  0.967080  0.435500  1.0  -0.107
  C  C964  1  0.056890  0.973430  0.460100  1.0  -0.1007
  C  C965  1  0.036850  0.992340  0.413400  1.0  -0.0767
  C  C966  1  0.048110  0.005570  0.344060  1.0  -0.1121
  C  C967  1  0.024400  0.023210  0.296610  1.0  0.5185
  C  C968  1  0.019910  0.065940  0.128270  1.0  0.5251
  C  C969  1  0.997630  0.083130  0.073330  1.0  -0.3198
  C  C970  1  0.005330  0.119320  0.065500  1.0  -0.0817
  C  C971  1  0.999620  0.138140  0.140400  1.0  -0.0938
  C  C972  1  0.005710  0.175040  0.132400  1.0  -0.0801
  C  C973  1  0.999210  0.193190  0.208700  1.0  -0.3281
  C  C974  1  0.927740  0.100080  0.268190  1.0  0.3289
  C  C975  1  0.925130  0.128110  0.314500  1.0  -0.2451
  C  C976  1  0.900740  0.150820  0.302000  1.0  -0.1103
  C  C977  1  0.878430  0.146690  0.244200  1.0  -0.1064
  C  C978  1  0.880950  0.119860  0.197210  1.0  -0.0212
  C  C979  1  0.905330  0.096160  0.207830  1.0  -0.1719
  C  C980  1  0.905480  0.067710  0.155780  1.0  0.5597
  C  C981  1  0.941810  0.992970  0.138220  1.0  0.5049
  C  C982  1  0.939840  0.960320  0.098800  1.0  -0.3047
  C  C983  1  0.925040  0.934510  0.152800  1.0  -0.0867
  C  C984  1  0.889290  0.940110  0.170300  1.0  -0.102
  C  C985  1  0.874160  0.914550  0.222600  1.0  -0.0747
  C  C986  1  0.838000  0.921520  0.240300  1.0  -0.3296
  C  C987  1  0.896150  0.021340  0.345500  1.0  0.1637
  C  C988  1  0.874250  0.001930  0.385400  1.0  -0.1893
  C  C989  1  0.883100  0.971090  0.408700  1.0  0.1524
  C  C990  1  0.914000  0.961370  0.392400  1.0  -0.1963
  C  C991  1  0.934830  0.981610  0.352700  1.0  0.1483
  C  C992  1  0.860230  0.949180  0.454000  1.0  -0.148
  C  C993  1  0.165700  0.016520  0.964270  1.0  0.3719
  C  C994  1  0.195560  0.024200  0.928790  1.0  -0.2231
  C  C995  1  0.214990  0.049110  0.956100  1.0  -0.1273
  C  C996  1  0.205750  0.067390  0.019430  1.0  -0.1405
  C  C997  1  0.176510  0.060120  0.054340  1.0  -0.042
  C  C998  1  0.155920  0.035070  0.028800  1.0  -0.1585
  C  C999  1  0.125410  0.028800  0.070190  1.0  0.5712
  C  C1000  1  0.064750  0.971920  0.080980  1.0  0.534
  C  C1001  1  0.036280  0.960020  0.127800  1.0  -0.3194
  C  C1002  1  0.046350  0.931020  0.180400  1.0  -0.1561
  C  C1003  1  0.018030  0.916100  0.223500  1.0  -0.0801
  C  C1004  1  0.013000  0.921000  0.288300  1.0  -0.1317
  C  C1005  1  0.986520  0.901200  0.331200  1.0  -0.3665
  C  C1006  1  0.806830  0.890090  0.616810  1.0  0.1792
  C  C1007  1  0.824710  0.907640  0.563600  1.0  -0.2757
  C  C1008  1  0.845630  0.931790  0.588900  1.0  0.117
  C  C1009  1  0.847180  0.937410  0.666667  1.0  -0.215
  C  C1010  1  0.828640  0.918500  0.715600  1.0  0.1675
  C  C1011  1  0.866200  0.952190  0.534500  1.0  -0.247
  C  C1012  1  0.580750  0.500160  0.822130  1.0  0.3407
  C  C1013  1  0.600290  0.480210  0.868100  1.0  -0.1579
  C  C1014  1  0.588400  0.467080  0.935500  1.0  -0.107
  C  C1015  1  0.556890  0.473430  0.960100  1.0  -0.1007
  C  C1016  1  0.536850  0.492340  0.913400  1.0  -0.0767
  C  C1017  1  0.548110  0.505570  0.844060  1.0  -0.1121
  C  C1018  1  0.524400  0.523210  0.796610  1.0  0.5188
  C  C1019  1  0.519910  0.565940  0.628270  1.0  0.5251
  C  C1020  1  0.497630  0.583130  0.573330  1.0  -0.3198
  C  C1021  1  0.505330  0.619320  0.565500  1.0  -0.0817
  C  C1022  1  0.499620  0.638140  0.640400  1.0  -0.0938
  C  C1023  1  0.505710  0.675040  0.632400  1.0  -0.0801
  C  C1024  1  0.499210  0.693190  0.708700  1.0  -0.3281
  C  C1025  1  0.427740  0.600080  0.768190  1.0  0.3289
  C  C1026  1  0.425130  0.628110  0.814500  1.0  -0.2451
  C  C1027  1  0.400740  0.650820  0.802000  1.0  -0.1103
  C  C1028  1  0.378430  0.646690  0.744200  1.0  -0.1064
  C  C1029  1  0.380950  0.619860  0.697210  1.0  -0.0212
  C  C1030  1  0.405330  0.596160  0.707830  1.0  -0.1719
  C  C1031  1  0.405480  0.567710  0.655780  1.0  0.5597
  C  C1032  1  0.441810  0.492970  0.638220  1.0  0.5049
  C  C1033  1  0.439840  0.460320  0.598800  1.0  -0.3047
  C  C1034  1  0.425040  0.434510  0.652800  1.0  -0.0867
  C  C1035  1  0.389290  0.440110  0.670300  1.0  -0.102
  C  C1036  1  0.374160  0.414550  0.722600  1.0  -0.0747
  C  C1037  1  0.338000  0.421520  0.740300  1.0  -0.3296
  C  C1038  1  0.396150  0.521340  0.845500  1.0  0.1637
  C  C1039  1  0.374250  0.501930  0.885400  1.0  -0.1893
  C  C1040  1  0.383100  0.471090  0.908700  1.0  0.1524
  C  C1041  1  0.414000  0.461370  0.892400  1.0  -0.1963
  C  C1042  1  0.434830  0.481610  0.852700  1.0  0.1483
  C  C1043  1  0.360230  0.449180  0.954000  1.0  -0.148
  C  C1044  1  0.665700  0.516520  0.464270  1.0  0.3719
  C  C1045  1  0.695560  0.524200  0.428790  1.0  -0.2225
  C  C1046  1  0.714990  0.549110  0.456100  1.0  -0.1273
  C  C1047  1  0.705750  0.567390  0.519430  1.0  -0.1405
  C  C1048  1  0.676510  0.560120  0.554340  1.0  -0.042
  C  C1049  1  0.655920  0.535070  0.528800  1.0  -0.1585
  C  C1050  1  0.625410  0.528800  0.570190  1.0  0.5712
  C  C1051  1  0.564750  0.471920  0.580980  1.0  0.534
  C  C1052  1  0.536280  0.460020  0.627800  1.0  -0.3194
  C  C1053  1  0.546350  0.431020  0.680400  1.0  -0.1561
  C  C1054  1  0.518030  0.416100  0.723500  1.0  -0.0801
  C  C1055  1  0.513000  0.421000  0.788300  1.0  -0.1317
  C  C1056  1  0.486520  0.401200  0.831200  1.0  -0.3665
  C  C1057  1  0.306830  0.390090  0.116810  1.0  0.1792
  C  C1058  1  0.324710  0.407640  0.063600  1.0  -0.2756
  C  C1059  1  0.345630  0.431790  0.088900  1.0  0.116
  C  C1060  1  0.347180  0.437410  0.166700  1.0  -0.2145
  C  C1061  1  0.328640  0.418500  0.215600  1.0  0.1671
  C  C1062  1  0.366200  0.452190  0.034500  1.0  -0.2471
  C  C1063  1  0.419250  0.999840  0.822130  1.0  0.3412
  C  C1064  1  0.399710  0.019790  0.868100  1.0  -0.1584
  C  C1065  1  0.411600  0.032920  0.935500  1.0  -0.1084
  C  C1066  1  0.443110  0.026570  0.960100  1.0  -0.099
  C  C1067  1  0.463150  0.007660  0.913400  1.0  -0.077
  C  C1068  1  0.451890  0.994430  0.844060  1.0  -0.1127
  C  C1069  1  0.475600  0.976790  0.796610  1.0  0.5191
  C  C1070  1  0.480090  0.934060  0.628270  1.0  0.526
  C  C1071  1  0.502370  0.916870  0.573330  1.0  -0.3201
  C  C1072  1  0.494670  0.880680  0.565500  1.0  -0.0765
  C  C1073  1  0.500380  0.861860  0.640400  1.0  -0.0871
  C  C1074  1  0.494290  0.824960  0.632400  1.0  -0.08
  C  C1075  1  0.500790  0.806810  0.708700  1.0  -0.3284
  C  C1076  1  0.572260  0.899920  0.768190  1.0  0.3285
  C  C1077  1  0.574870  0.871890  0.814500  1.0  -0.2458
  C  C1078  1  0.599260  0.849180  0.802000  1.0  -0.1073
  C  C1079  1  0.621570  0.853310  0.744200  1.0  -0.1078
  C  C1080  1  0.619050  0.880140  0.697210  1.0  -0.0223
  C  C1081  1  0.594670  0.903840  0.707830  1.0  -0.1719
  C  C1082  1  0.594520  0.932290  0.655780  1.0  0.5593
  C  C1083  1  0.558190  0.007030  0.638220  1.0  0.5043
  C  C1084  1  0.560160  0.039680  0.598800  1.0  -0.3017
  C  C1085  1  0.574960  0.065490  0.652800  1.0  -0.0899
  C  C1086  1  0.610710  0.059890  0.670300  1.0  -0.1034
  C  C1087  1  0.625840  0.085450  0.722600  1.0  -0.0753
  C  C1088  1  0.662000  0.078480  0.740300  1.0  -0.3306
  C  C1089  1  0.603850  0.978660  0.845500  1.0  0.1633
  C  C1090  1  0.625750  0.998070  0.885400  1.0  -0.1888
  C  C1091  1  0.616900  0.028910  0.908700  1.0  0.1498
  C  C1092  1  0.586000  0.038630  0.892400  1.0  -0.1968
  C  C1093  1  0.565170  0.018390  0.852700  1.0  0.1485
  C  C1094  1  0.639770  0.050820  0.954000  1.0  -0.1479
  C  C1095  1  0.334300  0.983480  0.464270  1.0  0.3727
  C  C1096  1  0.304440  0.975800  0.428790  1.0  -0.2182
  C  C1097  1  0.285010  0.950890  0.456100  1.0  -0.1289
  C  C1098  1  0.294250  0.932610  0.519430  1.0  -0.1413
  C  C1099  1  0.323490  0.939880  0.554340  1.0  -0.0418
  C  C1100  1  0.344080  0.964930  0.528800  1.0  -0.157
  C  C1101  1  0.374590  0.971200  0.570190  1.0  0.5717
  C  C1102  1  0.435250  0.028080  0.580980  1.0  0.5334
  C  C1103  1  0.463720  0.039980  0.627800  1.0  -0.321
  C  C1104  1  0.453650  0.068980  0.680400  1.0  -0.1569
  C  C1105  1  0.481970  0.083900  0.723500  1.0  -0.0827
  C  C1106  1  0.487000  0.079000  0.788300  1.0  -0.1313
  C  C1107  1  0.513480  0.098800  0.831200  1.0  -0.3681
  C  C1108  1  0.693170  0.109910  0.116810  1.0  0.1795
  C  C1109  1  0.675290  0.092360  0.063600  1.0  -0.2764
  C  C1110  1  0.654370  0.068210  0.088900  1.0  0.1151
  C  C1111  1  0.652820  0.062590  0.166700  1.0  -0.2156
  C  C1112  1  0.671360  0.081500  0.215600  1.0  0.1672
  C  C1113  1  0.633800  0.047810  0.034500  1.0  -0.249
  C  C1114  1  0.919250  0.499840  0.322130  1.0  0.3412
  C  C1115  1  0.899710  0.519790  0.368100  1.0  -0.1584
  C  C1116  1  0.911600  0.532920  0.435500  1.0  -0.1057
  C  C1117  1  0.943110  0.526570  0.460100  1.0  -0.099
  C  C1118  1  0.963150  0.507660  0.413400  1.0  -0.077
  C  C1119  1  0.951890  0.494430  0.344060  1.0  -0.1127
  C  C1120  1  0.975600  0.476790  0.296610  1.0  0.5193
  C  C1121  1  0.980090  0.434060  0.128270  1.0  0.526
  C  C1122  1  0.002370  0.416870  0.073330  1.0  -0.3201
  C  C1123  1  0.994670  0.380680  0.065500  1.0  -0.0765
  C  C1124  1  0.000380  0.361860  0.140400  1.0  -0.0871
  C  C1125  1  0.994290  0.324960  0.132400  1.0  -0.08
  C  C1126  1  0.000790  0.306810  0.208700  1.0  -0.3284
  C  C1127  1  0.072260  0.399920  0.268190  1.0  0.3285
  C  C1128  1  0.074870  0.371890  0.314500  1.0  -0.2458
  C  C1129  1  0.099260  0.349180  0.302000  1.0  -0.1073
  C  C1130  1  0.121570  0.353310  0.244200  1.0  -0.1078
  C  C1131  1  0.119050  0.380140  0.197210  1.0  -0.0223
  C  C1132  1  0.094670  0.403840  0.207830  1.0  -0.1719
  C  C1133  1  0.094520  0.432290  0.155780  1.0  0.5593
  C  C1134  1  0.058190  0.507030  0.138220  1.0  0.5043
  C  C1135  1  0.060160  0.539680  0.098800  1.0  -0.3017
  C  C1136  1  0.074960  0.565490  0.152800  1.0  -0.0899
  C  C1137  1  0.110710  0.559890  0.170300  1.0  -0.1034
  C  C1138  1  0.125840  0.585450  0.222600  1.0  -0.0753
  C  C1139  1  0.162000  0.578480  0.240300  1.0  -0.3306
  C  C1140  1  0.103850  0.478660  0.345500  1.0  0.1633
  C  C1141  1  0.125750  0.498070  0.385400  1.0  -0.1888
  C  C1142  1  0.116900  0.528910  0.408700  1.0  0.1498
  C  C1143  1  0.086000  0.538630  0.392400  1.0  -0.1968
  C  C1144  1  0.065170  0.518390  0.352700  1.0  0.1485
  C  C1145  1  0.139770  0.550820  0.454000  1.0  -0.1479
  C  C1146  1  0.834300  0.483480  0.964270  1.0  0.3727
  C  C1147  1  0.804440  0.475800  0.928790  1.0  -0.2182
  C  C1148  1  0.785010  0.450890  0.956100  1.0  -0.1289
  C  C1149  1  0.794250  0.432610  0.019430  1.0  -0.1413
  C  C1150  1  0.823490  0.439880  0.054340  1.0  -0.0418
  C  C1151  1  0.844080  0.464930  0.028800  1.0  -0.157
  C  C1152  1  0.874590  0.471200  0.070190  1.0  0.5717
  C  C1153  1  0.935250  0.528080  0.080980  1.0  0.5334
  C  C1154  1  0.963720  0.539980  0.127800  1.0  -0.321
  C  C1155  1  0.953650  0.568980  0.180400  1.0  -0.1554
  C  C1156  1  0.981970  0.583900  0.223500  1.0  -0.0827
  C  C1157  1  0.987000  0.579000  0.288300  1.0  -0.1313
  C  C1158  1  0.013480  0.598800  0.331200  1.0  -0.3681
  C  C1159  1  0.193170  0.609910  0.616810  1.0  0.1794
  C  C1160  1  0.175290  0.592360  0.563600  1.0  -0.2765
  C  C1161  1  0.154370  0.568210  0.588900  1.0  0.1162
  C  C1162  1  0.152820  0.562590  0.666667  1.0  -0.2161
  C  C1163  1  0.171360  0.581500  0.715600  1.0  0.1674
  C  C1164  1  0.133800  0.547810  0.534500  1.0  -0.2489
  C  C1165  1  0.749840  0.330750  0.572130  1.0  0.3403
  C  C1166  1  0.769790  0.350290  0.618100  1.0  -0.1562
  C  C1167  1  0.782920  0.338400  0.685500  1.0  -0.1078
  C  C1168  1  0.776570  0.306890  0.710100  1.0  -0.1007
  C  C1169  1  0.757660  0.286850  0.663400  1.0  -0.0781
  C  C1170  1  0.744430  0.298110  0.594060  1.0  -0.1139
  C  C1171  1  0.726790  0.274400  0.546610  1.0  0.5186
  C  C1172  1  0.684060  0.269910  0.378270  1.0  0.5261
  C  C1173  1  0.666870  0.247630  0.323330  1.0  -0.3172
  C  C1174  1  0.630680  0.255330  0.315500  1.0  -0.0739
  C  C1175  1  0.611860  0.249620  0.390400  1.0  -0.0952
  C  C1176  1  0.574960  0.255710  0.382400  1.0  -0.0791
  C  C1177  1  0.556810  0.249210  0.458700  1.0  -0.3274
  C  C1178  1  0.649920  0.177740  0.518190  1.0  0.3296
  C  C1179  1  0.621890  0.175130  0.564500  1.0  -0.2433
  C  C1180  1  0.599180  0.150740  0.552000  1.0  -0.115
  C  C1181  1  0.603310  0.128430  0.494200  1.0  -0.1076
  C  C1182  1  0.630140  0.130950  0.447210  1.0  -0.0219
  C  C1183  1  0.653840  0.155330  0.457830  1.0  -0.1716
  C  C1184  1  0.682290  0.155480  0.405780  1.0  0.5596
  C  C1185  1  0.757030  0.191810  0.388220  1.0  0.5021
  C  C1186  1  0.789680  0.189840  0.348800  1.0  -0.3039
  C  C1187  1  0.815490  0.175040  0.402800  1.0  -0.0916
  C  C1188  1  0.809890  0.139290  0.420300  1.0  -0.1009
  C  C1189  1  0.835450  0.124160  0.472600  1.0  -0.0728
  C  C1190  1  0.828480  0.088000  0.490300  1.0  -0.3307
  C  C1191  1  0.728660  0.146150  0.595500  1.0  0.164
  C  C1192  1  0.748070  0.124250  0.635400  1.0  -0.1879
  C  C1193  1  0.778910  0.133100  0.658700  1.0  0.1511
  C  C1194  1  0.788630  0.164000  0.642400  1.0  -0.1975
  C  C1195  1  0.768390  0.184830  0.602700  1.0  0.1509
  C  C1196  1  0.800820  0.110230  0.704000  1.0  -0.1507
  C  C1197  1  0.733480  0.415700  0.214270  1.0  0.3725
  C  C1198  1  0.725800  0.445560  0.178790  1.0  -0.2157
  C  C1199  1  0.700890  0.464990  0.206100  1.0  -0.1233
  C  C1200  1  0.682610  0.455750  0.269430  1.0  -0.1398
  C  C1201  1  0.689880  0.426510  0.304340  1.0  -0.0392
  C  C1202  1  0.714930  0.405920  0.278800  1.0  -0.1582
  C  C1203  1  0.721200  0.375410  0.320190  1.0  0.5712
  C  C1204  1  0.778080  0.314750  0.330980  1.0  0.5333
  C  C1205  1  0.789980  0.286280  0.377800  1.0  -0.3194
  C  C1206  1  0.818980  0.296350  0.430400  1.0  -0.158
  C  C1207  1  0.833900  0.268030  0.473500  1.0  -0.0823
  C  C1208  1  0.829000  0.263000  0.538300  1.0  -0.1324
  C  C1209  1  0.848800  0.236520  0.581200  1.0  -0.3679
  C  C1210  1  0.859910  0.056830  0.866810  1.0  0.1799
  C  C1211  1  0.842360  0.074710  0.813600  1.0  -0.2771
  C  C1212  1  0.818210  0.095630  0.838900  1.0  0.1149
  C  C1213  1  0.812590  0.097180  0.916700  1.0  -0.2144
  C  C1214  1  0.831500  0.078640  0.965600  1.0  0.1671
  C  C1215  1  0.797810  0.116200  0.784500  1.0  -0.2463
  C  C1216  1  0.249840  0.830750  0.072130  1.0  0.3403
  C  C1217  1  0.269790  0.850290  0.118100  1.0  -0.1562
  C  C1218  1  0.282920  0.838400  0.185500  1.0  -0.1078
  C  C1219  1  0.276570  0.806890  0.210100  1.0  -0.1007
  C  C1220  1  0.257660  0.786850  0.163400  1.0  -0.0781
  C  C1221  1  0.244430  0.798110  0.094060  1.0  -0.1139
  C  C1222  1  0.226790  0.774400  0.046610  1.0  0.5186
  C  C1223  1  0.184060  0.769910  0.878270  1.0  0.5261
  C  C1224  1  0.166870  0.747630  0.823330  1.0  -0.3172
  C  C1225  1  0.130680  0.755330  0.815500  1.0  -0.0739
  C  C1226  1  0.111860  0.749620  0.890400  1.0  -0.0952
  C  C1227  1  0.074960  0.755710  0.882400  1.0  -0.0791
  C  C1228  1  0.056810  0.749210  0.958700  1.0  -0.3274
  C  C1229  1  0.149920  0.677740  0.018190  1.0  0.3296
  C  C1230  1  0.121890  0.675130  0.064500  1.0  -0.2439
  C  C1231  1  0.099180  0.650740  0.052000  1.0  -0.1185
  C  C1232  1  0.103310  0.628430  0.994200  1.0  -0.1076
  C  C1233  1  0.130140  0.630950  0.947210  1.0  -0.0219
  C  C1234  1  0.153840  0.655330  0.957830  1.0  -0.1716
  C  C1235  1  0.182290  0.655480  0.905780  1.0  0.5596
  C  C1236  1  0.257030  0.691810  0.888220  1.0  0.5021
  C  C1237  1  0.289680  0.689840  0.848800  1.0  -0.3039
  C  C1238  1  0.315490  0.675040  0.902800  1.0  -0.0916
  C  C1239  1  0.309890  0.639290  0.920300  1.0  -0.1011
  C  C1240  1  0.335450  0.624160  0.972600  1.0  -0.0728
  C  C1241  1  0.328480  0.588000  0.990300  1.0  -0.3307
  C  C1242  1  0.228660  0.646150  0.095500  1.0  0.164
  C  C1243  1  0.248070  0.624250  0.135400  1.0  -0.1879
  C  C1244  1  0.278910  0.633100  0.158700  1.0  0.1511
  C  C1245  1  0.288630  0.664000  0.142400  1.0  -0.1975
  C  C1246  1  0.268390  0.684830  0.102700  1.0  0.1509
  C  C1247  1  0.300820  0.610230  0.204000  1.0  -0.1507
  C  C1248  1  0.233480  0.915700  0.714270  1.0  0.3725
  C  C1249  1  0.225800  0.945560  0.678790  1.0  -0.2157
  C  C1250  1  0.200890  0.964990  0.706100  1.0  -0.1233
  C  C1251  1  0.182610  0.955750  0.769430  1.0  -0.1398
  C  C1252  1  0.189880  0.926510  0.804340  1.0  -0.0392
  C  C1253  1  0.214930  0.905920  0.778800  1.0  -0.1582
  C  C1254  1  0.221200  0.875410  0.820190  1.0  0.5712
  C  C1255  1  0.278080  0.814750  0.830980  1.0  0.5333
  C  C1256  1  0.289980  0.786280  0.877800  1.0  -0.3194
  C  C1257  1  0.318980  0.796350  0.930400  1.0  -0.158
  C  C1258  1  0.333900  0.768030  0.973500  1.0  -0.0823
  C  C1259  1  0.329000  0.763000  0.038300  1.0  -0.1324
  C  C1260  1  0.348800  0.736520  0.081200  1.0  -0.3679
  C  C1261  1  0.359910  0.556830  0.366810  1.0  0.1799
  C  C1262  1  0.342360  0.574710  0.313600  1.0  -0.2771
  C  C1263  1  0.318210  0.595630  0.338900  1.0  0.1149
  C  C1264  1  0.312590  0.597180  0.416700  1.0  -0.2144
  C  C1265  1  0.331500  0.578640  0.465600  1.0  0.1671
  C  C1266  1  0.297810  0.616200  0.284500  1.0  -0.2463
  C  C1267  1  0.750160  0.669250  0.072130  1.0  0.3414
  C  C1268  1  0.730210  0.649710  0.118100  1.0  -0.1562
  C  C1269  1  0.717080  0.661600  0.185500  1.0  -0.1125
  C  C1270  1  0.723430  0.693110  0.210100  1.0  -0.1015
  C  C1271  1  0.742340  0.713150  0.163400  1.0  -0.076
  C  C1272  1  0.755570  0.701890  0.094060  1.0  -0.1138
  C  C1273  1  0.773210  0.725600  0.046610  1.0  0.5177
  C  C1274  1  0.815940  0.730090  0.878270  1.0  0.527
  C  C1275  1  0.833130  0.752370  0.823330  1.0  -0.3205
  C  C1276  1  0.869320  0.744670  0.815500  1.0  -0.0837
  C  C1277  1  0.888140  0.750380  0.890400  1.0  -0.0853
  C  C1278  1  0.925040  0.744290  0.882400  1.0  -0.0801
  C  C1279  1  0.943190  0.750790  0.958700  1.0  -0.3256
  C  C1280  1  0.850080  0.822260  0.018190  1.0  0.3314
  C  C1281  1  0.878110  0.824870  0.064500  1.0  -0.2457
  C  C1282  1  0.900820  0.849260  0.052000  1.0  -0.1129
  C  C1283  1  0.896690  0.871570  0.994200  1.0  -0.1075
  C  C1284  1  0.869860  0.869050  0.947210  1.0  -0.0229
  C  C1285  1  0.846160  0.844670  0.957830  1.0  -0.1713
  C  C1286  1  0.817710  0.844520  0.905780  1.0  0.5599
  C  C1287  1  0.742970  0.808190  0.888220  1.0  0.501
  C  C1288  1  0.710320  0.810160  0.848800  1.0  -0.3007
  C  C1289  1  0.684510  0.824960  0.902800  1.0  -0.0854
  C  C1290  1  0.690110  0.860710  0.920300  1.0  -0.1075
  C  C1291  1  0.664550  0.875840  0.972600  1.0  -0.0761
  C  C1292  1  0.671520  0.912000  0.990300  1.0  -0.3307
  C  C1293  1  0.771340  0.853850  0.095500  1.0  0.1633
  C  C1294  1  0.751930  0.875750  0.135400  1.0  -0.1881
  C  C1295  1  0.721090  0.866900  0.158700  1.0  0.1502
  C  C1296  1  0.711370  0.836000  0.142400  1.0  -0.195
  C  C1297  1  0.731610  0.815170  0.102700  1.0  0.1498
  C  C1298  1  0.699180  0.889770  0.204000  1.0  -0.1488
  C  C1299  1  0.766520  0.584300  0.714270  1.0  0.3704
  C  C1300  1  0.774200  0.554440  0.678790  1.0  -0.2184
  C  C1301  1  0.799110  0.535010  0.706100  1.0  -0.1275
  C  C1302  1  0.817390  0.544250  0.769430  1.0  -0.1389
  C  C1303  1  0.810120  0.573490  0.804340  1.0  -0.0414
  C  C1304  1  0.785070  0.594080  0.778800  1.0  -0.1584
  C  C1305  1  0.778800  0.624590  0.820190  1.0  0.5713
  C  C1306  1  0.721920  0.685250  0.830980  1.0  0.5331
  C  C1307  1  0.710020  0.713720  0.877800  1.0  -0.3167
  C  C1308  1  0.681020  0.703650  0.930400  1.0  -0.1565
  C  C1309  1  0.666100  0.731970  0.973500  1.0  -0.0815
  C  C1310  1  0.671000  0.737000  0.038300  1.0  -0.1356
  C  C1311  1  0.651200  0.763480  0.081200  1.0  -0.3692
  C  C1312  1  0.640090  0.943170  0.366810  1.0  0.1811
  C  C1313  1  0.657640  0.925290  0.313600  1.0  -0.2768
  C  C1314  1  0.681790  0.904370  0.338900  1.0  0.1141
  C  C1315  1  0.687410  0.902820  0.416700  1.0  -0.2137
  C  C1316  1  0.668500  0.921360  0.465600  1.0  0.1672
  C  C1317  1  0.702190  0.883800  0.284500  1.0  -0.2464
  C  C1318  1  0.250160  0.169250  0.572130  1.0  0.3414
  C  C1319  1  0.230210  0.149710  0.618100  1.0  -0.1562
  C  C1320  1  0.217080  0.161600  0.685500  1.0  -0.1125
  C  C1321  1  0.223430  0.193110  0.710100  1.0  -0.1015
  C  C1322  1  0.242340  0.213150  0.663400  1.0  -0.076
  C  C1323  1  0.255570  0.201890  0.594060  1.0  -0.1138
  C  C1324  1  0.273210  0.225600  0.546610  1.0  0.5177
  C  C1325  1  0.315940  0.230090  0.378270  1.0  0.527
  C  C1326  1  0.333130  0.252370  0.323330  1.0  -0.3205
  C  C1327  1  0.369320  0.244670  0.315500  1.0  -0.0837
  C  C1328  1  0.388140  0.250380  0.390400  1.0  -0.0853
  C  C1329  1  0.425040  0.244290  0.382400  1.0  -0.0801
  C  C1330  1  0.443190  0.250790  0.458700  1.0  -0.3256
  C  C1331  1  0.350080  0.322260  0.518190  1.0  0.3314
  C  C1332  1  0.378110  0.324870  0.564500  1.0  -0.2452
  C  C1333  1  0.400820  0.349260  0.552000  1.0  -0.111
  C  C1334  1  0.396690  0.371570  0.494200  1.0  -0.1075
  C  C1335  1  0.369860  0.369050  0.447210  1.0  -0.0229
  C  C1336  1  0.346160  0.344670  0.457830  1.0  -0.1713
  C  C1337  1  0.317710  0.344520  0.405780  1.0  0.5599
  C  C1338  1  0.242970  0.308190  0.388220  1.0  0.501
  C  C1339  1  0.210320  0.310160  0.348800  1.0  -0.3007
  C  C1340  1  0.184510  0.324960  0.402800  1.0  -0.0854
  C  C1341  1  0.190110  0.360710  0.420300  1.0  -0.1071
  C  C1342  1  0.164550  0.375840  0.472600  1.0  -0.0761
  C  C1343  1  0.171520  0.412000  0.490300  1.0  -0.3307
  C  C1344  1  0.271340  0.353850  0.595500  1.0  0.1633
  C  C1345  1  0.251930  0.375750  0.635400  1.0  -0.1881
  C  C1346  1  0.221090  0.366900  0.658700  1.0  0.1502
  C  C1347  1  0.211370  0.336000  0.642400  1.0  -0.195
  C  C1348  1  0.231610  0.315170  0.602700  1.0  0.1498
  C  C1349  1  0.199180  0.389770  0.704000  1.0  -0.1488
  C  C1350  1  0.266520  0.084300  0.214270  1.0  0.3704
  C  C1351  1  0.274200  0.054440  0.178790  1.0  -0.2184
  C  C1352  1  0.299110  0.035010  0.206100  1.0  -0.1275
  C  C1353  1  0.317390  0.044250  0.269430  1.0  -0.1389
  C  C1354  1  0.310120  0.073490  0.304340  1.0  -0.0414
  C  C1355  1  0.285070  0.094080  0.278800  1.0  -0.1584
  C  C1356  1  0.278800  0.124590  0.320190  1.0  0.5713
  C  C1357  1  0.221920  0.185250  0.330980  1.0  0.5331
  C  C1358  1  0.210020  0.213720  0.377800  1.0  -0.3167
  C  C1359  1  0.181020  0.203650  0.430400  1.0  -0.1565
  C  C1360  1  0.166100  0.231970  0.473500  1.0  -0.0815
  C  C1361  1  0.171000  0.237000  0.538300  1.0  -0.1356
  C  C1362  1  0.151200  0.263480  0.581200  1.0  -0.3692
  C  C1363  1  0.140090  0.443170  0.866810  1.0  0.1811
  C  C1364  1  0.157640  0.425290  0.813600  1.0  -0.2768
  C  C1365  1  0.181790  0.404370  0.838900  1.0  0.1141
  C  C1366  1  0.187410  0.402820  0.916700  1.0  -0.2137
  C  C1367  1  0.168500  0.421360  0.965600  1.0  0.1672
  C  C1368  1  0.202190  0.383800  0.784500  1.0  -0.2464
  C  C1369  1  0.919250  0.999840  0.677870  1.0  0.3391
  C  C1370  1  0.899710  0.019790  0.631900  1.0  -0.158
  C  C1371  1  0.911600  0.032920  0.564500  1.0  -0.1083
  C  C1372  1  0.943110  0.026570  0.539900  1.0  -0.0958
  C  C1373  1  0.963150  0.007660  0.586600  1.0  -0.0763
  C  C1374  1  0.951890  0.994430  0.655940  1.0  -0.1122
  C  C1375  1  0.975600  0.976790  0.703390  1.0  0.5185
  C  C1376  1  0.980090  0.934060  0.871730  1.0  0.5253
  C  C1377  1  0.002370  0.916870  0.926670  1.0  -0.3212
  C  C1378  1  0.994670  0.880680  0.934500  1.0  -0.0762
  C  C1379  1  0.000380  0.861860  0.859600  1.0  -0.0849
  C  C1380  1  0.994290  0.824960  0.867600  1.0  -0.0808
  C  C1381  1  0.000790  0.806810  0.791300  1.0  -0.3286
  C  C1382  1  0.072260  0.899920  0.731810  1.0  0.3328
  C  C1383  1  0.074870  0.871890  0.685500  1.0  -0.2443
  C  C1384  1  0.099260  0.849180  0.698000  1.0  -0.1059
  C  C1385  1  0.121570  0.853310  0.755800  1.0  -0.1064
  C  C1386  1  0.119050  0.880140  0.802790  1.0  -0.0226
  C  C1387  1  0.094670  0.903840  0.792170  1.0  -0.1715
  C  C1388  1  0.094520  0.932290  0.844220  1.0  0.561
  C  C1389  1  0.058190  0.007030  0.861780  1.0  0.5043
  C  C1390  1  0.060160  0.039680  0.901200  1.0  -0.3049
  C  C1391  1  0.074960  0.065490  0.847200  1.0  -0.0856
  C  C1392  1  0.110710  0.059890  0.829700  1.0  -0.1108
  C  C1393  1  0.125840  0.085450  0.777400  1.0  -0.075
  C  C1394  1  0.162000  0.078480  0.759700  1.0  -0.3307
  C  C1395  1  0.103850  0.978660  0.654500  1.0  0.1625
  C  C1396  1  0.125750  0.998070  0.614600  1.0  -0.1891
  C  C1397  1  0.116900  0.028910  0.591300  1.0  0.1499
  C  C1398  1  0.086000  0.038630  0.607600  1.0  -0.1963
  C  C1399  1  0.065170  0.018390  0.647300  1.0  0.1484
  C  C1400  1  0.139770  0.050820  0.546000  1.0  -0.1489
  C  C1401  1  0.834300  0.983480  0.035730  1.0  0.3714
  C  C1402  1  0.804440  0.975800  0.071210  1.0  -0.2203
  C  C1403  1  0.785010  0.950890  0.043900  1.0  -0.1308
  C  C1404  1  0.794250  0.932610  0.980570  1.0  -0.1409
  C  C1405  1  0.823490  0.939880  0.945660  1.0  -0.0415
  C  C1406  1  0.844080  0.964930  0.971200  1.0  -0.1568
  C  C1407  1  0.874590  0.971200  0.929810  1.0  0.5717
  C  C1408  1  0.935250  0.028080  0.919020  1.0  0.532
  C  C1409  1  0.963720  0.039980  0.872200  1.0  -0.3223
  C  C1410  1  0.953650  0.068980  0.819600  1.0  -0.1542
  C  C1411  1  0.981970  0.083900  0.776500  1.0  -0.0816
  C  C1412  1  0.987000  0.079000  0.711700  1.0  -0.1319
  C  C1413  1  0.013480  0.098800  0.668800  1.0  -0.3664
  C  C1414  1  0.193170  0.109910  0.383190  1.0  0.179
  C  C1415  1  0.175290  0.092360  0.436400  1.0  -0.2783
  C  C1416  1  0.154370  0.068210  0.411100  1.0  0.1172
  C  C1417  1  0.152820  0.062590  0.333333  1.0  -0.2158
  C  C1418  1  0.171360  0.081500  0.284400  1.0  0.1659
  C  C1419  1  0.133800  0.047810  0.465500  1.0  -0.2469
  C  C1420  1  0.419250  0.499840  0.177870  1.0  0.3391
  C  C1421  1  0.399710  0.519790  0.131900  1.0  -0.158
  C  C1422  1  0.411600  0.532920  0.064500  1.0  -0.1079
  C  C1423  1  0.443110  0.526570  0.039900  1.0  -0.0958
  C  C1424  1  0.463150  0.507660  0.086600  1.0  -0.0763
  C  C1425  1  0.451890  0.494430  0.155940  1.0  -0.1122
  C  C1426  1  0.475600  0.476790  0.203390  1.0  0.518
  C  C1427  1  0.480090  0.434060  0.371730  1.0  0.5253
  C  C1428  1  0.502370  0.416870  0.426670  1.0  -0.3212
  C  C1429  1  0.494670  0.380680  0.434500  1.0  -0.0762
  C  C1430  1  0.500380  0.361860  0.359600  1.0  -0.0849
  C  C1431  1  0.494290  0.324960  0.367600  1.0  -0.0808
  C  C1432  1  0.500790  0.306810  0.291300  1.0  -0.3286
  C  C1433  1  0.572260  0.399920  0.231810  1.0  0.3328
  C  C1434  1  0.574870  0.371890  0.185500  1.0  -0.2443
  C  C1435  1  0.599260  0.349180  0.198000  1.0  -0.1059
  C  C1436  1  0.621570  0.353310  0.255800  1.0  -0.1064
  C  C1437  1  0.619050  0.380140  0.302790  1.0  -0.0226
  C  C1438  1  0.594670  0.403840  0.292170  1.0  -0.1715
  C  C1439  1  0.594520  0.432290  0.344220  1.0  0.561
  C  C1440  1  0.558190  0.507030  0.361780  1.0  0.5043
  C  C1441  1  0.560160  0.539680  0.401200  1.0  -0.3049
  C  C1442  1  0.574960  0.565490  0.347200  1.0  -0.0856
  C  C1443  1  0.610710  0.559890  0.329700  1.0  -0.1108
  C  C1444  1  0.625840  0.585450  0.277400  1.0  -0.075
  C  C1445  1  0.662000  0.578480  0.259700  1.0  -0.3307
  C  C1446  1  0.603850  0.478660  0.154500  1.0  0.1625
  C  C1447  1  0.625750  0.498070  0.114600  1.0  -0.1891
  C  C1448  1  0.616900  0.528910  0.091300  1.0  0.1499
  C  C1449  1  0.586000  0.538630  0.107600  1.0  -0.1963
  C  C1450  1  0.565170  0.518390  0.147300  1.0  0.1484
  C  C1451  1  0.639770  0.550820  0.046000  1.0  -0.1489
  C  C1452  1  0.334300  0.483480  0.535730  1.0  0.3714
  C  C1453  1  0.304440  0.475800  0.571210  1.0  -0.2188
  C  C1454  1  0.285010  0.450890  0.543900  1.0  -0.1294
  C  C1455  1  0.294250  0.432610  0.480570  1.0  -0.1409
  C  C1456  1  0.323490  0.439880  0.445660  1.0  -0.0415
  C  C1457  1  0.344080  0.464930  0.471200  1.0  -0.1568
  C  C1458  1  0.374590  0.471200  0.429810  1.0  0.5717
  C  C1459  1  0.435250  0.528080  0.419020  1.0  0.532
  C  C1460  1  0.463720  0.539980  0.372200  1.0  -0.3223
  C  C1461  1  0.453650  0.568980  0.319600  1.0  -0.1557
  C  C1462  1  0.481970  0.583900  0.276500  1.0  -0.0816
  C  C1463  1  0.487000  0.579000  0.211700  1.0  -0.1319
  C  C1464  1  0.513480  0.598800  0.168800  1.0  -0.3664
  C  C1465  1  0.693170  0.609910  0.883190  1.0  0.1791
  C  C1466  1  0.675290  0.592360  0.936400  1.0  -0.2782
  C  C1467  1  0.654370  0.568210  0.911100  1.0  0.1161
  C  C1468  1  0.652820  0.562590  0.833300  1.0  -0.2154
  C  C1469  1  0.671360  0.581500  0.784400  1.0  0.1658
  C  C1470  1  0.633800  0.547810  0.965500  1.0  -0.2469
  C  C1471  1  0.580750  0.000160  0.177870  1.0  0.3401
  C  C1472  1  0.600290  0.980210  0.131900  1.0  -0.157
  C  C1473  1  0.588400  0.967080  0.064500  1.0  -0.1063
  C  C1474  1  0.556890  0.973430  0.039900  1.0  -0.098
  C  C1475  1  0.536850  0.992340  0.086600  1.0  -0.0752
  C  C1476  1  0.548110  0.005570  0.155940  1.0  -0.1117
  C  C1477  1  0.524400  0.023210  0.203390  1.0  0.5187
  C  C1478  1  0.519910  0.065940  0.371730  1.0  0.5244
  C  C1479  1  0.497630  0.083130  0.426670  1.0  -0.3206
  C  C1480  1  0.505330  0.119320  0.434500  1.0  -0.079
  C  C1481  1  0.499620  0.138140  0.359600  1.0  -0.0926
  C  C1482  1  0.505710  0.175040  0.367600  1.0  -0.0802
  C  C1483  1  0.499210  0.193190  0.291300  1.0  -0.3273
  C  C1484  1  0.427740  0.100080  0.231810  1.0  0.3301
  C  C1485  1  0.425130  0.128110  0.185500  1.0  -0.2406
  C  C1486  1  0.400740  0.150820  0.198000  1.0  -0.1088
  C  C1487  1  0.378430  0.146690  0.255800  1.0  -0.1095
  C  C1488  1  0.380950  0.119860  0.302790  1.0  -0.0212
  C  C1489  1  0.405330  0.096160  0.292170  1.0  -0.1718
  C  C1490  1  0.405480  0.067710  0.344220  1.0  0.5608
  C  C1491  1  0.441810  0.992970  0.361780  1.0  0.505
  C  C1492  1  0.439840  0.960320  0.401200  1.0  -0.3059
  C  C1493  1  0.425040  0.934510  0.347200  1.0  -0.0861
  C  C1494  1  0.389290  0.940110  0.329700  1.0  -0.1093
  C  C1495  1  0.374160  0.914550  0.277400  1.0  -0.0752
  C  C1496  1  0.338000  0.921520  0.259700  1.0  -0.3299
  C  C1497  1  0.396150  0.021340  0.154500  1.0  0.1628
  C  C1498  1  0.374250  0.001930  0.114600  1.0  -0.1897
  C  C1499  1  0.383100  0.971090  0.091300  1.0  0.1526
  C  C1500  1  0.414000  0.961370  0.107600  1.0  -0.1966
  C  C1501  1  0.434830  0.981610  0.147300  1.0  0.1485
  C  C1502  1  0.360230  0.949180  0.046000  1.0  -0.1487
  C  C1503  1  0.665700  0.016520  0.535730  1.0  0.3715
  C  C1504  1  0.695560  0.024200  0.571210  1.0  -0.2226
  C  C1505  1  0.714990  0.049110  0.543900  1.0  -0.127
  C  C1506  1  0.705750  0.067390  0.480570  1.0  -0.1395
  C  C1507  1  0.676510  0.060120  0.445660  1.0  -0.042
  C  C1508  1  0.655920  0.035070  0.471200  1.0  -0.1586
  C  C1509  1  0.625410  0.028800  0.429810  1.0  0.5713
  C  C1510  1  0.564750  0.971920  0.419020  1.0  0.5329
  C  C1511  1  0.536280  0.960020  0.372200  1.0  -0.321
  C  C1512  1  0.546350  0.931020  0.319600  1.0  -0.1551
  C  C1513  1  0.518030  0.916100  0.276500  1.0  -0.0786
  C  C1514  1  0.513000  0.921000  0.211700  1.0  -0.132
  C  C1515  1  0.486520  0.901200  0.168800  1.0  -0.365
  C  C1516  1  0.306830  0.890090  0.883190  1.0  0.1792
  C  C1517  1  0.324710  0.907640  0.936400  1.0  -0.2769
  C  C1518  1  0.345630  0.931790  0.911100  1.0  0.1164
  C  C1519  1  0.347180  0.937410  0.833300  1.0  -0.2149
  C  C1520  1  0.328640  0.918500  0.784400  1.0  0.166
  C  C1521  1  0.366200  0.952190  0.965500  1.0  -0.2467
  C  C1522  1  0.080750  0.500160  0.677870  1.0  0.3401
  C  C1523  1  0.100290  0.480210  0.631900  1.0  -0.157
  C  C1524  1  0.088400  0.467080  0.564500  1.0  -0.1068
  C  C1525  1  0.056890  0.473430  0.539900  1.0  -0.1
  C  C1526  1  0.036850  0.492340  0.586600  1.0  -0.0752
  C  C1527  1  0.048110  0.505570  0.655940  1.0  -0.1117
  C  C1528  1  0.024400  0.523210  0.703390  1.0  0.5184
  C  C1529  1  0.019910  0.565940  0.871730  1.0  0.5244
  C  C1530  1  0.997630  0.583130  0.926670  1.0  -0.3206
  C  C1531  1  0.005330  0.619320  0.934500  1.0  -0.079
  C  C1532  1  0.999620  0.638140  0.859600  1.0  -0.0926
  C  C1533  1  0.005710  0.675040  0.867600  1.0  -0.0802
  C  C1534  1  0.999210  0.693190  0.791300  1.0  -0.3273
  C  C1535  1  0.927740  0.600080  0.731810  1.0  0.3301
  C  C1536  1  0.925130  0.628110  0.685500  1.0  -0.2406
  C  C1537  1  0.900740  0.650820  0.698000  1.0  -0.1088
  C  C1538  1  0.878430  0.646690  0.755800  1.0  -0.1095
  C  C1539  1  0.880950  0.619860  0.802790  1.0  -0.0212
  C  C1540  1  0.905330  0.596160  0.792170  1.0  -0.1718
  C  C1541  1  0.905480  0.567710  0.844220  1.0  0.5608
  C  C1542  1  0.941810  0.492970  0.861780  1.0  0.505
  C  C1543  1  0.939840  0.460320  0.901200  1.0  -0.3059
  C  C1544  1  0.925040  0.434510  0.847200  1.0  -0.0861
  C  C1545  1  0.889290  0.440110  0.829700  1.0  -0.1093
  C  C1546  1  0.874160  0.414550  0.777400  1.0  -0.0752
  C  C1547  1  0.838000  0.421520  0.759700  1.0  -0.3299
  C  C1548  1  0.896150  0.521340  0.654500  1.0  0.1628
  C  C1549  1  0.874250  0.501930  0.614600  1.0  -0.1897
  C  C1550  1  0.883100  0.471090  0.591300  1.0  0.1526
  C  C1551  1  0.914000  0.461370  0.607600  1.0  -0.1966
  C  C1552  1  0.934830  0.481610  0.647300  1.0  0.1485
  C  C1553  1  0.860230  0.449180  0.546000  1.0  -0.1487
  C  C1554  1  0.165700  0.516520  0.035730  1.0  0.3715
  C  C1555  1  0.195560  0.524200  0.071210  1.0  -0.222
  C  C1556  1  0.214990  0.549110  0.043900  1.0  -0.1288
  C  C1557  1  0.205750  0.567390  0.980570  1.0  -0.1395
  C  C1558  1  0.176510  0.560120  0.945660  1.0  -0.042
  C  C1559  1  0.155920  0.535070  0.971200  1.0  -0.1586
  C  C1560  1  0.125410  0.528800  0.929810  1.0  0.5713
  C  C1561  1  0.064750  0.471920  0.919020  1.0  0.5329
  C  C1562  1  0.036280  0.460020  0.872200  1.0  -0.321
  C  C1563  1  0.046350  0.431020  0.819600  1.0  -0.1551
  C  C1564  1  0.018030  0.416100  0.776500  1.0  -0.0786
  C  C1565  1  0.013000  0.421000  0.711700  1.0  -0.132
  C  C1566  1  0.986520  0.401200  0.668800  1.0  -0.365
  C  C1567  1  0.806830  0.390090  0.383190  1.0  0.1791
  C  C1568  1  0.824710  0.407640  0.436400  1.0  -0.277
  C  C1569  1  0.845630  0.431790  0.411100  1.0  0.1173
  C  C1570  1  0.847180  0.437410  0.333333  1.0  -0.2154
  C  C1571  1  0.828640  0.418500  0.284400  1.0  0.1663
  C  C1572  1  0.866200  0.452190  0.465500  1.0  -0.2466
  C  C1573  1  0.250160  0.669250  0.427870  1.0  0.3372
  C  C1574  1  0.230210  0.649710  0.381900  1.0  -0.1557
  C  C1575  1  0.217080  0.661600  0.314500  1.0  -0.1122
  C  C1576  1  0.223430  0.693110  0.289900  1.0  -0.0982
  C  C1577  1  0.242340  0.713150  0.336600  1.0  -0.0753
  C  C1578  1  0.255570  0.701890  0.405940  1.0  -0.1134
  C  C1579  1  0.273210  0.725600  0.453390  1.0  0.5169
  C  C1580  1  0.315940  0.730090  0.621730  1.0  0.5262
  C  C1581  1  0.333130  0.752370  0.676670  1.0  -0.3218
  C  C1582  1  0.369320  0.744670  0.684500  1.0  -0.0833
  C  C1583  1  0.388140  0.750380  0.609600  1.0  -0.0839
  C  C1584  1  0.425040  0.744290  0.617600  1.0  -0.0801
  C  C1585  1  0.443190  0.750790  0.541300  1.0  -0.3269
  C  C1586  1  0.350080  0.822260  0.481810  1.0  0.3297
  C  C1587  1  0.378110  0.824870  0.435500  1.0  -0.2438
  C  C1588  1  0.400820  0.849260  0.448000  1.0  -0.1098
  C  C1589  1  0.396690  0.871570  0.505800  1.0  -0.1072
  C  C1590  1  0.369860  0.869050  0.552790  1.0  -0.0224
  C  C1591  1  0.346160  0.844670  0.542170  1.0  -0.1711
  C  C1592  1  0.317710  0.844520  0.594220  1.0  0.5593
  C  C1593  1  0.242970  0.808190  0.611780  1.0  0.501
  C  C1594  1  0.210320  0.810160  0.651200  1.0  -0.3034
  C  C1595  1  0.184510  0.824960  0.597200  1.0  -0.0847
  C  C1596  1  0.190110  0.860710  0.579700  1.0  -0.1084
  C  C1597  1  0.164550  0.875840  0.527400  1.0  -0.0745
  C  C1598  1  0.171520  0.912000  0.509700  1.0  -0.3309
  C  C1599  1  0.271340  0.853850  0.404500  1.0  0.1627
  C  C1600  1  0.251930  0.875750  0.364600  1.0  -0.1888
  C  C1601  1  0.221090  0.866900  0.341300  1.0  0.1499
  C  C1602  1  0.211370  0.836000  0.357600  1.0  -0.1951
  C  C1603  1  0.231610  0.815170  0.397300  1.0  0.1496
  C  C1604  1  0.199180  0.889770  0.296000  1.0  -0.1503
  C  C1605  1  0.266520  0.584300  0.785730  1.0  0.3707
  C  C1606  1  0.274200  0.554440  0.821210  1.0  -0.2186
  C  C1607  1  0.299110  0.535010  0.793900  1.0  -0.1274
  C  C1608  1  0.317390  0.544250  0.730570  1.0  -0.1392
  C  C1609  1  0.310120  0.573490  0.695660  1.0  -0.041
  C  C1610  1  0.285070  0.594080  0.721200  1.0  -0.1584
  C  C1611  1  0.278800  0.624590  0.679810  1.0  0.5716
  C  C1612  1  0.221920  0.685250  0.669020  1.0  0.5321
  C  C1613  1  0.210020  0.713720  0.622200  1.0  -0.3168
  C  C1614  1  0.181020  0.703650  0.569600  1.0  -0.1549
  C  C1615  1  0.166100  0.731970  0.526500  1.0  -0.0812
  C  C1616  1  0.171000  0.737000  0.461700  1.0  -0.1372
  C  C1617  1  0.151200  0.763480  0.418800  1.0  -0.3689
  C  C1618  1  0.140090  0.943170  0.133190  1.0  0.1808
  C  C1619  1  0.157640  0.925290  0.186400  1.0  -0.2787
  C  C1620  1  0.181790  0.904370  0.161100  1.0  0.1153
  C  C1621  1  0.187410  0.902820  0.083300  1.0  -0.2134
  C  C1622  1  0.168500  0.921360  0.034400  1.0  0.1657
  C  C1623  1  0.202190  0.883800  0.215500  1.0  -0.2447
  C  C1624  1  0.750160  0.169250  0.927870  1.0  0.3372
  C  C1625  1  0.730210  0.149710  0.881900  1.0  -0.1557
  C  C1626  1  0.717080  0.161600  0.814500  1.0  -0.1122
  C  C1627  1  0.723430  0.193110  0.789900  1.0  -0.0982
  C  C1628  1  0.742340  0.213150  0.836600  1.0  -0.0753
  C  C1629  1  0.755570  0.201890  0.905940  1.0  -0.1134
  C  C1630  1  0.773210  0.225600  0.953390  1.0  0.5169
  C  C1631  1  0.815940  0.230090  0.121730  1.0  0.5262
  C  C1632  1  0.833130  0.252370  0.176670  1.0  -0.3218
  C  C1633  1  0.869320  0.244670  0.184500  1.0  -0.0833
  C  C1634  1  0.888140  0.250380  0.109600  1.0  -0.0839
  C  C1635  1  0.925040  0.244290  0.117600  1.0  -0.0801
  C  C1636  1  0.943190  0.250790  0.041300  1.0  -0.3269
  C  C1637  1  0.850080  0.322260  0.981810  1.0  0.3297
  C  C1638  1  0.878110  0.324870  0.935500  1.0  -0.2438
  C  C1639  1  0.900820  0.349260  0.948000  1.0  -0.1098
  C  C1640  1  0.896690  0.371570  0.005800  1.0  -0.1072
  C  C1641  1  0.869860  0.369050  0.052790  1.0  -0.0224
  C  C1642  1  0.846160  0.344670  0.042170  1.0  -0.1711
  C  C1643  1  0.817710  0.344520  0.094220  1.0  0.5593
  C  C1644  1  0.742970  0.308190  0.111780  1.0  0.501
  C  C1645  1  0.710320  0.310160  0.151200  1.0  -0.3034
  C  C1646  1  0.684510  0.324960  0.097200  1.0  -0.0847
  C  C1647  1  0.690110  0.360710  0.079700  1.0  -0.1084
  C  C1648  1  0.664550  0.375840  0.027400  1.0  -0.0745
  C  C1649  1  0.671520  0.412000  0.009700  1.0  -0.3309
  C  C1650  1  0.771340  0.353850  0.904500  1.0  0.1627
  C  C1651  1  0.751930  0.375750  0.864600  1.0  -0.1888
  C  C1652  1  0.721090  0.366900  0.841300  1.0  0.1499
  C  C1653  1  0.711370  0.336000  0.857600  1.0  -0.1951
  C  C1654  1  0.731610  0.315170  0.897300  1.0  0.1496
  C  C1655  1  0.699180  0.389770  0.796000  1.0  -0.1503
  C  C1656  1  0.766520  0.084300  0.285730  1.0  0.3707
  C  C1657  1  0.774200  0.054440  0.321210  1.0  -0.2186
  C  C1658  1  0.799110  0.035010  0.293900  1.0  -0.1274
  C  C1659  1  0.817390  0.044250  0.230570  1.0  -0.1392
  C  C1660  1  0.810120  0.073490  0.195660  1.0  -0.041
  C  C1661  1  0.785070  0.094080  0.221200  1.0  -0.1584
  C  C1662  1  0.778800  0.124590  0.179810  1.0  0.5716
  C  C1663  1  0.721920  0.185250  0.169020  1.0  0.5321
  C  C1664  1  0.710020  0.213720  0.122200  1.0  -0.3168
  C  C1665  1  0.681020  0.203650  0.069600  1.0  -0.1549
  C  C1666  1  0.666100  0.231970  0.026500  1.0  -0.0812
  C  C1667  1  0.671000  0.237000  0.961700  1.0  -0.1372
  C  C1668  1  0.651200  0.263480  0.918800  1.0  -0.3689
  C  C1669  1  0.640090  0.443170  0.633190  1.0  0.1808
  C  C1670  1  0.657640  0.425290  0.686400  1.0  -0.2787
  C  C1671  1  0.681790  0.404370  0.661100  1.0  0.1152
  C  C1672  1  0.687410  0.402820  0.583300  1.0  -0.2134
  C  C1673  1  0.668500  0.421360  0.534400  1.0  0.1657
  C  C1674  1  0.702190  0.383800  0.715500  1.0  -0.2447
  C  C1675  1  0.249840  0.330750  0.927870  1.0  0.3391
  C  C1676  1  0.269790  0.350290  0.881900  1.0  -0.1556
  C  C1677  1  0.282920  0.338400  0.814500  1.0  -0.1075
  C  C1678  1  0.276570  0.306890  0.789900  1.0  -0.0999
  C  C1679  1  0.257660  0.286850  0.836600  1.0  -0.0769
  C  C1680  1  0.244430  0.298110  0.905940  1.0  -0.1134
  C  C1681  1  0.226790  0.274400  0.953390  1.0  0.5177
  C  C1682  1  0.184060  0.269910  0.121730  1.0  0.5255
  C  C1683  1  0.166870  0.247630  0.176670  1.0  -0.3192
  C  C1684  1  0.130680  0.255330  0.184500  1.0  -0.0746
  C  C1685  1  0.111860  0.249620  0.109600  1.0  -0.0935
  C  C1686  1  0.074960  0.255710  0.117600  1.0  -0.0804
  C  C1687  1  0.056810  0.249210  0.041300  1.0  -0.3263
  C  C1688  1  0.149920  0.177740  0.981810  1.0  0.3299
  C  C1689  1  0.121890  0.175130  0.935500  1.0  -0.24
  C  C1690  1  0.099180  0.150740  0.948000  1.0  -0.1133
  C  C1691  1  0.103310  0.128430  0.005800  1.0  -0.1077
  C  C1692  1  0.130140  0.130950  0.052790  1.0  -0.0223
  C  C1693  1  0.153840  0.155330  0.042170  1.0  -0.1715
  C  C1694  1  0.182290  0.155480  0.094220  1.0  0.5597
  C  C1695  1  0.257030  0.191810  0.111780  1.0  0.5021
  C  C1696  1  0.289680  0.189840  0.151200  1.0  -0.3055
  C  C1697  1  0.315490  0.175040  0.097200  1.0  -0.0867
  C  C1698  1  0.309890  0.139290  0.079700  1.0  -0.1018
  C  C1699  1  0.335450  0.124160  0.027400  1.0  -0.0729
  C  C1700  1  0.328480  0.088000  0.009700  1.0  -0.3306
  C  C1701  1  0.228660  0.146150  0.904500  1.0  0.1634
  C  C1702  1  0.248070  0.124250  0.864600  1.0  -0.1877
  C  C1703  1  0.278910  0.133100  0.841300  1.0  0.1511
  C  C1704  1  0.288630  0.164000  0.857600  1.0  -0.197
  C  C1705  1  0.268390  0.184830  0.897300  1.0  0.1514
  C  C1706  1  0.300820  0.110230  0.796000  1.0  -0.1505
  C  C1707  1  0.233480  0.415700  0.285730  1.0  0.3717
  C  C1708  1  0.225800  0.445560  0.321210  1.0  -0.2158
  C  C1709  1  0.200890  0.464990  0.293900  1.0  -0.124
  C  C1710  1  0.182610  0.455750  0.230570  1.0  -0.1392
  C  C1711  1  0.189880  0.426510  0.195660  1.0  -0.0392
  C  C1712  1  0.214930  0.405920  0.221200  1.0  -0.1583
  C  C1713  1  0.221200  0.375410  0.179810  1.0  0.5723
  C  C1714  1  0.278080  0.314750  0.169020  1.0  0.532
  C  C1715  1  0.289980  0.286280  0.122200  1.0  -0.3198
  C  C1716  1  0.318980  0.296350  0.069600  1.0  -0.1575
  C  C1717  1  0.333900  0.268030  0.026500  1.0  -0.0824
  C  C1718  1  0.329000  0.263000  0.961700  1.0  -0.1349
  C  C1719  1  0.348800  0.236520  0.918800  1.0  -0.3683
  C  C1720  1  0.359910  0.056830  0.633190  1.0  0.1797
  C  C1721  1  0.342360  0.074710  0.686400  1.0  -0.2791
  C  C1722  1  0.318210  0.095630  0.661100  1.0  0.1155
  C  C1723  1  0.312590  0.097180  0.583300  1.0  -0.2141
  C  C1724  1  0.331500  0.078640  0.534400  1.0  0.1655
  C  C1725  1  0.297810  0.116200  0.715500  1.0  -0.2453
  C  C1726  1  0.749840  0.830750  0.427870  1.0  0.3391
  C  C1727  1  0.769790  0.850290  0.381900  1.0  -0.1556
  C  C1728  1  0.782920  0.838400  0.314500  1.0  -0.1075
  C  C1729  1  0.776570  0.806890  0.289900  1.0  -0.0999
  C  C1730  1  0.757660  0.786850  0.336600  1.0  -0.0769
  C  C1731  1  0.744430  0.798110  0.405940  1.0  -0.1134
  C  C1732  1  0.726790  0.774400  0.453390  1.0  0.5177
  C  C1733  1  0.684060  0.769910  0.621730  1.0  0.5255
  C  C1734  1  0.666870  0.747630  0.676670  1.0  -0.3192
  C  C1735  1  0.630680  0.755330  0.684500  1.0  -0.0746
  C  C1736  1  0.611860  0.749620  0.609600  1.0  -0.0935
  C  C1737  1  0.574960  0.755710  0.617600  1.0  -0.0804
  C  C1738  1  0.556810  0.749210  0.541300  1.0  -0.3263
  C  C1739  1  0.649920  0.677740  0.481810  1.0  0.3299
  C  C1740  1  0.621890  0.675130  0.435500  1.0  -0.24
  C  C1741  1  0.599180  0.650740  0.448000  1.0  -0.1133
  C  C1742  1  0.603310  0.628430  0.505800  1.0  -0.1077
  C  C1743  1  0.630140  0.630950  0.552790  1.0  -0.0223
  C  C1744  1  0.653840  0.655330  0.542170  1.0  -0.1715
  C  C1745  1  0.682290  0.655480  0.594220  1.0  0.5597
  C  C1746  1  0.757030  0.691810  0.611780  1.0  0.5021
  C  C1747  1  0.789680  0.689840  0.651200  1.0  -0.3055
  C  C1748  1  0.815490  0.675040  0.597200  1.0  -0.0867
  C  C1749  1  0.809890  0.639290  0.579700  1.0  -0.1018
  C  C1750  1  0.835450  0.624160  0.527400  1.0  -0.0729
  C  C1751  1  0.828480  0.588000  0.509700  1.0  -0.3306
  C  C1752  1  0.728660  0.646150  0.404500  1.0  0.1634
  C  C1753  1  0.748070  0.624250  0.364600  1.0  -0.1877
  C  C1754  1  0.778910  0.633100  0.341300  1.0  0.1511
  C  C1755  1  0.788630  0.664000  0.357600  1.0  -0.197
  C  C1756  1  0.768390  0.684830  0.397300  1.0  0.1514
  C  C1757  1  0.800820  0.610230  0.296000  1.0  -0.1505
  C  C1758  1  0.733480  0.915700  0.785730  1.0  0.3717
  C  C1759  1  0.725800  0.945560  0.821210  1.0  -0.2158
  C  C1760  1  0.700890  0.964990  0.793900  1.0  -0.124
  C  C1761  1  0.682610  0.955750  0.730570  1.0  -0.1392
  C  C1762  1  0.689880  0.926510  0.695660  1.0  -0.0392
  C  C1763  1  0.714930  0.905920  0.721200  1.0  -0.1583
  C  C1764  1  0.721200  0.875410  0.679810  1.0  0.5723
  C  C1765  1  0.778080  0.814750  0.669020  1.0  0.532
  C  C1766  1  0.789980  0.786280  0.622200  1.0  -0.3198
  C  C1767  1  0.818980  0.796350  0.569600  1.0  -0.1575
  C  C1768  1  0.833900  0.768030  0.526500  1.0  -0.0824
  C  C1769  1  0.829000  0.763000  0.461700  1.0  -0.1349
  C  C1770  1  0.848800  0.736520  0.418800  1.0  -0.3683
  C  C1771  1  0.859910  0.556830  0.133190  1.0  0.1797
  C  C1772  1  0.842360  0.574710  0.186400  1.0  -0.2791
  C  C1773  1  0.818210  0.595630  0.161100  1.0  0.1155
  C  C1774  1  0.812590  0.597180  0.083300  1.0  -0.2141
  C  C1775  1  0.831500  0.578640  0.034400  1.0  0.1655
  C  C1776  1  0.797810  0.616200  0.215500  1.0  -0.2453
  N  N1777  1  0.033990  0.036110  0.230840  1.0  -0.3096
  N  N1778  1  0.008350  0.051370  0.188900  1.0  -0.2598
  N  N1779  1  0.926160  0.043550  0.168660  1.0  -0.2961
  N  N1780  1  0.921700  0.016320  0.119370  1.0  -0.2854
  N  N1781  1  0.926180  0.011590  0.328750  1.0  -0.3395
  N  N1782  1  0.106290  0.004390  0.050040  1.0  -0.2353
  N  N1783  1  0.078490  0.999690  0.097080  1.0  -0.2532
  N  N1784  1  0.808750  0.895000  0.692000  1.0  -0.3298
  N  N1785  1  0.533990  0.536110  0.730840  1.0  -0.3096
  N  N1786  1  0.508350  0.551370  0.688900  1.0  -0.2598
  N  N1787  1  0.426160  0.543550  0.668660  1.0  -0.2959
  N  N1788  1  0.421700  0.516320  0.619370  1.0  -0.2854
  N  N1789  1  0.426180  0.511590  0.828750  1.0  -0.3398
  N  N1790  1  0.606290  0.504390  0.550040  1.0  -0.2353
  N  N1791  1  0.578490  0.499690  0.597080  1.0  -0.2532
  N  N1792  1  0.308750  0.395000  0.192000  1.0  -0.3298
  N  N1793  1  0.466010  0.963890  0.730840  1.0  -0.3065
  N  N1794  1  0.491650  0.948630  0.688900  1.0  -0.2569
  N  N1795  1  0.573840  0.956450  0.668660  1.0  -0.2953
  N  N1796  1  0.578300  0.983680  0.619370  1.0  -0.2843
  N  N1797  1  0.573820  0.988410  0.828750  1.0  -0.3387
  N  N1798  1  0.393710  0.995610  0.550040  1.0  -0.2365
  N  N1799  1  0.421510  0.000310  0.597080  1.0  -0.2523
  N  N1800  1  0.691250  0.105000  0.192000  1.0  -0.3292
  N  N1801  1  0.966010  0.463890  0.230840  1.0  -0.3065
  N  N1802  1  0.991650  0.448630  0.188900  1.0  -0.2569
  N  N1803  1  0.073840  0.456450  0.168660  1.0  -0.2953
  N  N1804  1  0.078300  0.483680  0.119370  1.0  -0.2843
  N  N1805  1  0.073820  0.488410  0.328750  1.0  -0.3387
  N  N1806  1  0.893710  0.495610  0.050040  1.0  -0.2365
  N  N1807  1  0.921510  0.500310  0.097080  1.0  -0.2523
  N  N1808  1  0.191250  0.605000  0.692000  1.0  -0.3292
  N  N1809  1  0.713890  0.283990  0.480840  1.0  -0.3064
  N  N1810  1  0.698630  0.258350  0.438900  1.0  -0.2593
  N  N1811  1  0.706450  0.176160  0.418660  1.0  -0.2966
  N  N1812  1  0.733680  0.171700  0.369370  1.0  -0.2856
  N  N1813  1  0.738410  0.176180  0.578750  1.0  -0.337
  N  N1814  1  0.745610  0.356290  0.300040  1.0  -0.2347
  N  N1815  1  0.750310  0.328490  0.347080  1.0  -0.2538
  N  N1816  1  0.855000  0.058750  0.942000  1.0  -0.3298
  N  N1817  1  0.213890  0.783990  0.980840  1.0  -0.3064
  N  N1818  1  0.198630  0.758350  0.938900  1.0  -0.2589
  N  N1819  1  0.206450  0.676160  0.918660  1.0  -0.2966
  N  N1820  1  0.233680  0.671700  0.869370  1.0  -0.2856
  N  N1821  1  0.238410  0.676180  0.078750  1.0  -0.337
  N  N1822  1  0.245610  0.856290  0.800040  1.0  -0.2347
  N  N1823  1  0.250310  0.828490  0.847080  1.0  -0.2538
  N  N1824  1  0.355000  0.558750  0.442000  1.0  -0.3293
  N  N1825  1  0.786110  0.716010  0.980840  1.0  -0.3057
  N  N1826  1  0.801370  0.741650  0.938900  1.0  -0.2585
  N  N1827  1  0.793550  0.823840  0.918660  1.0  -0.2958
  N  N1828  1  0.766320  0.828300  0.869370  1.0  -0.2849
  N  N1829  1  0.761590  0.823820  0.078750  1.0  -0.3378
  N  N1830  1  0.754390  0.643710  0.800040  1.0  -0.2323
  N  N1831  1  0.749690  0.671510  0.847080  1.0  -0.2524
  N  N1832  1  0.645000  0.941250  0.442000  1.0  -0.3297
  N  N1833  1  0.286110  0.216010  0.480840  1.0  -0.3057
  N  N1834  1  0.301370  0.241650  0.438900  1.0  -0.2584
  N  N1835  1  0.293550  0.323840  0.418660  1.0  -0.2958
  N  N1836  1  0.266320  0.328300  0.369370  1.0  -0.2849
  N  N1837  1  0.261590  0.323820  0.578750  1.0  -0.3378
  N  N1838  1  0.254390  0.143710  0.300040  1.0  -0.2323
  N  N1839  1  0.249690  0.171510  0.347080  1.0  -0.2524
  N  N1840  1  0.145000  0.441250  0.942000  1.0  -0.33
  N  N1841  1  0.966010  0.963890  0.769160  1.0  -0.3063
  N  N1842  1  0.991650  0.948630  0.811100  1.0  -0.2567
  N  N1843  1  0.073840  0.956450  0.831340  1.0  -0.2933
  N  N1844  1  0.078300  0.983680  0.880630  1.0  -0.2829
  N  N1845  1  0.073820  0.988410  0.671250  1.0  -0.3396
  N  N1846  1  0.893710  0.995610  0.949960  1.0  -0.2363
  N  N1847  1  0.921510  0.000310  0.902920  1.0  -0.2532
  N  N1848  1  0.191250  0.105000  0.308000  1.0  -0.3304
  N  N1849  1  0.466010  0.463890  0.269160  1.0  -0.3063
  N  N1850  1  0.491650  0.448630  0.311100  1.0  -0.2567
  N  N1851  1  0.573840  0.456450  0.331340  1.0  -0.2933
  N  N1852  1  0.578300  0.483680  0.380630  1.0  -0.2829
  N  N1853  1  0.573820  0.488410  0.171250  1.0  -0.3396
  N  N1854  1  0.393710  0.495610  0.449960  1.0  -0.2363
  N  N1855  1  0.421510  0.500310  0.402920  1.0  -0.2532
  N  N1856  1  0.691250  0.605000  0.808000  1.0  -0.3304
  N  N1857  1  0.533990  0.036110  0.269160  1.0  -0.3088
  N  N1858  1  0.508350  0.051370  0.311100  1.0  -0.2596
  N  N1859  1  0.426160  0.043550  0.331340  1.0  -0.2944
  N  N1860  1  0.421700  0.016320  0.380630  1.0  -0.285
  N  N1861  1  0.426180  0.011590  0.171250  1.0  -0.3395
  N  N1862  1  0.606290  0.004390  0.449960  1.0  -0.2353
  N  N1863  1  0.578490  0.999690  0.402920  1.0  -0.2531
  N  N1864  1  0.308750  0.895000  0.808000  1.0  -0.3314
  N  N1865  1  0.033990  0.536110  0.769160  1.0  -0.3088
  N  N1866  1  0.008350  0.551370  0.811100  1.0  -0.2596
  N  N1867  1  0.926160  0.543550  0.831340  1.0  -0.295
  N  N1868  1  0.921700  0.516320  0.880630  1.0  -0.285
  N  N1869  1  0.926180  0.511590  0.671250  1.0  -0.3397
  N  N1870  1  0.106290  0.504390  0.949960  1.0  -0.2353
  N  N1871  1  0.078490  0.499690  0.902920  1.0  -0.2531
  N  N1872  1  0.808750  0.395000  0.308000  1.0  -0.3314
  N  N1873  1  0.286110  0.716010  0.519160  1.0  -0.3059
  N  N1874  1  0.301370  0.741650  0.561100  1.0  -0.2581
  N  N1875  1  0.293550  0.823840  0.581340  1.0  -0.2938
  N  N1876  1  0.266320  0.828300  0.630630  1.0  -0.2849
  N  N1877  1  0.261590  0.823820  0.421250  1.0  -0.3381
  N  N1878  1  0.254390  0.643710  0.699960  1.0  -0.2316
  N  N1879  1  0.249690  0.671510  0.652920  1.0  -0.2525
  N  N1880  1  0.145000  0.941250  0.058000  1.0  -0.3304
  N  N1881  1  0.786110  0.216010  0.019160  1.0  -0.3059
  N  N1882  1  0.801370  0.241650  0.061100  1.0  -0.2582
  N  N1883  1  0.793550  0.323840  0.081340  1.0  -0.2938
  N  N1884  1  0.766320  0.328300  0.130630  1.0  -0.2849
  N  N1885  1  0.761590  0.323820  0.921250  1.0  -0.3381
  N  N1886  1  0.754390  0.143710  0.199960  1.0  -0.2316
  N  N1887  1  0.749690  0.171510  0.152920  1.0  -0.2525
  N  N1888  1  0.645000  0.441250  0.558000  1.0  -0.3304
  N  N1889  1  0.213890  0.283990  0.019160  1.0  -0.3064
  N  N1890  1  0.198630  0.258350  0.061100  1.0  -0.2595
  N  N1891  1  0.206450  0.176160  0.081340  1.0  -0.2946
  N  N1892  1  0.233680  0.171700  0.130630  1.0  -0.2846
  N  N1893  1  0.238410  0.176180  0.921250  1.0  -0.3369
  N  N1894  1  0.245610  0.356290  0.199960  1.0  -0.2345
  N  N1895  1  0.250310  0.328490  0.152920  1.0  -0.2541
  N  N1896  1  0.355000  0.058750  0.558000  1.0  -0.3311
  N  N1897  1  0.713890  0.783990  0.519160  1.0  -0.3064
  N  N1898  1  0.698630  0.758350  0.561100  1.0  -0.2595
  N  N1899  1  0.706450  0.676160  0.581340  1.0  -0.2946
  N  N1900  1  0.733680  0.671700  0.630630  1.0  -0.2846
  N  N1901  1  0.738410  0.676180  0.421250  1.0  -0.3369
  N  N1902  1  0.745610  0.856290  0.699960  1.0  -0.2345
  N  N1903  1  0.750310  0.828490  0.652920  1.0  -0.2541
  N  N1904  1  0.855000  0.558750  0.058000  1.0  -0.3311
  O  O1905  1  0.094540  0.013030  0.259690  1.0  -0.5666
  O  O1906  1  0.994530  0.025220  0.319640  1.0  -0.5872
  O  O1907  1  0.051250  0.066340  0.113090  1.0  -0.5808
  O  O1908  1  0.951530  0.079090  0.284290  1.0  -0.568
  O  O1909  1  0.885060  0.066980  0.099680  1.0  -0.5843
  O  O1910  1  0.963120  0.996170  0.193150  1.0  -0.5796
  O  O1911  1  0.148670  0.991950  0.934050  1.0  -0.5646
  O  O1912  1  0.118130  0.047460  0.127790  1.0  -0.5914
  O  O1913  1  0.075370  0.952440  0.027200  1.0  -0.5919
  O  O1914  1  0.594540  0.513030  0.759690  1.0  -0.5666
  O  O1915  1  0.494530  0.525220  0.819640  1.0  -0.5872
  O  O1916  1  0.551250  0.566340  0.613090  1.0  -0.5808
  O  O1917  1  0.451530  0.579090  0.784290  1.0  -0.568
  O  O1918  1  0.385060  0.566980  0.599680  1.0  -0.5843
  O  O1919  1  0.463120  0.496170  0.693150  1.0  -0.5796
  O  O1920  1  0.648670  0.491950  0.434050  1.0  -0.5646
  O  O1921  1  0.618130  0.547460  0.627790  1.0  -0.5914
  O  O1922  1  0.575370  0.452440  0.527200  1.0  -0.5919
  O  O1923  1  0.405460  0.986970  0.759690  1.0  -0.5668
  O  O1924  1  0.505470  0.974780  0.819640  1.0  -0.5888
  O  O1925  1  0.448750  0.933660  0.613090  1.0  -0.5825
  O  O1926  1  0.548470  0.920910  0.784290  1.0  -0.5702
  O  O1927  1  0.614940  0.933020  0.599680  1.0  -0.5848
  O  O1928  1  0.536880  0.003830  0.693150  1.0  -0.582
  O  O1929  1  0.351330  0.008050  0.434050  1.0  -0.5665
  O  O1930  1  0.381870  0.952540  0.627790  1.0  -0.591
  O  O1931  1  0.424630  0.047560  0.527200  1.0  -0.5926
  O  O1932  1  0.905460  0.486970  0.259690  1.0  -0.5668
  O  O1933  1  0.005470  0.474780  0.319640  1.0  -0.5888
  O  O1934  1  0.948750  0.433660  0.113090  1.0  -0.5825
  O  O1935  1  0.048470  0.420910  0.284290  1.0  -0.5702
  O  O1936  1  0.114940  0.433020  0.099680  1.0  -0.5848
  O  O1937  1  0.036880  0.503830  0.193150  1.0  -0.582
  O  O1938  1  0.851330  0.508050  0.934050  1.0  -0.5665
  O  O1939  1  0.881870  0.452540  0.127790  1.0  -0.591
  O  O1940  1  0.924630  0.547560  0.027200  1.0  -0.5926
  O  O1941  1  0.736970  0.344540  0.509690  1.0  -0.5685
  O  O1942  1  0.724780  0.244530  0.569640  1.0  -0.5848
  O  O1943  1  0.683660  0.301250  0.363090  1.0  -0.5824
  O  O1944  1  0.670910  0.201530  0.534290  1.0  -0.5703
  O  O1945  1  0.683020  0.135060  0.349680  1.0  -0.5841
  O  O1946  1  0.753830  0.213120  0.443150  1.0  -0.5803
  O  O1947  1  0.758050  0.398670  0.184050  1.0  -0.5645
  O  O1948  1  0.702540  0.368130  0.377790  1.0  -0.5898
  O  O1949  1  0.797560  0.325370  0.277200  1.0  -0.5899
  O  O1950  1  0.236970  0.844540  0.009690  1.0  -0.5685
  O  O1951  1  0.224780  0.744530  0.069640  1.0  -0.5848
  O  O1952  1  0.183660  0.801250  0.863090  1.0  -0.5824
  O  O1953  1  0.170910  0.701530  0.034290  1.0  -0.5705
  O  O1954  1  0.183020  0.635060  0.849680  1.0  -0.5841
  O  O1955  1  0.253830  0.713120  0.943150  1.0  -0.5803
  O  O1956  1  0.258050  0.898670  0.684050  1.0  -0.5645
  O  O1957  1  0.202540  0.868130  0.877790  1.0  -0.5898
  O  O1958  1  0.297560  0.825370  0.777200  1.0  -0.5899
  O  O1959  1  0.763030  0.655460  0.009690  1.0  -0.5684
  O  O1960  1  0.775220  0.755470  0.069640  1.0  -0.5859
  O  O1961  1  0.816340  0.698750  0.863090  1.0  -0.5811
  O  O1962  1  0.829090  0.798470  0.034290  1.0  -0.5717
  O  O1963  1  0.816980  0.864940  0.849680  1.0  -0.5847
  O  O1964  1  0.746170  0.786880  0.943150  1.0  -0.5793
  O  O1965  1  0.741950  0.601330  0.684050  1.0  -0.5659
  O  O1966  1  0.797460  0.631870  0.877790  1.0  -0.5893
  O  O1967  1  0.702440  0.674630  0.777200  1.0  -0.59
  O  O1968  1  0.263030  0.155460  0.509690  1.0  -0.5684
  O  O1969  1  0.275220  0.255470  0.569640  1.0  -0.5859
  O  O1970  1  0.316340  0.198750  0.363090  1.0  -0.5811
  O  O1971  1  0.329090  0.298470  0.534290  1.0  -0.5714
  O  O1972  1  0.316980  0.364940  0.349680  1.0  -0.5847
  O  O1973  1  0.246170  0.286880  0.443150  1.0  -0.5793
  O  O1974  1  0.241950  0.101330  0.184050  1.0  -0.5659
  O  O1975  1  0.297460  0.131870  0.377790  1.0  -0.5893
  O  O1976  1  0.202440  0.174630  0.277200  1.0  -0.59
  O  O1977  1  0.905460  0.986970  0.740310  1.0  -0.568
  O  O1978  1  0.005470  0.974780  0.680360  1.0  -0.5872
  O  O1979  1  0.948750  0.933660  0.886910  1.0  -0.5835
  O  O1980  1  0.048470  0.920910  0.715710  1.0  -0.5723
  O  O1981  1  0.114940  0.933020  0.900320  1.0  -0.5843
  O  O1982  1  0.036880  0.003830  0.806850  1.0  -0.5809
  O  O1983  1  0.851330  0.008050  0.065950  1.0  -0.566
  O  O1984  1  0.881870  0.952540  0.872210  1.0  -0.5918
  O  O1985  1  0.924630  0.047560  0.972800  1.0  -0.5924
  O  O1986  1  0.405460  0.486970  0.240310  1.0  -0.568
  O  O1987  1  0.505470  0.474780  0.180360  1.0  -0.5872
  O  O1988  1  0.448750  0.433660  0.386910  1.0  -0.5835
  O  O1989  1  0.548470  0.420910  0.215710  1.0  -0.5723
  O  O1990  1  0.614940  0.433020  0.400320  1.0  -0.5843
  O  O1991  1  0.536880  0.503830  0.306850  1.0  -0.5809
  O  O1992  1  0.351330  0.508050  0.565950  1.0  -0.5651
  O  O1993  1  0.381870  0.452540  0.372210  1.0  -0.5918
  O  O1994  1  0.424630  0.547560  0.472800  1.0  -0.5924
  O  O1995  1  0.594540  0.013030  0.240310  1.0  -0.5688
  O  O1996  1  0.494530  0.025220  0.180360  1.0  -0.5878
  O  O1997  1  0.551250  0.066340  0.386910  1.0  -0.5819
  O  O1998  1  0.451530  0.079090  0.215710  1.0  -0.5674
  O  O1999  1  0.385060  0.066980  0.400320  1.0  -0.5844
  O  O2000  1  0.463120  0.996170  0.306850  1.0  -0.5784
  O  O2001  1  0.648670  0.991950  0.565950  1.0  -0.5643
  O  O2002  1  0.618130  0.047460  0.372210  1.0  -0.5926
  O  O2003  1  0.575370  0.952440  0.472800  1.0  -0.5915
  O  O2004  1  0.094540  0.513030  0.740310  1.0  -0.5688
  O  O2005  1  0.994530  0.525220  0.680360  1.0  -0.5878
  O  O2006  1  0.051250  0.566340  0.886910  1.0  -0.5819
  O  O2007  1  0.951530  0.579090  0.715710  1.0  -0.5674
  O  O2008  1  0.885060  0.566980  0.900320  1.0  -0.5844
  O  O2009  1  0.963120  0.496170  0.806850  1.0  -0.5784
  O  O2010  1  0.148670  0.491950  0.065950  1.0  -0.5648
  O  O2011  1  0.118130  0.547460  0.872210  1.0  -0.5926
  O  O2012  1  0.075370  0.452440  0.972800  1.0  -0.5915
  O  O2013  1  0.263030  0.655460  0.490310  1.0  -0.5699
  O  O2014  1  0.275220  0.755470  0.430360  1.0  -0.5867
  O  O2015  1  0.316340  0.698750  0.636910  1.0  -0.5827
  O  O2016  1  0.329090  0.798470  0.465710  1.0  -0.574
  O  O2017  1  0.316980  0.864940  0.650320  1.0  -0.5846
  O  O2018  1  0.246170  0.786880  0.556850  1.0  -0.578
  O  O2019  1  0.241950  0.601330  0.815950  1.0  -0.5649
  O  O2020  1  0.297460  0.631870  0.622210  1.0  -0.5911
  O  O2021  1  0.202440  0.674630  0.722800  1.0  -0.5893
  O  O2022  1  0.763030  0.155460  0.990310  1.0  -0.5699
  O  O2023  1  0.775220  0.255470  0.930360  1.0  -0.5867
  O  O2024  1  0.816340  0.198750  0.136910  1.0  -0.5827
  O  O2025  1  0.829090  0.298470  0.965710  1.0  -0.574
  O  O2026  1  0.816980  0.364940  0.150320  1.0  -0.5846
  O  O2027  1  0.746170  0.286880  0.056850  1.0  -0.578
  O  O2028  1  0.741950  0.101330  0.315950  1.0  -0.5649
  O  O2029  1  0.797460  0.131870  0.122210  1.0  -0.5911
  O  O2030  1  0.702440  0.174630  0.222800  1.0  -0.5893
  O  O2031  1  0.236970  0.344540  0.990310  1.0  -0.5702
  O  O2032  1  0.224780  0.244530  0.930360  1.0  -0.5844
  O  O2033  1  0.183660  0.301250  0.136910  1.0  -0.5833
  O  O2034  1  0.170910  0.201530  0.965710  1.0  -0.5719
  O  O2035  1  0.183020  0.135060  0.150320  1.0  -0.5838
  O  O2036  1  0.253830  0.213120  0.056850  1.0  -0.5794
  O  O2037  1  0.258050  0.398670  0.315950  1.0  -0.5642
  O  O2038  1  0.202540  0.368130  0.122210  1.0  -0.5906
  O  O2039  1  0.297560  0.325370  0.222800  1.0  -0.5896
  O  O2040  1  0.736970  0.844540  0.490310  1.0  -0.5702
  O  O2041  1  0.724780  0.744530  0.430360  1.0  -0.5844
  O  O2042  1  0.683660  0.801250  0.636910  1.0  -0.5833
  O  O2043  1  0.670910  0.701530  0.465710  1.0  -0.5719
  O  O2044  1  0.683020  0.635060  0.650320  1.0  -0.5838
  O  O2045  1  0.753830  0.713120  0.556850  1.0  -0.5794
  O  O2046  1  0.758050  0.898670  0.815950  1.0  -0.5642
  O  O2047  1  0.702540  0.868130  0.622210  1.0  -0.5906
  O  O2048  1  0.797560  0.825370  0.722800  1.0  -0.5896
