# generated using pymatgen
data_Mn3H57C51N8O9
_symmetry_space_group_name_H-M   'P 1'
_cell_length_a   17.43930000
_cell_length_b   30.17410000
_cell_length_c   30.17410000
_cell_angle_alpha   85.20980000
_cell_angle_beta   73.20320000
_cell_angle_gamma   73.20330000
_symmetry_Int_Tables_number   1
_chemical_formula_structural   Mn3H57C51N8O9
_chemical_formula_sum   'Mn24 H456 C408 N64 O72'
_cell_volume   14552.12382111
_cell_formula_units_Z   8
loop_
 _symmetry_equiv_pos_site_id
 _symmetry_equiv_pos_as_xyz
  1  'x, y, z'
loop_
 _atom_site_type_symbol
 _atom_site_label
 _atom_site_symmetry_multiplicity
 _atom_site_fract_x
 _atom_site_fract_y
 _atom_site_fract_z
 _atom_site_occupancy
 _atom_site_charge
  Mn  Mn1  1  0.588800  0.916470  0.356660  1.0  0.956
  Mn  Mn2  1  0.760730  0.882260  0.464060  1.0  0.9943
  Mn  Mn3  1  0.296460  0.998110  0.422010  1.0  0.9852
  Mn  Mn4  1  0.361940  0.583530  0.143340  1.0  0.9531
  Mn  Mn5  1  0.607050  0.617740  0.035940  1.0  0.9982
  Mn  Mn6  1  0.216580  0.501890  0.077990  1.0  0.9794
  Mn  Mn7  1  0.945470  0.643340  0.416460  1.0  0.9473
  Mn  Mn8  1  0.224790  0.535940  0.382260  1.0  0.9999
  Mn  Mn9  1  0.718470  0.577990  0.498110  1.0  0.9849
  Mn  Mn10  1  0.505270  0.856660  0.083540  1.0  0.9512
  Mn  Mn11  1  0.642990  0.964060  0.117740  1.0  0.9974
  Mn  Mn12  1  0.294570  0.922010  0.001890  1.0  0.9887
  Mn  Mn13  1  0.411200  0.083530  0.643340  1.0  0.951
  Mn  Mn14  1  0.239270  0.117740  0.535940  1.0  1.0004
  Mn  Mn15  1  0.703540  0.001890  0.577990  1.0  0.9816
  Mn  Mn16  1  0.638060  0.416470  0.856660  1.0  0.9524
  Mn  Mn17  1  0.392950  0.382260  0.964060  1.0  0.9946
  Mn  Mn18  1  0.783420  0.498110  0.922010  1.0  0.9816
  Mn  Mn19  1  0.054530  0.356660  0.583540  1.0  0.9485
  Mn  Mn20  1  0.775210  0.464060  0.617740  1.0  0.9998
  Mn  Mn21  1  0.281530  0.422010  0.501890  1.0  0.9858
  Mn  Mn22  1  0.494730  0.143340  0.916460  1.0  0.949
  Mn  Mn23  1  0.357010  0.035940  0.882260  1.0  0.9987
  Mn  Mn24  1  0.705430  0.077990  0.998110  1.0  0.9816
  H  H25  1  0.589200  0.784900  0.309900  1.0  0.1002
  H  H26  1  0.668000  0.711100  0.317500  1.0  0.1118
  H  H27  1  0.759500  0.696600  0.363200  1.0  0.1229
  H  H28  1  0.768000  0.756900  0.401100  1.0  0.0853
  H  H29  1  0.613500  0.027900  0.433500  1.0  0.0821
  H  H30  1  0.682700  0.993100  0.452700  1.0  0.0827
  H  H31  1  0.718000  0.024600  0.359000  1.0  0.0859
  H  H32  1  0.785400  0.996100  0.383300  1.0  0.0737
  H  H33  1  0.710200  0.068200  0.436400  1.0  0.0979
  H  H34  1  0.711100  0.089500  0.387300  1.0  0.0781
  H  H35  1  0.829700  0.044200  0.418200  1.0  0.092
  H  H36  1  0.834700  0.059900  0.367300  1.0  0.0916
  H  H37  1  0.768000  0.141900  0.407300  1.0  0.0956
  H  H38  1  0.819000  0.116700  0.441700  1.0  0.1069
  H  H39  1  0.865100  0.121800  0.389400  1.0  0.1061
  H  H40  1  0.778400  0.914600  0.334200  1.0  0.068
  H  H41  1  0.895000  0.915200  0.275600  1.0  0.1245
  H  H42  1  0.773200  0.903700  0.185100  1.0  0.1043
  H  H43  1  0.656900  0.906900  0.246100  1.0  0.0823
  H  H44  1  0.908000  0.937600  0.163400  1.0  0.0877
  H  H45  1  0.932800  0.883600  0.161600  1.0  0.0769
  H  H46  1  0.973400  0.901900  0.353900  1.0  0.1173
  H  H47  1  0.066600  0.942100  0.352700  1.0  0.0986
  H  H48  1  0.054600  0.985900  0.416300  1.0  0.1226
  H  H49  1  0.941700  0.989100  0.480500  1.0  0.0967
  H  H50  1  0.522600  0.925800  0.575000  1.0  0.0974
  H  H51  1  0.565500  0.943100  0.606500  1.0  0.1033
  H  H52  1  0.519800  0.877900  0.638300  1.0  0.0908
  H  H53  1  0.581000  0.848700  0.595100  1.0  0.0842
  H  H54  1  0.695600  0.855300  0.616300  1.0  0.0717
  H  H55  1  0.636800  0.887800  0.657600  1.0  0.0775
  H  H56  1  0.645600  0.792800  0.653000  1.0  0.0806
  H  H57  1  0.585800  0.825300  0.694100  1.0  0.0821
  H  H58  1  0.761600  0.801900  0.672900  1.0  0.1141
  H  H59  1  0.700800  0.833100  0.714900  1.0  0.1094
  H  H60  1  0.705500  0.780500  0.714300  1.0  0.1139
  H  H61  1  0.209000  0.072000  0.308600  1.0  0.1084
  H  H62  1  0.269500  0.069200  0.229800  1.0  0.0998
  H  H63  1  0.405300  0.023800  0.199200  1.0  0.1201
  H  H64  1  0.478500  0.982500  0.248700  1.0  0.0899
  H  H65  1  0.456000  0.916600  0.508400  1.0  0.0829
  H  H66  1  0.522100  0.889800  0.465000  1.0  0.0888
  H  H67  1  0.446000  0.842000  0.515600  1.0  0.0833
  H  H68  1  0.365100  0.872300  0.503500  1.0  0.07
  H  H69  1  0.504800  0.818500  0.437900  1.0  0.0633
  H  H70  1  0.423600  0.848500  0.426100  1.0  0.0798
  H  H71  1  0.428900  0.769700  0.484100  1.0  0.0791
  H  H72  1  0.348600  0.799300  0.471100  1.0  0.0768
  H  H73  1  0.426400  0.776800  0.391600  1.0  0.1138
  H  H74  1  0.393800  0.738700  0.423700  1.0  0.1076
  H  H75  1  0.487300  0.738600  0.413200  1.0  0.1008
  H  H76  1  0.137300  0.980600  0.071200  1.0  0.0695
  H  H77  1  0.033800  0.978900  0.137500  1.0  0.1292
  H  H78  1  0.112400  0.842000  0.133600  1.0  0.0968
  H  H79  1  0.214000  0.846400  0.067200  1.0  0.0764
  H  H80  1  0.015600  0.879500  0.206500  1.0  0.0733
  H  H81  1  0.989800  0.933800  0.209400  1.0  0.0658
  H  H82  1  0.184000  0.715100  0.190100  1.0  0.1022
  H  H83  1  0.196600  0.788900  0.182500  1.0  0.1122
  H  H84  1  0.319300  0.803400  0.136800  1.0  0.1228
  H  H85  1  0.426000  0.743100  0.098900  1.0  0.0841
  H  H86  1  0.574900  0.472100  0.066500  1.0  0.0801
  H  H87  1  0.628500  0.506900  0.047300  1.0  0.0848
  H  H88  1  0.601600  0.475400  0.141000  1.0  0.0836
  H  H89  1  0.664800  0.503900  0.116700  1.0  0.0725
  H  H90  1  0.714800  0.431800  0.063600  1.0  0.1017
  H  H91  1  0.687900  0.410500  0.112700  1.0  0.0756
  H  H92  1  0.792100  0.455800  0.081800  1.0  0.0946
  H  H93  1  0.761900  0.440100  0.132700  1.0  0.087
  H  H94  1  0.817200  0.358100  0.092700  1.0  0.0906
  H  H95  1  0.877400  0.383300  0.058300  1.0  0.1076
  H  H96  1  0.876300  0.378200  0.110600  1.0  0.1046
  H  H97  1  0.527200  0.585400  0.165800  1.0  0.0679
  H  H98  1  0.585800  0.584800  0.224400  1.0  0.1268
  H  H99  1  0.362000  0.596300  0.314900  1.0  0.1025
  H  H100  1  0.309900  0.593100  0.253900  1.0  0.0849
  H  H101  1  0.509000  0.562400  0.336600  1.0  0.0837
  H  H102  1  0.478000  0.616400  0.338400  1.0  0.0758
  H  H103  1  0.729200  0.598100  0.146100  1.0  0.1181
  H  H104  1  0.861400  0.557900  0.147300  1.0  0.099
  H  H105  1  0.956800  0.514100  0.083700  1.0  0.1229
  H  H106  1  0.911300  0.510900  0.019500  1.0  0.0947
  H  H107  1  0.523400  0.574200  0.925000  1.0  0.0987
  H  H108  1  0.615100  0.556900  0.893500  1.0  0.105
  H  H109  1  0.536000  0.622100  0.861700  1.0  0.0887
  H  H110  1  0.524800  0.651300  0.904900  1.0  0.0846
  H  H111  1  0.667200  0.644700  0.883700  1.0  0.0704
  H  H112  1  0.682200  0.612200  0.842400  1.0  0.0778
  H  H113  1  0.591400  0.707200  0.847000  1.0  0.0804
  H  H114  1  0.605200  0.674700  0.805900  1.0  0.0842
  H  H115  1  0.736400  0.698100  0.827100  1.0  0.111
  H  H116  1  0.748800  0.666900  0.785100  1.0  0.1085
  H  H117  1  0.700300  0.719500  0.785700  1.0  0.1128
  H  H118  1  0.089600  0.428000  0.191400  1.0  0.1082
  H  H119  1  0.068500  0.430800  0.270200  1.0  0.0991
  H  H120  1  0.128300  0.476200  0.300800  1.0  0.1188
  H  H121  1  0.209700  0.517500  0.251300  1.0  0.0883
  H  H122  1  0.381000  0.583400  0.991600  1.0  0.0826
  H  H123  1  0.376900  0.610200  0.035000  1.0  0.0869
  H  H124  1  0.303600  0.658000  0.984400  1.0  0.0817
  H  H125  1  0.240900  0.627700  0.996500  1.0  0.0731
  H  H126  1  0.261200  0.681500  0.062100  1.0  0.067
  H  H127  1  0.198200  0.651500  0.073900  1.0  0.0799
  H  H128  1  0.182700  0.730300  0.015900  1.0  0.0783
  H  H129  1  0.119000  0.700700  0.028900  1.0  0.0787
  H  H130  1  0.094800  0.723200  0.108400  1.0  0.1127
  H  H131  1  0.056200  0.761300  0.076300  1.0  0.1069
  H  H132  1  0.139100  0.761400  0.086800  1.0  0.1014
  H  H133  1  0.689100  0.519400  0.428800  1.0  0.0699
  H  H134  1  0.650200  0.521100  0.362500  1.0  0.1286
  H  H135  1  0.588000  0.658000  0.366400  1.0  0.0963
  H  H136  1  0.627600  0.653600  0.432800  1.0  0.0749
  H  H137  1  0.601600  0.620500  0.293500  1.0  0.0711
  H  H138  1  0.633000  0.566200  0.290600  1.0  0.0654
  H  H139  1  0.899100  0.690100  0.284900  1.0  0.1008
  H  H140  1  0.985500  0.682500  0.211100  1.0  0.1124
  H  H141  1  0.122700  0.636800  0.196600  1.0  0.1229
  H  H142  1  0.169100  0.598900  0.256900  1.0  0.0838
  H  H143  1  0.047000  0.566500  0.527900  1.0  0.0797
  H  H144  1  0.135400  0.547300  0.493100  1.0  0.0824
  H  H145  1  0.077000  0.641000  0.524600  1.0  0.0822
  H  H146  1  0.168700  0.616700  0.496100  1.0  0.0723
  H  H147  1  0.146600  0.563600  0.568200  1.0  0.0999
  H  H148  1  0.098400  0.612700  0.589500  1.0  0.0705
  H  H149  1  0.247900  0.581800  0.544200  1.0  0.0945
  H  H150  1  0.202000  0.632700  0.559900  1.0  0.0825
  H  H151  1  0.175300  0.592700  0.641900  1.0  0.0934
  H  H152  1  0.260700  0.558300  0.616700  1.0  0.1108
  H  H153  1  0.254500  0.610600  0.621800  1.0  0.105
  H  H154  1  0.112600  0.665800  0.414600  1.0  0.0667
  H  H155  1  0.170600  0.724400  0.415200  1.0  0.1245
  H  H156  1  0.958300  0.814900  0.403700  1.0  0.1023
  H  H157  1  0.903000  0.753900  0.406900  1.0  0.0831
  H  H158  1  0.071400  0.836600  0.437600  1.0  0.0916
  H  H159  1  0.094400  0.838400  0.383600  1.0  0.0785
  H  H160  1  0.327300  0.646100  0.401900  1.0  0.118
  H  H161  1  0.419300  0.647300  0.442100  1.0  0.0986
  H  H162  1  0.470900  0.583700  0.485900  1.0  0.1236
  H  H163  1  0.422200  0.519500  0.489100  1.0  0.0952
  H  H164  1  0.097600  0.425000  0.425800  1.0  0.0959
  H  H165  1  0.172000  0.393500  0.443100  1.0  0.1032
  H  H166  1  0.158100  0.361700  0.377900  1.0  0.0897
  H  H167  1  0.176100  0.404900  0.348700  1.0  0.0843
  H  H168  1  0.311900  0.383700  0.355300  1.0  0.0735
  H  H169  1  0.294400  0.342400  0.387800  1.0  0.0759
  H  H170  1  0.298600  0.347000  0.292800  1.0  0.0798
  H  H171  1  0.279900  0.305900  0.325300  1.0  0.081
  H  H172  1  0.434500  0.327100  0.301900  1.0  0.1159
  H  H173  1  0.415700  0.285100  0.333100  1.0  0.1094
  H  H174  1  0.419800  0.285700  0.280500  1.0  0.1146
  H  H175  1  0.517600  0.691400  0.572000  1.0  0.1093
  H  H176  1  0.499300  0.770200  0.569200  1.0  0.0995
  H  H177  1  0.604500  0.800800  0.523800  1.0  0.1191
  H  H178  1  0.727200  0.751300  0.482500  1.0  0.0889
  H  H179  1  0.964400  0.491600  0.416600  1.0  0.0829
  H  H180  1  0.987100  0.535000  0.389800  1.0  0.0868
  H  H181  1  0.961600  0.484400  0.342000  1.0  0.0816
  H  H182  1  0.868600  0.496500  0.372300  1.0  0.0738
  H  H183  1  0.942700  0.562100  0.318500  1.0  0.0642
  H  H184  1  0.849700  0.573900  0.348500  1.0  0.0774
  H  H185  1  0.913000  0.515900  0.269700  1.0  0.0778
  H  H186  1  0.819700  0.528900  0.299300  1.0  0.0767
  H  H187  1  0.818000  0.608400  0.276800  1.0  0.1133
  H  H188  1  0.817500  0.576300  0.238700  1.0  0.1072
  H  H189  1  0.900500  0.586800  0.238600  1.0  0.1003
  H  H190  1  0.208500  0.928800  0.480600  1.0  0.0711
  H  H191  1  0.171300  0.862500  0.478900  1.0  0.1292
  H  H192  1  0.246000  0.866400  0.342000  1.0  0.0969
  H  H193  1  0.281200  0.932800  0.346400  1.0  0.0756
  H  H194  1  0.222100  0.793500  0.379500  1.0  0.0724
  H  H195  1  0.199200  0.790600  0.433800  1.0  0.0664
  H  H196  1  0.374100  0.809900  0.215100  1.0  0.1015
  H  H197  1  0.379100  0.817500  0.288900  1.0  0.1121
  H  H198  1  0.456100  0.863200  0.303400  1.0  0.1235
  H  H199  1  0.524900  0.901100  0.243100  1.0  0.0841
  H  H200  1  0.641400  0.933500  0.972100  1.0  0.0817
  H  H201  1  0.675800  0.952700  0.006900  1.0  0.0802
  H  H202  1  0.742600  0.859000  0.975400  1.0  0.078
  H  H203  1  0.781500  0.883300  0.003900  1.0  0.0721
  H  H204  1  0.778400  0.936400  0.931800  1.0  0.0984
  H  H205  1  0.800600  0.887300  0.910500  1.0  0.0765
  H  H206  1  0.873900  0.918200  0.955800  1.0  0.0947
  H  H207  1  0.894600  0.867300  0.940100  1.0  0.0846
  H  H208  1  0.909900  0.907300  0.858100  1.0  0.0959
  H  H209  1  0.935700  0.941700  0.883300  1.0  0.1086
  H  H210  1  0.986900  0.889400  0.878200  1.0  0.1064
  H  H211  1  0.693000  0.834200  0.085400  1.0  0.0659
  H  H212  1  0.810200  0.775600  0.084800  1.0  0.1253
  H  H213  1  0.676900  0.685100  0.096300  1.0  0.1028
  H  H214  1  0.563800  0.746100  0.093100  1.0  0.0847
  H  H215  1  0.845600  0.663400  0.062400  1.0  0.093
  H  H216  1  0.816400  0.661600  0.116400  1.0  0.0776
  H  H217  1  0.875300  0.853900  0.098100  1.0  0.1189
  H  H218  1  0.008700  0.852700  0.057900  1.0  0.0992
  H  H219  1  0.040500  0.916300  0.014100  1.0  0.1211
  H  H220  1  0.930800  0.980500  0.010900  1.0  0.0947
  H  H221  1  0.448400  0.075000  0.074200  1.0  0.0979
  H  H222  1  0.508600  0.106500  0.056900  1.0  0.1037
  H  H223  1  0.397700  0.138300  0.122100  1.0  0.0866
  H  H224  1  0.429700  0.095100  0.151300  1.0  0.0842
  H  H225  1  0.550900  0.116300  0.144700  1.0  0.0718
  H  H226  1  0.524600  0.157600  0.112200  1.0  0.0758
  H  H227  1  0.438400  0.153000  0.207200  1.0  0.08
  H  H228  1  0.411100  0.194100  0.174700  1.0  0.083
  H  H229  1  0.563500  0.172900  0.198100  1.0  0.1099
  H  H230  1  0.533900  0.214900  0.166900  1.0  0.1082
  H  H231  1  0.486000  0.214300  0.219500  1.0  0.1111
  H  H232  1  0.281000  0.808600  0.928000  1.0  0.1079
  H  H233  1  0.338700  0.729800  0.930800  1.0  0.0996
  H  H234  1  0.429100  0.699200  0.976200  1.0  0.1202
  H  H235  1  0.461000  0.748700  0.017500  1.0  0.089
  H  H236  1  0.372600  0.008400  0.083400  1.0  0.082
  H  H237  1  0.411900  0.965000  0.110200  1.0  0.0892
  H  H238  1  0.288000  0.015600  0.158000  1.0  0.08
  H  H239  1  0.237400  0.003500  0.127700  1.0  0.0725
  H  H240  1  0.323300  0.937900  0.181500  1.0  0.0676
  H  H241  1  0.272100  0.926100  0.151500  1.0  0.0778
  H  H242  1  0.198600  0.984100  0.230300  1.0  0.0774
  H  H243  1  0.147900  0.971100  0.200700  1.0  0.0791
  H  H244  1  0.203200  0.891600  0.223200  1.0  0.1117
  H  H245  1  0.132500  0.923700  0.261300  1.0  0.1106
  H  H246  1  0.225900  0.913200  0.261400  1.0  0.1021
  H  H247  1  0.117900  0.571200  0.019400  1.0  0.0693
  H  H248  1  0.012700  0.637500  0.021100  1.0  0.1284
  H  H249  1  0.954400  0.633600  0.158000  1.0  0.0958
  H  H250  1  0.060400  0.567200  0.153600  1.0  0.0772
  H  H251  1  0.895100  0.706500  0.120500  1.0  0.0721
  H  H252  1  0.923600  0.709400  0.066200  1.0  0.0665
  H  H253  1  0.410800  0.215100  0.690100  1.0  0.1044
  H  H254  1  0.332000  0.288900  0.682500  1.0  0.1124
  H  H255  1  0.240500  0.303400  0.636800  1.0  0.123
  H  H256  1  0.232000  0.243100  0.598900  1.0  0.085
  H  H257  1  0.386500  0.972100  0.566500  1.0  0.0809
  H  H258  1  0.317300  0.006900  0.547300  1.0  0.0837
  H  H259  1  0.282000  0.975400  0.641000  1.0  0.0841
  H  H260  1  0.214600  0.003900  0.616700  1.0  0.0734
  H  H261  1  0.289800  0.931800  0.563600  1.0  0.0968
  H  H262  1  0.288900  0.910500  0.612700  1.0  0.076
  H  H263  1  0.170300  0.955800  0.581800  1.0  0.0953
  H  H264  1  0.165300  0.940100  0.632700  1.0  0.0847
  H  H265  1  0.232000  0.858100  0.592700  1.0  0.0908
  H  H266  1  0.181000  0.883300  0.558300  1.0  0.1075
  H  H267  1  0.134900  0.878200  0.610600  1.0  0.1045
  H  H268  1  0.221600  0.085400  0.665800  1.0  0.0697
  H  H269  1  0.105000  0.084800  0.724400  1.0  0.1242
  H  H270  1  0.226800  0.096300  0.814900  1.0  0.104
  H  H271  1  0.343100  0.093100  0.753900  1.0  0.0825
  H  H272  1  0.092000  0.062400  0.836600  1.0  0.0865
  H  H273  1  0.067200  0.116400  0.838400  1.0  0.0764
  H  H274  1  0.026600  0.098100  0.646100  1.0  0.1171
  H  H275  1  0.933400  0.057900  0.647300  1.0  0.098
  H  H276  1  0.945400  0.014100  0.583700  1.0  0.1225
  H  H277  1  0.058300  0.010900  0.519500  1.0  0.0966
  H  H278  1  0.477400  0.074200  0.425000  1.0  0.0969
  H  H279  1  0.434500  0.056900  0.393500  1.0  0.1046
  H  H280  1  0.480200  0.122100  0.361700  1.0  0.0905
  H  H281  1  0.419000  0.151300  0.404900  1.0  0.084
  H  H282  1  0.304400  0.144700  0.383700  1.0  0.072
  H  H283  1  0.363200  0.112200  0.342400  1.0  0.0787
  H  H284  1  0.354400  0.207200  0.347000  1.0  0.0802
  H  H285  1  0.414200  0.174700  0.305900  1.0  0.0832
  H  H286  1  0.238400  0.198100  0.327100  1.0  0.1108
  H  H287  1  0.299200  0.166900  0.285100  1.0  0.1092
  H  H288  1  0.294500  0.219500  0.285700  1.0  0.1139
  H  H289  1  0.791000  0.928000  0.691400  1.0  0.1085
  H  H290  1  0.730500  0.930800  0.770200  1.0  0.099
  H  H291  1  0.594700  0.976200  0.800800  1.0  0.1202
  H  H292  1  0.521500  0.017500  0.751300  1.0  0.0895
  H  H293  1  0.544000  0.083400  0.491600  1.0  0.0867
  H  H294  1  0.477900  0.110200  0.535000  1.0  0.0874
  H  H295  1  0.554000  0.158000  0.484400  1.0  0.0831
  H  H296  1  0.634900  0.127700  0.496500  1.0  0.0719
  H  H297  1  0.495200  0.181500  0.562100  1.0  0.0636
  H  H298  1  0.576400  0.151500  0.573900  1.0  0.0792
  H  H299  1  0.571100  0.230300  0.515900  1.0  0.0802
  H  H300  1  0.651400  0.200700  0.528900  1.0  0.0795
  H  H301  1  0.573600  0.223200  0.608400  1.0  0.113
  H  H302  1  0.606200  0.261300  0.576300  1.0  0.1075
  H  H303  1  0.512700  0.261400  0.586800  1.0  0.1011
  H  H304  1  0.862700  0.019400  0.928800  1.0  0.069
  H  H305  1  0.966200  0.021100  0.862500  1.0  0.1285
  H  H306  1  0.887600  0.158000  0.866400  1.0  0.0967
  H  H307  1  0.786000  0.153600  0.932800  1.0  0.0763
  H  H308  1  0.984400  0.120500  0.793500  1.0  0.0717
  H  H309  1  0.010200  0.066200  0.790600  1.0  0.0654
  H  H310  1  0.816000  0.284900  0.809900  1.0  0.1017
  H  H311  1  0.803400  0.211100  0.817500  1.0  0.1122
  H  H312  1  0.680700  0.196600  0.863200  1.0  0.1229
  H  H313  1  0.574000  0.256900  0.901100  1.0  0.0843
  H  H314  1  0.425100  0.527900  0.933500  1.0  0.0798
  H  H315  1  0.371500  0.493100  0.952700  1.0  0.0842
  H  H316  1  0.398400  0.524600  0.859000  1.0  0.0847
  H  H317  1  0.335200  0.496100  0.883300  1.0  0.0731
  H  H318  1  0.285200  0.568200  0.936400  1.0  0.1008
  H  H319  1  0.312100  0.589500  0.887300  1.0  0.0775
  H  H320  1  0.207900  0.544200  0.918200  1.0  0.0922
  H  H321  1  0.238100  0.559900  0.867300  1.0  0.089
  H  H322  1  0.182800  0.641900  0.907300  1.0  0.0947
  H  H323  1  0.122600  0.616700  0.941700  1.0  0.1047
  H  H324  1  0.123700  0.621800  0.889400  1.0  0.106
  H  H325  1  0.472800  0.414600  0.834200  1.0  0.0667
  H  H326  1  0.414200  0.415200  0.775600  1.0  0.1267
  H  H327  1  0.638000  0.403700  0.685100  1.0  0.1027
  H  H328  1  0.690100  0.406900  0.746100  1.0  0.0833
  H  H329  1  0.491000  0.437600  0.663400  1.0  0.0858
  H  H330  1  0.522000  0.383600  0.661600  1.0  0.0771
  H  H331  1  0.270800  0.401900  0.853900  1.0  0.1181
  H  H332  1  0.138600  0.442100  0.852700  1.0  0.0993
  H  H333  1  0.043200  0.485900  0.916300  1.0  0.1227
  H  H334  1  0.088700  0.489100  0.980500  1.0  0.0948
  H  H335  1  0.476600  0.425800  0.075000  1.0  0.0987
  H  H336  1  0.384900  0.443100  0.106500  1.0  0.1057
  H  H337  1  0.464000  0.377900  0.138300  1.0  0.0878
  H  H338  1  0.475200  0.348700  0.095100  1.0  0.0847
  H  H339  1  0.332800  0.355300  0.116300  1.0  0.0695
  H  H340  1  0.317800  0.387800  0.157600  1.0  0.078
  H  H341  1  0.408600  0.292800  0.153000  1.0  0.0805
  H  H342  1  0.394800  0.325300  0.194100  1.0  0.0819
  H  H343  1  0.263600  0.301900  0.172900  1.0  0.111
  H  H344  1  0.251200  0.333100  0.214900  1.0  0.1096
  H  H345  1  0.299700  0.280500  0.214300  1.0  0.1144
  H  H346  1  0.910400  0.572000  0.808600  1.0  0.1082
  H  H347  1  0.931500  0.569200  0.729800  1.0  0.0998
  H  H348  1  0.871700  0.523800  0.699200  1.0  0.1197
  H  H349  1  0.790300  0.482500  0.748700  1.0  0.088
  H  H350  1  0.619000  0.416600  0.008400  1.0  0.0815
  H  H351  1  0.623100  0.389800  0.965000  1.0  0.0889
  H  H352  1  0.696400  0.342000  0.015600  1.0  0.0825
  H  H353  1  0.759100  0.372300  0.003500  1.0  0.0732
  H  H354  1  0.738800  0.318500  0.937900  1.0  0.0657
  H  H355  1  0.801800  0.348500  0.926100  1.0  0.0794
  H  H356  1  0.817300  0.269700  0.984100  1.0  0.082
  H  H357  1  0.881000  0.299300  0.971100  1.0  0.0784
  H  H358  1  0.905200  0.276800  0.891600  1.0  0.1148
  H  H359  1  0.943800  0.238700  0.923700  1.0  0.107
  H  H360  1  0.860900  0.238600  0.913200  1.0  0.1032
  H  H361  1  0.310900  0.480600  0.571200  1.0  0.0692
  H  H362  1  0.349800  0.478900  0.637500  1.0  0.1289
  H  H363  1  0.412000  0.342000  0.633600  1.0  0.0963
  H  H364  1  0.372400  0.346400  0.567200  1.0  0.0751
  H  H365  1  0.398400  0.379500  0.706500  1.0  0.072
  H  H366  1  0.367000  0.433800  0.709400  1.0  0.0649
  H  H367  1  0.100900  0.309900  0.715100  1.0  0.1045
  H  H368  1  0.014500  0.317500  0.788900  1.0  0.1128
  H  H369  1  0.877300  0.363200  0.803400  1.0  0.1227
  H  H370  1  0.830900  0.401100  0.743100  1.0  0.084
  H  H371  1  0.953000  0.433500  0.472100  1.0  0.0806
  H  H372  1  0.864600  0.452700  0.506900  1.0  0.0817
  H  H373  1  0.923000  0.359000  0.475400  1.0  0.0779
  H  H374  1  0.831300  0.383300  0.503900  1.0  0.0713
  H  H375  1  0.853400  0.436400  0.431800  1.0  0.0996
  H  H376  1  0.901600  0.387300  0.410500  1.0  0.0743
  H  H377  1  0.752100  0.418200  0.455800  1.0  0.0938
  H  H378  1  0.798000  0.367300  0.440100  1.0  0.0812
  H  H379  1  0.824700  0.407300  0.358100  1.0  0.0926
  H  H380  1  0.739300  0.441700  0.383300  1.0  0.1085
  H  H381  1  0.745500  0.389400  0.378200  1.0  0.1034
  H  H382  1  0.887400  0.334200  0.585400  1.0  0.0661
  H  H383  1  0.829400  0.275600  0.584800  1.0  0.1246
  H  H384  1  0.041700  0.185100  0.596300  1.0  0.1025
  H  H385  1  0.097000  0.246100  0.593100  1.0  0.083
  H  H386  1  0.928600  0.163400  0.562400  1.0  0.0904
  H  H387  1  0.905600  0.161600  0.616400  1.0  0.0788
  H  H388  1  0.672700  0.353900  0.598100  1.0  0.1188
  H  H389  1  0.580700  0.352700  0.557900  1.0  0.0986
  H  H390  1  0.529100  0.416300  0.514100  1.0  0.1221
  H  H391  1  0.577800  0.480500  0.510900  1.0  0.095
  H  H392  1  0.902400  0.575000  0.574200  1.0  0.0962
  H  H393  1  0.828000  0.606500  0.556900  1.0  0.1059
  H  H394  1  0.841900  0.638300  0.622100  1.0  0.0878
  H  H395  1  0.823900  0.595100  0.651300  1.0  0.0841
  H  H396  1  0.688100  0.616300  0.644700  1.0  0.0721
  H  H397  1  0.705600  0.657600  0.612200  1.0  0.078
  H  H398  1  0.701400  0.653000  0.707200  1.0  0.0787
  H  H399  1  0.720100  0.694100  0.674700  1.0  0.082
  H  H400  1  0.565500  0.672900  0.698100  1.0  0.1114
  H  H401  1  0.584300  0.714900  0.666900  1.0  0.1108
  H  H402  1  0.580200  0.714300  0.719500  1.0  0.1121
  H  H403  1  0.482400  0.308600  0.428000  1.0  0.1083
  H  H404  1  0.500700  0.229800  0.430800  1.0  0.0996
  H  H405  1  0.395500  0.199200  0.476200  1.0  0.1203
  H  H406  1  0.272800  0.248700  0.517500  1.0  0.0889
  H  H407  1  0.035600  0.508400  0.583400  1.0  0.0856
  H  H408  1  0.012900  0.465000  0.610200  1.0  0.0866
  H  H409  1  0.038400  0.515600  0.658000  1.0  0.081
  H  H410  1  0.131400  0.503500  0.627700  1.0  0.0759
  H  H411  1  0.057300  0.437900  0.681500  1.0  0.0651
  H  H412  1  0.150300  0.426100  0.651500  1.0  0.0776
  H  H413  1  0.087000  0.484100  0.730300  1.0  0.0777
  H  H414  1  0.180300  0.471100  0.700700  1.0  0.075
  H  H415  1  0.182000  0.391600  0.723200  1.0  0.1117
  H  H416  1  0.182500  0.423700  0.761300  1.0  0.107
  H  H417  1  0.099500  0.413200  0.761400  1.0  0.101
  H  H418  1  0.791500  0.071200  0.519400  1.0  0.0712
  H  H419  1  0.828700  0.137500  0.521100  1.0  0.1295
  H  H420  1  0.754000  0.133600  0.658000  1.0  0.0956
  H  H421  1  0.718800  0.067200  0.653600  1.0  0.0757
  H  H422  1  0.777900  0.206500  0.620500  1.0  0.0708
  H  H423  1  0.800800  0.209400  0.566200  1.0  0.0656
  H  H424  1  0.625900  0.190100  0.784900  1.0  0.1013
  H  H425  1  0.620900  0.182500  0.711100  1.0  0.1115
  H  H426  1  0.543900  0.136800  0.696600  1.0  0.1238
  H  H427  1  0.475100  0.098900  0.756900  1.0  0.0839
  H  H428  1  0.358600  0.066500  0.027900  1.0  0.0809
  H  H429  1  0.324200  0.047300  0.993100  1.0  0.0818
  H  H430  1  0.257400  0.141000  0.024600  1.0  0.0823
  H  H431  1  0.218500  0.116700  0.996100  1.0  0.0701
  H  H432  1  0.221600  0.063600  0.068200  1.0  0.0975
  H  H433  1  0.199400  0.112700  0.089500  1.0  0.074
  H  H434  1  0.126100  0.081800  0.044200  1.0  0.0957
  H  H435  1  0.105400  0.132700  0.059900  1.0  0.0825
  H  H436  1  0.090100  0.092700  0.141900  1.0  0.0946
  H  H437  1  0.064300  0.058300  0.116700  1.0  0.1097
  H  H438  1  0.013100  0.110600  0.121800  1.0  0.1028
  H  H439  1  0.307000  0.165800  0.914600  1.0  0.0668
  H  H440  1  0.189800  0.224400  0.915200  1.0  0.1247
  H  H441  1  0.323100  0.314900  0.903700  1.0  0.1029
  H  H442  1  0.436200  0.253900  0.906900  1.0  0.0831
  H  H443  1  0.154400  0.336600  0.937600  1.0  0.0926
  H  H444  1  0.183600  0.338400  0.883600  1.0  0.0774
  H  H445  1  0.124700  0.146100  0.901900  1.0  0.1187
  H  H446  1  0.991300  0.147300  0.942100  1.0  0.0991
  H  H447  1  0.959500  0.083700  0.985900  1.0  0.1211
  H  H448  1  0.069200  0.019500  0.989100  1.0  0.0952
  H  H449  1  0.551600  0.925000  0.925800  1.0  0.097
  H  H450  1  0.491400  0.893500  0.943100  1.0  0.1041
  H  H451  1  0.602300  0.861700  0.877900  1.0  0.0866
  H  H452  1  0.570300  0.904900  0.848700  1.0  0.0836
  H  H453  1  0.449100  0.883700  0.855300  1.0  0.071
  H  H454  1  0.475400  0.842400  0.887800  1.0  0.0778
  H  H455  1  0.561600  0.847000  0.792800  1.0  0.0796
  H  H456  1  0.588900  0.805900  0.825300  1.0  0.0804
  H  H457  1  0.436500  0.827100  0.801900  1.0  0.1087
  H  H458  1  0.466100  0.785100  0.833100  1.0  0.1075
  H  H459  1  0.514000  0.785700  0.780500  1.0  0.1139
  H  H460  1  0.719000  0.191400  0.072000  1.0  0.1091
  H  H461  1  0.661300  0.270200  0.069200  1.0  0.0999
  H  H462  1  0.570900  0.300800  0.023800  1.0  0.12
  H  H463  1  0.539000  0.251300  0.982500  1.0  0.0882
  H  H464  1  0.627400  0.991600  0.916600  1.0  0.0833
  H  H465  1  0.588100  0.035000  0.889800  1.0  0.0872
  H  H466  1  0.712000  0.984400  0.842000  1.0  0.0814
  H  H467  1  0.762600  0.996500  0.872300  1.0  0.0718
  H  H468  1  0.676700  0.062100  0.818500  1.0  0.0666
  H  H469  1  0.727900  0.073900  0.848500  1.0  0.0776
  H  H470  1  0.801400  0.015900  0.769700  1.0  0.0813
  H  H471  1  0.852100  0.028900  0.799300  1.0  0.0787
  H  H472  1  0.796800  0.108400  0.776800  1.0  0.1131
  H  H473  1  0.867500  0.076300  0.738700  1.0  0.1098
  H  H474  1  0.774100  0.086800  0.738600  1.0  0.1032
  H  H475  1  0.882100  0.428800  0.980600  1.0  0.0694
  H  H476  1  0.987300  0.362500  0.978900  1.0  0.1269
  H  H477  1  0.045600  0.366400  0.842000  1.0  0.097
  H  H478  1  0.939600  0.432800  0.846400  1.0  0.0775
  H  H479  1  0.104900  0.293500  0.879500  1.0  0.0736
  H  H480  1  0.076400  0.290600  0.933800  1.0  0.0666
  C  C481  1  0.631110  0.816770  0.350410  1.0  0.3401
  C  C482  1  0.625700  0.779550  0.328250  1.0  -0.1357
  C  C483  1  0.672650  0.735320  0.332780  1.0  -0.0791
  C  C484  1  0.727080  0.726530  0.360110  1.0  -0.1561
  C  C485  1  0.732240  0.762780  0.382340  1.0  -0.0668
  C  C486  1  0.686530  0.807930  0.378010  1.0  -0.1614
  C  C487  1  0.697670  0.844610  0.403450  1.0  0.5647
  C  C488  1  0.646100  0.962850  0.407550  1.0  0.5158
  C  C489  1  0.664140  0.002630  0.425090  1.0  -0.2776
  C  C490  1  0.732360  0.019550  0.388130  1.0  -0.1882
  C  C491  1  0.739900  0.064100  0.403700  1.0  -0.1161
  C  C492  1  0.803400  0.067600  0.399200  1.0  -0.1687
  C  C493  1  0.815000  0.117200  0.410600  1.0  -0.3612
  C  C494  1  0.776860  0.913310  0.303770  1.0  0.1845
  C  C495  1  0.847300  0.913100  0.268900  1.0  -0.2353
  C  C496  1  0.847140  0.909600  0.222720  1.0  0.1091
  C  C497  1  0.775250  0.906720  0.215180  1.0  -0.1758
  C  C498  1  0.705650  0.908300  0.252000  1.0  0.1531
  C  C499  1  0.922800  0.909800  0.181200  1.0  -0.1906
  C  C500  1  0.901670  0.918260  0.419600  1.0  0.3159
  C  C501  1  0.967270  0.918480  0.379980  1.0  -0.1963
  C  C502  1  0.022840  0.943110  0.379210  1.0  -0.0785
  C  C503  1  0.015960  0.969860  0.417020  1.0  -0.1351
  C  C504  1  0.948840  0.971020  0.455300  1.0  -0.0326
  C  C505  1  0.890820  0.946250  0.457910  1.0  -0.1106
  C  C506  1  0.819920  0.952130  0.499030  1.0  0.5416
  C  C507  1  0.648850  0.912870  0.546630  1.0  0.5384
  C  C508  1  0.571040  0.917940  0.586780  1.0  -0.3151
  C  C509  1  0.573160  0.874050  0.615230  1.0  -0.0686
  C  C510  1  0.642010  0.861550  0.639430  1.0  -0.1039
  C  C511  1  0.639480  0.819260  0.671180  1.0  -0.0728
  C  C512  1  0.708200  0.807620  0.695580  1.0  -0.3186
  C  C513  1  0.307140  0.027880  0.327240  1.0  0.3234
  C  C514  1  0.263170  0.053670  0.296790  1.0  -0.228
  C  C515  1  0.299640  0.052120  0.249400  1.0  -0.1186
  C  C516  1  0.380810  0.025190  0.230990  1.0  -0.101
  C  C517  1  0.424090  0.000540  0.260880  1.0  -0.0347
  C  C518  1  0.389240  0.001540  0.309180  1.0  -0.1571
  C  C519  1  0.441010  0.973100  0.337680  1.0  0.5892
  C  C520  1  0.421880  0.935210  0.448630  1.0  0.5496
  C  C521  1  0.462910  0.901190  0.479990  1.0  -0.2786
  C  C522  1  0.425080  0.860530  0.491510  1.0  -0.1141
  C  C523  1  0.444710  0.829760  0.450020  1.0  -0.102
  C  C524  1  0.408800  0.788180  0.459820  1.0  -0.08
  C  C525  1  0.431100  0.757900  0.418300  1.0  -0.3218
  C  C526  1  0.132190  0.952140  0.083880  1.0  0.1602
  C  C527  1  0.070650  0.951340  0.124160  1.0  -0.2102
  C  C528  1  0.063370  0.909490  0.144970  1.0  0.1212
  C  C529  1  0.116830  0.870860  0.121880  1.0  -0.1822
  C  C530  1  0.177220  0.873640  0.081520  1.0  0.1535
  C  C531  1  0.997500  0.907900  0.190100  1.0  -0.1478
  C  C532  1  0.298290  0.683230  0.149590  1.0  0.3451
  C  C533  1  0.233500  0.720450  0.171750  1.0  -0.1397
  C  C534  1  0.240750  0.764680  0.167220  1.0  -0.0853
  C  C535  1  0.313720  0.773470  0.139890  1.0  -0.1576
  C  C536  1  0.377360  0.737220  0.117660  1.0  -0.068
  C  C537  1  0.372470  0.692070  0.121990  1.0  -0.1639
  C  C538  1  0.445730  0.655390  0.096550  1.0  0.5629
  C  C539  1  0.516500  0.537150  0.092450  1.0  0.5163
  C  C540  1  0.591860  0.497370  0.074910  1.0  -0.2762
  C  C541  1  0.640040  0.480450  0.111870  1.0  -0.1923
  C  C542  1  0.707700  0.435900  0.096300  1.0  -0.1207
  C  C543  1  0.770200  0.432400  0.100800  1.0  -0.1723
  C  C544  1  0.842800  0.382800  0.089400  1.0  -0.3666
  C  C545  1  0.493940  0.586690  0.196230  1.0  0.1879
  C  C546  1  0.529300  0.586900  0.231100  1.0  -0.2366
  C  C547  1  0.479460  0.590400  0.277280  1.0  0.1094
  C  C548  1  0.397150  0.593280  0.284820  1.0  -0.176
  C  C549  1  0.365950  0.591700  0.248000  1.0  0.154
  C  C550  1  0.513800  0.590200  0.318800  1.0  -0.1984
  C  C551  1  0.739530  0.581740  0.080400  1.0  0.3185
  C  C552  1  0.765730  0.581520  0.120020  1.0  -0.1971
  C  C553  1  0.845160  0.556890  0.120790  1.0  -0.0738
  C  C554  1  0.902840  0.530140  0.082980  1.0  -0.1365
  C  C555  1  0.875160  0.528980  0.044700  1.0  -0.0323
  C  C556  1  0.794980  0.553750  0.042090  1.0  -0.1102
  C  C557  1  0.771080  0.547870  0.000970  1.0  0.5387
  C  C558  1  0.608350  0.587130  0.953370  1.0  0.5391
  C  C559  1  0.575760  0.582060  0.913220  1.0  -0.312
  C  C560  1  0.562440  0.625950  0.884770  1.0  -0.071
  C  C561  1  0.642990  0.638450  0.860570  1.0  -0.1034
  C  C562  1  0.629920  0.680740  0.828820  1.0  -0.0733
  C  C563  1  0.711400  0.692380  0.804420  1.0  -0.3173
  C  C564  1  0.162260  0.472120  0.172760  1.0  0.3191
  C  C565  1  0.113630  0.446330  0.203210  1.0  -0.226
  C  C566  1  0.101160  0.447880  0.250600  1.0  -0.1196
  C  C567  1  0.136990  0.474810  0.269010  1.0  -0.1
  C  C568  1  0.185510  0.499460  0.239120  1.0  -0.0347
  C  C569  1  0.199960  0.498460  0.190820  1.0  -0.1587
  C  C570  1  0.251790  0.526900  0.162320  1.0  0.5896
  C  C571  1  0.305720  0.564790  0.051370  1.0  0.5479
  C  C572  1  0.344090  0.598810  0.020010  1.0  -0.2781
  C  C573  1  0.277120  0.639470  0.008490  1.0  -0.1133
  C  C574  1  0.224490  0.670240  0.049980  1.0  -0.1058
  C  C575  1  0.156800  0.711820  0.040180  1.0  -0.0789
  C  C576  1  0.107300  0.742100  0.081700  1.0  -0.3182
  C  C577  1  0.668210  0.547860  0.416120  1.0  0.1619
  C  C578  1  0.646150  0.548660  0.375840  1.0  -0.2074
  C  C579  1  0.617830  0.590510  0.355030  1.0  0.1196
  C  C580  1  0.609570  0.629140  0.378120  1.0  -0.1814
  C  C581  1  0.632380  0.626360  0.418480  1.0  0.154
  C  C582  1  0.595500  0.592100  0.309900  1.0  -0.1482
  C  C583  1  0.981520  0.649590  0.316770  1.0  0.3437
  C  C584  1  0.953950  0.671750  0.279550  1.0  -0.1417
  C  C585  1  0.005430  0.667220  0.235320  1.0  -0.078
  C  C586  1  0.087190  0.639890  0.226530  1.0  -0.1567
  C  C587  1  0.114580  0.617660  0.262780  1.0  -0.0653
  C  C588  1  0.064540  0.621990  0.307930  1.0  -0.1608
  C  C589  1  0.101120  0.596550  0.344610  1.0  0.5637
  C  C590  1  0.053650  0.592450  0.462850  1.0  0.5184
  C  C591  1  0.089230  0.574910  0.502630  1.0  -0.2864
  C  C592  1  0.120490  0.611870  0.519550  1.0  -0.1908
  C  C593  1  0.143600  0.596300  0.564100  1.0  -0.116
  C  C594  1  0.202600  0.600800  0.567600  1.0  -0.1798
  C  C595  1  0.225600  0.589400  0.617200  1.0  -0.3604
  C  C596  1  0.080630  0.696230  0.413310  1.0  0.1831
  C  C597  1  0.116200  0.731100  0.413100  1.0  -0.2377
  C  C598  1  0.069860  0.777280  0.409600  1.0  0.1101
  C  C599  1  0.990430  0.784820  0.406720  1.0  -0.1761
  C  C600  1  0.957650  0.748000  0.408300  1.0  0.1531
  C  C601  1  0.104000  0.818800  0.409800  1.0  -0.1909
  C  C602  1  0.321270  0.580400  0.418260  1.0  0.3201
  C  C603  1  0.347250  0.620020  0.418480  1.0  -0.1935
  C  C604  1  0.402050  0.620790  0.443110  1.0  -0.0716
  C  C605  1  0.432980  0.582980  0.469860  1.0  -0.1384
  C  C606  1  0.404140  0.544700  0.471020  1.0  -0.0338
  C  C607  1  0.348730  0.542090  0.446250  1.0  -0.1101
  C  C608  1  0.318950  0.500970  0.452130  1.0  0.541
  C  C609  1  0.195480  0.453370  0.412870  1.0  0.5371
  C  C610  1  0.157820  0.413220  0.417940  1.0  -0.3106
  C  C611  1  0.188390  0.384770  0.374050  1.0  -0.0716
  C  C612  1  0.281440  0.360570  0.361550  1.0  -0.1091
  C  C613  1  0.310660  0.328820  0.319260  1.0  -0.0778
  C  C614  1  0.403780  0.304420  0.307620  1.0  -0.318
  C  C615  1  0.634380  0.672760  0.527880  1.0  0.3177
  C  C616  1  0.559960  0.703210  0.553670  1.0  -0.227
  C  C617  1  0.549040  0.750600  0.552120  1.0  -0.1187
  C  C618  1  0.611800  0.769010  0.525190  1.0  -0.098
  C  C619  1  0.684970  0.739120  0.500540  1.0  -0.0342
  C  C620  1  0.698420  0.690820  0.501540  1.0  -0.1579
  C  C621  1  0.778690  0.662320  0.473100  1.0  0.5887
  C  C622  1  0.870510  0.551370  0.435210  1.0  0.5525
  C  C623  1  0.942900  0.520010  0.401190  1.0  -0.2761
  C  C624  1  0.916590  0.508490  0.360530  1.0  -0.111
  C  C625  1  0.894730  0.549980  0.329760  1.0  -0.105
  C  C626  1  0.868620  0.540180  0.288180  1.0  -0.0795
  C  C627  1  0.849400  0.581700  0.257900  1.0  -0.3214
  C  C628  1  0.216070  0.916120  0.452140  1.0  0.1593
  C  C629  1  0.194810  0.875840  0.451340  1.0  -0.2037
  C  C630  1  0.208340  0.855030  0.409490  1.0  0.1208
  C  C631  1  0.238710  0.878120  0.370860  1.0  -0.1775
  C  C632  1  0.258740  0.918480  0.373640  1.0  0.1532
  C  C633  1  0.187600  0.809900  0.407900  1.0  -0.1473
  C  C634  1  0.447880  0.850410  0.183230  1.0  0.3467
  C  C635  1  0.405250  0.828250  0.220450  1.0  -0.1385
  C  C636  1  0.407970  0.832780  0.264680  1.0  -0.0803
  C  C637  1  0.453610  0.860110  0.273470  1.0  -0.1543
  C  C638  1  0.495020  0.882340  0.237220  1.0  -0.0668
  C  C639  1  0.494460  0.878010  0.192070  1.0  -0.1632
  C  C640  1  0.542280  0.903450  0.155390  1.0  0.5638
  C  C641  1  0.608950  0.907550  0.037150  1.0  0.5158
  C  C642  1  0.666770  0.925090  0.997370  1.0  -0.2747
  C  C643  1  0.751910  0.888130  0.980450  1.0  -0.1873
  C  C644  1  0.804000  0.903700  0.935900  1.0  -0.1119
  C  C645  1  0.871000  0.899200  0.932400  1.0  -0.1665
  C  C646  1  0.932200  0.910600  0.882800  1.0  -0.36
  C  C647  1  0.690170  0.803770  0.086690  1.0  0.1833
  C  C648  1  0.760400  0.768900  0.086900  1.0  -0.2353
  C  C649  1  0.756740  0.722720  0.090400  1.0  0.1093
  C  C650  1  0.681970  0.715180  0.093280  1.0  -0.1764
  C  C651  1  0.613950  0.752000  0.091700  1.0  0.1518
  C  C652  1  0.832600  0.681200  0.090200  1.0  -0.1931
  C  C653  1  0.819930  0.919600  0.081740  1.0  0.3184
  C  C654  1  0.885750  0.879980  0.081520  1.0  -0.1974
  C  C655  1  0.965950  0.879210  0.056890  1.0  -0.0785
  C  C656  1  0.985820  0.917020  0.030140  1.0  -0.1404
  C  C657  1  0.919860  0.955300  0.028980  1.0  -0.0345
  C  C658  1  0.837070  0.957910  0.053750  1.0  -0.1095
  C  C659  1  0.772050  0.999030  0.047870  1.0  0.5397
  C  C660  1  0.561720  0.046630  0.087130  1.0  0.537
  C  C661  1  0.488980  0.086780  0.082060  1.0  -0.3166
  C  C662  1  0.447210  0.115230  0.125950  1.0  -0.0688
  C  C663  1  0.503560  0.139430  0.138450  1.0  -0.1033
  C  C664  1  0.458740  0.171180  0.180740  1.0  -0.0723
  C  C665  1  0.515820  0.195580  0.192380  1.0  -0.3168
  C  C666  1  0.335020  0.827240  0.972120  1.0  0.3162
  C  C667  1  0.316840  0.796790  0.946330  1.0  -0.2232
  C  C668  1  0.351760  0.749400  0.947880  1.0  -0.1209
  C  C669  1  0.406000  0.730990  0.974810  1.0  -0.0993
  C  C670  1  0.424630  0.760880  0.999460  1.0  -0.0351
  C  C671  1  0.390780  0.809180  0.998460  1.0  -0.1588
  C  C672  1  0.414110  0.837680  0.026900  1.0  0.589
  C  C673  1  0.357090  0.948630  0.064790  1.0  0.5499
  C  C674  1  0.364100  0.979990  0.098810  1.0  -0.2784
  C  C675  1  0.285610  0.991510  0.139470  1.0  -0.1101
  C  C676  1  0.274470  0.950020  0.170240  1.0  -0.1043
  C  C677  1  0.196980  0.959820  0.211820  1.0  -0.08
  C  C678  1  0.189000  0.918300  0.242100  1.0  -0.3184
  C  C679  1  0.084330  0.583880  0.047860  1.0  0.1593
  C  C680  1  0.021990  0.624160  0.048660  1.0  -0.2023
  C  C681  1  0.972860  0.644970  0.090510  1.0  0.1206
  C  C682  1  0.987690  0.621880  0.129140  1.0  -0.1794
  C  C683  1  0.050860  0.581520  0.126360  1.0  0.1524
  C  C684  1  0.905400  0.690100  0.092100  1.0  -0.1472
  C  C685  1  0.368890  0.183230  0.649590  1.0  0.3413
  C  C686  1  0.374300  0.220450  0.671750  1.0  -0.1361
  C  C687  1  0.327350  0.264680  0.667220  1.0  -0.0826
  C  C688  1  0.272920  0.273470  0.639890  1.0  -0.159
  C  C689  1  0.267760  0.237220  0.617660  1.0  -0.0656
  C  C690  1  0.313470  0.192070  0.621990  1.0  -0.1625
  C  C691  1  0.302330  0.155390  0.596550  1.0  0.5641
  C  C692  1  0.353900  0.037150  0.592450  1.0  0.5169
  C  C693  1  0.335860  0.997370  0.574910  1.0  -0.2785
  C  C694  1  0.267640  0.980450  0.611870  1.0  -0.1919
  C  C695  1  0.260100  0.935900  0.596300  1.0  -0.1177
  C  C696  1  0.196600  0.932400  0.600800  1.0  -0.1712
  C  C697  1  0.185000  0.882800  0.589400  1.0  -0.3638
  C  C698  1  0.223140  0.086690  0.696230  1.0  0.1832
  C  C699  1  0.152700  0.086900  0.731100  1.0  -0.2347
  C  C700  1  0.152860  0.090400  0.777280  1.0  0.1091
  C  C701  1  0.224750  0.093280  0.784820  1.0  -0.1748
  C  C702  1  0.294350  0.091700  0.748000  1.0  0.1541
  C  C703  1  0.077200  0.090200  0.818800  1.0  -0.191
  C  C704  1  0.098330  0.081740  0.580400  1.0  0.3161
  C  C705  1  0.032730  0.081520  0.620020  1.0  -0.1963
  C  C706  1  0.977160  0.056890  0.620790  1.0  -0.0777
  C  C707  1  0.984040  0.030140  0.582980  1.0  -0.1429
  C  C708  1  0.051160  0.028980  0.544700  1.0  -0.0323
  C  C709  1  0.109180  0.053750  0.542090  1.0  -0.111
  C  C710  1  0.180080  0.047870  0.500970  1.0  0.5411
  C  C711  1  0.351150  0.087130  0.453370  1.0  0.5377
  C  C712  1  0.428960  0.082060  0.413220  1.0  -0.3153
  C  C713  1  0.426840  0.125950  0.384770  1.0  -0.0796
  C  C714  1  0.357990  0.138450  0.360570  1.0  -0.0906
  C  C715  1  0.360520  0.180740  0.328820  1.0  -0.0718
  C  C716  1  0.291800  0.192380  0.304420  1.0  -0.3207
  C  C717  1  0.692860  0.972120  0.672760  1.0  0.3212
  C  C718  1  0.736830  0.946330  0.703210  1.0  -0.2158
  C  C719  1  0.700360  0.947880  0.750600  1.0  -0.1217
  C  C720  1  0.619190  0.974810  0.769010  1.0  -0.0991
  C  C721  1  0.575910  0.999460  0.739120  1.0  -0.0346
  C  C722  1  0.610760  0.998460  0.690820  1.0  -0.1569
  C  C723  1  0.558990  0.026900  0.662320  1.0  0.59
  C  C724  1  0.578120  0.064790  0.551370  1.0  0.5475
  C  C725  1  0.537090  0.098810  0.520010  1.0  -0.2774
  C  C726  1  0.574920  0.139470  0.508490  1.0  -0.121
  C  C727  1  0.555290  0.170240  0.549980  1.0  -0.1014
  C  C728  1  0.591200  0.211820  0.540180  1.0  -0.079
  C  C729  1  0.568900  0.242100  0.581700  1.0  -0.3198
  C  C730  1  0.867810  0.047860  0.916120  1.0  0.1602
  C  C731  1  0.929350  0.048660  0.875840  1.0  -0.2087
  C  C732  1  0.936630  0.090510  0.855030  1.0  0.1198
  C  C733  1  0.883170  0.129140  0.878120  1.0  -0.182
  C  C734  1  0.822780  0.126360  0.918480  1.0  0.1533
  C  C735  1  0.002500  0.092100  0.809900  1.0  -0.1476
  C  C736  1  0.701710  0.316770  0.850410  1.0  0.3442
  C  C737  1  0.766500  0.279550  0.828250  1.0  -0.137
  C  C738  1  0.759250  0.235320  0.832780  1.0  -0.0838
  C  C739  1  0.686280  0.226530  0.860110  1.0  -0.1573
  C  C740  1  0.622640  0.262780  0.882340  1.0  -0.0669
  C  C741  1  0.627530  0.307930  0.878010  1.0  -0.1614
  C  C742  1  0.554270  0.344610  0.903450  1.0  0.564
  C  C743  1  0.483500  0.462850  0.907550  1.0  0.5159
  C  C744  1  0.408140  0.502630  0.925090  1.0  -0.2763
  C  C745  1  0.359960  0.519550  0.888130  1.0  -0.1885
  C  C746  1  0.292300  0.564100  0.903700  1.0  -0.1168
  C  C747  1  0.229800  0.567600  0.899200  1.0  -0.1804
  C  C748  1  0.157200  0.617200  0.910600  1.0  -0.3667
  C  C749  1  0.506060  0.413310  0.803770  1.0  0.1879
  C  C750  1  0.470700  0.413100  0.768900  1.0  -0.2404
  C  C751  1  0.520540  0.409600  0.722720  1.0  0.1098
  C  C752  1  0.602850  0.406720  0.715180  1.0  -0.1762
  C  C753  1  0.634050  0.408300  0.752000  1.0  0.156
  C  C754  1  0.486200  0.409800  0.681200  1.0  -0.1972
  C  C755  1  0.260470  0.418260  0.919600  1.0  0.3189
  C  C756  1  0.234270  0.418480  0.879980  1.0  -0.1965
  C  C757  1  0.154840  0.443110  0.879210  1.0  -0.0756
  C  C758  1  0.097160  0.469860  0.917020  1.0  -0.1403
  C  C759  1  0.124840  0.471020  0.955300  1.0  -0.0315
  C  C760  1  0.205020  0.446250  0.957910  1.0  -0.109
  C  C761  1  0.228920  0.452130  0.999030  1.0  0.5403
  C  C762  1  0.391650  0.412870  0.046630  1.0  0.5403
  C  C763  1  0.424240  0.417940  0.086780  1.0  -0.3119
  C  C764  1  0.437560  0.374050  0.115230  1.0  -0.0814
  C  C765  1  0.357010  0.361550  0.139430  1.0  -0.0925
  C  C766  1  0.370080  0.319260  0.171180  1.0  -0.0718
  C  C767  1  0.288600  0.307620  0.195580  1.0  -0.3176
  C  C768  1  0.837740  0.527880  0.827240  1.0  0.3194
  C  C769  1  0.886370  0.553670  0.796790  1.0  -0.2171
  C  C770  1  0.898840  0.552120  0.749400  1.0  -0.1188
  C  C771  1  0.863010  0.525190  0.730990  1.0  -0.1016
  C  C772  1  0.814490  0.500540  0.760880  1.0  -0.0363
  C  C773  1  0.800040  0.501540  0.809180  1.0  -0.1579
  C  C774  1  0.748210  0.473100  0.837680  1.0  0.5897
  C  C775  1  0.694280  0.435210  0.948630  1.0  0.5513
  C  C776  1  0.655910  0.401190  0.979990  1.0  -0.275
  C  C777  1  0.722880  0.360530  0.991510  1.0  -0.1217
  C  C778  1  0.775510  0.329760  0.950020  1.0  -0.1053
  C  C779  1  0.843200  0.288180  0.959820  1.0  -0.0785
  C  C780  1  0.892700  0.257900  0.918300  1.0  -0.319
  C  C781  1  0.331790  0.452140  0.583880  1.0  0.1621
  C  C782  1  0.353850  0.451340  0.624160  1.0  -0.2099
  C  C783  1  0.382170  0.409490  0.644970  1.0  0.121
  C  C784  1  0.390430  0.370860  0.621880  1.0  -0.181
  C  C785  1  0.367620  0.373640  0.581520  1.0  0.1552
  C  C786  1  0.404500  0.407900  0.690100  1.0  -0.1489
  C  C787  1  0.018480  0.350410  0.683230  1.0  0.3448
  C  C788  1  0.046050  0.328250  0.720450  1.0  -0.1392
  C  C789  1  0.994570  0.332780  0.764680  1.0  -0.0813
  C  C790  1  0.912810  0.360110  0.773470  1.0  -0.1533
  C  C791  1  0.885420  0.382340  0.737220  1.0  -0.0657
  C  C792  1  0.935460  0.378010  0.692070  1.0  -0.1614
  C  C793  1  0.898880  0.403450  0.655390  1.0  0.5641
  C  C794  1  0.946350  0.407550  0.537150  1.0  0.518
  C  C795  1  0.910770  0.425090  0.497370  1.0  -0.2789
  C  C796  1  0.879510  0.388130  0.480450  1.0  -0.1855
  C  C797  1  0.856400  0.403700  0.435900  1.0  -0.1138
  C  C798  1  0.797400  0.399200  0.432400  1.0  -0.1839
  C  C799  1  0.774400  0.410600  0.382800  1.0  -0.3627
  C  C800  1  0.919370  0.303770  0.586690  1.0  0.1831
  C  C801  1  0.883800  0.268900  0.586900  1.0  -0.237
  C  C802  1  0.930140  0.222720  0.590400  1.0  0.1093
  C  C803  1  0.009570  0.215180  0.593280  1.0  -0.1759
  C  C804  1  0.042350  0.252000  0.591700  1.0  0.1543
  C  C805  1  0.896000  0.181200  0.590200  1.0  -0.1936
  C  C806  1  0.678730  0.419600  0.581740  1.0  0.3197
  C  C807  1  0.652750  0.379980  0.581520  1.0  -0.1942
  C  C808  1  0.597950  0.379210  0.556890  1.0  -0.0807
  C  C809  1  0.567020  0.417020  0.530140  1.0  -0.137
  C  C810  1  0.595860  0.455300  0.528980  1.0  -0.0339
  C  C811  1  0.651270  0.457910  0.553750  1.0  -0.1077
  C  C812  1  0.681050  0.499030  0.547870  1.0  0.5393
  C  C813  1  0.804520  0.546630  0.587130  1.0  0.536
  C  C814  1  0.842180  0.586780  0.582060  1.0  -0.3109
  C  C815  1  0.811610  0.615230  0.625950  1.0  -0.0751
  C  C816  1  0.718560  0.639430  0.638450  1.0  -0.0952
  C  C817  1  0.689340  0.671180  0.680740  1.0  -0.0781
  C  C818  1  0.596220  0.695580  0.692380  1.0  -0.318
  C  C819  1  0.365620  0.327240  0.472120  1.0  0.3185
  C  C820  1  0.440040  0.296790  0.446330  1.0  -0.2229
  C  C821  1  0.450960  0.249400  0.447880  1.0  -0.1193
  C  C822  1  0.388200  0.230990  0.474810  1.0  -0.0984
  C  C823  1  0.315030  0.260880  0.499460  1.0  -0.0344
  C  C824  1  0.301580  0.309180  0.498460  1.0  -0.1573
  C  C825  1  0.221310  0.337680  0.526900  1.0  0.5898
  C  C826  1  0.129490  0.448630  0.564790  1.0  0.5522
  C  C827  1  0.057100  0.479990  0.598810  1.0  -0.2743
  C  C828  1  0.083410  0.491510  0.639470  1.0  -0.1192
  C  C829  1  0.105270  0.450020  0.670240  1.0  -0.103
  C  C830  1  0.131380  0.459820  0.711820  1.0  -0.0799
  C  C831  1  0.150600  0.418300  0.742100  1.0  -0.3203
  C  C832  1  0.783930  0.083880  0.547860  1.0  0.1599
  C  C833  1  0.805190  0.124160  0.548660  1.0  -0.2038
  C  C834  1  0.791660  0.144970  0.590510  1.0  0.1198
  C  C835  1  0.761290  0.121880  0.629140  1.0  -0.1806
  C  C836  1  0.741260  0.081520  0.626360  1.0  0.1528
  C  C837  1  0.812400  0.190100  0.592100  1.0  -0.1478
  C  C838  1  0.552120  0.149590  0.816770  1.0  0.3459
  C  C839  1  0.594750  0.171750  0.779550  1.0  -0.1366
  C  C840  1  0.592030  0.167220  0.735320  1.0  -0.0784
  C  C841  1  0.546390  0.139890  0.726530  1.0  -0.1559
  C  C842  1  0.504980  0.117660  0.762780  1.0  -0.0668
  C  C843  1  0.505540  0.121990  0.807930  1.0  -0.1624
  C  C844  1  0.457720  0.096550  0.844610  1.0  0.5628
  C  C845  1  0.391050  0.092450  0.962850  1.0  0.5151
  C  C846  1  0.333230  0.074910  0.002630  1.0  -0.2763
  C  C847  1  0.248090  0.111870  0.019550  1.0  -0.1874
  C  C848  1  0.196000  0.096300  0.064100  1.0  -0.1119
  C  C849  1  0.129000  0.100800  0.067600  1.0  -0.1745
  C  C850  1  0.067800  0.089400  0.117200  1.0  -0.3624
  C  C851  1  0.309830  0.196230  0.913310  1.0  0.1825
  C  C852  1  0.239600  0.231100  0.913100  1.0  -0.2364
  C  C853  1  0.243260  0.277280  0.909600  1.0  0.1103
  C  C854  1  0.318030  0.284820  0.906720  1.0  -0.1765
  C  C855  1  0.386050  0.248000  0.908300  1.0  0.1536
  C  C856  1  0.167400  0.318800  0.909800  1.0  -0.1908
  C  C857  1  0.180070  0.080400  0.918260  1.0  0.3171
  C  C858  1  0.114250  0.120020  0.918480  1.0  -0.1945
  C  C859  1  0.034050  0.120790  0.943110  1.0  -0.0801
  C  C860  1  0.014180  0.082980  0.969860  1.0  -0.1429
  C  C861  1  0.080140  0.044700  0.971020  1.0  -0.0329
  C  C862  1  0.162930  0.042090  0.946250  1.0  -0.1118
  C  C863  1  0.227950  0.000970  0.952130  1.0  0.5409
  C  C864  1  0.438280  0.953370  0.912870  1.0  0.538
  C  C865  1  0.511020  0.913220  0.917940  1.0  -0.315
  C  C866  1  0.552790  0.884770  0.874050  1.0  -0.0679
  C  C867  1  0.496440  0.860570  0.861550  1.0  -0.0918
  C  C868  1  0.541260  0.828820  0.819260  1.0  -0.0718
  C  C869  1  0.484180  0.804420  0.807620  1.0  -0.3194
  C  C870  1  0.664980  0.172760  0.027880  1.0  0.3158
  C  C871  1  0.683160  0.203210  0.053670  1.0  -0.2223
  C  C872  1  0.648240  0.250600  0.052120  1.0  -0.1189
  C  C873  1  0.594000  0.269010  0.025190  1.0  -0.1003
  C  C874  1  0.575370  0.239120  0.000540  1.0  -0.0357
  C  C875  1  0.609220  0.190820  0.001540  1.0  -0.1594
  C  C876  1  0.585890  0.162320  0.973100  1.0  0.5898
  C  C877  1  0.642910  0.051370  0.935210  1.0  0.5502
  C  C878  1  0.635900  0.020010  0.901190  1.0  -0.2768
  C  C879  1  0.714390  0.008490  0.860530  1.0  -0.1201
  C  C880  1  0.725530  0.049980  0.829760  1.0  -0.0976
  C  C881  1  0.803020  0.040180  0.788180  1.0  -0.0792
  C  C882  1  0.811000  0.081700  0.757900  1.0  -0.32
  C  C883  1  0.915670  0.416120  0.952140  1.0  0.1596
  C  C884  1  0.978010  0.375840  0.951340  1.0  -0.2043
  C  C885  1  0.027140  0.355030  0.909490  1.0  0.1194
  C  C886  1  0.012310  0.378120  0.870860  1.0  -0.1781
  C  C887  1  0.949140  0.418480  0.873640  1.0  0.1524
  C  C888  1  0.094600  0.309900  0.907900  1.0  -0.1463
  N  N889  1  0.656680  0.888480  0.397940  1.0  -0.2686
  N  N890  1  0.675740  0.920940  0.421980  1.0  -0.2641
  N  N891  1  0.705920  0.911770  0.296390  1.0  -0.3405
  N  N892  1  0.763770  0.929600  0.502660  1.0  -0.274
  N  N893  1  0.696780  0.939400  0.543840  1.0  -0.2647
  N  N894  1  0.407250  0.969820  0.382300  1.0  -0.3078
  N  N895  1  0.460400  0.938300  0.405500  1.0  -0.2832
  N  N896  1  0.184660  0.914070  0.062410  1.0  -0.3393
  N  N897  1  0.443100  0.611520  0.102060  1.0  -0.269
  N  N898  1  0.518660  0.579060  0.078020  1.0  -0.2639
  N  N899  1  0.414080  0.588230  0.203610  1.0  -0.3435
  N  N900  1  0.696030  0.570400  0.997340  1.0  -0.2769
  N  N901  1  0.680020  0.560600  0.956160  1.0  -0.2656
  N  N902  1  0.259370  0.530180  0.117700  1.0  -0.3039
  N  N903  1  0.304200  0.561700  0.094500  1.0  -0.2799
  N  N904  1  0.661140  0.585930  0.437590  1.0  -0.3374
  N  N905  1  0.054620  0.602060  0.388480  1.0  -0.2688
  N  N906  1  0.097720  0.578020  0.420940  1.0  -0.2639
  N  N907  1  0.002310  0.703610  0.411770  1.0  -0.3415
  N  N908  1  0.266430  0.497340  0.429600  1.0  -0.2736
  N  N909  1  0.240620  0.456160  0.439400  1.0  -0.265
  N  N910  1  0.789550  0.617700  0.469820  1.0  -0.305
  N  N911  1  0.865900  0.594500  0.438300  1.0  -0.2829
  N  N912  1  0.247070  0.937590  0.414070  1.0  -0.3343
  N  N913  1  0.545160  0.897940  0.111520  1.0  -0.2685
  N  N914  1  0.596680  0.921980  0.079060  1.0  -0.263
  N  N915  1  0.617690  0.796390  0.088230  1.0  -0.3405
  N  N916  1  0.693370  0.002660  0.070400  1.0  -0.275
  N  N917  1  0.636180  0.043840  0.060600  1.0  -0.2648
  N  N918  1  0.377070  0.882300  0.030180  1.0  -0.3036
  N  N919  1  0.398700  0.905500  0.061700  1.0  -0.2826
  N  N920  1  0.098730  0.562410  0.085930  1.0  -0.3341
  N  N921  1  0.343320  0.111520  0.602060  1.0  -0.2692
  N  N922  1  0.324260  0.079060  0.578020  1.0  -0.2639
  N  N923  1  0.294080  0.088230  0.703610  1.0  -0.3392
  N  N924  1  0.236230  0.070400  0.497340  1.0  -0.2763
  N  N925  1  0.303220  0.060600  0.456160  1.0  -0.2653
  N  N926  1  0.592750  0.030180  0.617700  1.0  -0.3065
  N  N927  1  0.539600  0.061700  0.594500  1.0  -0.2833
  N  N928  1  0.815340  0.085930  0.937590  1.0  -0.3371
  N  N929  1  0.556900  0.388480  0.897940  1.0  -0.2692
  N  N930  1  0.481340  0.420940  0.921980  1.0  -0.2634
  N  N931  1  0.585920  0.411770  0.796390  1.0  -0.3427
  N  N932  1  0.303970  0.429600  0.002660  1.0  -0.2763
  N  N933  1  0.319980  0.439400  0.043840  1.0  -0.2639
  N  N934  1  0.740630  0.469820  0.882300  1.0  -0.3085
  N  N935  1  0.695800  0.438300  0.905500  1.0  -0.2812
  N  N936  1  0.338860  0.414070  0.562410  1.0  -0.3389
  N  N937  1  0.945380  0.397940  0.611520  1.0  -0.2686
  N  N938  1  0.902280  0.421980  0.579060  1.0  -0.2638
  N  N939  1  0.997690  0.296390  0.588230  1.0  -0.3405
  N  N940  1  0.733570  0.502660  0.570400  1.0  -0.2759
  N  N941  1  0.759380  0.543840  0.560600  1.0  -0.2648
  N  N942  1  0.210450  0.382300  0.530180  1.0  -0.3064
  N  N943  1  0.134100  0.405500  0.561700  1.0  -0.2834
  N  N944  1  0.752930  0.062410  0.585930  1.0  -0.3337
  N  N945  1  0.454840  0.102060  0.888480  1.0  -0.2688
  N  N946  1  0.403320  0.078020  0.920940  1.0  -0.2638
  N  N947  1  0.382310  0.203610  0.911770  1.0  -0.3399
  N  N948  1  0.306630  0.997340  0.929600  1.0  -0.2758
  N  N949  1  0.363820  0.956160  0.939400  1.0  -0.2653
  N  N950  1  0.622930  0.117700  0.969820  1.0  -0.3074
  N  N951  1  0.601300  0.094500  0.938300  1.0  -0.2832
  N  N952  1  0.901270  0.437590  0.914070  1.0  -0.3349
  O  O953  1  0.583580  0.859070  0.343110  1.0  -0.5646
  O  O954  1  0.746660  0.833590  0.429890  1.0  -0.5876
  O  O955  1  0.605680  0.971330  0.376050  1.0  -0.571
  O  O956  1  0.853330  0.891730  0.418970  1.0  -0.5871
  O  O957  1  0.812900  0.980100  0.530980  1.0  -0.5898
  O  O958  1  0.665000  0.880910  0.515670  1.0  -0.5893
  O  O959  1  0.265810  0.031230  0.371970  1.0  -0.5612
  O  O960  1  0.517140  0.951720  0.317940  1.0  -0.5815
  O  O961  1  0.345780  0.959640  0.466840  1.0  -0.5746
  O  O962  1  0.285760  0.640930  0.156890  1.0  -0.5638
  O  O963  1  0.510140  0.666410  0.070110  1.0  -0.587
  O  O964  1  0.453060  0.528670  0.123950  1.0  -0.5707
  O  O965  1  0.664030  0.608270  0.081030  1.0  -0.587
  O  O966  1  0.823980  0.519900  0.969020  1.0  -0.5863
  O  O967  1  0.561580  0.619090  0.984330  1.0  -0.5893
  O  O968  1  0.169010  0.468770  0.128030  1.0  -0.5692
  O  O969  1  0.286800  0.548280  0.182060  1.0  -0.5861
  O  O970  1  0.272260  0.540360  0.033160  1.0  -0.5756
  O  O971  1  0.926690  0.656890  0.359070  1.0  -0.5614
  O  O972  1  0.176550  0.570110  0.333590  1.0  -0.5865
  O  O973  1  0.981730  0.623950  0.471330  1.0  -0.5713
  O  O974  1  0.272300  0.581030  0.391730  1.0  -0.5868
  O  O975  1  0.343880  0.469020  0.480100  1.0  -0.5855
  O  O976  1  0.180670  0.484330  0.380910  1.0  -0.5892
  O  O977  1  0.637780  0.628030  0.531230  1.0  -0.5629
  O  O978  1  0.835080  0.682060  0.451720  1.0  -0.5828
  O  O979  1  0.812620  0.533160  0.459640  1.0  -0.5754
  O  O980  1  0.442650  0.843110  0.140930  1.0  -0.5642
  O  O981  1  0.580250  0.929890  0.166410  1.0  -0.5867
  O  O982  1  0.577010  0.876050  0.028670  1.0  -0.5694
  O  O983  1  0.745060  0.918970  0.108270  1.0  -0.5865
  O  O984  1  0.793000  0.030980  0.019900  1.0  -0.5873
  O  O985  1  0.545910  0.015670  0.119090  1.0  -0.5872
  O  O986  1  0.297040  0.871970  0.968770  1.0  -0.5602
  O  O987  1  0.468860  0.817940  0.048280  1.0  -0.5827
  O  O988  1  0.305420  0.966840  0.040360  1.0  -0.5725
  O  O989  1  0.416420  0.140930  0.656890  1.0  -0.5643
  O  O990  1  0.253340  0.166410  0.570110  1.0  -0.5864
  O  O991  1  0.394320  0.028670  0.623950  1.0  -0.5719
  O  O992  1  0.146670  0.108270  0.581030  1.0  -0.5872
  O  O993  1  0.187100  0.019900  0.469020  1.0  -0.5883
  O  O994  1  0.335000  0.119090  0.484330  1.0  -0.5901
  O  O995  1  0.734190  0.968770  0.628030  1.0  -0.5615
  O  O996  1  0.482860  0.048280  0.682060  1.0  -0.5831
  O  O997  1  0.654220  0.040360  0.533160  1.0  -0.5728
  O  O998  1  0.714240  0.359070  0.843110  1.0  -0.5624
  O  O999  1  0.489860  0.333590  0.929890  1.0  -0.5869
  O  O1000  1  0.546940  0.471330  0.876050  1.0  -0.569
  O  O1001  1  0.335970  0.391730  0.918970  1.0  -0.5857
  O  O1002  1  0.176020  0.480100  0.030980  1.0  -0.5842
  O  O1003  1  0.438420  0.380910  0.015670  1.0  -0.59
  O  O1004  1  0.830990  0.531230  0.871970  1.0  -0.5612
  O  O1005  1  0.713200  0.451720  0.817940  1.0  -0.5867
  O  O1006  1  0.727740  0.459640  0.966840  1.0  -0.5752
  O  O1007  1  0.073310  0.343110  0.640930  1.0  -0.5659
  O  O1008  1  0.823450  0.429890  0.666410  1.0  -0.5859
  O  O1009  1  0.018270  0.376050  0.528670  1.0  -0.5693
  O  O1010  1  0.727700  0.418970  0.608270  1.0  -0.5853
  O  O1011  1  0.656120  0.530980  0.519900  1.0  -0.5851
  O  O1012  1  0.819330  0.515670  0.619090  1.0  -0.5894
  O  O1013  1  0.362220  0.371970  0.468770  1.0  -0.5539
  O  O1014  1  0.164920  0.317940  0.548280  1.0  -0.5829
  O  O1015  1  0.187380  0.466840  0.540360  1.0  -0.573
  O  O1016  1  0.557350  0.156890  0.859070  1.0  -0.5618
  O  O1017  1  0.419750  0.070110  0.833590  1.0  -0.5874
  O  O1018  1  0.422990  0.123950  0.971330  1.0  -0.5711
  O  O1019  1  0.254940  0.081030  0.891730  1.0  -0.5844
  O  O1020  1  0.207000  0.969020  0.980100  1.0  -0.5869
  O  O1021  1  0.454090  0.984330  0.880910  1.0  -0.5901
  O  O1022  1  0.702960  0.128030  0.031230  1.0  -0.5588
  O  O1023  1  0.531140  0.182060  0.951720  1.0  -0.5845
  O  O1024  1  0.694580  0.033160  0.959640  1.0  -0.5726
