# generated using pymatgen
data_Mn3H57C51N8O9
_symmetry_space_group_name_H-M   'P 1'
_cell_length_a   40.90600000
_cell_length_b   40.90600000
_cell_length_c   17.29500000
_cell_angle_alpha   90.00000000
_cell_angle_beta   90.00000000
_cell_angle_gamma   90.00000000
_symmetry_Int_Tables_number   1
_chemical_formula_structural   Mn3H57C51N8O9
_chemical_formula_sum   'Mn48 H912 C816 N128 O144'
_cell_volume   28939.73795862
_cell_formula_units_Z   16
loop_
 _symmetry_equiv_pos_site_id
 _symmetry_equiv_pos_as_xyz
  1  'x, y, z'
loop_
 _atom_site_type_symbol
 _atom_site_label
 _atom_site_symmetry_multiplicity
 _atom_site_fract_x
 _atom_site_fract_y
 _atom_site_fract_z
 _atom_site_occupancy
 _atom_site_charge
  Mn  Mn1  1  0.576460  0.541150  0.181840  1.0  0.9838
  Mn  Mn2  1  0.460600  0.538070  0.246700  1.0  0.9747
  Mn  Mn3  1  0.612900  0.470130  0.972750  1.0  0.9371
  Mn  Mn4  1  0.076460  0.041150  0.681840  1.0  0.9838
  Mn  Mn5  1  0.960600  0.038070  0.746700  1.0  0.9747
  Mn  Mn6  1  0.112900  0.970130  0.472750  1.0  0.9371
  Mn  Mn7  1  0.923540  0.458850  0.681840  1.0  0.9828
  Mn  Mn8  1  0.039400  0.461930  0.746700  1.0  0.9729
  Mn  Mn9  1  0.887100  0.529870  0.472750  1.0  0.9371
  Mn  Mn10  1  0.423540  0.958850  0.181840  1.0  0.9828
  Mn  Mn11  1  0.539400  0.961930  0.246700  1.0  0.9729
  Mn  Mn12  1  0.387100  0.029870  0.972750  1.0  0.9371
  Mn  Mn13  1  0.208850  0.826460  0.431840  1.0  0.9818
  Mn  Mn14  1  0.211930  0.710600  0.496700  1.0  0.9761
  Mn  Mn15  1  0.279870  0.862900  0.222750  1.0  0.9378
  Mn  Mn16  1  0.708850  0.326460  0.931840  1.0  0.9818
  Mn  Mn17  1  0.711930  0.210600  0.996700  1.0  0.9761
  Mn  Mn18  1  0.779870  0.362900  0.722750  1.0  0.9378
  Mn  Mn19  1  0.291150  0.173540  0.931840  1.0  0.9802
  Mn  Mn20  1  0.288070  0.289400  0.996700  1.0  0.9733
  Mn  Mn21  1  0.220130  0.137100  0.722750  1.0  0.9359
  Mn  Mn22  1  0.791150  0.673540  0.431840  1.0  0.9802
  Mn  Mn23  1  0.788070  0.789400  0.496700  1.0  0.9733
  Mn  Mn24  1  0.720130  0.637100  0.222750  1.0  0.9359
  Mn  Mn25  1  0.423540  0.458850  0.818160  1.0  0.986
  Mn  Mn26  1  0.539400  0.461930  0.753300  1.0  0.9765
  Mn  Mn27  1  0.387100  0.529870  0.027250  1.0  0.9381
  Mn  Mn28  1  0.923540  0.958850  0.318160  1.0  0.986
  Mn  Mn29  1  0.039400  0.961930  0.253300  1.0  0.9765
  Mn  Mn30  1  0.887100  0.029870  0.527250  1.0  0.9381
  Mn  Mn31  1  0.076460  0.541150  0.318160  1.0  0.987
  Mn  Mn32  1  0.960600  0.538070  0.253300  1.0  0.9777
  Mn  Mn33  1  0.112900  0.470130  0.527250  1.0  0.938
  Mn  Mn34  1  0.576460  0.041150  0.818160  1.0  0.987
  Mn  Mn35  1  0.460600  0.038070  0.753300  1.0  0.9777
  Mn  Mn36  1  0.612900  0.970130  0.027250  1.0  0.938
  Mn  Mn37  1  0.791150  0.173540  0.568160  1.0  0.983
  Mn  Mn38  1  0.788070  0.289400  0.503300  1.0  0.9765
  Mn  Mn39  1  0.720130  0.137100  0.777250  1.0  0.937
  Mn  Mn40  1  0.291150  0.673540  0.068160  1.0  0.983
  Mn  Mn41  1  0.288070  0.789400  0.003300  1.0  0.9765
  Mn  Mn42  1  0.220130  0.637100  0.277250  1.0  0.937
  Mn  Mn43  1  0.708850  0.826460  0.068160  1.0  0.9845
  Mn  Mn44  1  0.711930  0.710600  0.003300  1.0  0.9788
  Mn  Mn45  1  0.779870  0.862900  0.277250  1.0  0.9387
  Mn  Mn46  1  0.208850  0.326460  0.568160  1.0  0.9845
  Mn  Mn47  1  0.211930  0.210600  0.503300  1.0  0.9788
  Mn  Mn48  1  0.279870  0.362900  0.777250  1.0  0.9387
  H  H49  1  0.623400  0.475300  0.348500  1.0  0.1203
  H  H50  1  0.604200  0.454000  0.462600  1.0  0.087
  H  H51  1  0.551400  0.463900  0.505300  1.0  0.1145
  H  H52  1  0.516600  0.495900  0.429100  1.0  0.0924
  H  H53  1  0.474000  0.582200  0.094700  1.0  0.0995
  H  H54  1  0.497500  0.574100  0.023200  1.0  0.1024
  H  H55  1  0.491100  0.630200  0.026900  1.0  0.0928
  H  H56  1  0.528000  0.622500  0.051500  1.0  0.0799
  H  H57  1  0.477100  0.634500  0.161900  1.0  0.0648
  H  H58  1  0.514900  0.629700  0.182800  1.0  0.0797
  H  H59  1  0.527700  0.679000  0.118500  1.0  0.0728
  H  H60  1  0.490100  0.683600  0.095600  1.0  0.0776
  H  H61  1  0.476000  0.698800  0.213300  1.0  0.1181
  H  H62  1  0.512500  0.712900  0.210100  1.0  0.1103
  H  H63  1  0.505300  0.679000  0.253200  1.0  0.0951
  H  H64  1  0.441800  0.632200  0.355800  1.0  0.1098
  H  H65  1  0.400200  0.670100  0.335100  1.0  0.0974
  H  H66  1  0.362000  0.662400  0.237000  1.0  0.112
  H  H67  1  0.366200  0.617200  0.158500  1.0  0.085
  H  H68  1  0.461100  0.452800  0.085300  1.0  0.099
  H  H69  1  0.425200  0.462200  0.055300  1.0  0.098
  H  H70  1  0.426500  0.412700  0.132600  1.0  0.079
  H  H71  1  0.436600  0.434600  0.205500  1.0  0.0743
  H  H72  1  0.376000  0.441500  0.124200  1.0  0.0658
  H  H73  1  0.386200  0.463000  0.197600  1.0  0.0663
  H  H74  1  0.375300  0.393500  0.203500  1.0  0.0735
  H  H75  1  0.385100  0.415300  0.277100  1.0  0.0751
  H  H76  1  0.334200  0.446300  0.252100  1.0  0.1114
  H  H77  1  0.329400  0.410400  0.287000  1.0  0.1133
  H  H78  1  0.324100  0.416600  0.196600  1.0  0.1087
  H  H79  1  0.456800  0.475400  0.346000  1.0  0.0739
  H  H80  1  0.421600  0.441600  0.413900  1.0  0.128
  H  H81  1  0.353400  0.511300  0.397600  1.0  0.0848
  H  H82  1  0.389200  0.543100  0.328000  1.0  0.0997
  H  H83  1  0.337100  0.459000  0.451200  1.0  0.0674
  H  H84  1  0.360900  0.428600  0.436800  1.0  0.0656
  H  H85  1  0.703500  0.510400  0.885900  1.0  0.1055
  H  H86  1  0.736600  0.551700  0.933600  1.0  0.0995
  H  H87  1  0.719300  0.583900  0.036900  1.0  0.1105
  H  H88  1  0.669700  0.573700  0.094700  1.0  0.0893
  H  H89  1  0.525900  0.481000  0.152500  1.0  0.0913
  H  H90  1  0.517800  0.454200  0.087700  1.0  0.1033
  H  H91  1  0.551800  0.414600  0.152600  1.0  0.0945
  H  H92  1  0.563000  0.441300  0.214500  1.0  0.1095
  H  H93  1  0.497200  0.412200  0.208200  1.0  0.0762
  H  H94  1  0.505000  0.442500  0.264000  1.0  0.0826
  H  H95  1  0.533800  0.381900  0.270600  1.0  0.1296
  H  H96  1  0.541600  0.412600  0.327300  1.0  0.146
  H  H97  1  0.477700  0.419400  0.336500  1.0  0.1035
  H  H98  1  0.475400  0.383100  0.303000  1.0  0.0827
  H  H99  1  0.491400  0.389400  0.386100  1.0  0.1092
  H  H100  1  0.291600  0.373200  0.598400  1.0  0.0684
  H  H101  1  0.322100  0.402100  0.509800  1.0  0.1198
  H  H102  1  0.361600  0.452400  0.687400  1.0  0.1119
  H  H103  1  0.330000  0.422100  0.770300  1.0  0.0766
  H  H104  1  0.367100  0.473100  0.553000  1.0  0.0675
  H  H105  1  0.389700  0.442000  0.539200  1.0  0.0873
  H  H106  1  0.123400  0.975300  0.848500  1.0  0.1203
  H  H107  1  0.104200  0.954000  0.962600  1.0  0.087
  H  H108  1  0.051400  0.963900  0.005300  1.0  0.1145
  H  H109  1  0.016600  0.995900  0.929100  1.0  0.0924
  H  H110  1  0.974000  0.082200  0.594700  1.0  0.0995
  H  H111  1  0.997500  0.074100  0.523200  1.0  0.1024
  H  H112  1  0.991100  0.130200  0.526900  1.0  0.0928
  H  H113  1  0.028000  0.122500  0.551500  1.0  0.0799
  H  H114  1  0.977100  0.134500  0.661900  1.0  0.0648
  H  H115  1  0.014900  0.129700  0.682800  1.0  0.0797
  H  H116  1  0.027700  0.179000  0.618500  1.0  0.0728
  H  H117  1  0.990100  0.183600  0.595600  1.0  0.0776
  H  H118  1  0.976000  0.198800  0.713300  1.0  0.1181
  H  H119  1  0.012500  0.212900  0.710100  1.0  0.1103
  H  H120  1  0.005300  0.179000  0.753200  1.0  0.0951
  H  H121  1  0.941800  0.132200  0.855800  1.0  0.1098
  H  H122  1  0.900200  0.170100  0.835100  1.0  0.0974
  H  H123  1  0.862000  0.162400  0.737000  1.0  0.112
  H  H124  1  0.866200  0.117200  0.658500  1.0  0.085
  H  H125  1  0.961100  0.952800  0.585300  1.0  0.099
  H  H126  1  0.925200  0.962200  0.555300  1.0  0.098
  H  H127  1  0.926500  0.912700  0.632600  1.0  0.079
  H  H128  1  0.936600  0.934600  0.705500  1.0  0.0743
  H  H129  1  0.876000  0.941500  0.624200  1.0  0.0658
  H  H130  1  0.886200  0.963000  0.697600  1.0  0.0663
  H  H131  1  0.875300  0.893500  0.703500  1.0  0.0735
  H  H132  1  0.885100  0.915300  0.777100  1.0  0.0751
  H  H133  1  0.834200  0.946300  0.752100  1.0  0.1114
  H  H134  1  0.829400  0.910400  0.787000  1.0  0.1133
  H  H135  1  0.824100  0.916600  0.696600  1.0  0.1087
  H  H136  1  0.956800  0.975400  0.846000  1.0  0.0739
  H  H137  1  0.921600  0.941600  0.913900  1.0  0.128
  H  H138  1  0.853400  0.011300  0.897600  1.0  0.0848
  H  H139  1  0.889200  0.043100  0.828000  1.0  0.0997
  H  H140  1  0.837100  0.959000  0.951200  1.0  0.0674
  H  H141  1  0.860900  0.928600  0.936800  1.0  0.0656
  H  H142  1  0.203500  0.010400  0.385900  1.0  0.1055
  H  H143  1  0.236600  0.051700  0.433600  1.0  0.0995
  H  H144  1  0.219300  0.083900  0.536900  1.0  0.1105
  H  H145  1  0.169700  0.073700  0.594700  1.0  0.0893
  H  H146  1  0.025900  0.981000  0.652500  1.0  0.0913
  H  H147  1  0.017800  0.954200  0.587700  1.0  0.1033
  H  H148  1  0.051800  0.914600  0.652600  1.0  0.0945
  H  H149  1  0.063000  0.941300  0.714500  1.0  0.1095
  H  H150  1  0.997200  0.912200  0.708200  1.0  0.0762
  H  H151  1  0.005000  0.942500  0.764000  1.0  0.0826
  H  H152  1  0.033800  0.881900  0.770600  1.0  0.1296
  H  H153  1  0.041600  0.912600  0.827300  1.0  0.146
  H  H154  1  0.977700  0.919400  0.836500  1.0  0.1035
  H  H155  1  0.975400  0.883100  0.803000  1.0  0.0827
  H  H156  1  0.991400  0.889400  0.886100  1.0  0.1092
  H  H157  1  0.791600  0.873200  0.098400  1.0  0.0684
  H  H158  1  0.822100  0.902100  0.009800  1.0  0.1198
  H  H159  1  0.861600  0.952400  0.187400  1.0  0.1119
  H  H160  1  0.830000  0.922100  0.270300  1.0  0.0766
  H  H161  1  0.867100  0.973100  0.053000  1.0  0.0675
  H  H162  1  0.889700  0.942000  0.039200  1.0  0.0873
  H  H163  1  0.876600  0.524700  0.848500  1.0  0.1205
  H  H164  1  0.895800  0.546000  0.962600  1.0  0.0867
  H  H165  1  0.948600  0.536100  0.005300  1.0  0.1137
  H  H166  1  0.983400  0.504100  0.929100  1.0  0.0929
  H  H167  1  0.026000  0.417800  0.594700  1.0  0.0993
  H  H168  1  0.002500  0.425900  0.523200  1.0  0.1019
  H  H169  1  0.008900  0.369800  0.526900  1.0  0.0918
  H  H170  1  0.972000  0.377500  0.551500  1.0  0.081
  H  H171  1  0.022900  0.365500  0.661900  1.0  0.0605
  H  H172  1  0.985100  0.370300  0.682800  1.0  0.0797
  H  H173  1  0.972300  0.321000  0.618500  1.0  0.0709
  H  H174  1  0.009900  0.316400  0.595600  1.0  0.077
  H  H175  1  0.024000  0.301200  0.713300  1.0  0.1172
  H  H176  1  0.987500  0.287100  0.710100  1.0  0.1097
  H  H177  1  0.994700  0.321000  0.753200  1.0  0.0954
  H  H178  1  0.058200  0.367800  0.855800  1.0  0.1102
  H  H179  1  0.099800  0.329900  0.835100  1.0  0.0981
  H  H180  1  0.138000  0.337600  0.737000  1.0  0.1112
  H  H181  1  0.133800  0.382800  0.658500  1.0  0.0849
  H  H182  1  0.038900  0.547200  0.585300  1.0  0.0986
  H  H183  1  0.074800  0.537800  0.555300  1.0  0.0983
  H  H184  1  0.073500  0.587300  0.632600  1.0  0.0783
  H  H185  1  0.063400  0.565400  0.705500  1.0  0.0743
  H  H186  1  0.124000  0.558500  0.624200  1.0  0.0661
  H  H187  1  0.113800  0.537000  0.697600  1.0  0.068
  H  H188  1  0.124700  0.606500  0.703500  1.0  0.0763
  H  H189  1  0.114900  0.584700  0.777100  1.0  0.0745
  H  H190  1  0.165800  0.553700  0.752100  1.0  0.1104
  H  H191  1  0.170600  0.589600  0.787000  1.0  0.1125
  H  H192  1  0.175900  0.583400  0.696600  1.0  0.1081
  H  H193  1  0.043200  0.524600  0.846000  1.0  0.074
  H  H194  1  0.078400  0.558400  0.913900  1.0  0.1283
  H  H195  1  0.146600  0.488700  0.897600  1.0  0.0853
  H  H196  1  0.110800  0.456900  0.828000  1.0  0.0998
  H  H197  1  0.162900  0.541000  0.951200  1.0  0.069
  H  H198  1  0.139100  0.571400  0.936800  1.0  0.0693
  H  H199  1  0.796500  0.489600  0.385900  1.0  0.1063
  H  H200  1  0.763400  0.448300  0.433600  1.0  0.1
  H  H201  1  0.780700  0.416100  0.536900  1.0  0.1103
  H  H202  1  0.830300  0.426300  0.594700  1.0  0.0893
  H  H203  1  0.974100  0.519000  0.652500  1.0  0.0922
  H  H204  1  0.982200  0.545800  0.587700  1.0  0.1038
  H  H205  1  0.948200  0.585400  0.652600  1.0  0.0955
  H  H206  1  0.937000  0.558700  0.714500  1.0  0.1108
  H  H207  1  0.002800  0.587800  0.708200  1.0  0.0768
  H  H208  1  0.995000  0.557500  0.764000  1.0  0.0781
  H  H209  1  0.966200  0.618100  0.770600  1.0  0.1317
  H  H210  1  0.958400  0.587400  0.827300  1.0  0.1479
  H  H211  1  0.022300  0.580600  0.836500  1.0  0.1035
  H  H212  1  0.024600  0.616900  0.803000  1.0  0.0848
  H  H213  1  0.008600  0.610600  0.886100  1.0  0.1092
  H  H214  1  0.208400  0.626800  0.098400  1.0  0.0682
  H  H215  1  0.177900  0.597900  0.009800  1.0  0.1196
  H  H216  1  0.138400  0.547600  0.187400  1.0  0.1119
  H  H217  1  0.170000  0.577900  0.270300  1.0  0.0766
  H  H218  1  0.132900  0.526900  0.053000  1.0  0.0683
  H  H219  1  0.110300  0.558000  0.039200  1.0  0.0864
  H  H220  1  0.376600  0.024700  0.348500  1.0  0.1205
  H  H221  1  0.395800  0.046000  0.462600  1.0  0.0867
  H  H222  1  0.448600  0.036100  0.505300  1.0  0.1137
  H  H223  1  0.483400  0.004100  0.429100  1.0  0.0929
  H  H224  1  0.526000  0.917800  0.094700  1.0  0.0993
  H  H225  1  0.502500  0.925900  0.023200  1.0  0.1019
  H  H226  1  0.508900  0.869800  0.026900  1.0  0.0918
  H  H227  1  0.472000  0.877500  0.051500  1.0  0.081
  H  H228  1  0.522900  0.865500  0.161900  1.0  0.0605
  H  H229  1  0.485100  0.870300  0.182800  1.0  0.0797
  H  H230  1  0.472300  0.821000  0.118500  1.0  0.0709
  H  H231  1  0.509900  0.816400  0.095600  1.0  0.077
  H  H232  1  0.524000  0.801200  0.213300  1.0  0.1172
  H  H233  1  0.487500  0.787100  0.210100  1.0  0.1097
  H  H234  1  0.494700  0.821000  0.253200  1.0  0.0954
  H  H235  1  0.558200  0.867800  0.355800  1.0  0.1102
  H  H236  1  0.599800  0.829900  0.335100  1.0  0.0981
  H  H237  1  0.638000  0.837600  0.237000  1.0  0.1112
  H  H238  1  0.633800  0.882800  0.158500  1.0  0.0849
  H  H239  1  0.538900  0.047200  0.085300  1.0  0.0986
  H  H240  1  0.574800  0.037800  0.055300  1.0  0.0983
  H  H241  1  0.573500  0.087300  0.132600  1.0  0.0783
  H  H242  1  0.563400  0.065400  0.205500  1.0  0.0743
  H  H243  1  0.624000  0.058500  0.124200  1.0  0.0661
  H  H244  1  0.613800  0.037000  0.197600  1.0  0.068
  H  H245  1  0.624700  0.106500  0.203500  1.0  0.0763
  H  H246  1  0.614900  0.084700  0.277100  1.0  0.0745
  H  H247  1  0.665800  0.053700  0.252100  1.0  0.1104
  H  H248  1  0.670600  0.089600  0.287000  1.0  0.1125
  H  H249  1  0.675900  0.083400  0.196600  1.0  0.1081
  H  H250  1  0.543200  0.024600  0.346000  1.0  0.074
  H  H251  1  0.578400  0.058400  0.413900  1.0  0.1283
  H  H252  1  0.646600  0.988700  0.397600  1.0  0.0853
  H  H253  1  0.610800  0.956900  0.328000  1.0  0.0998
  H  H254  1  0.662900  0.041000  0.451200  1.0  0.069
  H  H255  1  0.639100  0.071400  0.436800  1.0  0.0693
  H  H256  1  0.296500  0.989600  0.885900  1.0  0.1063
  H  H257  1  0.263400  0.948300  0.933600  1.0  0.1
  H  H258  1  0.280700  0.916100  0.036900  1.0  0.1104
  H  H259  1  0.330300  0.926300  0.094700  1.0  0.0893
  H  H260  1  0.474100  0.019000  0.152500  1.0  0.0922
  H  H261  1  0.482200  0.045800  0.087700  1.0  0.1038
  H  H262  1  0.448200  0.085400  0.152600  1.0  0.0955
  H  H263  1  0.437000  0.058700  0.214500  1.0  0.1108
  H  H264  1  0.502800  0.087800  0.208200  1.0  0.0768
  H  H265  1  0.495000  0.057500  0.264000  1.0  0.0781
  H  H266  1  0.466200  0.118100  0.270600  1.0  0.1317
  H  H267  1  0.458400  0.087400  0.327300  1.0  0.1479
  H  H268  1  0.522300  0.080600  0.336500  1.0  0.1035
  H  H269  1  0.524600  0.116900  0.303000  1.0  0.0848
  H  H270  1  0.508600  0.110600  0.386100  1.0  0.1092
  H  H271  1  0.708400  0.126800  0.598400  1.0  0.0682
  H  H272  1  0.677900  0.097900  0.509800  1.0  0.1196
  H  H273  1  0.638400  0.047600  0.687400  1.0  0.1119
  H  H274  1  0.670000  0.077900  0.770300  1.0  0.0766
  H  H275  1  0.632900  0.026900  0.553000  1.0  0.0683
  H  H276  1  0.610300  0.058000  0.539200  1.0  0.0864
  H  H277  1  0.274700  0.873400  0.598500  1.0  0.1199
  H  H278  1  0.296000  0.854200  0.712600  1.0  0.0865
  H  H279  1  0.286100  0.801400  0.755300  1.0  0.1131
  H  H280  1  0.254100  0.766600  0.679100  1.0  0.0932
  H  H281  1  0.167800  0.724000  0.344700  1.0  0.0994
  H  H282  1  0.175900  0.747500  0.273200  1.0  0.1034
  H  H283  1  0.119800  0.741100  0.276900  1.0  0.0923
  H  H284  1  0.127500  0.778000  0.301500  1.0  0.0875
  H  H285  1  0.115500  0.727100  0.411900  1.0  0.0656
  H  H286  1  0.120300  0.764900  0.432800  1.0  0.0788
  H  H287  1  0.071000  0.777700  0.368500  1.0  0.0742
  H  H288  1  0.066400  0.740100  0.345600  1.0  0.077
  H  H289  1  0.051200  0.726000  0.463300  1.0  0.1196
  H  H290  1  0.037100  0.762500  0.460100  1.0  0.1081
  H  H291  1  0.071000  0.755300  0.503200  1.0  0.0945
  H  H292  1  0.117800  0.691800  0.605800  1.0  0.1106
  H  H293  1  0.079900  0.650200  0.585100  1.0  0.0986
  H  H294  1  0.087600  0.612000  0.487000  1.0  0.1122
  H  H295  1  0.132800  0.616200  0.408500  1.0  0.0849
  H  H296  1  0.297200  0.711100  0.335300  1.0  0.098
  H  H297  1  0.287800  0.675200  0.305300  1.0  0.0974
  H  H298  1  0.337300  0.676500  0.382600  1.0  0.0819
  H  H299  1  0.315400  0.686600  0.455500  1.0  0.0749
  H  H300  1  0.308500  0.626000  0.374200  1.0  0.0661
  H  H301  1  0.287000  0.636200  0.447600  1.0  0.0679
  H  H302  1  0.356500  0.625300  0.453500  1.0  0.074
  H  H303  1  0.334700  0.635100  0.527100  1.0  0.0746
  H  H304  1  0.303700  0.584200  0.502100  1.0  0.1041
  H  H305  1  0.339600  0.579400  0.537000  1.0  0.113
  H  H306  1  0.333400  0.574100  0.446600  1.0  0.1082
  H  H307  1  0.274600  0.706800  0.596000  1.0  0.0743
  H  H308  1  0.308400  0.671600  0.663900  1.0  0.1271
  H  H309  1  0.238700  0.603400  0.647600  1.0  0.0852
  H  H310  1  0.206900  0.639200  0.578000  1.0  0.0991
  H  H311  1  0.291000  0.587100  0.701200  1.0  0.0677
  H  H312  1  0.321400  0.610900  0.686800  1.0  0.0688
  H  H313  1  0.239600  0.953500  0.135900  1.0  0.1058
  H  H314  1  0.198300  0.986600  0.183600  1.0  0.1003
  H  H315  1  0.166100  0.969300  0.286900  1.0  0.1099
  H  H316  1  0.176300  0.919700  0.344700  1.0  0.0902
  H  H317  1  0.269000  0.775900  0.402500  1.0  0.0903
  H  H318  1  0.295800  0.767800  0.337700  1.0  0.1035
  H  H319  1  0.335400  0.801800  0.402600  1.0  0.0956
  H  H320  1  0.308700  0.813000  0.464500  1.0  0.1097
  H  H321  1  0.337800  0.747200  0.458200  1.0  0.0768
  H  H322  1  0.307500  0.755000  0.514000  1.0  0.0841
  H  H323  1  0.368100  0.783800  0.520600  1.0  0.1403
  H  H324  1  0.337400  0.791600  0.577300  1.0  0.1437
  H  H325  1  0.330600  0.727700  0.586500  1.0  0.1046
  H  H326  1  0.366900  0.725400  0.553000  1.0  0.0851
  H  H327  1  0.360600  0.741400  0.636100  1.0  0.1098
  H  H328  1  0.376800  0.541600  0.848400  1.0  0.0674
  H  H329  1  0.347900  0.572100  0.759800  1.0  0.1195
  H  H330  1  0.297600  0.611600  0.937400  1.0  0.112
  H  H331  1  0.327900  0.580000  0.020300  1.0  0.0765
  H  H332  1  0.276900  0.617100  0.803000  1.0  0.068
  H  H333  1  0.308000  0.639700  0.789200  1.0  0.0846
  H  H334  1  0.774700  0.373400  0.098500  1.0  0.1199
  H  H335  1  0.796000  0.354200  0.212600  1.0  0.0865
  H  H336  1  0.786100  0.301400  0.255300  1.0  0.1131
  H  H337  1  0.754100  0.266600  0.179100  1.0  0.0932
  H  H338  1  0.667800  0.224000  0.844700  1.0  0.0994
  H  H339  1  0.675900  0.247500  0.773200  1.0  0.1034
  H  H340  1  0.619800  0.241100  0.776900  1.0  0.0923
  H  H341  1  0.627500  0.278000  0.801500  1.0  0.0875
  H  H342  1  0.615500  0.227100  0.911900  1.0  0.0656
  H  H343  1  0.620300  0.264900  0.932800  1.0  0.0788
  H  H344  1  0.571000  0.277700  0.868500  1.0  0.0742
  H  H345  1  0.566400  0.240100  0.845600  1.0  0.077
  H  H346  1  0.551200  0.226000  0.963300  1.0  0.1196
  H  H347  1  0.537100  0.262500  0.960100  1.0  0.1081
  H  H348  1  0.571000  0.255300  0.003200  1.0  0.0945
  H  H349  1  0.617800  0.191800  0.105800  1.0  0.1106
  H  H350  1  0.579900  0.150200  0.085100  1.0  0.0986
  H  H351  1  0.587600  0.112000  0.987000  1.0  0.1122
  H  H352  1  0.632800  0.116200  0.908500  1.0  0.0849
  H  H353  1  0.797200  0.211100  0.835300  1.0  0.098
  H  H354  1  0.787800  0.175200  0.805300  1.0  0.0974
  H  H355  1  0.837300  0.176500  0.882600  1.0  0.0819
  H  H356  1  0.815400  0.186600  0.955500  1.0  0.0749
  H  H357  1  0.808500  0.126000  0.874200  1.0  0.0661
  H  H358  1  0.787000  0.136200  0.947600  1.0  0.0679
  H  H359  1  0.856500  0.125300  0.953500  1.0  0.074
  H  H360  1  0.834700  0.135100  0.027100  1.0  0.0746
  H  H361  1  0.803700  0.084200  0.002100  1.0  0.1041
  H  H362  1  0.839600  0.079400  0.037000  1.0  0.113
  H  H363  1  0.833400  0.074100  0.946600  1.0  0.1082
  H  H364  1  0.774600  0.206800  0.096000  1.0  0.0743
  H  H365  1  0.808400  0.171600  0.163900  1.0  0.1271
  H  H366  1  0.738700  0.103400  0.147600  1.0  0.0852
  H  H367  1  0.706900  0.139200  0.078000  1.0  0.0991
  H  H368  1  0.791000  0.087100  0.201200  1.0  0.0677
  H  H369  1  0.821400  0.110900  0.186800  1.0  0.0688
  H  H370  1  0.739600  0.453500  0.635900  1.0  0.1059
  H  H371  1  0.698300  0.486600  0.683600  1.0  0.1003
  H  H372  1  0.666100  0.469300  0.786900  1.0  0.1099
  H  H373  1  0.676300  0.419700  0.844700  1.0  0.0902
  H  H374  1  0.769000  0.275900  0.902500  1.0  0.0903
  H  H375  1  0.795800  0.267800  0.837700  1.0  0.1035
  H  H376  1  0.835400  0.301800  0.902600  1.0  0.0956
  H  H377  1  0.808700  0.313000  0.964500  1.0  0.1097
  H  H378  1  0.837800  0.247200  0.958200  1.0  0.0768
  H  H379  1  0.807500  0.255000  0.014000  1.0  0.0841
  H  H380  1  0.868100  0.283800  0.020600  1.0  0.1403
  H  H381  1  0.837400  0.291600  0.077300  1.0  0.1437
  H  H382  1  0.830600  0.227700  0.086500  1.0  0.1046
  H  H383  1  0.866900  0.225400  0.053000  1.0  0.0851
  H  H384  1  0.860600  0.241400  0.136100  1.0  0.1098
  H  H385  1  0.876800  0.041600  0.348400  1.0  0.0674
  H  H386  1  0.847900  0.072100  0.259800  1.0  0.1195
  H  H387  1  0.797600  0.111600  0.437400  1.0  0.112
  H  H388  1  0.827900  0.080000  0.520300  1.0  0.0765
  H  H389  1  0.776900  0.117100  0.303000  1.0  0.068
  H  H390  1  0.808000  0.139700  0.289200  1.0  0.0846
  H  H391  1  0.225300  0.126600  0.098500  1.0  0.1202
  H  H392  1  0.204000  0.145800  0.212600  1.0  0.0861
  H  H393  1  0.213900  0.198600  0.255300  1.0  0.1137
  H  H394  1  0.245900  0.233400  0.179100  1.0  0.0927
  H  H395  1  0.332200  0.276000  0.844700  1.0  0.0992
  H  H396  1  0.324100  0.252500  0.773200  1.0  0.1026
  H  H397  1  0.380200  0.258900  0.776900  1.0  0.0933
  H  H398  1  0.372500  0.222000  0.801500  1.0  0.0845
  H  H399  1  0.384500  0.272900  0.911900  1.0  0.0664
  H  H400  1  0.379700  0.235100  0.932800  1.0  0.0792
  H  H401  1  0.429000  0.222300  0.868500  1.0  0.0719
  H  H402  1  0.433600  0.259900  0.845600  1.0  0.0781
  H  H403  1  0.448800  0.274000  0.963300  1.0  0.1194
  H  H404  1  0.462900  0.237500  0.960100  1.0  0.1044
  H  H405  1  0.429000  0.244700  0.003200  1.0  0.0937
  H  H406  1  0.382200  0.308200  0.105800  1.0  0.1106
  H  H407  1  0.420100  0.349800  0.085100  1.0  0.0982
  H  H408  1  0.412400  0.388000  0.987000  1.0  0.1122
  H  H409  1  0.367200  0.383800  0.908500  1.0  0.0848
  H  H410  1  0.202800  0.288900  0.835300  1.0  0.0979
  H  H411  1  0.212200  0.324800  0.805300  1.0  0.0975
  H  H412  1  0.162700  0.323500  0.882600  1.0  0.08
  H  H413  1  0.184600  0.313400  0.955500  1.0  0.0749
  H  H414  1  0.191500  0.374000  0.874200  1.0  0.0665
  H  H415  1  0.213000  0.363800  0.947600  1.0  0.0682
  H  H416  1  0.143500  0.374700  0.953500  1.0  0.0745
  H  H417  1  0.165300  0.364900  0.027100  1.0  0.0753
  H  H418  1  0.196300  0.415800  0.002100  1.0  0.1055
  H  H419  1  0.160400  0.420600  0.037000  1.0  0.113
  H  H420  1  0.166600  0.425900  0.946600  1.0  0.1087
  H  H421  1  0.225400  0.293200  0.096000  1.0  0.0748
  H  H422  1  0.191600  0.328400  0.163900  1.0  0.1275
  H  H423  1  0.261300  0.396600  0.147600  1.0  0.0851
  H  H424  1  0.293100  0.360800  0.078000  1.0  0.0985
  H  H425  1  0.209000  0.412900  0.201200  1.0  0.0708
  H  H426  1  0.178600  0.389100  0.186800  1.0  0.0684
  H  H427  1  0.260400  0.046500  0.635900  1.0  0.1064
  H  H428  1  0.301700  0.013400  0.683600  1.0  0.0993
  H  H429  1  0.333900  0.030700  0.786900  1.0  0.1101
  H  H430  1  0.323700  0.080300  0.844700  1.0  0.0895
  H  H431  1  0.231000  0.224100  0.902500  1.0  0.0917
  H  H432  1  0.204200  0.232200  0.837700  1.0  0.1036
  H  H433  1  0.164600  0.198200  0.902600  1.0  0.0958
  H  H434  1  0.191300  0.187000  0.964500  1.0  0.1125
  H  H435  1  0.162200  0.252800  0.958200  1.0  0.0773
  H  H436  1  0.192500  0.245000  0.014000  1.0  0.0841
  H  H437  1  0.131900  0.216200  0.020600  1.0  0.1342
  H  H438  1  0.162600  0.208400  0.077300  1.0  0.1467
  H  H439  1  0.169400  0.272300  0.086500  1.0  0.1075
  H  H440  1  0.133100  0.274600  0.053000  1.0  0.0851
  H  H441  1  0.139400  0.258600  0.136100  1.0  0.1103
  H  H442  1  0.123200  0.458400  0.348400  1.0  0.0671
  H  H443  1  0.152100  0.427900  0.259800  1.0  0.1196
  H  H444  1  0.202400  0.388400  0.437400  1.0  0.1123
  H  H445  1  0.172100  0.420000  0.520300  1.0  0.0767
  H  H446  1  0.223100  0.382900  0.303000  1.0  0.0689
  H  H447  1  0.192000  0.360300  0.289200  1.0  0.0813
  H  H448  1  0.725300  0.626600  0.598500  1.0  0.1202
  H  H449  1  0.704000  0.645800  0.712600  1.0  0.0861
  H  H450  1  0.713900  0.698600  0.755300  1.0  0.1137
  H  H451  1  0.745900  0.733400  0.679100  1.0  0.0927
  H  H452  1  0.832200  0.776000  0.344700  1.0  0.0992
  H  H453  1  0.824100  0.752500  0.273200  1.0  0.1026
  H  H454  1  0.880200  0.758900  0.276900  1.0  0.0933
  H  H455  1  0.872500  0.722000  0.301500  1.0  0.0845
  H  H456  1  0.884500  0.772900  0.411900  1.0  0.0664
  H  H457  1  0.879700  0.735100  0.432800  1.0  0.0792
  H  H458  1  0.929000  0.722300  0.368500  1.0  0.0719
  H  H459  1  0.933600  0.759900  0.345600  1.0  0.0781
  H  H460  1  0.948800  0.774000  0.463300  1.0  0.1194
  H  H461  1  0.962900  0.737500  0.460100  1.0  0.1044
  H  H462  1  0.929000  0.744700  0.503200  1.0  0.0937
  H  H463  1  0.882200  0.808200  0.605800  1.0  0.1106
  H  H464  1  0.920100  0.849800  0.585100  1.0  0.0982
  H  H465  1  0.912400  0.888000  0.487000  1.0  0.1122
  H  H466  1  0.867200  0.883800  0.408500  1.0  0.0848
  H  H467  1  0.702800  0.788900  0.335300  1.0  0.0979
  H  H468  1  0.712200  0.824800  0.305300  1.0  0.0975
  H  H469  1  0.662700  0.823500  0.382600  1.0  0.08
  H  H470  1  0.684600  0.813400  0.455500  1.0  0.0749
  H  H471  1  0.691500  0.874000  0.374200  1.0  0.0664
  H  H472  1  0.713000  0.863800  0.447600  1.0  0.0682
  H  H473  1  0.643500  0.874700  0.453500  1.0  0.0744
  H  H474  1  0.665300  0.864900  0.527100  1.0  0.0753
  H  H475  1  0.696300  0.915800  0.502100  1.0  0.1055
  H  H476  1  0.660400  0.920600  0.537000  1.0  0.1123
  H  H477  1  0.666667  0.925900  0.446600  1.0  0.108
  H  H478  1  0.725400  0.793200  0.596000  1.0  0.0748
  H  H479  1  0.691600  0.828400  0.663900  1.0  0.1275
  H  H480  1  0.761300  0.896600  0.647600  1.0  0.0851
  H  H481  1  0.793100  0.860800  0.578000  1.0  0.0985
  H  H482  1  0.709000  0.912900  0.701200  1.0  0.0708
  H  H483  1  0.678600  0.889100  0.686800  1.0  0.0684
  H  H484  1  0.760400  0.546500  0.135900  1.0  0.1064
  H  H485  1  0.801700  0.513400  0.183600  1.0  0.0993
  H  H486  1  0.833900  0.530700  0.286900  1.0  0.1101
  H  H487  1  0.823700  0.580300  0.344700  1.0  0.0895
  H  H488  1  0.731000  0.724100  0.402500  1.0  0.0917
  H  H489  1  0.704200  0.732200  0.337700  1.0  0.1036
  H  H490  1  0.664600  0.698200  0.402600  1.0  0.0958
  H  H491  1  0.691300  0.687000  0.464500  1.0  0.1125
  H  H492  1  0.662200  0.752800  0.458200  1.0  0.0773
  H  H493  1  0.692500  0.745000  0.514000  1.0  0.0841
  H  H494  1  0.631900  0.716200  0.520600  1.0  0.1342
  H  H495  1  0.662600  0.708400  0.577300  1.0  0.1467
  H  H496  1  0.669400  0.772300  0.586500  1.0  0.1075
  H  H497  1  0.633100  0.774600  0.553000  1.0  0.0851
  H  H498  1  0.639400  0.758600  0.636100  1.0  0.1103
  H  H499  1  0.623200  0.958400  0.848400  1.0  0.0671
  H  H500  1  0.652100  0.927900  0.759800  1.0  0.1196
  H  H501  1  0.702400  0.888400  0.937400  1.0  0.1123
  H  H502  1  0.672100  0.920000  0.020300  1.0  0.0767
  H  H503  1  0.723100  0.882900  0.803000  1.0  0.0689
  H  H504  1  0.692000  0.860300  0.789200  1.0  0.0813
  H  H505  1  0.376600  0.524700  0.651500  1.0  0.1205
  H  H506  1  0.395800  0.546000  0.537400  1.0  0.0866
  H  H507  1  0.448600  0.536100  0.494700  1.0  0.1138
  H  H508  1  0.483400  0.504100  0.570900  1.0  0.0925
  H  H509  1  0.526000  0.417800  0.905300  1.0  0.0993
  H  H510  1  0.502500  0.425900  0.976800  1.0  0.1015
  H  H511  1  0.508900  0.369800  0.973100  1.0  0.0928
  H  H512  1  0.472000  0.377500  0.948500  1.0  0.0804
  H  H513  1  0.522900  0.365500  0.838100  1.0  0.0596
  H  H514  1  0.485100  0.370300  0.817200  1.0  0.0808
  H  H515  1  0.472300  0.321000  0.881500  1.0  0.0708
  H  H516  1  0.509900  0.316400  0.904400  1.0  0.0765
  H  H517  1  0.524000  0.301200  0.786700  1.0  0.1177
  H  H518  1  0.487500  0.287100  0.789900  1.0  0.1093
  H  H519  1  0.494700  0.321000  0.746800  1.0  0.0942
  H  H520  1  0.558200  0.367800  0.644200  1.0  0.1086
  H  H521  1  0.599800  0.329900  0.664900  1.0  0.0972
  H  H522  1  0.638000  0.337600  0.763000  1.0  0.1119
  H  H523  1  0.633800  0.382800  0.841500  1.0  0.0854
  H  H524  1  0.538900  0.547200  0.914700  1.0  0.098
  H  H525  1  0.574800  0.537800  0.944700  1.0  0.098
  H  H526  1  0.573500  0.587300  0.867400  1.0  0.0783
  H  H527  1  0.563400  0.565400  0.794500  1.0  0.0752
  H  H528  1  0.624000  0.558500  0.875800  1.0  0.067
  H  H529  1  0.613800  0.537000  0.802400  1.0  0.0679
  H  H530  1  0.624700  0.606500  0.796500  1.0  0.0753
  H  H531  1  0.614900  0.584700  0.722900  1.0  0.0758
  H  H532  1  0.665800  0.553700  0.747900  1.0  0.1098
  H  H533  1  0.670600  0.589600  0.713000  1.0  0.1128
  H  H534  1  0.675900  0.583400  0.803400  1.0  0.1091
  H  H535  1  0.543200  0.524600  0.654000  1.0  0.0737
  H  H536  1  0.578400  0.558400  0.586100  1.0  0.1282
  H  H537  1  0.646600  0.488700  0.602400  1.0  0.0851
  H  H538  1  0.610800  0.456900  0.672000  1.0  0.0982
  H  H539  1  0.662900  0.541000  0.548800  1.0  0.0687
  H  H540  1  0.639100  0.571400  0.563200  1.0  0.0685
  H  H541  1  0.296500  0.489600  0.114100  1.0  0.1061
  H  H542  1  0.263400  0.448300  0.066400  1.0  0.1005
  H  H543  1  0.280700  0.416100  0.963100  1.0  0.1104
  H  H544  1  0.330300  0.426300  0.905300  1.0  0.0875
  H  H545  1  0.474100  0.519000  0.847500  1.0  0.0927
  H  H546  1  0.482200  0.545800  0.912300  1.0  0.1045
  H  H547  1  0.448200  0.585400  0.847400  1.0  0.0953
  H  H548  1  0.437000  0.558700  0.785500  1.0  0.1116
  H  H549  1  0.502800  0.587800  0.791800  1.0  0.0763
  H  H550  1  0.495000  0.557500  0.736000  1.0  0.078
  H  H551  1  0.466200  0.618100  0.729400  1.0  0.1321
  H  H552  1  0.458400  0.587400  0.672700  1.0  0.1474
  H  H553  1  0.522300  0.580600  0.663500  1.0  0.1035
  H  H554  1  0.524600  0.616900  0.697000  1.0  0.0839
  H  H555  1  0.508600  0.610600  0.613900  1.0  0.1096
  H  H556  1  0.708400  0.626800  0.401600  1.0  0.0685
  H  H557  1  0.677900  0.597900  0.490200  1.0  0.1198
  H  H558  1  0.638400  0.547600  0.312600  1.0  0.112
  H  H559  1  0.670000  0.577900  0.229700  1.0  0.0773
  H  H560  1  0.632900  0.526900  0.447000  1.0  0.0682
  H  H561  1  0.610300  0.558000  0.460800  1.0  0.0867
  H  H562  1  0.876600  0.024700  0.151500  1.0  0.1205
  H  H563  1  0.895800  0.046000  0.037400  1.0  0.0866
  H  H564  1  0.948600  0.036100  0.994700  1.0  0.1138
  H  H565  1  0.983400  0.004100  0.070900  1.0  0.0925
  H  H566  1  0.026000  0.917800  0.405300  1.0  0.0993
  H  H567  1  0.002500  0.925900  0.476800  1.0  0.1015
  H  H568  1  0.008900  0.869800  0.473100  1.0  0.0928
  H  H569  1  0.972000  0.877500  0.448500  1.0  0.0804
  H  H570  1  0.022900  0.865500  0.338100  1.0  0.0596
  H  H571  1  0.985100  0.870300  0.317200  1.0  0.0808
  H  H572  1  0.972300  0.821000  0.381500  1.0  0.0708
  H  H573  1  0.009900  0.816400  0.404400  1.0  0.0765
  H  H574  1  0.024000  0.801200  0.286700  1.0  0.1177
  H  H575  1  0.987500  0.787100  0.289900  1.0  0.1093
  H  H576  1  0.994700  0.821000  0.246800  1.0  0.0942
  H  H577  1  0.058200  0.867800  0.144200  1.0  0.1086
  H  H578  1  0.099800  0.829900  0.164900  1.0  0.0972
  H  H579  1  0.138000  0.837600  0.263000  1.0  0.1119
  H  H580  1  0.133800  0.882800  0.341500  1.0  0.0854
  H  H581  1  0.038900  0.047200  0.414700  1.0  0.098
  H  H582  1  0.074800  0.037800  0.444700  1.0  0.098
  H  H583  1  0.073500  0.087300  0.367400  1.0  0.0783
  H  H584  1  0.063400  0.065400  0.294500  1.0  0.0752
  H  H585  1  0.124000  0.058500  0.375800  1.0  0.067
  H  H586  1  0.113800  0.037000  0.302400  1.0  0.0679
  H  H587  1  0.124700  0.106500  0.296500  1.0  0.0753
  H  H588  1  0.114900  0.084700  0.222900  1.0  0.0758
  H  H589  1  0.165800  0.053700  0.247900  1.0  0.1098
  H  H590  1  0.170600  0.089600  0.213000  1.0  0.1128
  H  H591  1  0.175900  0.083400  0.303400  1.0  0.1091
  H  H592  1  0.043200  0.024600  0.154000  1.0  0.0737
  H  H593  1  0.078400  0.058400  0.086100  1.0  0.1282
  H  H594  1  0.146600  0.988700  0.102400  1.0  0.0851
  H  H595  1  0.110800  0.956900  0.172000  1.0  0.0982
  H  H596  1  0.162900  0.041000  0.048800  1.0  0.0687
  H  H597  1  0.139100  0.071400  0.063200  1.0  0.0685
  H  H598  1  0.796500  0.989600  0.614100  1.0  0.1061
  H  H599  1  0.763400  0.948300  0.566400  1.0  0.1005
  H  H600  1  0.780700  0.916100  0.463100  1.0  0.1104
  H  H601  1  0.830300  0.926300  0.405300  1.0  0.0875
  H  H602  1  0.974100  0.019000  0.347500  1.0  0.0927
  H  H603  1  0.982200  0.045800  0.412300  1.0  0.1045
  H  H604  1  0.948200  0.085400  0.347400  1.0  0.0953
  H  H605  1  0.937000  0.058700  0.285500  1.0  0.1116
  H  H606  1  0.002800  0.087800  0.291800  1.0  0.0763
  H  H607  1  0.995000  0.057500  0.236000  1.0  0.078
  H  H608  1  0.966200  0.118100  0.229400  1.0  0.1321
  H  H609  1  0.958400  0.087400  0.172700  1.0  0.1474
  H  H610  1  0.022300  0.080600  0.163500  1.0  0.1035
  H  H611  1  0.024600  0.116900  0.197000  1.0  0.0839
  H  H612  1  0.008600  0.110600  0.113900  1.0  0.1096
  H  H613  1  0.208400  0.126800  0.901600  1.0  0.0685
  H  H614  1  0.177900  0.097900  0.990200  1.0  0.1198
  H  H615  1  0.138400  0.047600  0.812600  1.0  0.112
  H  H616  1  0.170000  0.077900  0.729700  1.0  0.0773
  H  H617  1  0.132900  0.026900  0.947000  1.0  0.0682
  H  H618  1  0.110300  0.058000  0.960800  1.0  0.0867
  H  H619  1  0.123400  0.475300  0.151500  1.0  0.1207
  H  H620  1  0.104200  0.454000  0.037400  1.0  0.0866
  H  H621  1  0.051400  0.463900  0.994700  1.0  0.1143
  H  H622  1  0.016600  0.495900  0.070900  1.0  0.0923
  H  H623  1  0.974000  0.582200  0.405300  1.0  0.0998
  H  H624  1  0.997500  0.574100  0.476800  1.0  0.102
  H  H625  1  0.991100  0.630200  0.473100  1.0  0.0924
  H  H626  1  0.028000  0.622500  0.448500  1.0  0.0792
  H  H627  1  0.977100  0.634500  0.338100  1.0  0.065
  H  H628  1  0.014900  0.629700  0.317200  1.0  0.0809
  H  H629  1  0.027700  0.679000  0.381500  1.0  0.0732
  H  H630  1  0.990100  0.683600  0.404400  1.0  0.0756
  H  H631  1  0.976000  0.698800  0.286700  1.0  0.1171
  H  H632  1  0.012500  0.712900  0.289900  1.0  0.1111
  H  H633  1  0.005300  0.679000  0.246800  1.0  0.0949
  H  H634  1  0.941800  0.632200  0.144200  1.0  0.1093
  H  H635  1  0.900200  0.670100  0.164900  1.0  0.0978
  H  H636  1  0.862000  0.662400  0.263000  1.0  0.1121
  H  H637  1  0.866200  0.617200  0.341500  1.0  0.0854
  H  H638  1  0.961100  0.452800  0.414700  1.0  0.099
  H  H639  1  0.925200  0.462200  0.444700  1.0  0.0977
  H  H640  1  0.926500  0.412700  0.367400  1.0  0.0802
  H  H641  1  0.936600  0.434600  0.294500  1.0  0.0754
  H  H642  1  0.876000  0.441500  0.375800  1.0  0.0673
  H  H643  1  0.886200  0.463000  0.302400  1.0  0.0664
  H  H644  1  0.875300  0.393500  0.296500  1.0  0.074
  H  H645  1  0.885100  0.415300  0.222900  1.0  0.0747
  H  H646  1  0.834200  0.446300  0.247900  1.0  0.1116
  H  H647  1  0.829400  0.410400  0.213000  1.0  0.1128
  H  H648  1  0.824100  0.416600  0.303400  1.0  0.1088
  H  H649  1  0.956800  0.475400  0.154000  1.0  0.0738
  H  H650  1  0.921600  0.441600  0.086100  1.0  0.1277
  H  H651  1  0.853400  0.511300  0.102400  1.0  0.0849
  H  H652  1  0.889200  0.543100  0.172000  1.0  0.0983
  H  H653  1  0.837100  0.459000  0.048800  1.0  0.0669
  H  H654  1  0.860900  0.428600  0.063200  1.0  0.0663
  H  H655  1  0.203500  0.510400  0.614100  1.0  0.1054
  H  H656  1  0.236600  0.551700  0.566400  1.0  0.0996
  H  H657  1  0.219300  0.583900  0.463100  1.0  0.1103
  H  H658  1  0.169700  0.573700  0.405300  1.0  0.0876
  H  H659  1  0.025900  0.481000  0.347500  1.0  0.0922
  H  H660  1  0.017800  0.454200  0.412300  1.0  0.1039
  H  H661  1  0.051800  0.414600  0.347400  1.0  0.096
  H  H662  1  0.063000  0.441300  0.285500  1.0  0.11
  H  H663  1  0.997200  0.412200  0.291800  1.0  0.0766
  H  H664  1  0.005000  0.442500  0.236000  1.0  0.0828
  H  H665  1  0.033800  0.381900  0.229400  1.0  0.1298
  H  H666  1  0.041600  0.412600  0.172700  1.0  0.1468
  H  H667  1  0.977700  0.419400  0.163500  1.0  0.1036
  H  H668  1  0.975400  0.383100  0.197000  1.0  0.0827
  H  H669  1  0.991400  0.389400  0.113900  1.0  0.1094
  H  H670  1  0.791600  0.373200  0.901600  1.0  0.0681
  H  H671  1  0.822100  0.402100  0.990200  1.0  0.1199
  H  H672  1  0.861600  0.452400  0.812600  1.0  0.1121
  H  H673  1  0.830000  0.422100  0.729700  1.0  0.0776
  H  H674  1  0.867100  0.473100  0.947000  1.0  0.069
  H  H675  1  0.889700  0.442000  0.960800  1.0  0.0871
  H  H676  1  0.623400  0.975300  0.651500  1.0  0.1207
  H  H677  1  0.604200  0.954000  0.537400  1.0  0.0866
  H  H678  1  0.551400  0.963900  0.494700  1.0  0.1143
  H  H679  1  0.516600  0.995900  0.570900  1.0  0.0923
  H  H680  1  0.474000  0.082200  0.905300  1.0  0.0998
  H  H681  1  0.497500  0.074100  0.976800  1.0  0.102
  H  H682  1  0.491100  0.130200  0.973100  1.0  0.0924
  H  H683  1  0.528000  0.122500  0.948500  1.0  0.0792
  H  H684  1  0.477100  0.134500  0.838100  1.0  0.065
  H  H685  1  0.514900  0.129700  0.817200  1.0  0.0809
  H  H686  1  0.527700  0.179000  0.881500  1.0  0.0732
  H  H687  1  0.490100  0.183600  0.904400  1.0  0.0756
  H  H688  1  0.476000  0.198800  0.786700  1.0  0.1171
  H  H689  1  0.512500  0.212900  0.789900  1.0  0.1111
  H  H690  1  0.505300  0.179000  0.746800  1.0  0.0949
  H  H691  1  0.441800  0.132200  0.644200  1.0  0.1093
  H  H692  1  0.400200  0.170100  0.664900  1.0  0.0978
  H  H693  1  0.362000  0.162400  0.763000  1.0  0.1121
  H  H694  1  0.366200  0.117200  0.841500  1.0  0.0854
  H  H695  1  0.461100  0.952800  0.914700  1.0  0.099
  H  H696  1  0.425200  0.962200  0.944700  1.0  0.0977
  H  H697  1  0.426500  0.912700  0.867400  1.0  0.0802
  H  H698  1  0.436600  0.934600  0.794500  1.0  0.0754
  H  H699  1  0.376000  0.941500  0.875800  1.0  0.0673
  H  H700  1  0.386200  0.963000  0.802400  1.0  0.0664
  H  H701  1  0.375300  0.893500  0.796500  1.0  0.074
  H  H702  1  0.385100  0.915300  0.722900  1.0  0.0747
  H  H703  1  0.334200  0.946300  0.747900  1.0  0.1116
  H  H704  1  0.329400  0.910400  0.713000  1.0  0.1128
  H  H705  1  0.324100  0.916600  0.803400  1.0  0.1088
  H  H706  1  0.456800  0.975400  0.654000  1.0  0.0738
  H  H707  1  0.421600  0.941600  0.586100  1.0  0.1277
  H  H708  1  0.353400  0.011300  0.602400  1.0  0.0849
  H  H709  1  0.389200  0.043100  0.672000  1.0  0.0983
  H  H710  1  0.337100  0.959000  0.548800  1.0  0.0669
  H  H711  1  0.360900  0.928600  0.563200  1.0  0.0663
  H  H712  1  0.703500  0.010400  0.114100  1.0  0.1054
  H  H713  1  0.736600  0.051700  0.066400  1.0  0.0996
  H  H714  1  0.719300  0.083900  0.963100  1.0  0.1103
  H  H715  1  0.669700  0.073700  0.905300  1.0  0.0876
  H  H716  1  0.525900  0.981000  0.847500  1.0  0.0922
  H  H717  1  0.517800  0.954200  0.912300  1.0  0.1039
  H  H718  1  0.551800  0.914600  0.847400  1.0  0.096
  H  H719  1  0.563000  0.941300  0.785500  1.0  0.11
  H  H720  1  0.497200  0.912200  0.791800  1.0  0.0766
  H  H721  1  0.505000  0.942500  0.736000  1.0  0.0828
  H  H722  1  0.533800  0.881900  0.729400  1.0  0.1298
  H  H723  1  0.541600  0.912600  0.672700  1.0  0.1468
  H  H724  1  0.477700  0.919400  0.663500  1.0  0.1036
  H  H725  1  0.475400  0.883100  0.697000  1.0  0.0827
  H  H726  1  0.491400  0.889400  0.613900  1.0  0.1094
  H  H727  1  0.291600  0.873200  0.401600  1.0  0.0681
  H  H728  1  0.322100  0.902100  0.490200  1.0  0.1199
  H  H729  1  0.361600  0.952400  0.312600  1.0  0.1121
  H  H730  1  0.330000  0.922100  0.229700  1.0  0.0776
  H  H731  1  0.367100  0.973100  0.447000  1.0  0.069
  H  H732  1  0.389700  0.942000  0.460800  1.0  0.0871
  H  H733  1  0.725300  0.126600  0.401500  1.0  0.1207
  H  H734  1  0.704000  0.145800  0.287400  1.0  0.0857
  H  H735  1  0.713900  0.198600  0.244700  1.0  0.1137
  H  H736  1  0.745900  0.233400  0.320900  1.0  0.0925
  H  H737  1  0.832200  0.276000  0.655300  1.0  0.0996
  H  H738  1  0.824100  0.252500  0.726800  1.0  0.1022
  H  H739  1  0.880200  0.258900  0.723100  1.0  0.093
  H  H740  1  0.872500  0.222000  0.698500  1.0  0.0845
  H  H741  1  0.884500  0.272900  0.588100  1.0  0.0664
  H  H742  1  0.879700  0.235100  0.567200  1.0  0.0793
  H  H743  1  0.929000  0.222300  0.631500  1.0  0.0734
  H  H744  1  0.933600  0.259900  0.654400  1.0  0.0764
  H  H745  1  0.948800  0.274000  0.536700  1.0  0.1199
  H  H746  1  0.962900  0.237500  0.539900  1.0  0.1051
  H  H747  1  0.929000  0.244700  0.496800  1.0  0.0928
  H  H748  1  0.882200  0.308200  0.394200  1.0  0.1091
  H  H749  1  0.920100  0.349800  0.414900  1.0  0.0983
  H  H750  1  0.912400  0.388000  0.513000  1.0  0.1124
  H  H751  1  0.867200  0.383800  0.591500  1.0  0.0851
  H  H752  1  0.702800  0.288900  0.664700  1.0  0.0975
  H  H753  1  0.712200  0.324800  0.694700  1.0  0.0972
  H  H754  1  0.662700  0.323500  0.617400  1.0  0.0803
  H  H755  1  0.684600  0.313400  0.544500  1.0  0.0764
  H  H756  1  0.691500  0.374000  0.625800  1.0  0.0667
  H  H757  1  0.713000  0.363800  0.552400  1.0  0.0679
  H  H758  1  0.643500  0.374700  0.546500  1.0  0.074
  H  H759  1  0.665300  0.364900  0.472900  1.0  0.0759
  H  H760  1  0.696300  0.415800  0.497900  1.0  0.1052
  H  H761  1  0.660400  0.420600  0.463000  1.0  0.1118
  H  H762  1  0.666667  0.425900  0.553400  1.0  0.1079
  H  H763  1  0.725400  0.293200  0.404000  1.0  0.0745
  H  H764  1  0.691600  0.328400  0.336100  1.0  0.1274
  H  H765  1  0.761300  0.396600  0.352400  1.0  0.0851
  H  H766  1  0.793100  0.360800  0.422000  1.0  0.0974
  H  H767  1  0.709000  0.412900  0.298800  1.0  0.0707
  H  H768  1  0.678600  0.389100  0.313200  1.0  0.0679
  H  H769  1  0.760400  0.046500  0.864100  1.0  0.1067
  H  H770  1  0.801700  0.013400  0.816400  1.0  0.1004
  H  H771  1  0.833900  0.030700  0.713100  1.0  0.1095
  H  H772  1  0.823700  0.080300  0.655300  1.0  0.0879
  H  H773  1  0.731000  0.224100  0.597500  1.0  0.092
  H  H774  1  0.704200  0.232200  0.662300  1.0  0.1043
  H  H775  1  0.664600  0.198200  0.597400  1.0  0.0966
  H  H776  1  0.691300  0.187000  0.535500  1.0  0.1117
  H  H777  1  0.662200  0.252800  0.541800  1.0  0.0774
  H  H778  1  0.692500  0.245000  0.486000  1.0  0.0838
  H  H779  1  0.631900  0.216200  0.479400  1.0  0.1343
  H  H780  1  0.662600  0.208400  0.422700  1.0  0.1455
  H  H781  1  0.669400  0.272300  0.413500  1.0  0.1084
  H  H782  1  0.633100  0.274600  0.447000  1.0  0.0847
  H  H783  1  0.639400  0.258600  0.363900  1.0  0.109
  H  H784  1  0.623200  0.458400  0.151600  1.0  0.0671
  H  H785  1  0.652100  0.427900  0.240200  1.0  0.1198
  H  H786  1  0.702400  0.388400  0.062600  1.0  0.1123
  H  H787  1  0.672100  0.420000  0.979700  1.0  0.0771
  H  H788  1  0.723100  0.382900  0.197000  1.0  0.0695
  H  H789  1  0.692000  0.360300  0.210800  1.0  0.0813
  H  H790  1  0.225300  0.626600  0.901500  1.0  0.1207
  H  H791  1  0.204000  0.645800  0.787400  1.0  0.0857
  H  H792  1  0.213900  0.698600  0.744700  1.0  0.1137
  H  H793  1  0.245900  0.733400  0.820900  1.0  0.0925
  H  H794  1  0.332200  0.776000  0.155300  1.0  0.0996
  H  H795  1  0.324100  0.752500  0.226800  1.0  0.1022
  H  H796  1  0.380200  0.758900  0.223100  1.0  0.093
  H  H797  1  0.372500  0.722000  0.198500  1.0  0.0845
  H  H798  1  0.384500  0.772900  0.088100  1.0  0.0664
  H  H799  1  0.379700  0.735100  0.067200  1.0  0.0793
  H  H800  1  0.429000  0.722300  0.131500  1.0  0.0734
  H  H801  1  0.433600  0.759900  0.154400  1.0  0.0764
  H  H802  1  0.448800  0.774000  0.036700  1.0  0.1199
  H  H803  1  0.462900  0.737500  0.039900  1.0  0.1051
  H  H804  1  0.429000  0.744700  0.996800  1.0  0.0928
  H  H805  1  0.382200  0.808200  0.894200  1.0  0.1091
  H  H806  1  0.420100  0.849800  0.914900  1.0  0.0983
  H  H807  1  0.412400  0.888000  0.013000  1.0  0.1124
  H  H808  1  0.367200  0.883800  0.091500  1.0  0.0851
  H  H809  1  0.202800  0.788900  0.164700  1.0  0.0975
  H  H810  1  0.212200  0.824800  0.194700  1.0  0.0972
  H  H811  1  0.162700  0.823500  0.117400  1.0  0.0803
  H  H812  1  0.184600  0.813400  0.044500  1.0  0.0764
  H  H813  1  0.191500  0.874000  0.125800  1.0  0.0667
  H  H814  1  0.213000  0.863800  0.052400  1.0  0.0679
  H  H815  1  0.143500  0.874700  0.046500  1.0  0.0741
  H  H816  1  0.165300  0.864900  0.972900  1.0  0.0759
  H  H817  1  0.196300  0.915800  0.997900  1.0  0.1053
  H  H818  1  0.160400  0.920600  0.963000  1.0  0.1126
  H  H819  1  0.166600  0.925900  0.053400  1.0  0.1085
  H  H820  1  0.225400  0.793200  0.904000  1.0  0.0745
  H  H821  1  0.191600  0.828400  0.836100  1.0  0.1274
  H  H822  1  0.261300  0.896600  0.852400  1.0  0.0851
  H  H823  1  0.293100  0.860800  0.922000  1.0  0.0974
  H  H824  1  0.209000  0.912900  0.798800  1.0  0.0707
  H  H825  1  0.178600  0.889100  0.813200  1.0  0.0679
  H  H826  1  0.260400  0.546500  0.364100  1.0  0.1067
  H  H827  1  0.301700  0.513400  0.316400  1.0  0.1004
  H  H828  1  0.333900  0.530700  0.213100  1.0  0.1095
  H  H829  1  0.323700  0.580300  0.155300  1.0  0.0879
  H  H830  1  0.231000  0.724100  0.097500  1.0  0.092
  H  H831  1  0.204200  0.732200  0.162300  1.0  0.1043
  H  H832  1  0.164600  0.698200  0.097400  1.0  0.0966
  H  H833  1  0.191300  0.687000  0.035500  1.0  0.1117
  H  H834  1  0.162200  0.752800  0.041800  1.0  0.0774
  H  H835  1  0.192500  0.745000  0.986000  1.0  0.0838
  H  H836  1  0.131900  0.716200  0.979400  1.0  0.1343
  H  H837  1  0.162600  0.708400  0.922700  1.0  0.1455
  H  H838  1  0.169400  0.772300  0.913500  1.0  0.1084
  H  H839  1  0.133100  0.774600  0.947000  1.0  0.0847
  H  H840  1  0.139400  0.758600  0.863900  1.0  0.109
  H  H841  1  0.123200  0.958400  0.651600  1.0  0.0671
  H  H842  1  0.152100  0.927900  0.740200  1.0  0.1198
  H  H843  1  0.202400  0.888400  0.562600  1.0  0.1123
  H  H844  1  0.172100  0.920000  0.479700  1.0  0.0771
  H  H845  1  0.223100  0.882900  0.697000  1.0  0.0695
  H  H846  1  0.192000  0.860300  0.710800  1.0  0.0813
  H  H847  1  0.774700  0.873400  0.901500  1.0  0.1201
  H  H848  1  0.796000  0.854200  0.787400  1.0  0.0864
  H  H849  1  0.786100  0.801400  0.744700  1.0  0.1134
  H  H850  1  0.754100  0.766600  0.820900  1.0  0.0927
  H  H851  1  0.667800  0.724000  0.155300  1.0  0.0993
  H  H852  1  0.675900  0.747500  0.226800  1.0  0.1033
  H  H853  1  0.619800  0.741100  0.223100  1.0  0.0939
  H  H854  1  0.627500  0.778000  0.198500  1.0  0.0865
  H  H855  1  0.615500  0.727100  0.088100  1.0  0.0652
  H  H856  1  0.620300  0.764900  0.067200  1.0  0.0801
  H  H857  1  0.571000  0.777700  0.131500  1.0  0.074
  H  H858  1  0.566400  0.740100  0.154400  1.0  0.076
  H  H859  1  0.551200  0.726000  0.036700  1.0  0.1189
  H  H860  1  0.537100  0.762500  0.039900  1.0  0.1069
  H  H861  1  0.571000  0.755300  0.996800  1.0  0.0938
  H  H862  1  0.617800  0.691800  0.894200  1.0  0.1094
  H  H863  1  0.579900  0.650200  0.914900  1.0  0.0979
  H  H864  1  0.587600  0.612000  0.013000  1.0  0.1125
  H  H865  1  0.632800  0.616200  0.091500  1.0  0.0855
  H  H866  1  0.797200  0.711100  0.164700  1.0  0.097
  H  H867  1  0.787800  0.675200  0.194700  1.0  0.0972
  H  H868  1  0.837300  0.676500  0.117400  1.0  0.0819
  H  H869  1  0.815400  0.686600  0.044500  1.0  0.0764
  H  H870  1  0.808500  0.626000  0.125800  1.0  0.0672
  H  H871  1  0.787000  0.636200  0.052400  1.0  0.0682
  H  H872  1  0.856500  0.625300  0.046500  1.0  0.0734
  H  H873  1  0.834700  0.635100  0.972900  1.0  0.0764
  H  H874  1  0.803700  0.584200  0.997900  1.0  0.1036
  H  H875  1  0.839600  0.579400  0.963000  1.0  0.113
  H  H876  1  0.833400  0.574100  0.053400  1.0  0.1093
  H  H877  1  0.774600  0.706800  0.904000  1.0  0.0745
  H  H878  1  0.808400  0.671600  0.836100  1.0  0.1278
  H  H879  1  0.738700  0.603400  0.852400  1.0  0.0851
  H  H880  1  0.706900  0.639200  0.922000  1.0  0.0979
  H  H881  1  0.791000  0.587100  0.798800  1.0  0.068
  H  H882  1  0.821400  0.610900  0.813200  1.0  0.0687
  H  H883  1  0.739600  0.953500  0.364100  1.0  0.1059
  H  H884  1  0.698300  0.986600  0.316400  1.0  0.1001
  H  H885  1  0.666100  0.969300  0.213100  1.0  0.11
  H  H886  1  0.676300  0.919700  0.155300  1.0  0.0885
  H  H887  1  0.769000  0.775900  0.097500  1.0  0.0913
  H  H888  1  0.795800  0.767800  0.162300  1.0  0.1046
  H  H889  1  0.835400  0.801800  0.097400  1.0  0.0958
  H  H890  1  0.808700  0.813000  0.035500  1.0  0.1113
  H  H891  1  0.837800  0.747200  0.041800  1.0  0.0771
  H  H892  1  0.807500  0.755000  0.986000  1.0  0.0852
  H  H893  1  0.868100  0.783800  0.979400  1.0  0.1404
  H  H894  1  0.837400  0.791600  0.922700  1.0  0.1452
  H  H895  1  0.830600  0.727700  0.913500  1.0  0.1039
  H  H896  1  0.866900  0.725400  0.947000  1.0  0.0851
  H  H897  1  0.860600  0.741400  0.863900  1.0  0.1108
  H  H898  1  0.876800  0.541600  0.651600  1.0  0.0674
  H  H899  1  0.847900  0.572100  0.740200  1.0  0.1198
  H  H900  1  0.797600  0.611600  0.562600  1.0  0.1122
  H  H901  1  0.827900  0.580000  0.479700  1.0  0.0775
  H  H902  1  0.776900  0.617100  0.697000  1.0  0.0681
  H  H903  1  0.808000  0.639700  0.710800  1.0  0.0845
  H  H904  1  0.274700  0.373400  0.401500  1.0  0.1201
  H  H905  1  0.296000  0.354200  0.287400  1.0  0.0864
  H  H906  1  0.286100  0.301400  0.244700  1.0  0.1134
  H  H907  1  0.254100  0.266600  0.320900  1.0  0.0927
  H  H908  1  0.167800  0.224000  0.655300  1.0  0.0993
  H  H909  1  0.175900  0.247500  0.726800  1.0  0.1033
  H  H910  1  0.119800  0.241100  0.723100  1.0  0.0939
  H  H911  1  0.127500  0.278000  0.698500  1.0  0.0865
  H  H912  1  0.115500  0.227100  0.588100  1.0  0.0652
  H  H913  1  0.120300  0.264900  0.567200  1.0  0.0801
  H  H914  1  0.071000  0.277700  0.631500  1.0  0.074
  H  H915  1  0.066400  0.240100  0.654400  1.0  0.076
  H  H916  1  0.051200  0.226000  0.536700  1.0  0.1189
  H  H917  1  0.037100  0.262500  0.539900  1.0  0.1069
  H  H918  1  0.071000  0.255300  0.496800  1.0  0.0938
  H  H919  1  0.117800  0.191800  0.394200  1.0  0.1094
  H  H920  1  0.079900  0.150200  0.414900  1.0  0.0979
  H  H921  1  0.087600  0.112000  0.513000  1.0  0.1125
  H  H922  1  0.132800  0.116200  0.591500  1.0  0.0855
  H  H923  1  0.297200  0.211100  0.664700  1.0  0.097
  H  H924  1  0.287800  0.175200  0.694700  1.0  0.0972
  H  H925  1  0.337300  0.176500  0.617400  1.0  0.0819
  H  H926  1  0.315400  0.186600  0.544500  1.0  0.0764
  H  H927  1  0.308500  0.126000  0.625800  1.0  0.0672
  H  H928  1  0.287000  0.136200  0.552400  1.0  0.0682
  H  H929  1  0.356500  0.125300  0.546500  1.0  0.0734
  H  H930  1  0.334700  0.135100  0.472900  1.0  0.0764
  H  H931  1  0.303700  0.084200  0.497900  1.0  0.1036
  H  H932  1  0.339600  0.079400  0.463000  1.0  0.113
  H  H933  1  0.333400  0.074100  0.553400  1.0  0.1093
  H  H934  1  0.274600  0.206800  0.404000  1.0  0.0745
  H  H935  1  0.308400  0.171600  0.336100  1.0  0.1278
  H  H936  1  0.238700  0.103400  0.352400  1.0  0.0851
  H  H937  1  0.206900  0.139200  0.422000  1.0  0.0979
  H  H938  1  0.291000  0.087100  0.298800  1.0  0.068
  H  H939  1  0.321400  0.110900  0.313200  1.0  0.0687
  H  H940  1  0.239600  0.453500  0.864100  1.0  0.1059
  H  H941  1  0.198300  0.486600  0.816400  1.0  0.1001
  H  H942  1  0.166100  0.469300  0.713100  1.0  0.11
  H  H943  1  0.176300  0.419700  0.655300  1.0  0.0885
  H  H944  1  0.269000  0.275900  0.597500  1.0  0.0913
  H  H945  1  0.295800  0.267800  0.662300  1.0  0.1046
  H  H946  1  0.335400  0.301800  0.597400  1.0  0.0958
  H  H947  1  0.308700  0.313000  0.535500  1.0  0.1113
  H  H948  1  0.337800  0.247200  0.541800  1.0  0.0771
  H  H949  1  0.307500  0.255000  0.486000  1.0  0.0852
  H  H950  1  0.368100  0.283800  0.479400  1.0  0.1404
  H  H951  1  0.337400  0.291600  0.422700  1.0  0.1452
  H  H952  1  0.330600  0.227700  0.413500  1.0  0.1039
  H  H953  1  0.366900  0.225400  0.447000  1.0  0.0851
  H  H954  1  0.360600  0.241400  0.363900  1.0  0.1108
  H  H955  1  0.376800  0.041600  0.151600  1.0  0.0674
  H  H956  1  0.347900  0.072100  0.240200  1.0  0.1198
  H  H957  1  0.297600  0.111600  0.062600  1.0  0.1122
  H  H958  1  0.327900  0.080000  0.979700  1.0  0.0775
  H  H959  1  0.276900  0.117100  0.197000  1.0  0.0681
  H  H960  1  0.308000  0.139700  0.210800  1.0  0.0845
  C  C961  1  0.581820  0.500880  0.319500  1.0  0.3507
  C  C962  1  0.601760  0.480220  0.364900  1.0  -0.1681
  C  C963  1  0.590130  0.467320  0.432300  1.0  -0.1036
  C  C964  1  0.558850  0.472840  0.457800  1.0  -0.1244
  C  C965  1  0.538390  0.491920  0.412200  1.0  -0.046
  C  C966  1  0.548770  0.505440  0.342500  1.0  -0.153
  C  C967  1  0.524820  0.523480  0.296000  1.0  0.5252
  C  C968  1  0.519480  0.566930  0.128300  1.0  0.5382
  C  C969  1  0.496590  0.584420  0.075000  1.0  -0.3143
  C  C970  1  0.504930  0.620240  0.067500  1.0  -0.0842
  C  C971  1  0.499670  0.638480  0.143500  1.0  -0.0936
  C  C972  1  0.505000  0.675000  0.135800  1.0  -0.1052
  C  C973  1  0.499200  0.693000  0.209400  1.0  -0.3535
  C  C974  1  0.428440  0.600230  0.269700  1.0  0.3386
  C  C975  1  0.426260  0.628600  0.315800  1.0  -0.2563
  C  C976  1  0.401550  0.651290  0.303100  1.0  -0.118
  C  C977  1  0.378980  0.646940  0.245000  1.0  -0.1252
  C  C978  1  0.381580  0.620050  0.199000  1.0  -0.0312
  C  C979  1  0.406020  0.596320  0.208900  1.0  -0.1638
  C  C980  1  0.405670  0.567720  0.156200  1.0  0.5674
  C  C981  1  0.441920  0.492880  0.140400  1.0  0.5323
  C  C982  1  0.439100  0.460150  0.102000  1.0  -0.3137
  C  C983  1  0.424260  0.434640  0.156300  1.0  -0.1007
  C  C984  1  0.388350  0.441190  0.173400  1.0  -0.1092
  C  C985  1  0.373100  0.415450  0.227300  1.0  -0.0767
  C  C986  1  0.336900  0.422800  0.242100  1.0  -0.3382
  C  C987  1  0.435150  0.482720  0.356100  1.0  0.1647
  C  C988  1  0.414300  0.462400  0.396500  1.0  -0.2193
  C  C989  1  0.382420  0.472800  0.411500  1.0  0.1257
  C  C990  1  0.374610  0.502950  0.386600  1.0  -0.173
  C  C991  1  0.396000  0.522190  0.345900  1.0  0.1297
  C  C992  1  0.359790  0.451100  0.457700  1.0  -0.1173
  C  C993  1  0.665880  0.515950  0.963300  1.0  0.3371
  C  C994  1  0.696370  0.522920  0.928900  1.0  -0.2231
  C  C995  1  0.715980  0.547650  0.956900  1.0  -0.1202
  C  C996  1  0.705900  0.566660  0.018500  1.0  -0.1303
  C  C997  1  0.676540  0.560440  0.052600  1.0  -0.0336
  C  C998  1  0.656170  0.535050  0.027200  1.0  -0.1551
  C  C999  1  0.625210  0.529620  0.068100  1.0  0.577
  C  C1000  1  0.563970  0.473140  0.077800  1.0  0.5759
  C  C1001  1  0.534910  0.462210  0.123500  1.0  -0.2968
  C  C1002  1  0.544400  0.433900  0.182300  1.0  -0.1328
  C  C1003  1  0.514600  0.422900  0.239000  1.0  -0.0766
  C  C1004  1  0.525200  0.402600  0.292400  1.0  -0.092
  C  C1005  1  0.488700  0.398200  0.333800  1.0  -0.3504
  C  C1006  1  0.306410  0.389410  0.616700  1.0  0.1765
  C  C1007  1  0.324360  0.406550  0.563400  1.0  -0.2675
  C  C1008  1  0.345930  0.430610  0.589100  1.0  0.134
  C  C1009  1  0.347490  0.436010  0.667300  1.0  -0.2138
  C  C1010  1  0.328620  0.417730  0.716400  1.0  0.1752
  C  C1011  1  0.367000  0.450300  0.534200  1.0  -0.1921
  C  C1012  1  0.081820  0.000880  0.819500  1.0  0.3507
  C  C1013  1  0.101760  0.980220  0.864900  1.0  -0.1681
  C  C1014  1  0.090130  0.967320  0.932300  1.0  -0.1036
  C  C1015  1  0.058850  0.972840  0.957800  1.0  -0.1244
  C  C1016  1  0.038390  0.991920  0.912200  1.0  -0.046
  C  C1017  1  0.048770  0.005440  0.842500  1.0  -0.153
  C  C1018  1  0.024820  0.023480  0.796000  1.0  0.5252
  C  C1019  1  0.019480  0.066930  0.628300  1.0  0.5382
  C  C1020  1  0.996590  0.084420  0.575000  1.0  -0.3143
  C  C1021  1  0.004930  0.120240  0.567500  1.0  -0.0842
  C  C1022  1  0.999670  0.138480  0.643500  1.0  -0.0936
  C  C1023  1  0.005000  0.175000  0.635800  1.0  -0.1052
  C  C1024  1  0.999200  0.193000  0.709400  1.0  -0.3535
  C  C1025  1  0.928440  0.100230  0.769700  1.0  0.3386
  C  C1026  1  0.926260  0.128600  0.815800  1.0  -0.2563
  C  C1027  1  0.901550  0.151290  0.803100  1.0  -0.118
  C  C1028  1  0.878980  0.146940  0.745000  1.0  -0.1252
  C  C1029  1  0.881580  0.120050  0.699000  1.0  -0.0312
  C  C1030  1  0.906020  0.096320  0.708900  1.0  -0.1638
  C  C1031  1  0.905670  0.067720  0.656200  1.0  0.5674
  C  C1032  1  0.941920  0.992880  0.640400  1.0  0.5323
  C  C1033  1  0.939100  0.960150  0.602000  1.0  -0.3137
  C  C1034  1  0.924260  0.934640  0.656300  1.0  -0.1007
  C  C1035  1  0.888350  0.941190  0.673400  1.0  -0.1092
  C  C1036  1  0.873100  0.915450  0.727300  1.0  -0.0767
  C  C1037  1  0.836900  0.922800  0.742100  1.0  -0.3382
  C  C1038  1  0.935150  0.982720  0.856100  1.0  0.1647
  C  C1039  1  0.914300  0.962400  0.896500  1.0  -0.2193
  C  C1040  1  0.882420  0.972800  0.911500  1.0  0.1257
  C  C1041  1  0.874610  0.002950  0.886600  1.0  -0.173
  C  C1042  1  0.896000  0.022190  0.845900  1.0  0.1297
  C  C1043  1  0.859790  0.951100  0.957700  1.0  -0.1173
  C  C1044  1  0.165880  0.015950  0.463300  1.0  0.3371
  C  C1045  1  0.196370  0.022920  0.428900  1.0  -0.2231
  C  C1046  1  0.215980  0.047650  0.456900  1.0  -0.1202
  C  C1047  1  0.205900  0.066660  0.518500  1.0  -0.1303
  C  C1048  1  0.176540  0.060440  0.552600  1.0  -0.0336
  C  C1049  1  0.156170  0.035050  0.527200  1.0  -0.1551
  C  C1050  1  0.125210  0.029620  0.568100  1.0  0.577
  C  C1051  1  0.063970  0.973140  0.577800  1.0  0.5759
  C  C1052  1  0.034910  0.962210  0.623500  1.0  -0.2968
  C  C1053  1  0.044400  0.933900  0.682300  1.0  -0.1328
  C  C1054  1  0.014600  0.922900  0.739000  1.0  -0.0766
  C  C1055  1  0.025200  0.902600  0.792400  1.0  -0.092
  C  C1056  1  0.988700  0.898200  0.833800  1.0  -0.3504
  C  C1057  1  0.806410  0.889410  0.116700  1.0  0.1765
  C  C1058  1  0.824360  0.906550  0.063400  1.0  -0.2675
  C  C1059  1  0.845930  0.930610  0.089100  1.0  0.134
  C  C1060  1  0.847490  0.936010  0.167300  1.0  -0.2138
  C  C1061  1  0.828620  0.917730  0.216400  1.0  0.1752
  C  C1062  1  0.867000  0.950300  0.034200  1.0  -0.1921
  C  C1063  1  0.918180  0.499120  0.819500  1.0  0.3513
  C  C1064  1  0.898240  0.519780  0.864900  1.0  -0.1693
  C  C1065  1  0.909870  0.532680  0.932300  1.0  -0.1014
  C  C1066  1  0.941150  0.527160  0.957800  1.0  -0.1228
  C  C1067  1  0.961610  0.508080  0.912200  1.0  -0.0458
  C  C1068  1  0.951230  0.494560  0.842500  1.0  -0.1533
  C  C1069  1  0.975180  0.476520  0.796000  1.0  0.5243
  C  C1070  1  0.980520  0.433070  0.628300  1.0  0.5387
  C  C1071  1  0.003410  0.415580  0.575000  1.0  -0.3127
  C  C1072  1  0.995070  0.379760  0.567500  1.0  -0.0836
  C  C1073  1  0.000330  0.361520  0.643500  1.0  -0.0951
  C  C1074  1  0.995000  0.325000  0.635800  1.0  -0.106
  C  C1075  1  0.000800  0.307000  0.709400  1.0  -0.3538
  C  C1076  1  0.071560  0.399770  0.769700  1.0  0.339
  C  C1077  1  0.073740  0.371400  0.815800  1.0  -0.2574
  C  C1078  1  0.098450  0.348710  0.803100  1.0  -0.1196
  C  C1079  1  0.121020  0.353060  0.745000  1.0  -0.1253
  C  C1080  1  0.118420  0.379950  0.699000  1.0  -0.0321
  C  C1081  1  0.093980  0.403680  0.708900  1.0  -0.164
  C  C1082  1  0.094330  0.432280  0.656200  1.0  0.5667
  C  C1083  1  0.058080  0.507120  0.640400  1.0  0.5305
  C  C1084  1  0.060900  0.539850  0.602000  1.0  -0.3134
  C  C1085  1  0.075740  0.565360  0.656300  1.0  -0.1001
  C  C1086  1  0.111650  0.558810  0.673400  1.0  -0.1109
  C  C1087  1  0.126900  0.584550  0.727300  1.0  -0.0767
  C  C1088  1  0.163100  0.577200  0.742100  1.0  -0.3387
  C  C1089  1  0.064850  0.517280  0.856100  1.0  0.1654
  C  C1090  1  0.085700  0.537600  0.896500  1.0  -0.2191
  C  C1091  1  0.117580  0.527200  0.911500  1.0  0.125
  C  C1092  1  0.125390  0.497050  0.886600  1.0  -0.17
  C  C1093  1  0.104000  0.477810  0.845900  1.0  0.1305
  C  C1094  1  0.140210  0.548900  0.957700  1.0  -0.1171
  C  C1095  1  0.834120  0.484050  0.463300  1.0  0.3351
  C  C1096  1  0.803630  0.477080  0.428900  1.0  -0.2217
  C  C1097  1  0.784020  0.452350  0.456900  1.0  -0.1221
  C  C1098  1  0.794100  0.433340  0.518500  1.0  -0.1311
  C  C1099  1  0.823460  0.439560  0.552600  1.0  -0.0341
  C  C1100  1  0.843830  0.464950  0.527200  1.0  -0.1564
  C  C1101  1  0.874790  0.470380  0.568100  1.0  0.5781
  C  C1102  1  0.936030  0.526860  0.577800  1.0  0.5755
  C  C1103  1  0.965090  0.537790  0.623500  1.0  -0.2982
  C  C1104  1  0.955600  0.566100  0.682300  1.0  -0.1349
  C  C1105  1  0.985400  0.577100  0.739000  1.0  -0.0741
  C  C1106  1  0.974800  0.597400  0.792400  1.0  -0.0966
  C  C1107  1  0.011300  0.601800  0.833800  1.0  -0.3539
  C  C1108  1  0.193590  0.610590  0.116700  1.0  0.1759
  C  C1109  1  0.175640  0.593450  0.063400  1.0  -0.2682
  C  C1110  1  0.154070  0.569390  0.089100  1.0  0.1329
  C  C1111  1  0.152510  0.563990  0.167300  1.0  -0.2144
  C  C1112  1  0.171380  0.582270  0.216400  1.0  0.1759
  C  C1113  1  0.133000  0.549700  0.034200  1.0  -0.1918
  C  C1114  1  0.418180  0.999120  0.319500  1.0  0.3513
  C  C1115  1  0.398240  0.019780  0.364900  1.0  -0.1693
  C  C1116  1  0.409870  0.032680  0.432300  1.0  -0.1014
  C  C1117  1  0.441150  0.027160  0.457800  1.0  -0.1228
  C  C1118  1  0.461610  0.008080  0.412200  1.0  -0.0458
  C  C1119  1  0.451230  0.994560  0.342500  1.0  -0.1533
  C  C1120  1  0.475180  0.976520  0.296000  1.0  0.5243
  C  C1121  1  0.480520  0.933070  0.128300  1.0  0.5387
  C  C1122  1  0.503410  0.915580  0.075000  1.0  -0.3127
  C  C1123  1  0.495070  0.879760  0.067500  1.0  -0.0836
  C  C1124  1  0.500330  0.861520  0.143500  1.0  -0.0951
  C  C1125  1  0.495000  0.825000  0.135800  1.0  -0.106
  C  C1126  1  0.500800  0.807000  0.209400  1.0  -0.3538
  C  C1127  1  0.571560  0.899770  0.269700  1.0  0.339
  C  C1128  1  0.573740  0.871400  0.315800  1.0  -0.2574
  C  C1129  1  0.598450  0.848710  0.303100  1.0  -0.1196
  C  C1130  1  0.621020  0.853060  0.245000  1.0  -0.1253
  C  C1131  1  0.618420  0.879950  0.199000  1.0  -0.0321
  C  C1132  1  0.593980  0.903680  0.208900  1.0  -0.164
  C  C1133  1  0.594330  0.932280  0.156200  1.0  0.5667
  C  C1134  1  0.558080  0.007120  0.140400  1.0  0.5305
  C  C1135  1  0.560900  0.039850  0.102000  1.0  -0.3134
  C  C1136  1  0.575740  0.065360  0.156300  1.0  -0.1001
  C  C1137  1  0.611650  0.058810  0.173400  1.0  -0.1109
  C  C1138  1  0.626900  0.084550  0.227300  1.0  -0.0767
  C  C1139  1  0.663100  0.077200  0.242100  1.0  -0.3387
  C  C1140  1  0.564850  0.017280  0.356100  1.0  0.1654
  C  C1141  1  0.585700  0.037600  0.396500  1.0  -0.2191
  C  C1142  1  0.617580  0.027200  0.411500  1.0  0.125
  C  C1143  1  0.625390  0.997050  0.386600  1.0  -0.17
  C  C1144  1  0.604000  0.977810  0.345900  1.0  0.1305
  C  C1145  1  0.640210  0.048900  0.457700  1.0  -0.1171
  C  C1146  1  0.334120  0.984050  0.963300  1.0  0.3351
  C  C1147  1  0.303630  0.977080  0.928900  1.0  -0.2217
  C  C1148  1  0.284020  0.952350  0.956900  1.0  -0.1221
  C  C1149  1  0.294100  0.933340  0.018500  1.0  -0.1311
  C  C1150  1  0.323460  0.939560  0.052600  1.0  -0.0341
  C  C1151  1  0.343830  0.964950  0.027200  1.0  -0.1564
  C  C1152  1  0.374790  0.970380  0.068100  1.0  0.5781
  C  C1153  1  0.436030  0.026860  0.077800  1.0  0.5755
  C  C1154  1  0.465090  0.037790  0.123500  1.0  -0.2982
  C  C1155  1  0.455600  0.066100  0.182300  1.0  -0.1349
  C  C1156  1  0.485400  0.077100  0.239000  1.0  -0.0741
  C  C1157  1  0.474800  0.097400  0.292400  1.0  -0.0966
  C  C1158  1  0.511300  0.101800  0.333800  1.0  -0.3539
  C  C1159  1  0.693590  0.110590  0.616700  1.0  0.1759
  C  C1160  1  0.675640  0.093450  0.563400  1.0  -0.2682
  C  C1161  1  0.654070  0.069390  0.589100  1.0  0.1329
  C  C1162  1  0.652510  0.063990  0.667300  1.0  -0.2144
  C  C1163  1  0.671380  0.082270  0.716400  1.0  0.1759
  C  C1164  1  0.633000  0.049700  0.534200  1.0  -0.1918
  C  C1165  1  0.249120  0.831820  0.569500  1.0  0.3514
  C  C1166  1  0.269780  0.851760  0.614900  1.0  -0.1653
  C  C1167  1  0.282680  0.840130  0.682300  1.0  -0.1089
  C  C1168  1  0.277160  0.808850  0.707800  1.0  -0.1233
  C  C1169  1  0.258080  0.788390  0.662200  1.0  -0.0469
  C  C1170  1  0.244560  0.798770  0.592500  1.0  -0.1558
  C  C1171  1  0.226520  0.774820  0.546000  1.0  0.5238
  C  C1172  1  0.183070  0.769480  0.378300  1.0  0.539
  C  C1173  1  0.165580  0.746590  0.325000  1.0  -0.3118
  C  C1174  1  0.129760  0.754930  0.317500  1.0  -0.0853
  C  C1175  1  0.111520  0.749670  0.393500  1.0  -0.096
  C  C1176  1  0.075000  0.755000  0.385800  1.0  -0.104
  C  C1177  1  0.057000  0.749200  0.459400  1.0  -0.355
  C  C1178  1  0.149770  0.678440  0.519700  1.0  0.3388
  C  C1179  1  0.121400  0.676260  0.565800  1.0  -0.2558
  C  C1180  1  0.098710  0.651550  0.553100  1.0  -0.1232
  C  C1181  1  0.103060  0.628980  0.495000  1.0  -0.1261
  C  C1182  1  0.129950  0.631580  0.449000  1.0  -0.0321
  C  C1183  1  0.153680  0.656020  0.458900  1.0  -0.1653
  C  C1184  1  0.182280  0.655670  0.406200  1.0  0.5667
  C  C1185  1  0.257120  0.691920  0.390400  1.0  0.5286
  C  C1186  1  0.289850  0.689100  0.352000  1.0  -0.3158
  C  C1187  1  0.315360  0.674260  0.406300  1.0  -0.1001
  C  C1188  1  0.308810  0.638350  0.423400  1.0  -0.1089
  C  C1189  1  0.334550  0.623100  0.477300  1.0  -0.0734
  C  C1190  1  0.327200  0.586900  0.492100  1.0  -0.3389
  C  C1191  1  0.267280  0.685150  0.606100  1.0  0.1647
  C  C1192  1  0.287600  0.664300  0.646500  1.0  -0.2203
  C  C1193  1  0.277200  0.632420  0.661500  1.0  0.1256
  C  C1194  1  0.247050  0.624610  0.636600  1.0  -0.1719
  C  C1195  1  0.227810  0.646000  0.595900  1.0  0.1299
  C  C1196  1  0.298900  0.609790  0.707700  1.0  -0.1203
  C  C1197  1  0.234050  0.915880  0.213300  1.0  0.3359
  C  C1198  1  0.227080  0.946370  0.178900  1.0  -0.2226
  C  C1199  1  0.202350  0.965980  0.206900  1.0  -0.1182
  C  C1200  1  0.183340  0.955900  0.268500  1.0  -0.129
  C  C1201  1  0.189560  0.926540  0.302600  1.0  -0.0308
  C  C1202  1  0.214950  0.906170  0.277200  1.0  -0.1574
  C  C1203  1  0.220380  0.875210  0.318100  1.0  0.5772
  C  C1204  1  0.276860  0.813970  0.327800  1.0  0.5757
  C  C1205  1  0.287790  0.784910  0.373500  1.0  -0.2984
  C  C1206  1  0.316100  0.794400  0.432300  1.0  -0.1351
  C  C1207  1  0.327100  0.764600  0.489000  1.0  -0.0754
  C  C1208  1  0.347400  0.775200  0.542400  1.0  -0.094
  C  C1209  1  0.351800  0.738700  0.583800  1.0  -0.3561
  C  C1210  1  0.360590  0.556410  0.866700  1.0  0.1766
  C  C1211  1  0.343450  0.574360  0.813400  1.0  -0.2685
  C  C1212  1  0.319390  0.595930  0.839100  1.0  0.1325
  C  C1213  1  0.313990  0.597490  0.917300  1.0  -0.2127
  C  C1214  1  0.332270  0.578620  0.966400  1.0  0.1751
  C  C1215  1  0.299700  0.617000  0.784200  1.0  -0.1916
  C  C1216  1  0.749120  0.331820  0.069500  1.0  0.3514
  C  C1217  1  0.769780  0.351760  0.114900  1.0  -0.1653
  C  C1218  1  0.782680  0.340130  0.182300  1.0  -0.1089
  C  C1219  1  0.777160  0.308850  0.207800  1.0  -0.1233
  C  C1220  1  0.758080  0.288390  0.162200  1.0  -0.0469
  C  C1221  1  0.744560  0.298770  0.092500  1.0  -0.1558
  C  C1222  1  0.726520  0.274820  0.046000  1.0  0.5238
  C  C1223  1  0.683070  0.269480  0.878300  1.0  0.539
  C  C1224  1  0.665580  0.246590  0.825000  1.0  -0.3118
  C  C1225  1  0.629760  0.254930  0.817500  1.0  -0.0853
  C  C1226  1  0.611520  0.249670  0.893500  1.0  -0.096
  C  C1227  1  0.575000  0.255000  0.885800  1.0  -0.104
  C  C1228  1  0.557000  0.249200  0.959400  1.0  -0.355
  C  C1229  1  0.649770  0.178440  0.019700  1.0  0.3388
  C  C1230  1  0.621400  0.176260  0.065800  1.0  -0.2558
  C  C1231  1  0.598710  0.151550  0.053100  1.0  -0.1232
  C  C1232  1  0.603060  0.128980  0.995000  1.0  -0.1261
  C  C1233  1  0.629950  0.131580  0.949000  1.0  -0.0321
  C  C1234  1  0.653680  0.156020  0.958900  1.0  -0.1653
  C  C1235  1  0.682280  0.155670  0.906200  1.0  0.5667
  C  C1236  1  0.757120  0.191920  0.890400  1.0  0.5286
  C  C1237  1  0.789850  0.189100  0.852000  1.0  -0.3158
  C  C1238  1  0.815360  0.174260  0.906300  1.0  -0.1001
  C  C1239  1  0.808810  0.138350  0.923400  1.0  -0.1089
  C  C1240  1  0.834550  0.123100  0.977300  1.0  -0.0734
  C  C1241  1  0.827200  0.086900  0.992100  1.0  -0.3389
  C  C1242  1  0.767280  0.185150  0.106100  1.0  0.1647
  C  C1243  1  0.787600  0.164300  0.146500  1.0  -0.2203
  C  C1244  1  0.777200  0.132420  0.161500  1.0  0.1256
  C  C1245  1  0.747050  0.124610  0.136600  1.0  -0.1719
  C  C1246  1  0.727810  0.146000  0.095900  1.0  0.1299
  C  C1247  1  0.798900  0.109790  0.207700  1.0  -0.1203
  C  C1248  1  0.734050  0.415880  0.713300  1.0  0.3359
  C  C1249  1  0.727080  0.446370  0.678900  1.0  -0.2225
  C  C1250  1  0.702350  0.465980  0.706900  1.0  -0.1181
  C  C1251  1  0.683340  0.455900  0.768500  1.0  -0.129
  C  C1252  1  0.689560  0.426540  0.802600  1.0  -0.0308
  C  C1253  1  0.714950  0.406170  0.777200  1.0  -0.1574
  C  C1254  1  0.720380  0.375210  0.818100  1.0  0.5772
  C  C1255  1  0.776860  0.313970  0.827800  1.0  0.5757
  C  C1256  1  0.787790  0.284910  0.873500  1.0  -0.2984
  C  C1257  1  0.816100  0.294400  0.932300  1.0  -0.1351
  C  C1258  1  0.827100  0.264600  0.989000  1.0  -0.0754
  C  C1259  1  0.847400  0.275200  0.042400  1.0  -0.094
  C  C1260  1  0.851800  0.238700  0.083800  1.0  -0.3561
  C  C1261  1  0.860590  0.056410  0.366700  1.0  0.1766
  C  C1262  1  0.843450  0.074360  0.313400  1.0  -0.2685
  C  C1263  1  0.819390  0.095930  0.339100  1.0  0.1325
  C  C1264  1  0.813990  0.097490  0.417300  1.0  -0.2127
  C  C1265  1  0.832270  0.078620  0.466400  1.0  0.1751
  C  C1266  1  0.799700  0.117000  0.284200  1.0  -0.1916
  C  C1267  1  0.250880  0.168180  0.069500  1.0  0.3508
  C  C1268  1  0.230220  0.148240  0.114900  1.0  -0.1666
  C  C1269  1  0.217320  0.159870  0.182300  1.0  -0.108
  C  C1270  1  0.222840  0.191150  0.207800  1.0  -0.1244
  C  C1271  1  0.241920  0.211610  0.162200  1.0  -0.0468
  C  C1272  1  0.255440  0.201230  0.092500  1.0  -0.1553
  C  C1273  1  0.273480  0.225180  0.046000  1.0  0.5234
  C  C1274  1  0.316930  0.230520  0.878300  1.0  0.5391
  C  C1275  1  0.334420  0.253410  0.825000  1.0  -0.3126
  C  C1276  1  0.370240  0.245070  0.817500  1.0  -0.0859
  C  C1277  1  0.388480  0.250330  0.893500  1.0  -0.0939
  C  C1278  1  0.425000  0.245000  0.885800  1.0  -0.1037
  C  C1279  1  0.443000  0.250800  0.959400  1.0  -0.3538
  C  C1280  1  0.350230  0.321560  0.019700  1.0  0.34
  C  C1281  1  0.378600  0.323740  0.065800  1.0  -0.2552
  C  C1282  1  0.401290  0.348450  0.053100  1.0  -0.1212
  C  C1283  1  0.396940  0.371020  0.995000  1.0  -0.1252
  C  C1284  1  0.370050  0.368420  0.949000  1.0  -0.0332
  C  C1285  1  0.346320  0.343980  0.958900  1.0  -0.1639
  C  C1286  1  0.317720  0.344330  0.906200  1.0  0.5669
  C  C1287  1  0.242880  0.308080  0.890400  1.0  0.5305
  C  C1288  1  0.210150  0.310900  0.852000  1.0  -0.3148
  C  C1289  1  0.184640  0.325740  0.906300  1.0  -0.0997
  C  C1290  1  0.191190  0.361650  0.923400  1.0  -0.1085
  C  C1291  1  0.165450  0.376900  0.977300  1.0  -0.0767
  C  C1292  1  0.172800  0.413100  0.992100  1.0  -0.3378
  C  C1293  1  0.232720  0.314850  0.106100  1.0  0.164
  C  C1294  1  0.212400  0.335700  0.146500  1.0  -0.2176
  C  C1295  1  0.222800  0.367580  0.161500  1.0  0.1253
  C  C1296  1  0.252950  0.375390  0.136600  1.0  -0.1693
  C  C1297  1  0.272190  0.354000  0.095900  1.0  0.1291
  C  C1298  1  0.201100  0.390210  0.207700  1.0  -0.1205
  C  C1299  1  0.265950  0.084120  0.713300  1.0  0.3355
  C  C1300  1  0.272920  0.053630  0.678900  1.0  -0.2214
  C  C1301  1  0.297650  0.034020  0.706900  1.0  -0.1197
  C  C1302  1  0.316660  0.044100  0.768500  1.0  -0.1296
  C  C1303  1  0.310440  0.073460  0.802600  1.0  -0.0334
  C  C1304  1  0.285050  0.093830  0.777200  1.0  -0.1574
  C  C1305  1  0.279620  0.124790  0.818100  1.0  0.5774
  C  C1306  1  0.223140  0.186030  0.827800  1.0  0.5753
  C  C1307  1  0.212210  0.215090  0.873500  1.0  -0.2976
  C  C1308  1  0.183900  0.205600  0.932300  1.0  -0.1348
  C  C1309  1  0.172900  0.235400  0.989000  1.0  -0.077
  C  C1310  1  0.152600  0.224800  0.042400  1.0  -0.096
  C  C1311  1  0.148200  0.261300  0.083800  1.0  -0.3564
  C  C1312  1  0.139410  0.443590  0.366700  1.0  0.1784
  C  C1313  1  0.156550  0.425640  0.313400  1.0  -0.2688
  C  C1314  1  0.180610  0.404070  0.339100  1.0  0.1319
  C  C1315  1  0.186010  0.402510  0.417300  1.0  -0.2135
  C  C1316  1  0.167730  0.421380  0.466400  1.0  0.1756
  C  C1317  1  0.200300  0.383000  0.284200  1.0  -0.1922
  C  C1318  1  0.750880  0.668180  0.569500  1.0  0.3508
  C  C1319  1  0.730220  0.648240  0.614900  1.0  -0.1666
  C  C1320  1  0.717320  0.659870  0.682300  1.0  -0.108
  C  C1321  1  0.722840  0.691150  0.707800  1.0  -0.1244
  C  C1322  1  0.741920  0.711610  0.662200  1.0  -0.0468
  C  C1323  1  0.755440  0.701230  0.592500  1.0  -0.1553
  C  C1324  1  0.773480  0.725180  0.546000  1.0  0.5234
  C  C1325  1  0.816930  0.730520  0.378300  1.0  0.5391
  C  C1326  1  0.834420  0.753410  0.325000  1.0  -0.3126
  C  C1327  1  0.870240  0.745070  0.317500  1.0  -0.0859
  C  C1328  1  0.888480  0.750330  0.393500  1.0  -0.0939
  C  C1329  1  0.925000  0.745000  0.385800  1.0  -0.1037
  C  C1330  1  0.943000  0.750800  0.459400  1.0  -0.3538
  C  C1331  1  0.850230  0.821560  0.519700  1.0  0.34
  C  C1332  1  0.878600  0.823740  0.565800  1.0  -0.2552
  C  C1333  1  0.901290  0.848450  0.553100  1.0  -0.1212
  C  C1334  1  0.896940  0.871020  0.495000  1.0  -0.1252
  C  C1335  1  0.870050  0.868420  0.449000  1.0  -0.0332
  C  C1336  1  0.846320  0.843980  0.458900  1.0  -0.1639
  C  C1337  1  0.817720  0.844330  0.406200  1.0  0.5669
  C  C1338  1  0.742880  0.808080  0.390400  1.0  0.5305
  C  C1339  1  0.710150  0.810900  0.352000  1.0  -0.3147
  C  C1340  1  0.684640  0.825740  0.406300  1.0  -0.0997
  C  C1341  1  0.691190  0.861650  0.423400  1.0  -0.1085
  C  C1342  1  0.665450  0.876900  0.477300  1.0  -0.0767
  C  C1343  1  0.672800  0.913100  0.492100  1.0  -0.3388
  C  C1344  1  0.732720  0.814850  0.606100  1.0  0.164
  C  C1345  1  0.712400  0.835700  0.646500  1.0  -0.2176
  C  C1346  1  0.722800  0.867580  0.661500  1.0  0.1253
  C  C1347  1  0.752950  0.875390  0.636600  1.0  -0.1693
  C  C1348  1  0.772190  0.854000  0.595900  1.0  0.1292
  C  C1349  1  0.701100  0.890210  0.707700  1.0  -0.1205
  C  C1350  1  0.765950  0.584120  0.213300  1.0  0.3355
  C  C1351  1  0.772920  0.553630  0.178900  1.0  -0.2214
  C  C1352  1  0.797650  0.534020  0.206900  1.0  -0.1197
  C  C1353  1  0.816660  0.544100  0.268500  1.0  -0.1296
  C  C1354  1  0.810440  0.573460  0.302600  1.0  -0.0334
  C  C1355  1  0.785050  0.593830  0.277200  1.0  -0.1574
  C  C1356  1  0.779620  0.624790  0.318100  1.0  0.5774
  C  C1357  1  0.723140  0.686030  0.327800  1.0  0.5753
  C  C1358  1  0.712210  0.715090  0.373500  1.0  -0.2976
  C  C1359  1  0.683900  0.705600  0.432300  1.0  -0.1348
  C  C1360  1  0.672900  0.735400  0.489000  1.0  -0.077
  C  C1361  1  0.652600  0.724800  0.542400  1.0  -0.096
  C  C1362  1  0.648200  0.761300  0.583800  1.0  -0.3564
  C  C1363  1  0.639410  0.943590  0.866700  1.0  0.1784
  C  C1364  1  0.656550  0.925640  0.813400  1.0  -0.2688
  C  C1365  1  0.680610  0.904070  0.839100  1.0  0.1319
  C  C1366  1  0.686010  0.902510  0.917300  1.0  -0.2135
  C  C1367  1  0.667730  0.921380  0.966400  1.0  0.1756
  C  C1368  1  0.700300  0.883000  0.784200  1.0  -0.1922
  C  C1369  1  0.418180  0.499120  0.680500  1.0  0.3506
  C  C1370  1  0.398240  0.519780  0.635100  1.0  -0.1687
  C  C1371  1  0.409870  0.532680  0.567700  1.0  -0.1009
  C  C1372  1  0.441150  0.527160  0.542200  1.0  -0.1221
  C  C1373  1  0.461610  0.508080  0.587800  1.0  -0.0456
  C  C1374  1  0.451230  0.494560  0.657500  1.0  -0.1527
  C  C1375  1  0.475180  0.476520  0.704000  1.0  0.5235
  C  C1376  1  0.480520  0.433070  0.871700  1.0  0.5383
  C  C1377  1  0.503410  0.415580  0.925000  1.0  -0.313
  C  C1378  1  0.495070  0.379760  0.932500  1.0  -0.0851
  C  C1379  1  0.500330  0.361520  0.856500  1.0  -0.0925
  C  C1380  1  0.495000  0.325000  0.864200  1.0  -0.1071
  C  C1381  1  0.500800  0.307000  0.790600  1.0  -0.353
  C  C1382  1  0.571560  0.399770  0.730300  1.0  0.3394
  C  C1383  1  0.573740  0.371400  0.684200  1.0  -0.2543
  C  C1384  1  0.598450  0.348710  0.696900  1.0  -0.1202
  C  C1385  1  0.621020  0.353060  0.755000  1.0  -0.1257
  C  C1386  1  0.618420  0.379950  0.801000  1.0  -0.0315
  C  C1387  1  0.593980  0.403680  0.791100  1.0  -0.1638
  C  C1388  1  0.594330  0.432280  0.843800  1.0  0.5671
  C  C1389  1  0.558080  0.507120  0.859600  1.0  0.5303
  C  C1390  1  0.560900  0.539850  0.898000  1.0  -0.3142
  C  C1391  1  0.575740  0.565360  0.843700  1.0  -0.0998
  C  C1392  1  0.611650  0.558810  0.826600  1.0  -0.1117
  C  C1393  1  0.626900  0.584550  0.772700  1.0  -0.0764
  C  C1394  1  0.663100  0.577200  0.757900  1.0  -0.3391
  C  C1395  1  0.564850  0.517280  0.643900  1.0  0.1652
  C  C1396  1  0.585700  0.537600  0.603500  1.0  -0.2196
  C  C1397  1  0.617580  0.527200  0.588500  1.0  0.1256
  C  C1398  1  0.625390  0.497050  0.613400  1.0  -0.1697
  C  C1399  1  0.604000  0.477810  0.654100  1.0  0.1303
  C  C1400  1  0.640210  0.548900  0.542300  1.0  -0.1178
  C  C1401  1  0.334120  0.484050  0.036700  1.0  0.3339
  C  C1402  1  0.303630  0.477080  0.071100  1.0  -0.2222
  C  C1403  1  0.284020  0.452350  0.043100  1.0  -0.1227
  C  C1404  1  0.294100  0.433340  0.981500  1.0  -0.1309
  C  C1405  1  0.323460  0.439560  0.947400  1.0  -0.0336
  C  C1406  1  0.343830  0.464950  0.972800  1.0  -0.155
  C  C1407  1  0.374790  0.470380  0.931900  1.0  0.579
  C  C1408  1  0.436030  0.526860  0.922200  1.0  0.5736
  C  C1409  1  0.465090  0.537790  0.876500  1.0  -0.2984
  C  C1410  1  0.455600  0.566100  0.817700  1.0  -0.1352
  C  C1411  1  0.485400  0.577100  0.761000  1.0  -0.0723
  C  C1412  1  0.474800  0.597400  0.707600  1.0  -0.0963
  C  C1413  1  0.511300  0.601800  0.666200  1.0  -0.3512
  C  C1414  1  0.693590  0.610590  0.383300  1.0  0.1763
  C  C1415  1  0.675640  0.593450  0.436600  1.0  -0.269
  C  C1416  1  0.654070  0.569390  0.410900  1.0  0.1328
  C  C1417  1  0.652510  0.563990  0.332700  1.0  -0.2147
  C  C1418  1  0.671380  0.582270  0.283600  1.0  0.1748
  C  C1419  1  0.633000  0.549700  0.465800  1.0  -0.1919
  C  C1420  1  0.918180  0.999120  0.180500  1.0  0.3506
  C  C1421  1  0.898240  0.019780  0.135100  1.0  -0.1687
  C  C1422  1  0.909870  0.032680  0.067700  1.0  -0.1009
  C  C1423  1  0.941150  0.027160  0.042200  1.0  -0.1221
  C  C1424  1  0.961610  0.008080  0.087800  1.0  -0.0456
  C  C1425  1  0.951230  0.994560  0.157500  1.0  -0.1527
  C  C1426  1  0.975180  0.976520  0.204000  1.0  0.5235
  C  C1427  1  0.980520  0.933070  0.371700  1.0  0.5383
  C  C1428  1  0.003410  0.915580  0.425000  1.0  -0.313
  C  C1429  1  0.995070  0.879760  0.432500  1.0  -0.0851
  C  C1430  1  0.000330  0.861520  0.356500  1.0  -0.0925
  C  C1431  1  0.995000  0.825000  0.364200  1.0  -0.1071
  C  C1432  1  0.000800  0.807000  0.290600  1.0  -0.353
  C  C1433  1  0.071560  0.899770  0.230300  1.0  0.3394
  C  C1434  1  0.073740  0.871400  0.184200  1.0  -0.2543
  C  C1435  1  0.098450  0.848710  0.196900  1.0  -0.1202
  C  C1436  1  0.121020  0.853060  0.255000  1.0  -0.1257
  C  C1437  1  0.118420  0.879950  0.301000  1.0  -0.0315
  C  C1438  1  0.093980  0.903680  0.291100  1.0  -0.1638
  C  C1439  1  0.094330  0.932280  0.343800  1.0  0.5671
  C  C1440  1  0.058080  0.007120  0.359600  1.0  0.5303
  C  C1441  1  0.060900  0.039850  0.398000  1.0  -0.3142
  C  C1442  1  0.075740  0.065360  0.343700  1.0  -0.0998
  C  C1443  1  0.111650  0.058810  0.326600  1.0  -0.1117
  C  C1444  1  0.126900  0.084550  0.272700  1.0  -0.0764
  C  C1445  1  0.163100  0.077200  0.257900  1.0  -0.3391
  C  C1446  1  0.064850  0.017280  0.143900  1.0  0.1652
  C  C1447  1  0.085700  0.037600  0.103500  1.0  -0.2196
  C  C1448  1  0.117580  0.027200  0.088500  1.0  0.1256
  C  C1449  1  0.125390  0.997050  0.113400  1.0  -0.1697
  C  C1450  1  0.104000  0.977810  0.154100  1.0  0.1303
  C  C1451  1  0.140210  0.048900  0.042300  1.0  -0.1178
  C  C1452  1  0.834120  0.984050  0.536700  1.0  0.3339
  C  C1453  1  0.803630  0.977080  0.571100  1.0  -0.2222
  C  C1454  1  0.784020  0.952350  0.543100  1.0  -0.1227
  C  C1455  1  0.794100  0.933340  0.481500  1.0  -0.1309
  C  C1456  1  0.823460  0.939560  0.447400  1.0  -0.0336
  C  C1457  1  0.843830  0.964950  0.472800  1.0  -0.155
  C  C1458  1  0.874790  0.970380  0.431900  1.0  0.579
  C  C1459  1  0.936030  0.026860  0.422200  1.0  0.5736
  C  C1460  1  0.965090  0.037790  0.376500  1.0  -0.2984
  C  C1461  1  0.955600  0.066100  0.317700  1.0  -0.1352
  C  C1462  1  0.985400  0.077100  0.261000  1.0  -0.0723
  C  C1463  1  0.974800  0.097400  0.207600  1.0  -0.0963
  C  C1464  1  0.011300  0.101800  0.166200  1.0  -0.3512
  C  C1465  1  0.193590  0.110590  0.883300  1.0  0.1763
  C  C1466  1  0.175640  0.093450  0.936600  1.0  -0.269
  C  C1467  1  0.154070  0.069390  0.910900  1.0  0.1328
  C  C1468  1  0.152510  0.063990  0.832700  1.0  -0.2147
  C  C1469  1  0.171380  0.082270  0.783600  1.0  0.1748
  C  C1470  1  0.133000  0.049700  0.965800  1.0  -0.1919
  C  C1471  1  0.081820  0.500880  0.180500  1.0  0.3494
  C  C1472  1  0.101760  0.480220  0.135100  1.0  -0.1676
  C  C1473  1  0.090130  0.467320  0.067700  1.0  -0.104
  C  C1474  1  0.058850  0.472840  0.042200  1.0  -0.1237
  C  C1475  1  0.038390  0.491920  0.087800  1.0  -0.0452
  C  C1476  1  0.048770  0.505440  0.157500  1.0  -0.1529
  C  C1477  1  0.024820  0.523480  0.204000  1.0  0.5252
  C  C1478  1  0.019480  0.566930  0.371700  1.0  0.538
  C  C1479  1  0.996590  0.584420  0.425000  1.0  -0.3147
  C  C1480  1  0.004930  0.620240  0.432500  1.0  -0.0845
  C  C1481  1  0.999670  0.638480  0.356500  1.0  -0.0922
  C  C1482  1  0.005000  0.675000  0.364200  1.0  -0.1062
  C  C1483  1  0.999200  0.693000  0.290600  1.0  -0.3521
  C  C1484  1  0.928440  0.600230  0.230300  1.0  0.3383
  C  C1485  1  0.926260  0.628600  0.184200  1.0  -0.255
  C  C1486  1  0.901550  0.651290  0.196900  1.0  -0.1192
  C  C1487  1  0.878980  0.646940  0.255000  1.0  -0.1257
  C  C1488  1  0.881580  0.620050  0.301000  1.0  -0.0308
  C  C1489  1  0.906020  0.596320  0.291100  1.0  -0.1637
  C  C1490  1  0.905670  0.567720  0.343800  1.0  0.5676
  C  C1491  1  0.941920  0.492880  0.359600  1.0  0.5321
  C  C1492  1  0.939100  0.460150  0.398000  1.0  -0.3125
  C  C1493  1  0.924260  0.434640  0.343700  1.0  -0.1011
  C  C1494  1  0.888350  0.441190  0.326600  1.0  -0.1102
  C  C1495  1  0.873100  0.415450  0.272700  1.0  -0.0772
  C  C1496  1  0.836900  0.422800  0.257900  1.0  -0.3385
  C  C1497  1  0.935150  0.482720  0.143900  1.0  0.165
  C  C1498  1  0.914300  0.462400  0.103500  1.0  -0.2199
  C  C1499  1  0.882420  0.472800  0.088500  1.0  0.1259
  C  C1500  1  0.874610  0.502950  0.113400  1.0  -0.1729
  C  C1501  1  0.896000  0.522190  0.154100  1.0  0.1296
  C  C1502  1  0.859790  0.451100  0.042300  1.0  -0.1184
  C  C1503  1  0.165880  0.515950  0.536700  1.0  0.337
  C  C1504  1  0.196370  0.522920  0.571100  1.0  -0.2225
  C  C1505  1  0.215980  0.547650  0.543100  1.0  -0.1203
  C  C1506  1  0.205900  0.566660  0.481500  1.0  -0.13
  C  C1507  1  0.176540  0.560440  0.447400  1.0  -0.0335
  C  C1508  1  0.156170  0.535050  0.472800  1.0  -0.1549
  C  C1509  1  0.125210  0.529620  0.431900  1.0  0.578
  C  C1510  1  0.063970  0.473140  0.422200  1.0  0.5747
  C  C1511  1  0.034910  0.462210  0.376500  1.0  -0.2971
  C  C1512  1  0.044400  0.433900  0.317700  1.0  -0.1326
  C  C1513  1  0.014600  0.422900  0.261000  1.0  -0.0752
  C  C1514  1  0.025200  0.402600  0.207600  1.0  -0.0918
  C  C1515  1  0.988700  0.398200  0.166200  1.0  -0.3506
  C  C1516  1  0.806410  0.389410  0.883300  1.0  0.1768
  C  C1517  1  0.824360  0.406550  0.936600  1.0  -0.268
  C  C1518  1  0.845930  0.430610  0.910900  1.0  0.1336
  C  C1519  1  0.847490  0.436010  0.832700  1.0  -0.2147
  C  C1520  1  0.828620  0.417730  0.783600  1.0  0.1743
  C  C1521  1  0.867000  0.450300  0.965800  1.0  -0.1939
  C  C1522  1  0.581820  0.000880  0.680500  1.0  0.3494
  C  C1523  1  0.601760  0.980220  0.635100  1.0  -0.1676
  C  C1524  1  0.590130  0.967320  0.567700  1.0  -0.104
  C  C1525  1  0.558850  0.972840  0.542200  1.0  -0.1237
  C  C1526  1  0.538390  0.991920  0.587800  1.0  -0.0452
  C  C1527  1  0.548770  0.005440  0.657500  1.0  -0.1529
  C  C1528  1  0.524820  0.023480  0.704000  1.0  0.5252
  C  C1529  1  0.519480  0.066930  0.871700  1.0  0.538
  C  C1530  1  0.496590  0.084420  0.925000  1.0  -0.3147
  C  C1531  1  0.504930  0.120240  0.932500  1.0  -0.0845
  C  C1532  1  0.499670  0.138480  0.856500  1.0  -0.0922
  C  C1533  1  0.505000  0.175000  0.864200  1.0  -0.1062
  C  C1534  1  0.499200  0.193000  0.790600  1.0  -0.3521
  C  C1535  1  0.428440  0.100230  0.730300  1.0  0.3383
  C  C1536  1  0.426260  0.128600  0.684200  1.0  -0.255
  C  C1537  1  0.401550  0.151290  0.696900  1.0  -0.1192
  C  C1538  1  0.378980  0.146940  0.755000  1.0  -0.1257
  C  C1539  1  0.381580  0.120050  0.801000  1.0  -0.0308
  C  C1540  1  0.406020  0.096320  0.791100  1.0  -0.1637
  C  C1541  1  0.405670  0.067720  0.843800  1.0  0.5676
  C  C1542  1  0.441920  0.992880  0.859600  1.0  0.5321
  C  C1543  1  0.439100  0.960150  0.898000  1.0  -0.3125
  C  C1544  1  0.424260  0.934640  0.843700  1.0  -0.1011
  C  C1545  1  0.388350  0.941190  0.826600  1.0  -0.1102
  C  C1546  1  0.373100  0.915450  0.772700  1.0  -0.0772
  C  C1547  1  0.336900  0.922800  0.757900  1.0  -0.3385
  C  C1548  1  0.435150  0.982720  0.643900  1.0  0.165
  C  C1549  1  0.414300  0.962400  0.603500  1.0  -0.2199
  C  C1550  1  0.382420  0.972800  0.588500  1.0  0.1259
  C  C1551  1  0.374610  0.002950  0.613400  1.0  -0.1729
  C  C1552  1  0.396000  0.022190  0.654100  1.0  0.1296
  C  C1553  1  0.359790  0.951100  0.542300  1.0  -0.1184
  C  C1554  1  0.665880  0.015950  0.036700  1.0  0.337
  C  C1555  1  0.696370  0.022920  0.071100  1.0  -0.2225
  C  C1556  1  0.715980  0.047650  0.043100  1.0  -0.1203
  C  C1557  1  0.705900  0.066660  0.981500  1.0  -0.13
  C  C1558  1  0.676540  0.060440  0.947400  1.0  -0.0335
  C  C1559  1  0.656170  0.035050  0.972800  1.0  -0.1549
  C  C1560  1  0.625210  0.029620  0.931900  1.0  0.578
  C  C1561  1  0.563970  0.973140  0.922200  1.0  0.5747
  C  C1562  1  0.534910  0.962210  0.876500  1.0  -0.2971
  C  C1563  1  0.544400  0.933900  0.817700  1.0  -0.1326
  C  C1564  1  0.514600  0.922900  0.761000  1.0  -0.0752
  C  C1565  1  0.525200  0.902600  0.707600  1.0  -0.0918
  C  C1566  1  0.488700  0.898200  0.666200  1.0  -0.3506
  C  C1567  1  0.306410  0.889410  0.383300  1.0  0.1768
  C  C1568  1  0.324360  0.906550  0.436600  1.0  -0.268
  C  C1569  1  0.345930  0.930610  0.410900  1.0  0.1336
  C  C1570  1  0.347490  0.936010  0.332700  1.0  -0.2147
  C  C1571  1  0.328620  0.917730  0.283600  1.0  0.1743
  C  C1572  1  0.367000  0.950300  0.465800  1.0  -0.1939
  C  C1573  1  0.750880  0.168180  0.430500  1.0  0.3497
  C  C1574  1  0.730220  0.148240  0.385100  1.0  -0.166
  C  C1575  1  0.717320  0.159870  0.317700  1.0  -0.1083
  C  C1576  1  0.722840  0.191150  0.292200  1.0  -0.1235
  C  C1577  1  0.741920  0.211610  0.337800  1.0  -0.0469
  C  C1578  1  0.755440  0.201230  0.407500  1.0  -0.1552
  C  C1579  1  0.773480  0.225180  0.454000  1.0  0.5234
  C  C1580  1  0.816930  0.230520  0.621700  1.0  0.5391
  C  C1581  1  0.834420  0.253410  0.675000  1.0  -0.313
  C  C1582  1  0.870240  0.245070  0.682500  1.0  -0.0862
  C  C1583  1  0.888480  0.250330  0.606500  1.0  -0.0925
  C  C1584  1  0.925000  0.245000  0.614200  1.0  -0.1047
  C  C1585  1  0.943000  0.250800  0.540600  1.0  -0.3544
  C  C1586  1  0.850230  0.321560  0.480300  1.0  0.3397
  C  C1587  1  0.878600  0.323740  0.434200  1.0  -0.2542
  C  C1588  1  0.901290  0.348450  0.446900  1.0  -0.1221
  C  C1589  1  0.896940  0.371020  0.505000  1.0  -0.1258
  C  C1590  1  0.870050  0.368420  0.551000  1.0  -0.0322
  C  C1591  1  0.846320  0.343980  0.541100  1.0  -0.1638
  C  C1592  1  0.817720  0.344330  0.593800  1.0  0.5668
  C  C1593  1  0.742880  0.308080  0.609600  1.0  0.53
  C  C1594  1  0.710150  0.310900  0.648000  1.0  -0.3151
  C  C1595  1  0.684640  0.325740  0.593700  1.0  -0.0995
  C  C1596  1  0.691190  0.361650  0.576600  1.0  -0.1095
  C  C1597  1  0.665450  0.376900  0.522700  1.0  -0.0755
  C  C1598  1  0.672800  0.413100  0.507900  1.0  -0.3392
  C  C1599  1  0.732720  0.314850  0.393900  1.0  0.1645
  C  C1600  1  0.712400  0.335700  0.353500  1.0  -0.2186
  C  C1601  1  0.722800  0.367580  0.338500  1.0  0.1253
  C  C1602  1  0.752950  0.375390  0.363400  1.0  -0.1693
  C  C1603  1  0.772190  0.354000  0.404100  1.0  0.1294
  C  C1604  1  0.701100  0.390210  0.292300  1.0  -0.1217
  C  C1605  1  0.765950  0.084120  0.786700  1.0  0.3354
  C  C1606  1  0.772920  0.053630  0.821100  1.0  -0.2223
  C  C1607  1  0.797650  0.034020  0.793100  1.0  -0.1205
  C  C1608  1  0.816660  0.044100  0.731500  1.0  -0.1295
  C  C1609  1  0.810440  0.073460  0.697400  1.0  -0.0327
  C  C1610  1  0.785050  0.093830  0.722800  1.0  -0.1569
  C  C1611  1  0.779620  0.124790  0.681900  1.0  0.5784
  C  C1612  1  0.723140  0.186030  0.672200  1.0  0.5741
  C  C1613  1  0.712210  0.215090  0.626500  1.0  -0.2975
  C  C1614  1  0.683900  0.205600  0.567700  1.0  -0.1339
  C  C1615  1  0.672900  0.235400  0.511000  1.0  -0.0749
  C  C1616  1  0.652600  0.224800  0.457600  1.0  -0.0961
  C  C1617  1  0.648200  0.261300  0.416200  1.0  -0.3572
  C  C1618  1  0.639410  0.443590  0.133300  1.0  0.1788
  C  C1619  1  0.656550  0.425640  0.186600  1.0  -0.27
  C  C1620  1  0.680610  0.404070  0.160900  1.0  0.1316
  C  C1621  1  0.686010  0.402510  0.082700  1.0  -0.2135
  C  C1622  1  0.667730  0.421380  0.033600  1.0  0.1743
  C  C1623  1  0.700300  0.383000  0.215800  1.0  -0.1924
  C  C1624  1  0.250880  0.668180  0.930500  1.0  0.3497
  C  C1625  1  0.230220  0.648240  0.885100  1.0  -0.166
  C  C1626  1  0.217320  0.659870  0.817700  1.0  -0.1083
  C  C1627  1  0.222840  0.691150  0.792200  1.0  -0.1235
  C  C1628  1  0.241920  0.711610  0.837800  1.0  -0.0469
  C  C1629  1  0.255440  0.701230  0.907500  1.0  -0.1552
  C  C1630  1  0.273480  0.725180  0.954000  1.0  0.5234
  C  C1631  1  0.316930  0.730520  0.121700  1.0  0.5391
  C  C1632  1  0.334420  0.753410  0.175000  1.0  -0.313
  C  C1633  1  0.370240  0.745070  0.182500  1.0  -0.0862
  C  C1634  1  0.388480  0.750330  0.106500  1.0  -0.0925
  C  C1635  1  0.425000  0.745000  0.114200  1.0  -0.1047
  C  C1636  1  0.443000  0.750800  0.040600  1.0  -0.3544
  C  C1637  1  0.350230  0.821560  0.980300  1.0  0.3397
  C  C1638  1  0.378600  0.823740  0.934200  1.0  -0.2542
  C  C1639  1  0.401290  0.848450  0.946900  1.0  -0.1221
  C  C1640  1  0.396940  0.871020  0.005000  1.0  -0.1258
  C  C1641  1  0.370050  0.868420  0.051000  1.0  -0.0322
  C  C1642  1  0.346320  0.843980  0.041100  1.0  -0.1638
  C  C1643  1  0.317720  0.844330  0.093800  1.0  0.5668
  C  C1644  1  0.242880  0.808080  0.109600  1.0  0.53
  C  C1645  1  0.210150  0.810900  0.148000  1.0  -0.3151
  C  C1646  1  0.184640  0.825740  0.093700  1.0  -0.0995
  C  C1647  1  0.191190  0.861650  0.076600  1.0  -0.1095
  C  C1648  1  0.165450  0.876900  0.022700  1.0  -0.0755
  C  C1649  1  0.172800  0.913100  0.007900  1.0  -0.3385
  C  C1650  1  0.232720  0.814850  0.893900  1.0  0.1645
  C  C1651  1  0.212400  0.835700  0.853500  1.0  -0.2186
  C  C1652  1  0.222800  0.867580  0.838500  1.0  0.1253
  C  C1653  1  0.252950  0.875390  0.863400  1.0  -0.1693
  C  C1654  1  0.272190  0.854000  0.904100  1.0  0.1294
  C  C1655  1  0.201100  0.890210  0.792300  1.0  -0.1217
  C  C1656  1  0.265950  0.584120  0.286700  1.0  0.3354
  C  C1657  1  0.272920  0.553630  0.321100  1.0  -0.2223
  C  C1658  1  0.297650  0.534020  0.293100  1.0  -0.1205
  C  C1659  1  0.316660  0.544100  0.231500  1.0  -0.1295
  C  C1660  1  0.310440  0.573460  0.197400  1.0  -0.0327
  C  C1661  1  0.285050  0.593830  0.222800  1.0  -0.1569
  C  C1662  1  0.279620  0.624790  0.181900  1.0  0.5784
  C  C1663  1  0.223140  0.686030  0.172200  1.0  0.5741
  C  C1664  1  0.212210  0.715090  0.126500  1.0  -0.2975
  C  C1665  1  0.183900  0.705600  0.067700  1.0  -0.1339
  C  C1666  1  0.172900  0.735400  0.011000  1.0  -0.0749
  C  C1667  1  0.152600  0.724800  0.957600  1.0  -0.0961
  C  C1668  1  0.148200  0.761300  0.916200  1.0  -0.3572
  C  C1669  1  0.139410  0.943590  0.633300  1.0  0.1788
  C  C1670  1  0.156550  0.925640  0.686600  1.0  -0.27
  C  C1671  1  0.180610  0.904070  0.660900  1.0  0.1316
  C  C1672  1  0.186010  0.902510  0.582700  1.0  -0.2135
  C  C1673  1  0.167730  0.921380  0.533600  1.0  0.1743
  C  C1674  1  0.200300  0.883000  0.715800  1.0  -0.1924
  C  C1675  1  0.749120  0.831820  0.930500  1.0  0.3506
  C  C1676  1  0.769780  0.851760  0.885100  1.0  -0.1652
  C  C1677  1  0.782680  0.840130  0.817700  1.0  -0.1089
  C  C1678  1  0.777160  0.808850  0.792200  1.0  -0.1229
  C  C1679  1  0.758080  0.788390  0.837800  1.0  -0.0466
  C  C1680  1  0.744560  0.798770  0.907500  1.0  -0.1554
  C  C1681  1  0.726520  0.774820  0.954000  1.0  0.5233
  C  C1682  1  0.683070  0.769480  0.121700  1.0  0.539
  C  C1683  1  0.665580  0.746590  0.175000  1.0  -0.3131
  C  C1684  1  0.629760  0.754930  0.182500  1.0  -0.0876
  C  C1685  1  0.611520  0.749670  0.106500  1.0  -0.0937
  C  C1686  1  0.575000  0.755000  0.114200  1.0  -0.1059
  C  C1687  1  0.557000  0.749200  0.040600  1.0  -0.3524
  C  C1688  1  0.649770  0.678440  0.980300  1.0  0.3396
  C  C1689  1  0.621400  0.676260  0.934200  1.0  -0.2517
  C  C1690  1  0.598710  0.651550  0.946900  1.0  -0.1236
  C  C1691  1  0.603060  0.628980  0.005000  1.0  -0.1266
  C  C1692  1  0.629950  0.631580  0.051000  1.0  -0.032
  C  C1693  1  0.653680  0.656020  0.041100  1.0  -0.165
  C  C1694  1  0.682280  0.655670  0.093800  1.0  0.5667
  C  C1695  1  0.757120  0.691920  0.109600  1.0  0.5284
  C  C1696  1  0.789850  0.689100  0.148000  1.0  -0.3145
  C  C1697  1  0.815360  0.674260  0.093700  1.0  -0.1005
  C  C1698  1  0.808810  0.638350  0.076600  1.0  -0.1094
  C  C1699  1  0.834550  0.623100  0.022700  1.0  -0.0736
  C  C1700  1  0.827200  0.586900  0.007900  1.0  -0.3392
  C  C1701  1  0.767280  0.685150  0.893900  1.0  0.165
  C  C1702  1  0.787600  0.664300  0.853500  1.0  -0.2204
  C  C1703  1  0.777200  0.632420  0.838500  1.0  0.1261
  C  C1704  1  0.747050  0.624610  0.863400  1.0  -0.1713
  C  C1705  1  0.727810  0.646000  0.904100  1.0  0.1303
  C  C1706  1  0.798900  0.609790  0.792300  1.0  -0.1206
  C  C1707  1  0.734050  0.915880  0.286700  1.0  0.3359
  C  C1708  1  0.727080  0.946370  0.321100  1.0  -0.222
  C  C1709  1  0.702350  0.965980  0.293100  1.0  -0.1182
  C  C1710  1  0.683340  0.955900  0.231500  1.0  -0.1287
  C  C1711  1  0.689560  0.926540  0.197400  1.0  -0.0306
  C  C1712  1  0.714950  0.906170  0.222800  1.0  -0.1566
  C  C1713  1  0.720380  0.875210  0.181900  1.0  0.5784
  C  C1714  1  0.776860  0.813970  0.172200  1.0  0.5742
  C  C1715  1  0.787790  0.784910  0.126500  1.0  -0.2995
  C  C1716  1  0.816100  0.794400  0.067700  1.0  -0.136
  C  C1717  1  0.827100  0.764600  0.011000  1.0  -0.0739
  C  C1718  1  0.847400  0.775200  0.957600  1.0  -0.0957
  C  C1719  1  0.851800  0.738700  0.916200  1.0  -0.3567
  C  C1720  1  0.860590  0.556410  0.633300  1.0  0.1769
  C  C1721  1  0.843450  0.574360  0.686600  1.0  -0.2692
  C  C1722  1  0.819390  0.595930  0.660900  1.0  0.1322
  C  C1723  1  0.813990  0.597490  0.582700  1.0  -0.2133
  C  C1724  1  0.832270  0.578620  0.533600  1.0  0.1744
  C  C1725  1  0.799700  0.617000  0.715800  1.0  -0.1926
  C  C1726  1  0.249120  0.331820  0.430500  1.0  0.3506
  C  C1727  1  0.269780  0.351760  0.385100  1.0  -0.1652
  C  C1728  1  0.282680  0.340130  0.317700  1.0  -0.1089
  C  C1729  1  0.277160  0.308850  0.292200  1.0  -0.1229
  C  C1730  1  0.258080  0.288390  0.337800  1.0  -0.0466
  C  C1731  1  0.244560  0.298770  0.407500  1.0  -0.1554
  C  C1732  1  0.226520  0.274820  0.454000  1.0  0.5233
  C  C1733  1  0.183070  0.269480  0.621700  1.0  0.539
  C  C1734  1  0.165580  0.246590  0.675000  1.0  -0.3131
  C  C1735  1  0.129760  0.254930  0.682500  1.0  -0.0876
  C  C1736  1  0.111520  0.249670  0.606500  1.0  -0.0937
  C  C1737  1  0.075000  0.255000  0.614200  1.0  -0.1059
  C  C1738  1  0.057000  0.249200  0.540600  1.0  -0.3524
  C  C1739  1  0.149770  0.178440  0.480300  1.0  0.3396
  C  C1740  1  0.121400  0.176260  0.434200  1.0  -0.2517
  C  C1741  1  0.098710  0.151550  0.446900  1.0  -0.1236
  C  C1742  1  0.103060  0.128980  0.505000  1.0  -0.1266
  C  C1743  1  0.129950  0.131580  0.551000  1.0  -0.032
  C  C1744  1  0.153680  0.156020  0.541100  1.0  -0.165
  C  C1745  1  0.182280  0.155670  0.593800  1.0  0.5667
  C  C1746  1  0.257120  0.191920  0.609600  1.0  0.5284
  C  C1747  1  0.289850  0.189100  0.648000  1.0  -0.3145
  C  C1748  1  0.315360  0.174260  0.593700  1.0  -0.1005
  C  C1749  1  0.308810  0.138350  0.576600  1.0  -0.1094
  C  C1750  1  0.334550  0.123100  0.522700  1.0  -0.0736
  C  C1751  1  0.327200  0.086900  0.507900  1.0  -0.3392
  C  C1752  1  0.267280  0.185150  0.393900  1.0  0.165
  C  C1753  1  0.287600  0.164300  0.353500  1.0  -0.2204
  C  C1754  1  0.277200  0.132420  0.338500  1.0  0.1261
  C  C1755  1  0.247050  0.124610  0.363400  1.0  -0.1713
  C  C1756  1  0.227810  0.146000  0.404100  1.0  0.1303
  C  C1757  1  0.298900  0.109790  0.292300  1.0  -0.1206
  C  C1758  1  0.234050  0.415880  0.786700  1.0  0.3359
  C  C1759  1  0.227080  0.446370  0.821100  1.0  -0.2221
  C  C1760  1  0.202350  0.465980  0.793100  1.0  -0.1183
  C  C1761  1  0.183340  0.455900  0.731500  1.0  -0.1287
  C  C1762  1  0.189560  0.426540  0.697400  1.0  -0.0306
  C  C1763  1  0.214950  0.406170  0.722800  1.0  -0.1566
  C  C1764  1  0.220380  0.375210  0.681900  1.0  0.5784
  C  C1765  1  0.276860  0.313970  0.672200  1.0  0.5742
  C  C1766  1  0.287790  0.284910  0.626500  1.0  -0.2995
  C  C1767  1  0.316100  0.294400  0.567700  1.0  -0.136
  C  C1768  1  0.327100  0.264600  0.511000  1.0  -0.0739
  C  C1769  1  0.347400  0.275200  0.457600  1.0  -0.0957
  C  C1770  1  0.351800  0.238700  0.416200  1.0  -0.3567
  C  C1771  1  0.360590  0.056410  0.133300  1.0  0.1769
  C  C1772  1  0.343450  0.074360  0.186600  1.0  -0.2692
  C  C1773  1  0.319390  0.095930  0.160900  1.0  0.1322
  C  C1774  1  0.313990  0.097490  0.082700  1.0  -0.2133
  C  C1775  1  0.332270  0.078620  0.033600  1.0  0.1744
  C  C1776  1  0.299700  0.117000  0.215800  1.0  -0.1926
  N  N1777  1  0.534030  0.536650  0.230000  1.0  -0.2964
  N  N1778  1  0.508200  0.552190  0.189400  1.0  -0.2695
  N  N1779  1  0.426270  0.543640  0.170600  1.0  -0.2987
  N  N1780  1  0.421530  0.516110  0.121800  1.0  -0.2746
  N  N1781  1  0.426500  0.511730  0.331200  1.0  -0.328
  N  N1782  1  0.606220  0.505050  0.048300  1.0  -0.2529
  N  N1783  1  0.578130  0.500650  0.094600  1.0  -0.2535
  N  N1784  1  0.308590  0.394320  0.693100  1.0  -0.3353
  N  N1785  1  0.034030  0.036650  0.730000  1.0  -0.2964
  N  N1786  1  0.008200  0.052190  0.689400  1.0  -0.2695
  N  N1787  1  0.926270  0.043640  0.670600  1.0  -0.2987
  N  N1788  1  0.921530  0.016110  0.621800  1.0  -0.2746
  N  N1789  1  0.926500  0.011730  0.831200  1.0  -0.328
  N  N1790  1  0.106220  0.005050  0.548300  1.0  -0.2529
  N  N1791  1  0.078130  0.000650  0.594600  1.0  -0.2535
  N  N1792  1  0.808590  0.894320  0.193100  1.0  -0.3353
  N  N1793  1  0.965970  0.463350  0.730000  1.0  -0.2941
  N  N1794  1  0.991800  0.447810  0.689400  1.0  -0.2684
  N  N1795  1  0.073730  0.456360  0.670600  1.0  -0.2972
  N  N1796  1  0.078470  0.483890  0.621800  1.0  -0.2741
  N  N1797  1  0.073500  0.488270  0.831200  1.0  -0.3265
  N  N1798  1  0.893780  0.494950  0.548300  1.0  -0.2535
  N  N1799  1  0.921870  0.499350  0.594600  1.0  -0.2523
  N  N1800  1  0.191410  0.605680  0.193100  1.0  -0.3348
  N  N1801  1  0.465970  0.963350  0.230000  1.0  -0.2941
  N  N1802  1  0.491800  0.947810  0.189400  1.0  -0.2684
  N  N1803  1  0.573730  0.956360  0.170600  1.0  -0.2972
  N  N1804  1  0.578470  0.983890  0.121800  1.0  -0.2741
  N  N1805  1  0.573500  0.988270  0.331200  1.0  -0.3265
  N  N1806  1  0.393780  0.994950  0.048300  1.0  -0.2535
  N  N1807  1  0.421870  0.999350  0.094600  1.0  -0.2523
  N  N1808  1  0.691410  0.105680  0.693100  1.0  -0.3348
  N  N1809  1  0.213350  0.784030  0.480000  1.0  -0.2921
  N  N1810  1  0.197810  0.758200  0.439400  1.0  -0.2691
  N  N1811  1  0.206360  0.676270  0.420600  1.0  -0.2987
  N  N1812  1  0.233890  0.671530  0.371800  1.0  -0.2769
  N  N1813  1  0.238270  0.676500  0.581200  1.0  -0.326
  N  N1814  1  0.244950  0.856220  0.298300  1.0  -0.2525
  N  N1815  1  0.249350  0.828130  0.344600  1.0  -0.2529
  N  N1816  1  0.355680  0.558590  0.943100  1.0  -0.3342
  N  N1817  1  0.713350  0.284030  0.980000  1.0  -0.2921
  N  N1818  1  0.697810  0.258200  0.939400  1.0  -0.2691
  N  N1819  1  0.706360  0.176270  0.920600  1.0  -0.2987
  N  N1820  1  0.733890  0.171530  0.871800  1.0  -0.2769
  N  N1821  1  0.738270  0.176500  0.081200  1.0  -0.326
  N  N1822  1  0.744950  0.356220  0.798300  1.0  -0.2525
  N  N1823  1  0.749350  0.328130  0.844600  1.0  -0.2529
  N  N1824  1  0.855680  0.058590  0.443100  1.0  -0.3342
  N  N1825  1  0.286650  0.215970  0.980000  1.0  -0.2925
  N  N1826  1  0.302190  0.241800  0.939400  1.0  -0.2678
  N  N1827  1  0.293640  0.323730  0.920600  1.0  -0.2986
  N  N1828  1  0.266110  0.328470  0.871800  1.0  -0.2755
  N  N1829  1  0.261730  0.323500  0.081200  1.0  -0.3269
  N  N1830  1  0.255050  0.143780  0.798300  1.0  -0.2516
  N  N1831  1  0.250650  0.171870  0.844600  1.0  -0.2523
  N  N1832  1  0.144320  0.441410  0.443100  1.0  -0.3359
  N  N1833  1  0.786650  0.715970  0.480000  1.0  -0.2925
  N  N1834  1  0.802190  0.741800  0.439400  1.0  -0.2678
  N  N1835  1  0.793640  0.823730  0.420600  1.0  -0.2986
  N  N1836  1  0.766110  0.828470  0.371800  1.0  -0.2755
  N  N1837  1  0.761730  0.823500  0.581200  1.0  -0.3269
  N  N1838  1  0.755050  0.643780  0.298300  1.0  -0.2516
  N  N1839  1  0.750650  0.671870  0.344600  1.0  -0.2523
  N  N1840  1  0.644320  0.941410  0.943100  1.0  -0.3359
  N  N1841  1  0.465970  0.463350  0.770000  1.0  -0.295
  N  N1842  1  0.491800  0.447810  0.810600  1.0  -0.2683
  N  N1843  1  0.573730  0.456360  0.829400  1.0  -0.297
  N  N1844  1  0.578470  0.483890  0.878200  1.0  -0.2734
  N  N1845  1  0.573500  0.488270  0.668800  1.0  -0.3268
  N  N1846  1  0.393780  0.494950  0.951700  1.0  -0.2543
  N  N1847  1  0.421870  0.499350  0.905400  1.0  -0.2529
  N  N1848  1  0.691410  0.605680  0.306900  1.0  -0.3346
  N  N1849  1  0.965970  0.963350  0.270000  1.0  -0.295
  N  N1850  1  0.991800  0.947810  0.310600  1.0  -0.2683
  N  N1851  1  0.073730  0.956360  0.329400  1.0  -0.297
  N  N1852  1  0.078470  0.983890  0.378200  1.0  -0.2734
  N  N1853  1  0.073500  0.988270  0.168800  1.0  -0.3268
  N  N1854  1  0.893780  0.994950  0.451700  1.0  -0.2543
  N  N1855  1  0.921870  0.999350  0.405400  1.0  -0.2529
  N  N1856  1  0.191410  0.105680  0.806900  1.0  -0.3346
  N  N1857  1  0.034030  0.536650  0.270000  1.0  -0.2967
  N  N1858  1  0.008200  0.552190  0.310600  1.0  -0.2695
  N  N1859  1  0.926270  0.543640  0.329400  1.0  -0.2984
  N  N1860  1  0.921530  0.516110  0.378200  1.0  -0.2748
  N  N1861  1  0.926500  0.511730  0.168800  1.0  -0.3277
  N  N1862  1  0.106220  0.505050  0.451700  1.0  -0.2535
  N  N1863  1  0.078130  0.500650  0.405400  1.0  -0.2535
  N  N1864  1  0.808590  0.394320  0.806900  1.0  -0.3353
  N  N1865  1  0.534030  0.036650  0.770000  1.0  -0.2967
  N  N1866  1  0.508200  0.052190  0.810600  1.0  -0.2695
  N  N1867  1  0.426270  0.043640  0.829400  1.0  -0.2984
  N  N1868  1  0.421530  0.016110  0.878200  1.0  -0.2748
  N  N1869  1  0.426500  0.011730  0.668800  1.0  -0.3277
  N  N1870  1  0.606220  0.005050  0.951700  1.0  -0.2535
  N  N1871  1  0.578130  0.000650  0.905400  1.0  -0.2535
  N  N1872  1  0.308590  0.894320  0.306900  1.0  -0.3353
  N  N1873  1  0.786650  0.215970  0.520000  1.0  -0.2939
  N  N1874  1  0.802190  0.241800  0.560600  1.0  -0.2677
  N  N1875  1  0.793640  0.323730  0.579400  1.0  -0.2979
  N  N1876  1  0.766110  0.328470  0.628200  1.0  -0.2759
  N  N1877  1  0.761730  0.323500  0.418800  1.0  -0.3267
  N  N1878  1  0.755050  0.143780  0.701700  1.0  -0.2521
  N  N1879  1  0.750650  0.171870  0.655400  1.0  -0.2524
  N  N1880  1  0.644320  0.441410  0.056900  1.0  -0.3355
  N  N1881  1  0.286650  0.715970  0.020000  1.0  -0.2939
  N  N1882  1  0.302190  0.741800  0.060600  1.0  -0.2677
  N  N1883  1  0.293640  0.823730  0.079400  1.0  -0.2979
  N  N1884  1  0.266110  0.828470  0.128200  1.0  -0.2759
  N  N1885  1  0.261730  0.823500  0.918800  1.0  -0.3267
  N  N1886  1  0.255050  0.643780  0.201700  1.0  -0.2521
  N  N1887  1  0.250650  0.671870  0.155400  1.0  -0.2524
  N  N1888  1  0.144320  0.941410  0.556900  1.0  -0.3355
  N  N1889  1  0.713350  0.784030  0.020000  1.0  -0.2938
  N  N1890  1  0.697810  0.758200  0.060600  1.0  -0.2695
  N  N1891  1  0.706360  0.676270  0.079400  1.0  -0.2982
  N  N1892  1  0.733890  0.671530  0.128200  1.0  -0.276
  N  N1893  1  0.738270  0.676500  0.918800  1.0  -0.3261
  N  N1894  1  0.744950  0.856220  0.201700  1.0  -0.2532
  N  N1895  1  0.749350  0.828130  0.155400  1.0  -0.2526
  N  N1896  1  0.855680  0.558590  0.556900  1.0  -0.3343
  N  N1897  1  0.213350  0.284030  0.520000  1.0  -0.2938
  N  N1898  1  0.197810  0.258200  0.560600  1.0  -0.2695
  N  N1899  1  0.206360  0.176270  0.579400  1.0  -0.2982
  N  N1900  1  0.233890  0.171530  0.628200  1.0  -0.276
  N  N1901  1  0.238270  0.176500  0.418800  1.0  -0.3261
  N  N1902  1  0.244950  0.356220  0.701700  1.0  -0.2532
  N  N1903  1  0.249350  0.328130  0.655400  1.0  -0.2526
  N  N1904  1  0.355680  0.058590  0.056900  1.0  -0.3343
  O  O1905  1  0.594980  0.514000  0.256700  1.0  -0.5695
  O  O1906  1  0.495500  0.525600  0.321030  1.0  -0.5877
  O  O1907  1  0.550580  0.567360  0.111520  1.0  -0.5825
  O  O1908  1  0.452280  0.579450  0.286700  1.0  -0.5564
  O  O1909  1  0.385260  0.566980  0.100260  1.0  -0.5875
  O  O1910  1  0.463390  0.496330  0.194290  1.0  -0.5868
  O  O1911  1  0.649190  0.491690  0.932880  1.0  -0.5789
  O  O1912  1  0.617590  0.548450  0.125460  1.0  -0.5972
  O  O1913  1  0.574970  0.453260  0.026020  1.0  -0.5737
  O  O1914  1  0.094980  0.014000  0.756700  1.0  -0.5695
  O  O1915  1  0.995500  0.025600  0.821030  1.0  -0.5877
  O  O1916  1  0.050580  0.067360  0.611520  1.0  -0.5825
  O  O1917  1  0.952280  0.079450  0.786700  1.0  -0.5564
  O  O1918  1  0.885260  0.066980  0.600260  1.0  -0.5875
  O  O1919  1  0.963390  0.996330  0.694290  1.0  -0.5868
  O  O1920  1  0.149190  0.991690  0.432880  1.0  -0.5789
  O  O1921  1  0.117590  0.048450  0.625460  1.0  -0.5972
  O  O1922  1  0.074970  0.953260  0.526020  1.0  -0.5737
  O  O1923  1  0.905020  0.486000  0.756700  1.0  -0.5698
  O  O1924  1  0.004500  0.474400  0.821030  1.0  -0.5875
  O  O1925  1  0.949420  0.432640  0.611520  1.0  -0.5841
  O  O1926  1  0.047720  0.420550  0.786700  1.0  -0.5577
  O  O1927  1  0.114740  0.433020  0.600260  1.0  -0.5863
  O  O1928  1  0.036610  0.503670  0.694290  1.0  -0.5871
  O  O1929  1  0.850810  0.508310  0.432880  1.0  -0.5788
  O  O1930  1  0.882410  0.451550  0.625460  1.0  -0.5972
  O  O1931  1  0.925030  0.546740  0.526020  1.0  -0.5732
  O  O1932  1  0.405020  0.986000  0.256700  1.0  -0.5698
  O  O1933  1  0.504500  0.974400  0.321030  1.0  -0.5875
  O  O1934  1  0.449420  0.932640  0.111520  1.0  -0.5841
  O  O1935  1  0.547720  0.920550  0.286700  1.0  -0.5577
  O  O1936  1  0.614740  0.933020  0.100260  1.0  -0.5863
  O  O1937  1  0.536610  0.003670  0.194290  1.0  -0.5871
  O  O1938  1  0.350810  0.008310  0.932880  1.0  -0.5788
  O  O1939  1  0.382410  0.951550  0.125460  1.0  -0.5972
  O  O1940  1  0.425030  0.046740  0.026020  1.0  -0.5732
  O  O1941  1  0.236000  0.844980  0.506700  1.0  -0.5702
  O  O1942  1  0.224400  0.745500  0.571030  1.0  -0.5855
  O  O1943  1  0.182640  0.800580  0.361520  1.0  -0.5835
  O  O1944  1  0.170550  0.702280  0.536700  1.0  -0.5608
  O  O1945  1  0.183020  0.635260  0.350260  1.0  -0.5865
  O  O1946  1  0.253670  0.713390  0.444290  1.0  -0.5874
  O  O1947  1  0.258310  0.899190  0.182880  1.0  -0.5785
  O  O1948  1  0.201550  0.867590  0.375460  1.0  -0.5962
  O  O1949  1  0.296740  0.824970  0.276020  1.0  -0.5712
  O  O1950  1  0.736000  0.344980  0.006700  1.0  -0.5702
  O  O1951  1  0.724400  0.245500  0.071030  1.0  -0.5855
  O  O1952  1  0.682640  0.300580  0.861520  1.0  -0.5835
  O  O1953  1  0.670550  0.202280  0.036700  1.0  -0.5608
  O  O1954  1  0.683020  0.135260  0.850260  1.0  -0.5865
  O  O1955  1  0.753670  0.213390  0.944290  1.0  -0.5874
  O  O1956  1  0.758310  0.399190  0.682880  1.0  -0.5785
  O  O1957  1  0.701550  0.367590  0.875460  1.0  -0.5962
  O  O1958  1  0.796740  0.324970  0.776020  1.0  -0.5712
  O  O1959  1  0.264000  0.155020  0.006700  1.0  -0.5714
  O  O1960  1  0.275600  0.254500  0.071030  1.0  -0.587
  O  O1961  1  0.317360  0.199420  0.861520  1.0  -0.5829
  O  O1962  1  0.329450  0.297720  0.036700  1.0  -0.5615
  O  O1963  1  0.316980  0.364740  0.850260  1.0  -0.5868
  O  O1964  1  0.246330  0.286610  0.944290  1.0  -0.5866
  O  O1965  1  0.241690  0.100810  0.682880  1.0  -0.5786
  O  O1966  1  0.298450  0.132410  0.875460  1.0  -0.5955
  O  O1967  1  0.203260  0.175030  0.776020  1.0  -0.5711
  O  O1968  1  0.764000  0.655020  0.506700  1.0  -0.5714
  O  O1969  1  0.775600  0.754500  0.571030  1.0  -0.587
  O  O1970  1  0.817360  0.699420  0.361520  1.0  -0.5829
  O  O1971  1  0.829450  0.797720  0.536700  1.0  -0.5615
  O  O1972  1  0.816980  0.864740  0.350260  1.0  -0.5868
  O  O1973  1  0.746330  0.786610  0.444290  1.0  -0.5866
  O  O1974  1  0.741690  0.600810  0.182880  1.0  -0.5786
  O  O1975  1  0.798450  0.632410  0.375460  1.0  -0.5955
  O  O1976  1  0.703260  0.675030  0.276020  1.0  -0.5711
  O  O1977  1  0.405020  0.486000  0.743300  1.0  -0.5696
  O  O1978  1  0.504500  0.474400  0.678970  1.0  -0.5884
  O  O1979  1  0.449420  0.432640  0.888480  1.0  -0.5848
  O  O1980  1  0.547720  0.420550  0.713300  1.0  -0.5574
  O  O1981  1  0.614740  0.433020  0.899740  1.0  -0.5868
  O  O1982  1  0.536610  0.503670  0.805710  1.0  -0.5872
  O  O1983  1  0.350810  0.508310  0.067120  1.0  -0.5789
  O  O1984  1  0.382410  0.451550  0.874540  1.0  -0.5968
  O  O1985  1  0.425030  0.546740  0.973980  1.0  -0.5734
  O  O1986  1  0.905020  0.986000  0.243300  1.0  -0.5696
  O  O1987  1  0.004500  0.974400  0.178970  1.0  -0.5884
  O  O1988  1  0.949420  0.932640  0.388480  1.0  -0.5848
  O  O1989  1  0.047720  0.920550  0.213300  1.0  -0.5574
  O  O1990  1  0.114740  0.933020  0.399740  1.0  -0.5868
  O  O1991  1  0.036610  0.003670  0.305710  1.0  -0.5872
  O  O1992  1  0.850810  0.008310  0.567120  1.0  -0.5789
  O  O1993  1  0.882410  0.951550  0.374540  1.0  -0.5968
  O  O1994  1  0.925030  0.046740  0.473980  1.0  -0.5734
  O  O1995  1  0.094980  0.514000  0.243300  1.0  -0.5695
  O  O1996  1  0.995500  0.525600  0.178970  1.0  -0.5881
  O  O1997  1  0.050580  0.567360  0.388480  1.0  -0.583
  O  O1998  1  0.952280  0.579450  0.213300  1.0  -0.5574
  O  O1999  1  0.885260  0.566980  0.399740  1.0  -0.5879
  O  O2000  1  0.963390  0.496330  0.305710  1.0  -0.5863
  O  O2001  1  0.149190  0.491690  0.567120  1.0  -0.5795
  O  O2002  1  0.117590  0.548450  0.374540  1.0  -0.5974
  O  O2003  1  0.074970  0.453260  0.473980  1.0  -0.5729
  O  O2004  1  0.594980  0.014000  0.743300  1.0  -0.5695
  O  O2005  1  0.495500  0.025600  0.678970  1.0  -0.5881
  O  O2006  1  0.550580  0.067360  0.888480  1.0  -0.583
  O  O2007  1  0.452280  0.079450  0.713300  1.0  -0.5574
  O  O2008  1  0.385260  0.066980  0.899740  1.0  -0.5879
  O  O2009  1  0.463390  0.996330  0.805710  1.0  -0.5863
  O  O2010  1  0.649190  0.991690  0.067120  1.0  -0.5795
  O  O2011  1  0.617590  0.048450  0.874540  1.0  -0.5974
  O  O2012  1  0.574970  0.953260  0.973980  1.0  -0.5729
  O  O2013  1  0.764000  0.155020  0.493300  1.0  -0.5711
  O  O2014  1  0.775600  0.254500  0.428970  1.0  -0.5874
  O  O2015  1  0.817360  0.199420  0.638480  1.0  -0.584
  O  O2016  1  0.829450  0.297720  0.463300  1.0  -0.5622
  O  O2017  1  0.816980  0.364740  0.649740  1.0  -0.5872
  O  O2018  1  0.746330  0.286610  0.555710  1.0  -0.5867
  O  O2019  1  0.741690  0.100810  0.817120  1.0  -0.5791
  O  O2020  1  0.798450  0.132410  0.624540  1.0  -0.596
  O  O2021  1  0.703260  0.175030  0.723980  1.0  -0.5706
  O  O2022  1  0.264000  0.655020  0.993300  1.0  -0.5711
  O  O2023  1  0.275600  0.754500  0.928970  1.0  -0.5874
  O  O2024  1  0.317360  0.699420  0.138480  1.0  -0.584
  O  O2025  1  0.329450  0.797720  0.963300  1.0  -0.5622
  O  O2026  1  0.316980  0.864740  0.149740  1.0  -0.5872
  O  O2027  1  0.246330  0.786610  0.055710  1.0  -0.5867
  O  O2028  1  0.241690  0.600810  0.317120  1.0  -0.5791
  O  O2029  1  0.298450  0.632410  0.124540  1.0  -0.596
  O  O2030  1  0.203260  0.675030  0.223980  1.0  -0.5706
  O  O2031  1  0.736000  0.844980  0.993300  1.0  -0.5705
  O  O2032  1  0.724400  0.745500  0.928970  1.0  -0.5874
  O  O2033  1  0.682640  0.800580  0.138480  1.0  -0.5842
  O  O2034  1  0.670550  0.702280  0.963300  1.0  -0.5599
  O  O2035  1  0.683020  0.635260  0.149740  1.0  -0.5868
  O  O2036  1  0.753670  0.713390  0.055710  1.0  -0.5874
  O  O2037  1  0.758310  0.899190  0.317120  1.0  -0.579
  O  O2038  1  0.701550  0.867590  0.124540  1.0  -0.5958
  O  O2039  1  0.796740  0.824970  0.223980  1.0  -0.5712
  O  O2040  1  0.236000  0.344980  0.493300  1.0  -0.5705
  O  O2041  1  0.224400  0.245500  0.428970  1.0  -0.5874
  O  O2042  1  0.182640  0.300580  0.638480  1.0  -0.5842
  O  O2043  1  0.170550  0.202280  0.463300  1.0  -0.5599
  O  O2044  1  0.183020  0.135260  0.649740  1.0  -0.5868
  O  O2045  1  0.253670  0.213390  0.555710  1.0  -0.5874
  O  O2046  1  0.258310  0.399190  0.817120  1.0  -0.5789
  O  O2047  1  0.201550  0.367590  0.624540  1.0  -0.5958
  O  O2048  1  0.296740  0.324970  0.723980  1.0  -0.5712
