# generated using pymatgen
data_Mn3H57C51N8O9
_symmetry_space_group_name_H-M   'P 1'
_cell_length_a   17.20400000
_cell_length_b   30.02920000
_cell_length_c   30.02920000
_cell_angle_alpha   85.29320000
_cell_angle_beta   73.35420000
_cell_angle_gamma   73.35420000
_symmetry_Int_Tables_number   1
_chemical_formula_structural   Mn3H57C51N8O9
_chemical_formula_sum   'Mn24 H456 C408 N64 O72'
_cell_volume   14240.75809294
_cell_formula_units_Z   8
loop_
 _symmetry_equiv_pos_site_id
 _symmetry_equiv_pos_as_xyz
  1  'x, y, z'
loop_
 _atom_site_type_symbol
 _atom_site_label
 _atom_site_symmetry_multiplicity
 _atom_site_fract_x
 _atom_site_fract_y
 _atom_site_fract_z
 _atom_site_occupancy
 _atom_site_charge
  Mn  Mn1  1  0.394030  0.964050  0.380610  1.0  0.9999
  Mn  Mn2  1  0.215020  0.077910  0.499960  1.0  0.973
  Mn  Mn3  1  0.640850  0.856840  0.416040  1.0  0.911
  Mn  Mn4  1  0.238690  0.535950  0.119390  1.0  1.0009
  Mn  Mn5  1  0.292900  0.422090  0.000040  1.0  0.971
  Mn  Mn6  1  0.413730  0.643160  0.083960  1.0  0.9152
  Mn  Mn7  1  0.774640  0.619390  0.464050  1.0  0.9986
  Mn  Mn8  1  0.714990  0.500040  0.577900  1.0  0.9676
  Mn  Mn9  1  0.056890  0.583960  0.356840  1.0  0.9165
  Mn  Mn10  1  0.358080  0.880610  0.035950  1.0  0.9993
  Mn  Mn11  1  0.292930  0.999960  0.922100  1.0  0.9687
  Mn  Mn12  1  0.497690  0.916040  0.143160  1.0  0.915
  Mn  Mn13  1  0.605970  0.035950  0.619390  1.0  0.9989
  Mn  Mn14  1  0.784980  0.922090  0.500040  1.0  0.9683
  Mn  Mn15  1  0.359150  0.143160  0.583960  1.0  0.9163
  Mn  Mn16  1  0.761310  0.464050  0.880610  1.0  1.001
  Mn  Mn17  1  0.707100  0.577910  0.999960  1.0  0.9707
  Mn  Mn18  1  0.586270  0.356840  0.916040  1.0  0.9118
  Mn  Mn19  1  0.225360  0.380610  0.535950  1.0  0.9973
  Mn  Mn20  1  0.285010  0.499960  0.422100  1.0  0.9651
  Mn  Mn21  1  0.943110  0.416040  0.643160  1.0  0.9173
  Mn  Mn22  1  0.641920  0.119390  0.964050  1.0  0.9994
  Mn  Mn23  1  0.707070  0.000040  0.077900  1.0  0.9695
  Mn  Mn24  1  0.502310  0.083960  0.856840  1.0  0.9208
  H  H25  1  0.273800  0.850700  0.402300  1.0  0.1174
  H  H26  1  0.140700  0.847600  0.446800  1.0  0.1037
  H  H27  1  0.046000  0.912100  0.486500  1.0  0.1049
  H  H28  1  0.087100  0.978800  0.490000  1.0  0.1054
  H  H29  1  0.380900  0.108400  0.441400  1.0  0.1069
  H  H30  1  0.476300  0.076700  0.424700  1.0  0.1058
  H  H31  1  0.465000  0.139700  0.375100  1.0  0.0888
  H  H32  1  0.474700  0.095300  0.345700  1.0  0.0854
  H  H33  1  0.328900  0.117200  0.354000  1.0  0.0768
  H  H34  1  0.315500  0.159800  0.386600  1.0  0.076
  H  H35  1  0.406700  0.152800  0.290200  1.0  0.0707
  H  H36  1  0.394800  0.195200  0.322800  1.0  0.0772
  H  H37  1  0.247600  0.214600  0.333200  1.0  0.1123
  H  H38  1  0.298000  0.217400  0.279600  1.0  0.113
  H  H39  1  0.262300  0.173600  0.298200  1.0  0.1157
  H  H40  1  0.084500  0.192600  0.426200  1.0  0.1041
  H  H41  1  0.068800  0.270800  0.426800  1.0  0.0995
  H  H42  1  0.126500  0.302200  0.474200  1.0  0.1127
  H  H43  1  0.211900  0.251600  0.515800  1.0  0.0973
  H  H44  1  0.378400  0.990400  0.584000  1.0  0.0971
  H  H45  1  0.373200  0.035300  0.611300  1.0  0.0983
  H  H46  1  0.295500  0.984200  0.659400  1.0  0.0808
  H  H47  1  0.232400  0.996700  0.627100  1.0  0.0803
  H  H48  1  0.189600  0.075800  0.650000  1.0  0.0777
  H  H49  1  0.254800  0.064600  0.680800  1.0  0.0713
  H  H50  1  0.175400  0.015900  0.729500  1.0  0.0812
  H  H51  1  0.108000  0.031600  0.700000  1.0  0.0762
  H  H52  1  0.124600  0.108600  0.728200  1.0  0.0889
  H  H53  1  0.043400  0.089200  0.744600  1.0  0.1033
  H  H54  1  0.113700  0.074900  0.772300  1.0  0.1008
  H  H55  1  0.058400  0.153900  0.567300  1.0  0.0786
  H  H56  1  0.950800  0.157200  0.633600  1.0  0.0937
  H  H57  1  0.113400  0.018200  0.566800  1.0  0.0787
  H  H58  1  0.009400  0.019500  0.636500  1.0  0.128
  H  H59  1  0.898500  0.116800  0.708600  1.0  0.0782
  H  H60  1  0.916500  0.061500  0.706700  1.0  0.0688
  H  H61  1  0.822600  0.808000  0.285000  1.0  0.1044
  H  H62  1  0.810000  0.815700  0.209700  1.0  0.1025
  H  H63  1  0.687600  0.863600  0.193800  1.0  0.1124
  H  H64  1  0.577000  0.902200  0.254400  1.0  0.0901
  H  H65  1  0.371700  0.954600  0.491400  1.0  0.0981
  H  H66  1  0.427900  0.935700  0.526900  1.0  0.0974
  H  H67  1  0.339900  0.881100  0.494700  1.0  0.0848
  H  H68  1  0.399100  0.860600  0.528200  1.0  0.0829
  H  H69  1  0.307300  0.908700  0.588100  1.0  0.0664
  H  H70  1  0.252700  0.937000  0.554800  1.0  0.062
  H  H71  1  0.263000  0.845700  0.581900  1.0  0.0794
  H  H72  1  0.204700  0.876200  0.550600  1.0  0.0936
  H  H73  1  0.136800  0.936000  0.614200  1.0  0.1069
  H  H74  1  0.193000  0.904500  0.645500  1.0  0.1073
  H  H75  1  0.120800  0.887400  0.634200  1.0  0.1097
  H  H76  1  0.692700  0.084400  0.835600  1.0  0.0799
  H  H77  1  0.808100  0.092700  0.776700  1.0  0.1276
  H  H78  1  0.560500  0.095300  0.746500  1.0  0.0575
  H  H79  1  0.669800  0.101700  0.686100  1.0  0.1169
  H  H80  1  0.816800  0.125900  0.666667  1.0  0.0728
  H  H81  1  0.837500  0.071300  0.660900  1.0  0.0712
  H  H82  1  0.026800  0.649300  0.097700  1.0  0.1174
  H  H83  1  0.935100  0.652400  0.053200  1.0  0.1034
  H  H84  1  0.944600  0.587900  0.013500  1.0  0.1043
  H  H85  1  0.055900  0.521200  0.010000  1.0  0.1054
  H  H86  1  0.430700  0.391600  0.058600  1.0  0.1046
  H  H87  1  0.477700  0.423300  0.075300  1.0  0.1047
  H  H88  1  0.479800  0.360300  0.124900  1.0  0.0893
  H  H89  1  0.415700  0.404700  0.154300  1.0  0.0837
  H  H90  1  0.300100  0.382800  0.146000  1.0  0.0789
  H  H91  1  0.361900  0.340200  0.113400  1.0  0.0732
  H  H92  1  0.349700  0.347200  0.209800  1.0  0.0701
  H  H93  1  0.412800  0.304800  0.177200  1.0  0.0766
  H  H94  1  0.295400  0.285400  0.166800  1.0  0.1144
  H  H95  1  0.295000  0.282600  0.220400  1.0  0.1125
  H  H96  1  0.234100  0.326400  0.201800  1.0  0.1164
  H  H97  1  0.203300  0.307400  0.073800  1.0  0.1055
  H  H98  1  0.266400  0.229200  0.073200  1.0  0.0993
  H  H99  1  0.402900  0.197800  0.025800  1.0  0.1132
  H  H100  1  0.479300  0.248400  0.984200  1.0  0.0981
  H  H101  1  0.452800  0.509600  0.916000  1.0  0.0972
  H  H102  1  0.519800  0.464700  0.888700  1.0  0.0969
  H  H103  1  0.439100  0.515800  0.840600  1.0  0.0804
  H  H104  1  0.356200  0.503300  0.872900  1.0  0.0809
  H  H105  1  0.415400  0.424200  0.850000  1.0  0.0778
  H  H106  1  0.500200  0.435400  0.819200  1.0  0.0643
  H  H107  1  0.420800  0.484100  0.770500  1.0  0.0827
  H  H108  1  0.339600  0.468400  0.800000  1.0  0.0777
  H  H109  1  0.461400  0.391400  0.771800  1.0  0.089
  H  H110  1  0.377200  0.410800  0.755400  1.0  0.1016
  H  H111  1  0.460900  0.425100  0.727700  1.0  0.099
  H  H112  1  0.279600  0.346100  0.932700  1.0  0.0767
  H  H113  1  0.241600  0.342800  0.866400  1.0  0.0921
  H  H114  1  0.198400  0.481800  0.933200  1.0  0.0799
  H  H115  1  0.165400  0.480500  0.863500  1.0  0.1289
  H  H116  1  0.223900  0.383200  0.791400  1.0  0.0803
  H  H117  1  0.184700  0.438500  0.793300  1.0  0.0692
  H  H118  1  0.415600  0.692000  0.215000  1.0  0.1051
  H  H119  1  0.335400  0.684300  0.290300  1.0  0.1032
  H  H120  1  0.245000  0.636400  0.306200  1.0  0.1119
  H  H121  1  0.233600  0.597800  0.245600  1.0  0.0894
  H  H122  1  0.317700  0.545400  0.008600  1.0  0.0992
  H  H123  1  0.390500  0.564300  0.973100  1.0  0.0971
  H  H124  1  0.215700  0.618900  0.005300  1.0  0.0869
  H  H125  1  0.287900  0.639400  0.971800  1.0  0.0866
  H  H126  1  0.304100  0.591300  0.911900  1.0  0.0541
  H  H127  1  0.244500  0.563000  0.945200  1.0  0.062
  H  H128  1  0.190600  0.654300  0.918100  1.0  0.0816
  H  H129  1  0.131500  0.623800  0.949400  1.0  0.0876
  H  H130  1  0.187000  0.564000  0.885800  1.0  0.1091
  H  H131  1  0.243000  0.595500  0.854500  1.0  0.1034
  H  H132  1  0.142400  0.612600  0.865800  1.0  0.1107
  H  H133  1  0.112700  0.415600  0.664400  1.0  0.0794
  H  H134  1  0.177500  0.407300  0.723300  1.0  0.1298
  H  H135  1  0.902300  0.404700  0.753500  1.0  0.0584
  H  H136  1  0.957600  0.398300  0.813900  1.0  0.116
  H  H137  1  0.109400  0.374100  0.833300  1.0  0.0699
  H  H138  1  0.069700  0.428700  0.839100  1.0  0.0685
  H  H139  1  0.676100  0.597700  0.350700  1.0  0.1182
  H  H140  1  0.587500  0.553200  0.347600  1.0  0.1028
  H  H141  1  0.532500  0.513500  0.412100  1.0  0.1056
  H  H142  1  0.577100  0.510000  0.478800  1.0  0.1054
  H  H143  1  0.822300  0.558600  0.608400  1.0  0.1097
  H  H144  1  0.901000  0.575300  0.576700  1.0  0.1043
  H  H145  1  0.840100  0.624900  0.639700  1.0  0.0934
  H  H146  1  0.820400  0.654300  0.595300  1.0  0.0854
  H  H147  1  0.682900  0.646000  0.617200  1.0  0.0759
  H  H148  1  0.702100  0.613400  0.659800  1.0  0.0777
  H  H149  1  0.696900  0.709800  0.652800  1.0  0.0737
  H  H150  1  0.717600  0.677200  0.695200  1.0  0.0787
  H  H151  1  0.580800  0.666800  0.714600  1.0  0.1134
  H  H152  1  0.577600  0.720400  0.717400  1.0  0.1111
  H  H153  1  0.560500  0.701800  0.673600  1.0  0.1183
  H  H154  1  0.510700  0.573800  0.692600  1.0  0.1051
  H  H155  1  0.495600  0.573200  0.770800  1.0  0.0991
  H  H156  1  0.600700  0.525800  0.802200  1.0  0.1118
  H  H157  1  0.727700  0.484200  0.751600  1.0  0.0972
  H  H158  1  0.962400  0.416000  0.490400  1.0  0.097
  H  H159  1  0.984500  0.388700  0.535300  1.0  0.0981
  H  H160  1  0.954900  0.340600  0.484200  1.0  0.0797
  H  H161  1  0.859500  0.372900  0.496700  1.0  0.082
  H  H162  1  0.839600  0.350000  0.575800  1.0  0.0782
  H  H163  1  0.935600  0.319200  0.564600  1.0  0.0709
  H  H164  1  0.904900  0.270500  0.515900  1.0  0.0819
  H  H165  1  0.808000  0.300000  0.531600  1.0  0.0781
  H  H166  1  0.852800  0.271800  0.608600  1.0  0.0891
  H  H167  1  0.788000  0.255400  0.589200  1.0  0.1039
  H  H168  1  0.886000  0.227700  0.574900  1.0  0.0979
  H  H169  1  0.625700  0.432700  0.653900  1.0  0.0781
  H  H170  1  0.584400  0.366400  0.657200  1.0  0.0941
  H  H171  1  0.680200  0.433200  0.518200  1.0  0.0791
  H  H172  1  0.645900  0.363500  0.519500  1.0  0.1285
  H  H173  1  0.607100  0.291400  0.616800  1.0  0.0777
  H  H174  1  0.623200  0.293300  0.561500  1.0  0.0699
  H  H175  1  0.107600  0.715000  0.308000  1.0  0.1045
  H  H176  1  0.019700  0.790300  0.315700  1.0  0.1026
  H  H177  1  0.881400  0.806200  0.363600  1.0  0.1121
  H  H178  1  0.831400  0.745600  0.402200  1.0  0.0897
  H  H179  1  0.863100  0.508600  0.454600  1.0  0.0976
  H  H180  1  0.954800  0.473100  0.435700  1.0  0.0976
  H  H181  1  0.834600  0.505300  0.381100  1.0  0.0878
  H  H182  1  0.927300  0.471800  0.360600  1.0  0.0856
  H  H183  1  0.895400  0.411900  0.408700  1.0  0.0642
  H  H184  1  0.807500  0.445200  0.437000  1.0  0.0636
  H  H185  1  0.844900  0.418100  0.345700  1.0  0.0799
  H  H186  1  0.755300  0.449400  0.376200  1.0  0.0933
  H  H187  1  0.751000  0.385800  0.436000  1.0  0.1045
  H  H188  1  0.838500  0.354500  0.404500  1.0  0.1025
  H  H189  1  0.755000  0.365800  0.387400  1.0  0.1099
  H  H190  1  0.528300  0.164400  0.584400  1.0  0.0784
  H  H191  1  0.584800  0.223300  0.592700  1.0  0.1278
  H  H192  1  0.307000  0.253500  0.595300  1.0  0.0583
  H  H193  1  0.355900  0.313900  0.601700  1.0  0.1165
  H  H194  1  0.483500  0.333333  0.625900  1.0  0.0772
  H  H195  1  0.498400  0.339100  0.571300  1.0  0.073
  H  H196  1  0.124500  0.902300  0.149300  1.0  0.1162
  H  H197  1  0.988300  0.946800  0.152400  1.0  0.1036
  H  H198  1  0.958100  0.986500  0.087900  1.0  0.1061
  H  H199  1  0.065900  0.990000  0.021200  1.0  0.1061
  H  H200  1  0.489300  0.941400  0.891600  1.0  0.1081
  H  H201  1  0.553000  0.924700  0.923300  1.0  0.1052
  H  H202  1  0.604700  0.875100  0.860300  1.0  0.0912
  H  H203  1  0.570000  0.845700  0.904700  1.0  0.0869
  H  H204  1  0.446100  0.854000  0.882800  1.0  0.0786
  H  H205  1  0.475300  0.886600  0.840200  1.0  0.0758
  H  H206  1  0.559500  0.790200  0.847200  1.0  0.0722
  H  H207  1  0.590000  0.822800  0.804800  1.0  0.0779
  H  H208  1  0.462200  0.833200  0.785400  1.0  0.115
  H  H209  1  0.515400  0.779600  0.782600  1.0  0.1124
  H  H210  1  0.435900  0.798200  0.826400  1.0  0.1155
  H  H211  1  0.277100  0.926200  0.807400  1.0  0.1046
  H  H212  1  0.339600  0.926800  0.729200  1.0  0.0988
  H  H213  1  0.428700  0.974200  0.697800  1.0  0.1121
  H  H214  1  0.463500  0.015800  0.748400  1.0  0.0988
  H  H215  1  0.368800  0.084000  0.009600  1.0  0.0979
  H  H216  1  0.408500  0.111300  0.964700  1.0  0.0977
  H  H217  1  0.279700  0.159400  0.015800  1.0  0.079
  H  H218  1  0.229100  0.127100  0.003300  1.0  0.0803
  H  H219  1  0.265400  0.150000  0.924200  1.0  0.0791
  H  H220  1  0.319400  0.180800  0.935400  1.0  0.0656
  H  H221  1  0.191300  0.229500  0.984100  1.0  0.0774
  H  H222  1  0.139600  0.200000  0.968400  1.0  0.0738
  H  H223  1  0.233200  0.228200  0.891400  1.0  0.0869
  H  H224  1  0.132600  0.244600  0.910800  1.0  0.104
  H  H225  1  0.188600  0.272300  0.925100  1.0  0.103
  H  H226  1  0.212300  0.067300  0.846100  1.0  0.0777
  H  H227  1  0.108000  0.133600  0.842800  1.0  0.0939
  H  H228  1  0.131600  0.066800  0.981800  1.0  0.0821
  H  H229  1  0.028900  0.136500  0.980500  1.0  0.1289
  H  H230  1  0.015300  0.208600  0.883200  1.0  0.0821
  H  H231  1  0.978000  0.206700  0.938500  1.0  0.0702
  H  H232  1  0.630600  0.785000  0.192000  1.0  0.1048
  H  H233  1  0.625700  0.709700  0.184300  1.0  0.1031
  H  H234  1  0.551200  0.693800  0.136400  1.0  0.1131
  H  H235  1  0.479200  0.754400  0.097800  1.0  0.0902
  H  H236  1  0.326300  0.991400  0.045400  1.0  0.0971
  H  H237  1  0.363600  0.026900  0.064300  1.0  0.0986
  H  H238  1  0.221000  0.994700  0.118900  1.0  0.0889
  H  H239  1  0.259700  0.028200  0.139400  1.0  0.0872
  H  H240  1  0.216000  0.088100  0.091300  1.0  0.0633
  H  H241  1  0.189700  0.054800  0.063000  1.0  0.0662
  H  H242  1  0.108700  0.081900  0.154300  1.0  0.0837
  H  H243  1  0.080900  0.050600  0.123800  1.0  0.0919
  H  H244  1  0.072800  0.114200  0.064000  1.0  0.1054
  H  H245  1  0.097500  0.145500  0.095500  1.0  0.1034
  H  H246  1  0.008200  0.134200  0.112600  1.0  0.1089
  H  H247  1  0.777100  0.335600  0.915600  1.0  0.0787
  H  H248  1  0.900800  0.276700  0.907300  1.0  0.128
  H  H249  1  0.655800  0.246500  0.904700  1.0  0.0575
  H  H250  1  0.771500  0.186100  0.898300  1.0  0.1163
  H  H251  1  0.942700  0.166700  0.874100  1.0  0.0798
  H  H252  1  0.908800  0.160900  0.928700  1.0  0.0738
  H  H253  1  0.726200  0.149300  0.597700  1.0  0.1176
  H  H254  1  0.859300  0.152400  0.553200  1.0  0.1035
  H  H255  1  0.954000  0.087900  0.513500  1.0  0.105
  H  H256  1  0.912900  0.021200  0.510000  1.0  0.1057
  H  H257  1  0.619100  0.891600  0.558600  1.0  0.106
  H  H258  1  0.523700  0.923300  0.575300  1.0  0.1056
  H  H259  1  0.535000  0.860300  0.624900  1.0  0.0883
  H  H260  1  0.525300  0.904700  0.654300  1.0  0.085
  H  H261  1  0.671100  0.882800  0.646000  1.0  0.0769
  H  H262  1  0.684500  0.840200  0.613400  1.0  0.0728
  H  H263  1  0.593300  0.847200  0.709800  1.0  0.0714
  H  H264  1  0.605200  0.804800  0.677200  1.0  0.0793
  H  H265  1  0.752400  0.785400  0.666800  1.0  0.1124
  H  H266  1  0.702000  0.782600  0.720400  1.0  0.1138
  H  H267  1  0.737700  0.826400  0.701800  1.0  0.1185
  H  H268  1  0.915500  0.807400  0.573800  1.0  0.1051
  H  H269  1  0.931200  0.729200  0.573200  1.0  0.0999
  H  H270  1  0.873500  0.697800  0.525800  1.0  0.1133
  H  H271  1  0.788100  0.748400  0.484200  1.0  0.0959
  H  H272  1  0.621600  0.009600  0.416000  1.0  0.0968
  H  H273  1  0.626800  0.964700  0.388700  1.0  0.0986
  H  H274  1  0.704500  0.015800  0.340600  1.0  0.081
  H  H275  1  0.767600  0.003300  0.372900  1.0  0.0804
  H  H276  1  0.810400  0.924200  0.350000  1.0  0.0772
  H  H277  1  0.745200  0.935400  0.319200  1.0  0.0706
  H  H278  1  0.824600  0.984100  0.270500  1.0  0.0808
  H  H279  1  0.892000  0.968400  0.300000  1.0  0.077
  H  H280  1  0.875400  0.891400  0.271800  1.0  0.0886
  H  H281  1  0.956600  0.910800  0.255400  1.0  0.1046
  H  H282  1  0.886300  0.925100  0.227700  1.0  0.1016
  H  H283  1  0.941600  0.846100  0.432700  1.0  0.078
  H  H284  1  0.049200  0.842800  0.366400  1.0  0.0931
  H  H285  1  0.886600  0.981800  0.433200  1.0  0.0794
  H  H286  1  0.990600  0.980500  0.363500  1.0  0.1289
  H  H287  1  0.101500  0.883200  0.291400  1.0  0.0796
  H  H288  1  0.083500  0.938500  0.293300  1.0  0.0704
  H  H289  1  0.177400  0.192000  0.715000  1.0  0.1055
  H  H290  1  0.190000  0.184300  0.790300  1.0  0.1023
  H  H291  1  0.312400  0.136400  0.806200  1.0  0.1123
  H  H292  1  0.423000  0.097800  0.745600  1.0  0.0899
  H  H293  1  0.628300  0.045400  0.508600  1.0  0.0984
  H  H294  1  0.572100  0.064300  0.473100  1.0  0.0977
  H  H295  1  0.660100  0.118900  0.505300  1.0  0.0843
  H  H296  1  0.600900  0.139400  0.471800  1.0  0.0858
  H  H297  1  0.692700  0.091300  0.411900  1.0  0.0673
  H  H298  1  0.747300  0.063000  0.445200  1.0  0.0615
  H  H299  1  0.737000  0.154300  0.418100  1.0  0.0814
  H  H300  1  0.795300  0.123800  0.449400  1.0  0.0942
  H  H301  1  0.863200  0.064000  0.385800  1.0  0.1091
  H  H302  1  0.807000  0.095500  0.354500  1.0  0.1101
  H  H303  1  0.879200  0.112600  0.365800  1.0  0.1114
  H  H304  1  0.307300  0.915600  0.164400  1.0  0.0804
  H  H305  1  0.191900  0.907300  0.223300  1.0  0.1279
  H  H306  1  0.439500  0.904700  0.253500  1.0  0.0574
  H  H307  1  0.330200  0.898300  0.313900  1.0  0.1166
  H  H308  1  0.183200  0.874100  0.333333  1.0  0.0722
  H  H309  1  0.162500  0.928700  0.339100  1.0  0.0685
  H  H310  1  0.973200  0.350700  0.902300  1.0  0.1172
  H  H311  1  0.064900  0.347600  0.946800  1.0  0.1038
  H  H312  1  0.055400  0.412100  0.986500  1.0  0.1054
  H  H313  1  0.944100  0.478800  0.990000  1.0  0.1057
  H  H314  1  0.569300  0.608400  0.941400  1.0  0.1051
  H  H315  1  0.522300  0.576700  0.924700  1.0  0.1045
  H  H316  1  0.520200  0.639700  0.875100  1.0  0.0885
  H  H317  1  0.584300  0.595300  0.845700  1.0  0.0836
  H  H318  1  0.699900  0.617200  0.854000  1.0  0.0795
  H  H319  1  0.638100  0.659800  0.886600  1.0  0.0748
  H  H320  1  0.650300  0.652800  0.790200  1.0  0.0689
  H  H321  1  0.587200  0.695200  0.822800  1.0  0.0759
  H  H322  1  0.704600  0.714600  0.833200  1.0  0.115
  H  H323  1  0.705000  0.717400  0.779600  1.0  0.1148
  H  H324  1  0.765900  0.673600  0.798200  1.0  0.1193
  H  H325  1  0.796700  0.692600  0.926200  1.0  0.104
  H  H326  1  0.733600  0.770800  0.926800  1.0  0.0985
  H  H327  1  0.597100  0.802200  0.974200  1.0  0.1126
  H  H328  1  0.520700  0.751600  0.015800  1.0  0.097
  H  H329  1  0.547200  0.490400  0.084000  1.0  0.0976
  H  H330  1  0.480200  0.535300  0.111300  1.0  0.0965
  H  H331  1  0.560900  0.484200  0.159400  1.0  0.0805
  H  H332  1  0.643800  0.496700  0.127100  1.0  0.084
  H  H333  1  0.584600  0.575800  0.150000  1.0  0.078
  H  H334  1  0.499800  0.564600  0.180800  1.0  0.0676
  H  H335  1  0.579200  0.515900  0.229500  1.0  0.0839
  H  H336  1  0.660400  0.531600  0.200000  1.0  0.077
  H  H337  1  0.538600  0.608600  0.228200  1.0  0.0893
  H  H338  1  0.622800  0.589200  0.244600  1.0  0.1031
  H  H339  1  0.539100  0.574900  0.272300  1.0  0.1009
  H  H340  1  0.720400  0.653900  0.067300  1.0  0.0774
  H  H341  1  0.758400  0.657200  0.133600  1.0  0.0932
  H  H342  1  0.801600  0.518200  0.066800  1.0  0.0803
  H  H343  1  0.834600  0.519500  0.136500  1.0  0.128
  H  H344  1  0.776100  0.616800  0.208600  1.0  0.0802
  H  H345  1  0.815300  0.561500  0.206700  1.0  0.0686
  H  H346  1  0.584400  0.308000  0.785000  1.0  0.105
  H  H347  1  0.664600  0.315700  0.709700  1.0  0.1023
  H  H348  1  0.755000  0.363600  0.693800  1.0  0.1112
  H  H349  1  0.766400  0.402200  0.754400  1.0  0.0889
  H  H350  1  0.682300  0.454600  0.991400  1.0  0.0984
  H  H351  1  0.609500  0.435700  0.026900  1.0  0.0978
  H  H352  1  0.784300  0.381100  0.994700  1.0  0.0875
  H  H353  1  0.712100  0.360600  0.028200  1.0  0.0828
  H  H354  1  0.695900  0.408700  0.088100  1.0  0.0596
  H  H355  1  0.755500  0.437000  0.054800  1.0  0.0633
  H  H356  1  0.809400  0.345700  0.081900  1.0  0.0805
  H  H357  1  0.868500  0.376200  0.050600  1.0  0.0884
  H  H358  1  0.813000  0.436000  0.114200  1.0  0.1079
  H  H359  1  0.757000  0.404500  0.145500  1.0  0.1044
  H  H360  1  0.857600  0.387400  0.134200  1.0  0.1121
  H  H361  1  0.887300  0.584400  0.335600  1.0  0.0796
  H  H362  1  0.822500  0.592700  0.276700  1.0  0.1297
  H  H363  1  0.097700  0.595300  0.246500  1.0  0.0582
  H  H364  1  0.042400  0.601700  0.186100  1.0  0.1157
  H  H365  1  0.890600  0.625900  0.166700  1.0  0.0726
  H  H366  1  0.930300  0.571300  0.160900  1.0  0.0692
  H  H367  1  0.323900  0.402300  0.649300  1.0  0.118
  H  H368  1  0.412500  0.446800  0.652400  1.0  0.1024
  H  H369  1  0.467500  0.486500  0.587900  1.0  0.1057
  H  H370  1  0.422900  0.490000  0.521200  1.0  0.1056
  H  H371  1  0.177700  0.441400  0.391600  1.0  0.1087
  H  H372  1  0.099000  0.424700  0.423300  1.0  0.1045
  H  H373  1  0.159900  0.375100  0.360300  1.0  0.0925
  H  H374  1  0.179600  0.345700  0.404700  1.0  0.0869
  H  H375  1  0.317100  0.354000  0.382800  1.0  0.075
  H  H376  1  0.297900  0.386600  0.340200  1.0  0.0749
  H  H377  1  0.303100  0.290200  0.347200  1.0  0.0732
  H  H378  1  0.282400  0.322800  0.304800  1.0  0.0806
  H  H379  1  0.419200  0.333200  0.285400  1.0  0.115
  H  H380  1  0.422400  0.279600  0.282600  1.0  0.1119
  H  H381  1  0.439500  0.298200  0.326400  1.0  0.1183
  H  H382  1  0.489300  0.426200  0.307400  1.0  0.1047
  H  H383  1  0.504400  0.426800  0.229200  1.0  0.0984
  H  H384  1  0.399300  0.474200  0.197800  1.0  0.1121
  H  H385  1  0.272300  0.515800  0.248400  1.0  0.0961
  H  H386  1  0.037600  0.584000  0.509600  1.0  0.0974
  H  H387  1  0.015500  0.611300  0.464700  1.0  0.0981
  H  H388  1  0.045100  0.659400  0.515800  1.0  0.0784
  H  H389  1  0.140500  0.627100  0.503300  1.0  0.0811
  H  H390  1  0.160400  0.650000  0.424200  1.0  0.0786
  H  H391  1  0.064400  0.680800  0.435400  1.0  0.0711
  H  H392  1  0.095100  0.729500  0.484100  1.0  0.0818
  H  H393  1  0.192000  0.700000  0.468400  1.0  0.0777
  H  H394  1  0.147200  0.728200  0.391400  1.0  0.0889
  H  H395  1  0.212000  0.744600  0.410800  1.0  0.1054
  H  H396  1  0.114000  0.772300  0.425100  1.0  0.1025
  H  H397  1  0.374300  0.567300  0.346100  1.0  0.0785
  H  H398  1  0.415600  0.633600  0.342800  1.0  0.0945
  H  H399  1  0.319800  0.566800  0.481800  1.0  0.0802
  H  H400  1  0.354100  0.636500  0.480500  1.0  0.127
  H  H401  1  0.392900  0.708600  0.383200  1.0  0.0783
  H  H402  1  0.376800  0.706700  0.438500  1.0  0.0693
  H  H403  1  0.892400  0.285000  0.692000  1.0  0.1047
  H  H404  1  0.980300  0.209700  0.684300  1.0  0.1024
  H  H405  1  0.118600  0.193800  0.636400  1.0  0.1127
  H  H406  1  0.168600  0.254400  0.597800  1.0  0.0898
  H  H407  1  0.136900  0.491400  0.545400  1.0  0.0986
  H  H408  1  0.045200  0.526900  0.564300  1.0  0.0976
  H  H409  1  0.165400  0.494700  0.618900  1.0  0.0884
  H  H410  1  0.072700  0.528200  0.639400  1.0  0.0859
  H  H411  1  0.104600  0.588100  0.591300  1.0  0.0683
  H  H412  1  0.192500  0.554800  0.563000  1.0  0.0625
  H  H413  1  0.155100  0.581900  0.654300  1.0  0.0829
  H  H414  1  0.244700  0.550600  0.623800  1.0  0.0937
  H  H415  1  0.249000  0.614200  0.564000  1.0  0.1063
  H  H416  1  0.161500  0.645500  0.595500  1.0  0.1063
  H  H417  1  0.245000  0.634200  0.612600  1.0  0.1106
  H  H418  1  0.471700  0.835600  0.415600  1.0  0.079
  H  H419  1  0.415200  0.776700  0.407300  1.0  0.1281
  H  H420  1  0.693000  0.746500  0.404700  1.0  0.0576
  H  H421  1  0.644100  0.686100  0.398300  1.0  0.1165
  H  H422  1  0.516500  0.666667  0.374100  1.0  0.078
  H  H423  1  0.501600  0.660900  0.428700  1.0  0.0723
  H  H424  1  0.875500  0.097700  0.850700  1.0  0.1169
  H  H425  1  0.011700  0.053200  0.847600  1.0  0.1031
  H  H426  1  0.041900  0.013500  0.912100  1.0  0.1058
  H  H427  1  0.934100  0.010000  0.978800  1.0  0.1063
  H  H428  1  0.510700  0.058600  0.108400  1.0  0.1091
  H  H429  1  0.447000  0.075300  0.076700  1.0  0.1058
  H  H430  1  0.395300  0.124900  0.139700  1.0  0.0912
  H  H431  1  0.430000  0.154300  0.095300  1.0  0.0855
  H  H432  1  0.553900  0.146000  0.117200  1.0  0.0779
  H  H433  1  0.524700  0.113400  0.159800  1.0  0.0766
  H  H434  1  0.440500  0.209800  0.152800  1.0  0.0731
  H  H435  1  0.410000  0.177200  0.195200  1.0  0.0759
  H  H436  1  0.537800  0.166800  0.214600  1.0  0.1143
  H  H437  1  0.484600  0.220400  0.217400  1.0  0.1124
  H  H438  1  0.564100  0.201800  0.173600  1.0  0.1194
  H  H439  1  0.722900  0.073800  0.192600  1.0  0.1051
  H  H440  1  0.660400  0.073200  0.270800  1.0  0.0988
  H  H441  1  0.571300  0.025800  0.302200  1.0  0.1127
  H  H442  1  0.536500  0.984200  0.251600  1.0  0.0974
  H  H443  1  0.631200  0.916000  0.990400  1.0  0.0979
  H  H444  1  0.591500  0.888700  0.035300  1.0  0.0969
  H  H445  1  0.720300  0.840600  0.984200  1.0  0.0797
  H  H446  1  0.770900  0.872900  0.996700  1.0  0.0831
  H  H447  1  0.734600  0.850000  0.075800  1.0  0.0781
  H  H448  1  0.680600  0.819200  0.064600  1.0  0.0667
  H  H449  1  0.808700  0.770500  0.015900  1.0  0.0803
  H  H450  1  0.860400  0.800000  0.031600  1.0  0.0753
  H  H451  1  0.766800  0.771800  0.108600  1.0  0.0878
  H  H452  1  0.867400  0.755400  0.089200  1.0  0.1039
  H  H453  1  0.811400  0.727700  0.074900  1.0  0.0984
  H  H454  1  0.787700  0.932700  0.153900  1.0  0.0774
  H  H455  1  0.892000  0.866400  0.157200  1.0  0.0935
  H  H456  1  0.868400  0.933200  0.018200  1.0  0.0827
  H  H457  1  0.971100  0.863500  0.019500  1.0  0.1297
  H  H458  1  0.984700  0.791400  0.116800  1.0  0.0815
  H  H459  1  0.022000  0.793300  0.061500  1.0  0.0701
  H  H460  1  0.369400  0.215000  0.808000  1.0  0.1035
  H  H461  1  0.374300  0.290300  0.815700  1.0  0.103
  H  H462  1  0.448800  0.306200  0.863600  1.0  0.1125
  H  H463  1  0.520800  0.245600  0.902200  1.0  0.0901
  H  H464  1  0.673700  0.008600  0.954600  1.0  0.0961
  H  H465  1  0.636400  0.973100  0.935700  1.0  0.0986
  H  H466  1  0.779000  0.005300  0.881100  1.0  0.0885
  H  H467  1  0.740300  0.971800  0.860600  1.0  0.0856
  H  H468  1  0.784000  0.911900  0.908700  1.0  0.0656
  H  H469  1  0.810300  0.945200  0.937000  1.0  0.0666
  H  H470  1  0.891300  0.918100  0.845700  1.0  0.0825
  H  H471  1  0.919100  0.949400  0.876200  1.0  0.093
  H  H472  1  0.927200  0.885800  0.936000  1.0  0.1035
  H  H473  1  0.902500  0.854500  0.904500  1.0  0.1048
  H  H474  1  0.991800  0.865800  0.887400  1.0  0.1117
  H  H475  1  0.222900  0.664400  0.084400  1.0  0.0787
  H  H476  1  0.099200  0.723300  0.092700  1.0  0.128
  H  H477  1  0.344200  0.753500  0.095300  1.0  0.0574
  H  H478  1  0.228500  0.813900  0.101700  1.0  0.1161
  H  H479  1  0.057300  0.833300  0.125900  1.0  0.0785
  H  H480  1  0.091200  0.839100  0.071300  1.0  0.0745
  C  C481  1  0.260700  0.918160  0.418040  1.0  0.3169
  C  C482  1  0.235930  0.877260  0.419480  1.0  -0.2419
  C  C483  1  0.156800  0.875500  0.445700  1.0  -0.0977
  C  C484  1  0.101600  0.913200  0.470200  1.0  -0.1162
  C  C485  1  0.125350  0.953200  0.471500  1.0  -0.0987
  C  C486  1  0.205690  0.956220  0.445600  1.0  -0.0984
  C  C487  1  0.227360  0.998570  0.451110  1.0  0.5473
  C  C488  1  0.391760  0.047790  0.410690  1.0  0.5422
  C  C489  1  0.422650  0.088130  0.415970  1.0  -0.3234
  C  C490  1  0.436740  0.116280  0.371640  1.0  -0.0741
  C  C491  1  0.355100  0.140730  0.359670  1.0  -0.0907
  C  C492  1  0.367900  0.171900  0.317300  1.0  -0.0633
  C  C493  1  0.287000  0.196500  0.306100  1.0  -0.3464
  C  C494  1  0.160040  0.173180  0.470140  1.0  0.3342
  C  C495  1  0.111100  0.204340  0.444460  1.0  -0.2079
  C  C496  1  0.100770  0.250810  0.445250  1.0  -0.1149
  C  C497  1  0.135960  0.269510  0.472570  1.0  -0.1193
  C  C498  1  0.185700  0.239310  0.497690  1.0  -0.0333
  C  C499  1  0.197870  0.191640  0.497020  1.0  -0.1617
  C  C500  1  0.250500  0.162840  0.526160  1.0  0.5528
  C  C501  1  0.303720  0.050780  0.563580  1.0  0.552
  C  C502  1  0.339880  0.019740  0.599100  1.0  -0.3036
  C  C503  1  0.269800  0.008730  0.639670  1.0  -0.0899
  C  C504  1  0.216800  0.051780  0.669620  1.0  -0.1036
  C  C505  1  0.149000  0.041700  0.711300  1.0  -0.0907
  C  C506  1  0.104000  0.081900  0.741500  1.0  -0.327
  C  C507  1  0.048480  0.125750  0.581090  1.0  0.159
  C  C508  1  0.985120  0.127780  0.621180  1.0  -0.2115
  C  C509  1  0.080910  0.047340  0.581040  1.0  0.1499
  C  C510  1  0.018300  0.047900  0.622700  1.0  -0.1891
  C  C511  1  0.969900  0.089300  0.643700  1.0  0.1374
  C  C512  1  0.901400  0.090800  0.689400  1.0  -0.0863
  C  C513  1  0.706190  0.850080  0.316740  1.0  0.3783
  C  C514  1  0.771800  0.827240  0.279360  1.0  -0.2001
  C  C515  1  0.764710  0.831940  0.234240  1.0  -0.1063
  C  C516  1  0.692170  0.860100  0.224760  1.0  -0.1176
  C  C517  1  0.626780  0.882820  0.260820  1.0  -0.0757
  C  C518  1  0.631350  0.878280  0.307020  1.0  -0.1596
  C  C519  1  0.556770  0.903980  0.343680  1.0  0.5577
  C  C520  1  0.485320  0.907910  0.461450  1.0  0.5867
  C  C521  1  0.409570  0.926550  0.501510  1.0  -0.3057
  C  C522  1  0.360100  0.889100  0.519900  1.0  -0.1017
  C  C523  1  0.285800  0.905600  0.561600  1.0  -0.1218
  C  C524  1  0.232500  0.877700  0.574900  1.0  -0.0682
  C  C525  1  0.163800  0.904000  0.622000  1.0  -0.338
  C  C526  1  0.688600  0.088300  0.804500  1.0  0.1714
  C  C527  1  0.757800  0.092100  0.769900  1.0  -0.2921
  C  C528  1  0.612110  0.094410  0.752770  1.0  0.1913
  C  C529  1  0.676430  0.097680  0.716660  1.0  -0.2095
  C  C530  1  0.752300  0.095200  0.724000  1.0  0.0913
  C  C531  1  0.830700  0.095900  0.682900  1.0  -0.1379
  C  C532  1  0.096900  0.581840  0.081960  1.0  0.3184
  C  C533  1  0.032670  0.622740  0.080520  1.0  -0.2379
  C  C534  1  0.978000  0.624500  0.054300  1.0  -0.0951
  C  C535  1  0.985000  0.586800  0.029800  1.0  -0.1141
  C  C536  1  0.050050  0.546800  0.028500  1.0  -0.0997
  C  C537  1  0.107510  0.543780  0.054400  1.0  -0.0975
  C  C538  1  0.177040  0.501430  0.048890  1.0  0.5491
  C  C539  1  0.350240  0.452210  0.089310  1.0  0.5421
  C  C540  1  0.426750  0.411870  0.084030  1.0  -0.3195
  C  C541  1  0.424660  0.383720  0.128360  1.0  -0.0815
  C  C542  1  0.355500  0.359270  0.140330  1.0  -0.0922
  C  C543  1  0.357100  0.328100  0.182700  1.0  -0.0719
  C  C544  1  0.289600  0.303500  0.193900  1.0  -0.3449
  C  C545  1  0.303360  0.326820  0.029860  1.0  0.3357
  C  C546  1  0.259900  0.295660  0.055540  1.0  -0.2109
  C  C547  1  0.296830  0.249190  0.054750  1.0  -0.1145
  C  C548  1  0.378040  0.230490  0.027430  1.0  -0.1174
  C  C549  1  0.422700  0.260690  0.002310  1.0  -0.031
  C  C550  1  0.386530  0.308360  0.002980  1.0  -0.161
  C  C551  1  0.439500  0.337160  0.973840  1.0  0.5505
  C  C552  1  0.418080  0.449220  0.936420  1.0  0.5541
  C  C553  1  0.458720  0.480260  0.900900  1.0  -0.3018
  C  C554  1  0.418200  0.491270  0.860330  1.0  -0.0906
  C  C555  1  0.438200  0.448220  0.830380  1.0  -0.1046
  C  C556  1  0.402000  0.458300  0.788700  1.0  -0.0924
  C  C557  1  0.427400  0.418100  0.758500  1.0  -0.3261
  C  C558  1  0.255320  0.374250  0.918910  1.0  0.1611
  C  C559  1  0.234080  0.372220  0.878820  1.0  -0.2061
  C  C560  1  0.209290  0.452660  0.918960  1.0  0.1512
  C  C561  1  0.188900  0.452100  0.877300  1.0  -0.1896
  C  C562  1  0.202900  0.410700  0.856300  1.0  0.1374
  C  C563  1  0.181600  0.409200  0.810600  1.0  -0.0903
  C  C564  1  0.373010  0.649920  0.183260  1.0  0.3787
  C  C565  1  0.378400  0.672760  0.220640  1.0  -0.197
  C  C566  1  0.330890  0.668060  0.265760  1.0  -0.1037
  C  C567  1  0.277030  0.639900  0.275240  1.0  -0.1162
  C  C568  1  0.270420  0.617180  0.239180  1.0  -0.0746
  C  C569  1  0.316650  0.621720  0.192980  1.0  -0.1575
  C  C570  1  0.304430  0.596020  0.156320  1.0  0.5569
  C  C571  1  0.354680  0.592090  0.038550  1.0  0.5883
  C  C572  1  0.337630  0.573450  0.998490  1.0  -0.3129
  C  C573  1  0.269100  0.610900  0.980100  1.0  -0.1055
  C  C574  1  0.253000  0.594400  0.938400  1.0  -0.1254
  C  C575  1  0.185100  0.622300  0.925100  1.0  -0.0744
  C  C576  1  0.189800  0.596000  0.878000  1.0  -0.3336
  C  C577  1  0.081400  0.411700  0.695500  1.0  0.1748
  C  C578  1  0.119800  0.407900  0.730100  1.0  -0.2902
  C  C579  1  0.959290  0.405590  0.747230  1.0  0.1926
  C  C580  1  0.990770  0.402320  0.783340  1.0  -0.2109
  C  C581  1  0.071500  0.404800  0.776000  1.0  0.0936
  C  C582  1  0.109500  0.404100  0.817100  1.0  -0.1512
  C  C583  1  0.678740  0.581960  0.418160  1.0  0.3141
  C  C584  1  0.655410  0.580520  0.377260  1.0  -0.2431
  C  C585  1  0.602500  0.554300  0.375500  1.0  -0.0961
  C  C586  1  0.571800  0.529800  0.413200  1.0  -0.1159
  C  C587  1  0.596850  0.528500  0.453200  1.0  -0.0989
  C  C588  1  0.651290  0.554400  0.456220  1.0  -0.098
  C  C589  1  0.678470  0.548890  0.498570  1.0  0.5486
  C  C590  1  0.802450  0.589310  0.547790  1.0  0.5444
  C  C591  1  0.838620  0.584030  0.588130  1.0  -0.3251
  C  C592  1  0.808380  0.628360  0.616280  1.0  -0.079
  C  C593  1  0.714770  0.640330  0.640730  1.0  -0.0911
  C  C594  1  0.685200  0.682700  0.671900  1.0  -0.0679
  C  C595  1  0.593100  0.693900  0.696500  1.0  -0.3451
  C  C596  1  0.630180  0.529860  0.673180  1.0  0.3391
  C  C597  1  0.555560  0.555540  0.704340  1.0  -0.2071
  C  C598  1  0.546020  0.554750  0.750810  1.0  -0.1134
  C  C599  1  0.608530  0.527430  0.769510  1.0  -0.1162
  C  C600  1  0.683390  0.502310  0.739310  1.0  -0.0324
  C  C601  1  0.694890  0.502980  0.691640  1.0  -0.1618
  C  C602  1  0.776660  0.473840  0.662840  1.0  0.5526
  C  C603  1  0.867300  0.436420  0.550780  1.0  0.5513
  C  C604  1  0.938980  0.400900  0.519740  1.0  -0.302
  C  C605  1  0.909470  0.360330  0.508730  1.0  -0.0946
  C  C606  1  0.886420  0.330380  0.551780  1.0  -0.1054
  C  C607  1  0.860300  0.288700  0.541700  1.0  -0.0925
  C  C608  1  0.845500  0.258500  0.581900  1.0  -0.3252
  C  C609  1  0.629570  0.418910  0.625750  1.0  0.1586
  C  C610  1  0.606300  0.378820  0.627780  1.0  -0.2074
  C  C611  1  0.661950  0.418960  0.547340  1.0  0.1499
  C  C612  1  0.641000  0.377300  0.547900  1.0  -0.182
  C  C613  1  0.613600  0.356300  0.589300  1.0  0.1376
  C  C614  1  0.590800  0.310600  0.590800  1.0  -0.089
  C  C615  1  0.022930  0.683260  0.350080  1.0  0.3766
  C  C616  1  0.051160  0.720640  0.327240  1.0  -0.1997
  C  C617  1  0.998950  0.765760  0.331940  1.0  -0.1089
  C  C618  1  0.916930  0.775240  0.360100  1.0  -0.1171
  C  C619  1  0.887600  0.739180  0.382820  1.0  -0.0744
  C  C620  1  0.938370  0.692980  0.378280  1.0  -0.1577
  C  C621  1  0.900450  0.656320  0.403980  1.0  0.5574
  C  C622  1  0.946770  0.538550  0.407910  1.0  0.5862
  C  C623  1  0.911080  0.498490  0.426550  1.0  -0.311
  C  C624  1  0.880000  0.480100  0.389100  1.0  -0.1062
  C  C625  1  0.847400  0.438400  0.405600  1.0  -0.1258
  C  C626  1  0.807400  0.425100  0.377700  1.0  -0.0697
  C  C627  1  0.785800  0.378000  0.404000  1.0  -0.3406
  C  C628  1  0.493100  0.195500  0.588300  1.0  0.1695
  C  C629  1  0.527700  0.230100  0.592100  1.0  -0.293
  C  C630  1  0.364880  0.247230  0.594410  1.0  0.1898
  C  C631  1  0.393090  0.283340  0.597680  1.0  -0.2092
  C  C632  1  0.476300  0.276000  0.595200  1.0  0.0928
  C  C633  1  0.513600  0.317100  0.595900  1.0  -0.1383
  C  C634  1  0.178860  0.918040  0.081840  1.0  0.3139
  C  C635  1  0.113190  0.919480  0.122740  1.0  -0.2383
  C  C636  1  0.032300  0.945700  0.124500  1.0  -0.098
  C  C637  1  0.014800  0.970200  0.086800  1.0  -0.1137
  C  C638  1  0.078550  0.971500  0.046800  1.0  -0.096
  C  C639  1  0.161910  0.945600  0.043780  1.0  -0.0986
  C  C640  1  0.225930  0.951110  0.001430  1.0  0.5471
  C  C641  1  0.439550  0.910690  0.952210  1.0  0.5436
  C  C642  1  0.510780  0.915970  0.911870  1.0  -0.3239
  C  C643  1  0.553020  0.871640  0.883720  1.0  -0.0754
  C  C644  1  0.495830  0.859670  0.859270  1.0  -0.0896
  C  C645  1  0.539800  0.817300  0.828100  1.0  -0.0678
  C  C646  1  0.483500  0.806100  0.803500  1.0  -0.3469
  C  C647  1  0.333220  0.970140  0.826820  1.0  0.34
  C  C648  1  0.315440  0.944460  0.795660  1.0  -0.2081
  C  C649  1  0.351580  0.945250  0.749190  1.0  -0.1154
  C  C650  1  0.405470  0.972570  0.730490  1.0  -0.1201
  C  C651  1  0.425010  0.997690  0.760690  1.0  -0.0307
  C  C652  1  0.389510  0.997020  0.808360  1.0  -0.1591
  C  C653  1  0.413340  0.026160  0.837160  1.0  0.5528
  C  C654  1  0.354500  0.063580  0.949220  1.0  0.5495
  C  C655  1  0.359620  0.099100  0.980260  1.0  -0.3055
  C  C656  1  0.278530  0.139670  0.991270  1.0  -0.0954
  C  C657  1  0.268580  0.169620  0.948220  1.0  -0.1044
  C  C658  1  0.190700  0.211300  0.958300  1.0  -0.0912
  C  C659  1  0.185900  0.241500  0.918100  1.0  -0.3267
  C  C660  1  0.174230  0.081090  0.874250  1.0  0.1579
  C  C661  1  0.112900  0.121180  0.872220  1.0  -0.2045
  C  C662  1  0.128250  0.081040  0.952660  1.0  0.1496
  C  C663  1  0.066200  0.122700  0.952100  1.0  -0.1829
  C  C664  1  0.059200  0.143700  0.910700  1.0  0.1371
  C  C665  1  0.992200  0.189400  0.909200  1.0  -0.0866
  C  C666  1  0.556270  0.816740  0.149920  1.0  0.3744
  C  C667  1  0.599040  0.779360  0.172760  1.0  -0.1932
  C  C668  1  0.596650  0.734240  0.168060  1.0  -0.1085
  C  C669  1  0.552270  0.724760  0.139900  1.0  -0.1184
  C  C670  1  0.509600  0.760820  0.117180  1.0  -0.076
  C  C671  1  0.509630  0.807020  0.121720  1.0  -0.1579
  C  C672  1  0.460750  0.843680  0.096020  1.0  0.5582
  C  C673  1  0.393230  0.961450  0.092090  1.0  0.5886
  C  C674  1  0.336120  0.001510  0.073450  1.0  -0.3111
  C  C675  1  0.249200  0.019900  0.110900  1.0  -0.1053
  C  C676  1  0.191400  0.061600  0.094400  1.0  -0.1262
  C  C677  1  0.110200  0.074900  0.122300  1.0  -0.0745
  C  C678  1  0.067800  0.122000  0.096000  1.0  -0.3392
  C  C679  1  0.776900  0.304500  0.911700  1.0  0.1703
  C  C680  1  0.849900  0.269900  0.907900  1.0  -0.294
  C  C681  1  0.706520  0.252770  0.905590  1.0  0.1909
  C  C682  1  0.774110  0.216660  0.902320  1.0  -0.2117
  C  C683  1  0.847500  0.224000  0.904800  1.0  0.0923
  C  C684  1  0.926600  0.182900  0.904100  1.0  -0.1455
  C  C685  1  0.739300  0.081840  0.581960  1.0  0.3159
  C  C686  1  0.764070  0.122740  0.580520  1.0  -0.242
  C  C687  1  0.843200  0.124500  0.554300  1.0  -0.094
  C  C688  1  0.898400  0.086800  0.529800  1.0  -0.1157
  C  C689  1  0.874650  0.046800  0.528500  1.0  -0.0986
  C  C690  1  0.794310  0.043780  0.554400  1.0  -0.098
  C  C691  1  0.772640  0.001430  0.548890  1.0  0.5514
  C  C692  1  0.608240  0.952210  0.589310  1.0  0.5437
  C  C693  1  0.577350  0.911870  0.584030  1.0  -0.3232
  C  C694  1  0.563260  0.883720  0.628360  1.0  -0.0756
  C  C695  1  0.644900  0.859270  0.640330  1.0  -0.0899
  C  C696  1  0.632100  0.828100  0.682700  1.0  -0.0668
  C  C697  1  0.713000  0.803500  0.693900  1.0  -0.3457
  C  C698  1  0.839960  0.826820  0.529860  1.0  0.3351
  C  C699  1  0.888900  0.795660  0.555540  1.0  -0.2042
  C  C700  1  0.899230  0.749190  0.554750  1.0  -0.1163
  C  C701  1  0.864040  0.730490  0.527430  1.0  -0.1194
  C  C702  1  0.814300  0.760690  0.502310  1.0  -0.033
  C  C703  1  0.802130  0.808360  0.502980  1.0  -0.1624
  C  C704  1  0.749500  0.837160  0.473840  1.0  0.554
  C  C705  1  0.696280  0.949220  0.436420  1.0  0.5511
  C  C706  1  0.660120  0.980260  0.400900  1.0  -0.3016
  C  C707  1  0.730200  0.991270  0.360330  1.0  -0.0914
  C  C708  1  0.783200  0.948220  0.330380  1.0  -0.1041
  C  C709  1  0.851000  0.958300  0.288700  1.0  -0.0912
  C  C710  1  0.896000  0.918100  0.258500  1.0  -0.3282
  C  C711  1  0.951520  0.874250  0.418910  1.0  0.1595
  C  C712  1  0.014880  0.872220  0.378820  1.0  -0.2069
  C  C713  1  0.919090  0.952660  0.418960  1.0  0.1494
  C  C714  1  0.981700  0.952100  0.377300  1.0  -0.1897
  C  C715  1  0.030100  0.910700  0.356300  1.0  0.137
  C  C716  1  0.098600  0.909200  0.310600  1.0  -0.0877
  C  C717  1  0.293810  0.149920  0.683260  1.0  0.3764
  C  C718  1  0.228200  0.172760  0.720640  1.0  -0.1957
  C  C719  1  0.235290  0.168060  0.765760  1.0  -0.1028
  C  C720  1  0.307830  0.139900  0.775240  1.0  -0.1161
  C  C721  1  0.373220  0.117180  0.739180  1.0  -0.0761
  C  C722  1  0.368650  0.121720  0.692980  1.0  -0.1602
  C  C723  1  0.443230  0.096020  0.656320  1.0  0.5556
  C  C724  1  0.514680  0.092090  0.538550  1.0  0.5862
  C  C725  1  0.590430  0.073450  0.498490  1.0  -0.3091
  C  C726  1  0.639900  0.110900  0.480100  1.0  -0.1024
  C  C727  1  0.714200  0.094400  0.438400  1.0  -0.1253
  C  C728  1  0.767500  0.122300  0.425100  1.0  -0.0707
  C  C729  1  0.836200  0.096000  0.378000  1.0  -0.3383
  C  C730  1  0.311400  0.911700  0.195500  1.0  0.1712
  C  C731  1  0.242200  0.907900  0.230100  1.0  -0.2952
  C  C732  1  0.387890  0.905590  0.247230  1.0  0.1902
  C  C733  1  0.323570  0.902320  0.283340  1.0  -0.2097
  C  C734  1  0.247700  0.904800  0.276000  1.0  0.0932
  C  C735  1  0.169300  0.904100  0.317100  1.0  -0.1382
  C  C736  1  0.903100  0.418160  0.918040  1.0  0.3178
  C  C737  1  0.967330  0.377260  0.919480  1.0  -0.2388
  C  C738  1  0.022000  0.375500  0.945700  1.0  -0.0956
  C  C739  1  0.015000  0.413200  0.970200  1.0  -0.1124
  C  C740  1  0.949950  0.453200  0.971500  1.0  -0.099
  C  C741  1  0.892490  0.456220  0.945600  1.0  -0.0998
  C  C742  1  0.822960  0.498570  0.951110  1.0  0.5455
  C  C743  1  0.649760  0.547790  0.910690  1.0  0.5414
  C  C744  1  0.573250  0.588130  0.915970  1.0  -0.3218
  C  C745  1  0.575340  0.616280  0.871640  1.0  -0.0804
  C  C746  1  0.644500  0.640730  0.859670  1.0  -0.094
  C  C747  1  0.642900  0.671900  0.817300  1.0  -0.0704
  C  C748  1  0.710400  0.696500  0.806100  1.0  -0.3451
  C  C749  1  0.696640  0.673180  0.970140  1.0  0.336
  C  C750  1  0.740100  0.704340  0.944460  1.0  -0.2062
  C  C751  1  0.703170  0.750810  0.945250  1.0  -0.1135
  C  C752  1  0.621960  0.769510  0.972570  1.0  -0.1181
  C  C753  1  0.577300  0.739310  0.997690  1.0  -0.0317
  C  C754  1  0.613470  0.691640  0.997020  1.0  -0.1609
  C  C755  1  0.560500  0.662840  0.026160  1.0  0.5529
  C  C756  1  0.581920  0.550780  0.063580  1.0  0.5535
  C  C757  1  0.541280  0.519740  0.099100  1.0  -0.3006
  C  C758  1  0.581800  0.508730  0.139670  1.0  -0.0891
  C  C759  1  0.561800  0.551780  0.169620  1.0  -0.1019
  C  C760  1  0.598000  0.541700  0.211300  1.0  -0.0909
  C  C761  1  0.572600  0.581900  0.241500  1.0  -0.3268
  C  C762  1  0.744680  0.625750  0.081090  1.0  0.1606
  C  C763  1  0.765920  0.627780  0.121180  1.0  -0.2091
  C  C764  1  0.790710  0.547340  0.081040  1.0  0.1517
  C  C765  1  0.811100  0.547900  0.122700  1.0  -0.19
  C  C766  1  0.797100  0.589300  0.143700  1.0  0.1375
  C  C767  1  0.818400  0.590800  0.189400  1.0  -0.0904
  C  C768  1  0.626990  0.350080  0.816740  1.0  0.3771
  C  C769  1  0.621600  0.327240  0.779360  1.0  -0.2007
  C  C770  1  0.669110  0.331940  0.734240  1.0  -0.1061
  C  C771  1  0.722970  0.360100  0.724760  1.0  -0.1174
  C  C772  1  0.729580  0.382820  0.760820  1.0  -0.0747
  C  C773  1  0.683350  0.378280  0.807020  1.0  -0.1588
  C  C774  1  0.695570  0.403980  0.843680  1.0  0.557
  C  C775  1  0.645320  0.407910  0.961450  1.0  0.5877
  C  C776  1  0.662370  0.426550  0.001510  1.0  -0.312
  C  C777  1  0.730900  0.389100  0.019900  1.0  -0.1039
  C  C778  1  0.747000  0.405600  0.061600  1.0  -0.1227
  C  C779  1  0.814900  0.377700  0.074900  1.0  -0.075
  C  C780  1  0.810200  0.404000  0.122000  1.0  -0.334
  C  C781  1  0.918600  0.588300  0.304500  1.0  0.1753
  C  C782  1  0.880200  0.592100  0.269900  1.0  -0.2928
  C  C783  1  0.040710  0.594410  0.252770  1.0  0.1928
  C  C784  1  0.009230  0.597680  0.216660  1.0  -0.2075
  C  C785  1  0.928500  0.595200  0.224000  1.0  0.0929
  C  C786  1  0.890500  0.595900  0.182900  1.0  -0.1479
  C  C787  1  0.321260  0.418040  0.581840  1.0  0.3137
  C  C788  1  0.344590  0.419480  0.622740  1.0  -0.243
  C  C789  1  0.397500  0.445700  0.624500  1.0  -0.0949
  C  C790  1  0.428200  0.470200  0.586800  1.0  -0.1114
  C  C791  1  0.403150  0.471500  0.546800  1.0  -0.0973
  C  C792  1  0.348710  0.445600  0.543780  1.0  -0.0999
  C  C793  1  0.321530  0.451110  0.501430  1.0  0.5457
  C  C794  1  0.197550  0.410690  0.452210  1.0  0.5447
  C  C795  1  0.161380  0.415970  0.411870  1.0  -0.3243
  C  C796  1  0.191620  0.371640  0.383720  1.0  -0.0781
  C  C797  1  0.285230  0.359670  0.359270  1.0  -0.0917
  C  C798  1  0.314800  0.317300  0.328100  1.0  -0.0694
  C  C799  1  0.406900  0.306100  0.303500  1.0  -0.3441
  C  C800  1  0.369820  0.470140  0.326820  1.0  0.3385
  C  C801  1  0.444440  0.444460  0.295660  1.0  -0.2034
  C  C802  1  0.453980  0.445250  0.249190  1.0  -0.1148
  C  C803  1  0.391470  0.472570  0.230490  1.0  -0.1172
  C  C804  1  0.316610  0.497690  0.260690  1.0  -0.0315
  C  C805  1  0.305110  0.497020  0.308360  1.0  -0.1607
  C  C806  1  0.223340  0.526160  0.337160  1.0  0.5535
  C  C807  1  0.132700  0.563580  0.449220  1.0  0.5493
  C  C808  1  0.061020  0.599100  0.480260  1.0  -0.3024
  C  C809  1  0.090530  0.639670  0.491270  1.0  -0.094
  C  C810  1  0.113580  0.669620  0.448220  1.0  -0.1061
  C  C811  1  0.139700  0.711300  0.458300  1.0  -0.0916
  C  C812  1  0.154500  0.741500  0.418100  1.0  -0.328
  C  C813  1  0.370430  0.581090  0.374250  1.0  0.1584
  C  C814  1  0.393700  0.621180  0.372220  1.0  -0.205
  C  C815  1  0.338050  0.581040  0.452660  1.0  0.1502
  C  C816  1  0.359000  0.622700  0.452100  1.0  -0.183
  C  C817  1  0.386400  0.643700  0.410700  1.0  0.1368
  C  C818  1  0.409200  0.689400  0.409200  1.0  -0.0888
  C  C819  1  0.977070  0.316740  0.649920  1.0  0.376
  C  C820  1  0.948840  0.279360  0.672760  1.0  -0.197
  C  C821  1  0.001050  0.234240  0.668060  1.0  -0.1095
  C  C822  1  0.083070  0.224760  0.639900  1.0  -0.1172
  C  C823  1  0.112400  0.260820  0.617180  1.0  -0.0748
  C  C824  1  0.061630  0.307020  0.621720  1.0  -0.159
  C  C825  1  0.099550  0.343680  0.596020  1.0  0.5569
  C  C826  1  0.053230  0.461450  0.592090  1.0  0.5848
  C  C827  1  0.088920  0.501510  0.573450  1.0  -0.3114
  C  C828  1  0.120000  0.519900  0.610900  1.0  -0.105
  C  C829  1  0.152600  0.561600  0.594400  1.0  -0.1256
  C  C830  1  0.192600  0.574900  0.622300  1.0  -0.0705
  C  C831  1  0.214200  0.622000  0.596000  1.0  -0.3409
  C  C832  1  0.506900  0.804500  0.411700  1.0  0.1704
  C  C833  1  0.472300  0.769900  0.407900  1.0  -0.2947
  C  C834  1  0.635120  0.752770  0.405590  1.0  0.1906
  C  C835  1  0.606910  0.716660  0.402320  1.0  -0.2108
  C  C836  1  0.523700  0.724000  0.404800  1.0  0.0932
  C  C837  1  0.486400  0.682900  0.404100  1.0  -0.142
  C  C838  1  0.821140  0.081960  0.918160  1.0  0.3131
  C  C839  1  0.886810  0.080520  0.877260  1.0  -0.2394
  C  C840  1  0.967700  0.054300  0.875500  1.0  -0.0959
  C  C841  1  0.985200  0.029800  0.913200  1.0  -0.1148
  C  C842  1  0.921450  0.028500  0.953200  1.0  -0.098
  C  C843  1  0.838090  0.054400  0.956220  1.0  -0.0993
  C  C844  1  0.774070  0.048890  0.998570  1.0  0.5478
  C  C845  1  0.560450  0.089310  0.047790  1.0  0.5436
  C  C846  1  0.489220  0.084030  0.088130  1.0  -0.3271
  C  C847  1  0.446980  0.128360  0.116280  1.0  -0.0758
  C  C848  1  0.504170  0.140330  0.140730  1.0  -0.0899
  C  C849  1  0.460200  0.182700  0.171900  1.0  -0.0677
  C  C850  1  0.516500  0.193900  0.196500  1.0  -0.3458
  C  C851  1  0.666780  0.029860  0.173180  1.0  0.3412
  C  C852  1  0.684560  0.055540  0.204340  1.0  -0.2053
  C  C853  1  0.648420  0.054750  0.250810  1.0  -0.1132
  C  C854  1  0.594530  0.027430  0.269510  1.0  -0.1181
  C  C855  1  0.574990  0.002310  0.239310  1.0  -0.0321
  C  C856  1  0.610490  0.002980  0.191640  1.0  -0.1597
  C  C857  1  0.586660  0.973840  0.162840  1.0  0.5534
  C  C858  1  0.645500  0.936420  0.050780  1.0  0.5509
  C  C859  1  0.640380  0.900900  0.019740  1.0  -0.3044
  C  C860  1  0.721470  0.860330  0.008730  1.0  -0.0942
  C  C861  1  0.731420  0.830380  0.051780  1.0  -0.1046
  C  C862  1  0.809300  0.788700  0.041700  1.0  -0.092
  C  C863  1  0.814100  0.758500  0.081900  1.0  -0.3262
  C  C864  1  0.825770  0.918910  0.125750  1.0  0.1579
  C  C865  1  0.887100  0.878820  0.127780  1.0  -0.2042
  C  C866  1  0.871750  0.918960  0.047340  1.0  0.1498
  C  C867  1  0.933800  0.877300  0.047900  1.0  -0.1841
  C  C868  1  0.940800  0.856300  0.089300  1.0  0.1372
  C  C869  1  0.007800  0.810600  0.090800  1.0  -0.0892
  C  C870  1  0.443730  0.183260  0.850080  1.0  0.3741
  C  C871  1  0.400960  0.220640  0.827240  1.0  -0.1947
  C  C872  1  0.403350  0.265760  0.831940  1.0  -0.1075
  C  C873  1  0.447730  0.275240  0.860100  1.0  -0.1173
  C  C874  1  0.490400  0.239180  0.882820  1.0  -0.0764
  C  C875  1  0.490370  0.192980  0.878280  1.0  -0.1583
  C  C876  1  0.539250  0.156320  0.903980  1.0  0.557
  C  C877  1  0.606770  0.038550  0.907910  1.0  0.5866
  C  C878  1  0.663880  0.998490  0.926550  1.0  -0.312
  C  C879  1  0.750800  0.980100  0.889100  1.0  -0.1026
  C  C880  1  0.808600  0.938400  0.905600  1.0  -0.126
  C  C881  1  0.889800  0.925100  0.877700  1.0  -0.0697
  C  C882  1  0.932200  0.878000  0.904000  1.0  -0.3368
  C  C883  1  0.223100  0.695500  0.088300  1.0  0.1695
  C  C884  1  0.150100  0.730100  0.092100  1.0  -0.2947
  C  C885  1  0.293480  0.747230  0.094410  1.0  0.1894
  C  C886  1  0.225890  0.783340  0.097680  1.0  -0.2105
  C  C887  1  0.152500  0.776000  0.095200  1.0  0.094
  C  C888  1  0.073400  0.817100  0.095900  1.0  -0.1409
  N  N889  1  0.303690  0.002340  0.427680  1.0  -0.3065
  N  N890  1  0.318830  0.044180  0.437760  1.0  -0.2565
  N  N891  1  0.256870  0.117630  0.528830  1.0  -0.3233
  N  N892  1  0.301510  0.094430  0.561350  1.0  -0.2921
  N  N893  1  0.096930  0.085540  0.560600  1.0  -0.3307
  N  N894  1  0.559580  0.898570  0.387470  1.0  -0.265
  N  N895  1  0.483770  0.922260  0.420000  1.0  -0.2643
  N  N896  1  0.613990  0.090010  0.796610  1.0  -0.3367
  N  N897  1  0.233710  0.497660  0.072320  1.0  -0.3036
  N  N898  1  0.300770  0.455820  0.062240  1.0  -0.2561
  N  N899  1  0.403330  0.382370  0.971170  1.0  -0.3235
  N  N900  1  0.457290  0.405570  0.938650  1.0  -0.2919
  N  N901  1  0.243070  0.414460  0.939400  1.0  -0.3305
  N  N902  1  0.345620  0.601430  0.112530  1.0  -0.2658
  N  N903  1  0.326030  0.577740  0.080000  1.0  -0.2638
  N  N904  1  0.000610  0.409990  0.703390  1.0  -0.3397
  N  N905  1  0.731370  0.572320  0.502340  1.0  -0.307
  N  N906  1  0.756590  0.562240  0.544180  1.0  -0.2559
  N  N907  1  0.785700  0.471170  0.617630  1.0  -0.3232
  N  N908  1  0.862860  0.438650  0.594430  1.0  -0.2917
  N  N909  1  0.657530  0.439400  0.585540  1.0  -0.3274
  N  N910  1  0.947050  0.612530  0.398570  1.0  -0.266
  N  N911  1  0.903770  0.580000  0.422260  1.0  -0.2628
  N  N912  1  0.410600  0.203390  0.590010  1.0  -0.3367
  N  N913  1  0.306030  0.927680  0.997660  1.0  -0.3049
  N  N914  1  0.363010  0.937760  0.955820  1.0  -0.2566
  N  N915  1  0.374500  0.028830  0.882370  1.0  -0.325
  N  N916  1  0.395940  0.061350  0.905570  1.0  -0.2921
  N  N917  1  0.182470  0.060600  0.914460  1.0  -0.3246
  N  N918  1  0.458150  0.887470  0.101430  1.0  -0.2652
  N  N919  1  0.406030  0.920000  0.077740  1.0  -0.2647
  N  N920  1  0.704000  0.296610  0.909990  1.0  -0.3374
  N  N921  1  0.696310  0.997660  0.572320  1.0  -0.3034
  N  N922  1  0.681170  0.955820  0.562240  1.0  -0.2563
  N  N923  1  0.743130  0.882370  0.471170  1.0  -0.3229
  N  N924  1  0.698490  0.905570  0.438650  1.0  -0.2927
  N  N925  1  0.903070  0.914460  0.439400  1.0  -0.3283
  N  N926  1  0.440420  0.101430  0.612530  1.0  -0.2647
  N  N927  1  0.516230  0.077740  0.580000  1.0  -0.2628
  N  N928  1  0.386010  0.909990  0.203390  1.0  -0.3345
  N  N929  1  0.766290  0.502340  0.927680  1.0  -0.3037
  N  N930  1  0.699230  0.544180  0.937760  1.0  -0.2561
  N  N931  1  0.596670  0.617630  0.028830  1.0  -0.3239
  N  N932  1  0.542710  0.594430  0.061350  1.0  -0.2917
  N  N933  1  0.756930  0.585540  0.060600  1.0  -0.3313
  N  N934  1  0.654380  0.398570  0.887470  1.0  -0.2652
  N  N935  1  0.673970  0.422260  0.920000  1.0  -0.2645
  N  N936  1  0.999390  0.590010  0.296610  1.0  -0.3395
  N  N937  1  0.268630  0.427680  0.497660  1.0  -0.3062
  N  N938  1  0.243410  0.437760  0.455820  1.0  -0.2557
  N  N939  1  0.214300  0.528830  0.382370  1.0  -0.3233
  N  N940  1  0.137140  0.561350  0.405570  1.0  -0.2919
  N  N941  1  0.342470  0.560600  0.414460  1.0  -0.3263
  N  N942  1  0.052950  0.387470  0.601430  1.0  -0.2651
  N  N943  1  0.096230  0.420000  0.577740  1.0  -0.2649
  N  N944  1  0.589400  0.796610  0.409990  1.0  -0.3363
  N  N945  1  0.693970  0.072320  0.002340  1.0  -0.3051
  N  N946  1  0.636990  0.062240  0.044180  1.0  -0.2564
  N  N947  1  0.625500  0.971170  0.117630  1.0  -0.3255
  N  N948  1  0.604060  0.938650  0.094430  1.0  -0.2932
  N  N949  1  0.817530  0.939400  0.085540  1.0  -0.3253
  N  N950  1  0.541850  0.112530  0.898570  1.0  -0.2649
  N  N951  1  0.593970  0.080000  0.922260  1.0  -0.2632
  N  N952  1  0.296000  0.703390  0.090010  1.0  -0.3361
  O  O953  1  0.337540  0.918040  0.390680  1.0  -0.5784
  O  O954  1  0.174310  0.030340  0.477920  1.0  -0.5825
  O  O955  1  0.438760  0.016920  0.379360  1.0  -0.5944
  O  O956  1  0.165740  0.128490  0.467230  1.0  -0.5697
  O  O957  1  0.284600  0.182900  0.548180  1.0  -0.5874
  O  O958  1  0.271700  0.032560  0.538280  1.0  -0.5774
  O  O959  1  0.719300  0.843040  0.358360  1.0  -0.5651
  O  O960  1  0.492100  0.929860  0.331940  1.0  -0.5935
  O  O961  1  0.547360  0.877000  0.471080  1.0  -0.59
  O  O962  1  0.146260  0.581960  0.109320  1.0  -0.5807
  O  O963  1  0.182570  0.469660  0.022080  1.0  -0.5849
  O  O964  1  0.335040  0.483080  0.120640  1.0  -0.593
  O  O965  1  0.261460  0.371510  0.032770  1.0  -0.5648
  O  O966  1  0.515680  0.317100  0.951820  1.0  -0.5878
  O  O967  1  0.342540  0.467440  0.961720  1.0  -0.5787
  O  O968  1  0.420700  0.656960  0.141640  1.0  -0.5659
  O  O969  1  0.253900  0.570140  0.168060  1.0  -0.5917
  O  O970  1  0.395440  0.623000  0.028920  1.0  -0.5903
  O  O971  1  0.728220  0.609320  0.418040  1.0  -0.5786
  O  O972  1  0.652230  0.522080  0.530340  1.0  -0.5831
  O  O973  1  0.818120  0.620640  0.516920  1.0  -0.594
  O  O974  1  0.632970  0.532770  0.628490  1.0  -0.5721
  O  O975  1  0.832780  0.451820  0.682900  1.0  -0.5913
  O  O976  1  0.809980  0.461720  0.532560  1.0  -0.5805
  O  O977  1  0.077660  0.641640  0.343040  1.0  -0.5654
  O  O978  1  0.824040  0.668060  0.429860  1.0  -0.592
  O  O979  1  0.018440  0.528920  0.377000  1.0  -0.5907
  O  O980  1  0.255580  0.890680  0.081960  1.0  -0.5789
  O  O981  1  0.204650  0.977920  0.969660  1.0  -0.585
  O  O982  1  0.455680  0.879360  0.983080  1.0  -0.5937
  O  O983  1  0.294230  0.967230  0.871510  1.0  -0.5681
  O  O984  1  0.467500  0.048180  0.817100  1.0  -0.5858
  O  O985  1  0.304260  0.038280  0.967440  1.0  -0.5806
  O  O986  1  0.562340  0.858360  0.156960  1.0  -0.5664
  O  O987  1  0.421960  0.831940  0.070140  1.0  -0.5923
  O  O988  1  0.424360  0.971080  0.123000  1.0  -0.591
  O  O989  1  0.662460  0.081960  0.609320  1.0  -0.5798
  O  O990  1  0.825690  0.969660  0.522080  1.0  -0.5851
  O  O991  1  0.561240  0.983080  0.620640  1.0  -0.5913
  O  O992  1  0.834260  0.871510  0.532770  1.0  -0.5631
  O  O993  1  0.715400  0.817100  0.451820  1.0  -0.5888
  O  O994  1  0.728300  0.967440  0.461720  1.0  -0.5772
  O  O995  1  0.280700  0.156960  0.641640  1.0  -0.5652
  O  O996  1  0.507900  0.070140  0.668060  1.0  -0.5917
  O  O997  1  0.452640  0.123000  0.528920  1.0  -0.5903
  O  O998  1  0.853740  0.418040  0.890680  1.0  -0.5823
  O  O999  1  0.817430  0.530340  0.977920  1.0  -0.5828
  O  O1000  1  0.664960  0.516920  0.879360  1.0  -0.5933
  O  O1001  1  0.738540  0.628490  0.967230  1.0  -0.5619
  O  O1002  1  0.484320  0.682900  0.048180  1.0  -0.5881
  O  O1003  1  0.657460  0.532560  0.038280  1.0  -0.5783
  O  O1004  1  0.579300  0.343040  0.858360  1.0  -0.5652
  O  O1005  1  0.746100  0.429860  0.831940  1.0  -0.5919
  O  O1006  1  0.604560  0.377000  0.971080  1.0  -0.5922
  O  O1007  1  0.271780  0.390680  0.581960  1.0  -0.5797
  O  O1008  1  0.347770  0.477920  0.469660  1.0  -0.5826
  O  O1009  1  0.181880  0.379360  0.483080  1.0  -0.5932
  O  O1010  1  0.367030  0.467230  0.371510  1.0  -0.5686
  O  O1011  1  0.167220  0.548180  0.317100  1.0  -0.5909
  O  O1012  1  0.190020  0.538280  0.467440  1.0  -0.5798
  O  O1013  1  0.922340  0.358360  0.656960  1.0  -0.5658
  O  O1014  1  0.175960  0.331940  0.570140  1.0  -0.5917
  O  O1015  1  0.981560  0.471080  0.623000  1.0  -0.5919
  O  O1016  1  0.744420  0.109320  0.918040  1.0  -0.5802
  O  O1017  1  0.795350  0.022080  0.030340  1.0  -0.5868
  O  O1018  1  0.544320  0.120640  0.016920  1.0  -0.5924
  O  O1019  1  0.705770  0.032770  0.128490  1.0  -0.5651
  O  O1020  1  0.532500  0.951820  0.182900  1.0  -0.5884
  O  O1021  1  0.695740  0.961720  0.032560  1.0  -0.5797
  O  O1022  1  0.437660  0.141640  0.843040  1.0  -0.5652
  O  O1023  1  0.578040  0.168060  0.929860  1.0  -0.5914
  O  O1024  1  0.575640  0.028920  0.877000  1.0  -0.5906
