# generated using pymatgen
data_Mn3H57C51N8O9
_symmetry_space_group_name_H-M   'P 1'
_cell_length_a   17.35100000
_cell_length_b   30.03740000
_cell_length_c   30.03740000
_cell_angle_alpha   85.21490000
_cell_angle_beta   73.21250000
_cell_angle_gamma   73.21250000
_symmetry_Int_Tables_number   1
_chemical_formula_structural   Mn3H57C51N8O9
_chemical_formula_sum   'Mn24 H456 C408 N64 O72'
_cell_volume   14348.95203927
_cell_formula_units_Z   8
loop_
 _symmetry_equiv_pos_site_id
 _symmetry_equiv_pos_as_xyz
  1  'x, y, z'
loop_
 _atom_site_type_symbol
 _atom_site_label
 _atom_site_symmetry_multiplicity
 _atom_site_fract_x
 _atom_site_fract_y
 _atom_site_fract_z
 _atom_site_occupancy
 _atom_site_charge
  Mn  Mn1  1  0.794870  0.001010  0.922070  1.0  0.991
  Mn  Mn2  1  0.004460  0.084090  0.856340  1.0  0.9598
  Mn  Mn3  1  0.857910  0.881020  0.036080  1.0  0.9952
  Mn  Mn4  1  0.217950  0.498990  0.577930  1.0  0.9905
  Mn  Mn5  1  0.444900  0.415910  0.643660  1.0  0.9572
  Mn  Mn6  1  0.275010  0.618980  0.463920  1.0  0.9962
  Mn  Mn7  1  0.716940  0.077930  0.501010  1.0  0.9926
  Mn  Mn8  1  0.860810  0.143660  0.584080  1.0  0.9558
  Mn  Mn9  1  0.893990  0.963920  0.381020  1.0  0.9955
  Mn  Mn10  1  0.795880  0.422070  0.998990  1.0  0.9948
  Mn  Mn11  1  0.088550  0.356340  0.915920  1.0  0.952
  Mn  Mn12  1  0.738930  0.536080  0.118980  1.0  0.9983
  Mn  Mn13  1  0.205130  0.998990  0.077930  1.0  0.9941
  Mn  Mn14  1  0.995540  0.915910  0.143660  1.0  0.9548
  Mn  Mn15  1  0.142090  0.118980  0.963920  1.0  0.9964
  Mn  Mn16  1  0.782050  0.501010  0.422070  1.0  0.9904
  Mn  Mn17  1  0.555100  0.584090  0.356340  1.0  0.9562
  Mn  Mn18  1  0.724990  0.381020  0.536080  1.0  0.9947
  Mn  Mn19  1  0.283060  0.922070  0.498990  1.0  0.991
  Mn  Mn20  1  0.139190  0.856340  0.415920  1.0  0.9519
  Mn  Mn21  1  0.106010  0.036080  0.618980  1.0  0.9958
  Mn  Mn22  1  0.204120  0.577930  0.001010  1.0  0.993
  Mn  Mn23  1  0.911450  0.643660  0.084080  1.0  0.9543
  Mn  Mn24  1  0.261070  0.463920  0.881020  1.0  0.997
  H  H25  1  0.781100  0.926400  0.808400  1.0  0.1019
  H  H26  1  0.840300  0.928600  0.729400  1.0  0.1011
  H  H27  1  0.929800  0.974600  0.698200  1.0  0.109
  H  H28  1  0.962600  0.017300  0.747500  1.0  0.0902
  H  H29  1  0.870500  0.083100  0.009700  1.0  0.0963
  H  H30  1  0.912700  0.110100  0.965500  1.0  0.0925
  H  H31  1  0.785700  0.159000  0.015600  1.0  0.0745
  H  H32  1  0.734400  0.128000  0.002600  1.0  0.0751
  H  H33  1  0.824400  0.181900  0.937900  1.0  0.067
  H  H34  1  0.773300  0.150900  0.924900  1.0  0.0726
  H  H35  1  0.697600  0.231600  0.983400  1.0  0.0806
  H  H36  1  0.645800  0.200000  0.971800  1.0  0.0745
  H  H37  1  0.703400  0.220800  0.889800  1.0  0.1012
  H  H38  1  0.627000  0.258800  0.922000  1.0  0.1048
  H  H39  1  0.720700  0.262400  0.911800  1.0  0.1084
  H  H40  1  0.714400  0.066300  0.846500  1.0  0.0709
  H  H41  1  0.611600  0.132600  0.841200  1.0  0.1057
  H  H42  1  0.531800  0.137500  0.980100  1.0  0.1193
  H  H43  1  0.634900  0.070000  0.982000  1.0  0.0801
  H  H44  1  0.514800  0.209200  0.882600  1.0  0.0618
  H  H45  1  0.481200  0.207600  0.938200  1.0  0.0662
  H  H46  1  0.872900  0.215500  0.807700  1.0  0.1017
  H  H47  1  0.878700  0.290300  0.815300  1.0  0.0964
  H  H48  1  0.953600  0.305700  0.862700  1.0  0.1104
  H  H49  1  0.023500  0.245400  0.901200  1.0  0.0869
  H  H50  1  0.174100  0.007600  0.953800  1.0  0.0882
  H  H51  1  0.138700  0.972600  0.933200  1.0  0.0931
  H  H52  1  0.280700  0.005900  0.882100  1.0  0.0843
  H  H53  1  0.243000  0.974200  0.858800  1.0  0.0718
  H  H54  1  0.282400  0.911700  0.904500  1.0  0.0677
  H  H55  1  0.301600  0.942700  0.938100  1.0  0.0637
  H  H56  1  0.158300  0.245500  0.905100  1.0  0.0606
  H  H57  1  0.388300  0.917300  0.851900  1.0  0.0846
  H  H58  1  0.406800  0.950700  0.883900  1.0  0.0876
  H  H59  1  0.275500  0.184600  0.899200  1.0  0.1078
  H  H60  1  0.413600  0.852700  0.905900  1.0  0.0933
  H  H61  1  0.494000  0.872300  0.890900  1.0  0.1079
  H  H62  1  0.426900  0.885800  0.940400  1.0  0.0969
  H  H63  1  0.398900  0.275700  0.910700  1.0  0.1203
  H  H64  1  0.279100  0.334800  0.913600  1.0  0.0747
  H  H65  1  0.440600  0.164300  0.876700  1.0  0.0686
  H  H66  1  0.408700  0.160900  0.931900  1.0  0.0839
  H  H67  1  0.624900  0.901400  0.148000  1.0  0.1071
  H  H68  1  0.490800  0.944500  0.151100  1.0  0.0914
  H  H69  1  0.459100  0.986800  0.086200  1.0  0.1146
  H  H70  1  0.568400  0.989300  0.019900  1.0  0.0928
  H  H71  1  0.052000  0.925400  0.925000  1.0  0.1027
  H  H72  1  0.990100  0.942300  0.892700  1.0  0.1077
  H  H73  1  0.072500  0.846800  0.905000  1.0  0.0822
  H  H74  1  0.105500  0.876900  0.860900  1.0  0.089
  H  H75  1  0.949600  0.854200  0.883200  1.0  0.0703
  H  H76  1  0.978700  0.886500  0.840300  1.0  0.0662
  H  H77  1  0.090900  0.823500  0.804900  1.0  0.0742
  H  H78  1  0.064700  0.791100  0.848300  1.0  0.0726
  H  H79  1  0.012800  0.774000  0.792200  1.0  0.105
  H  H80  1  0.973000  0.827800  0.782800  1.0  0.1067
  H  H81  1  0.933300  0.803800  0.830200  1.0  0.1066
  H  H82  1  0.015900  0.573600  0.691600  1.0  0.1025
  H  H83  1  0.998300  0.571400  0.770600  1.0  0.1016
  H  H84  1  0.102600  0.525400  0.801800  1.0  0.1087
  H  H85  1  0.227400  0.482700  0.752500  1.0  0.0895
  H  H86  1  0.463300  0.416900  0.490300  1.0  0.0947
  H  H87  1  0.488300  0.389900  0.534500  1.0  0.0931
  H  H88  1  0.460300  0.341000  0.484400  1.0  0.0751
  H  H89  1  0.365000  0.372000  0.497400  1.0  0.0764
  H  H90  1  0.444200  0.318100  0.562100  1.0  0.0695
  H  H91  1  0.349100  0.349100  0.575100  1.0  0.0724
  H  H92  1  0.412600  0.268400  0.516600  1.0  0.0816
  H  H93  1  0.317600  0.300000  0.528200  1.0  0.0779
  H  H94  1  0.314000  0.279200  0.610200  1.0  0.1019
  H  H95  1  0.307800  0.241200  0.578000  1.0  0.1028
  H  H96  1  0.394900  0.237600  0.588200  1.0  0.1083
  H  H97  1  0.127200  0.433700  0.653500  1.0  0.0714
  H  H98  1  0.085400  0.367400  0.658800  1.0  0.105
  H  H99  1  0.149400  0.362500  0.519900  1.0  0.1189
  H  H100  1  0.186900  0.430000  0.518000  1.0  0.078
  H  H101  1  0.106600  0.290800  0.617400  1.0  0.0625
  H  H102  1  0.127000  0.292400  0.561800  1.0  0.067
  H  H103  1  0.396100  0.284500  0.692300  1.0  0.1026
  H  H104  1  0.484300  0.209700  0.684700  1.0  0.0956
  H  H105  1  0.622000  0.194300  0.637300  1.0  0.1102
  H  H106  1  0.670100  0.254600  0.598800  1.0  0.0864
  H  H107  1  0.635500  0.492400  0.546200  1.0  0.0895
  H  H108  1  0.544500  0.527400  0.566800  1.0  0.0921
  H  H109  1  0.668700  0.494100  0.617900  1.0  0.085
  H  H110  1  0.576000  0.525800  0.641200  1.0  0.0686
  H  H111  1  0.598600  0.588300  0.595500  1.0  0.0647
  H  H112  1  0.682400  0.557300  0.561900  1.0  0.0623
  H  H113  1  0.808900  0.254500  0.594900  1.0  0.0605
  H  H114  1  0.657500  0.582700  0.648100  1.0  0.0819
  H  H115  1  0.741400  0.549300  0.616100  1.0  0.0833
  H  H116  1  0.859300  0.315400  0.600800  1.0  0.1077
  H  H117  1  0.672200  0.647300  0.594100  1.0  0.0948
  H  H118  1  0.757200  0.627700  0.609100  1.0  0.1069
  H  H119  1  0.753100  0.614200  0.559600  1.0  0.1
  H  H120  1  0.085300  0.224300  0.589300  1.0  0.1203
  H  H121  1  0.027500  0.165200  0.586400  1.0  0.0746
  H  H122  1  0.981600  0.335700  0.623300  1.0  0.0683
  H  H123  1  0.001500  0.339100  0.568100  1.0  0.0838
  H  H124  1  0.174300  0.598600  0.352000  1.0  0.1086
  H  H125  1  0.086400  0.555500  0.348900  1.0  0.092
  H  H126  1  0.032100  0.513200  0.413800  1.0  0.1144
  H  H127  1  0.077600  0.510700  0.480100  1.0  0.0913
  H  H128  1  0.402400  0.574600  0.575000  1.0  0.1029
  H  H129  1  0.325100  0.557700  0.607300  1.0  0.1077
  H  H130  1  0.324300  0.653200  0.595000  1.0  0.0823
  H  H131  1  0.343300  0.623100  0.639100  1.0  0.0903
  H  H132  1  0.187000  0.645800  0.616800  1.0  0.0698
  H  H133  1  0.205500  0.613500  0.659700  1.0  0.0682
  H  H134  1  0.219300  0.676500  0.695100  1.0  0.0761
  H  H135  1  0.204100  0.708900  0.651700  1.0  0.0731
  H  H136  1  0.079000  0.726000  0.707800  1.0  0.1074
  H  H137  1  0.083600  0.672200  0.717200  1.0  0.1051
  H  H138  1  0.067300  0.696200  0.669800  1.0  0.1063
  H  H139  1  0.589500  0.191600  0.426400  1.0  0.1011
  H  H140  1  0.569700  0.270600  0.428600  1.0  0.1007
  H  H141  1  0.628000  0.301800  0.474600  1.0  0.1093
  H  H142  1  0.710100  0.252500  0.517300  1.0  0.0895
  H  H143  1  0.880200  0.990300  0.583100  1.0  0.0955
  H  H144  1  0.878200  0.034500  0.610100  1.0  0.0933
  H  H145  1  0.801300  0.984400  0.659000  1.0  0.0781
  H  H146  1  0.737000  0.997400  0.628000  1.0  0.0753
  H  H147  1  0.762300  0.062100  0.681900  1.0  0.0693
  H  H148  1  0.698200  0.075100  0.650900  1.0  0.071
  H  H149  1  0.681000  0.016600  0.731600  1.0  0.0813
  H  H150  1  0.617600  0.028200  0.700000  1.0  0.0785
  H  H151  1  0.593200  0.110200  0.720800  1.0  0.1026
  H  H152  1  0.549000  0.078000  0.758800  1.0  0.1061
  H  H153  1  0.632500  0.088200  0.762400  1.0  0.1072
  H  H154  1  0.560900  0.153500  0.566300  1.0  0.0718
  H  H155  1  0.452800  0.158800  0.632600  1.0  0.1049
  H  H156  1  0.511900  0.019900  0.637500  1.0  0.1197
  H  H157  1  0.616900  0.018000  0.570000  1.0  0.0777
  H  H158  1  0.397400  0.117400  0.709200  1.0  0.0614
  H  H159  1  0.419400  0.061800  0.707600  1.0  0.068
  H  H160  1  0.680600  0.192300  0.715500  1.0  0.1034
  H  H161  1  0.694000  0.184700  0.790300  1.0  0.0958
  H  H162  1  0.816300  0.137300  0.805700  1.0  0.1102
  H  H163  1  0.924700  0.098800  0.745400  1.0  0.0868
  H  H164  1  0.127900  0.046200  0.507600  1.0  0.09
  H  H165  1  0.071900  0.066800  0.472600  1.0  0.0925
  H  H166  1  0.162800  0.117900  0.505900  1.0  0.0809
  H  H167  1  0.101800  0.141200  0.474200  1.0  0.0699
  H  H168  1  0.186900  0.095500  0.411700  1.0  0.0683
  H  H169  1  0.239700  0.061900  0.442700  1.0  0.0603
  H  H170  1  0.063400  0.094900  0.745500  1.0  0.0594
  H  H171  1  0.240200  0.148100  0.417300  1.0  0.0776
  H  H172  1  0.290700  0.116100  0.450700  1.0  0.082
  H  H173  1  0.174700  0.100800  0.684600  1.0  0.1096
  H  H174  1  0.319500  0.094100  0.352700  1.0  0.0982
  H  H175  1  0.384900  0.109100  0.372300  1.0  0.1102
  H  H176  1  0.367300  0.059600  0.385800  1.0  0.1038
  H  H177  1  0.309600  0.089300  0.775700  1.0  0.1205
  H  H178  1  0.192700  0.086400  0.834800  1.0  0.0754
  H  H179  1  0.317300  0.123300  0.664300  1.0  0.0637
  H  H180  1  0.340600  0.068100  0.660900  1.0  0.0813
  H  H181  1  0.772900  0.852000  0.401400  1.0  0.1087
  H  H182  1  0.641900  0.848900  0.444500  1.0  0.092
  H  H183  1  0.545300  0.913800  0.486800  1.0  0.1128
  H  H184  1  0.588300  0.980100  0.489300  1.0  0.091
  H  H185  1  0.977000  0.075000  0.425400  1.0  0.1033
  H  H186  1  0.882800  0.107300  0.442300  1.0  0.1055
  H  H187  1  0.977500  0.095000  0.346800  1.0  0.0811
  H  H188  1  0.966400  0.139100  0.376900  1.0  0.0881
  H  H189  1  0.832800  0.116800  0.354200  1.0  0.0687
  H  H190  1  0.819000  0.159700  0.386500  1.0  0.0674
  H  H191  1  0.895800  0.195100  0.323500  1.0  0.0761
  H  H192  1  0.913000  0.151700  0.291100  1.0  0.0717
  H  H193  1  0.805000  0.207800  0.274000  1.0  0.1066
  H  H194  1  0.755800  0.217200  0.327800  1.0  0.1042
  H  H195  1  0.763500  0.169800  0.303800  1.0  0.1045
  H  H196  1  0.707500  0.308400  0.073600  1.0  0.103
  H  H197  1  0.768900  0.229400  0.071400  1.0  0.1014
  H  H198  1  0.904400  0.198200  0.025400  1.0  0.1102
  H  H199  1  0.979900  0.247500  0.982700  1.0  0.0905
  H  H200  1  0.953600  0.509700  0.916900  1.0  0.0963
  H  H201  1  0.022800  0.465500  0.889900  1.0  0.0919
  H  H202  1  0.944700  0.515600  0.841000  1.0  0.0769
  H  H203  1  0.862400  0.502600  0.872000  1.0  0.0765
  H  H204  1  0.006300  0.437900  0.818100  1.0  0.0666
  H  H205  1  0.924200  0.424900  0.849100  1.0  0.0719
  H  H206  1  0.929200  0.483400  0.768400  1.0  0.0837
  H  H207  1  0.845800  0.471800  0.800000  1.0  0.0721
  H  H208  1  0.924200  0.389800  0.779200  1.0  0.101
  H  H209  1  0.885800  0.422000  0.741200  1.0  0.1048
  H  H210  1  0.983100  0.411800  0.737600  1.0  0.1065
  H  H211  1  0.780700  0.346500  0.933700  1.0  0.0702
  H  H212  1  0.744200  0.341200  0.867400  1.0  0.1039
  H  H213  1  0.669300  0.480100  0.862500  1.0  0.1206
  H  H214  1  0.704900  0.482000  0.930000  1.0  0.0793
  H  H215  1  0.724000  0.382600  0.790800  1.0  0.0617
  H  H216  1  0.688800  0.438200  0.792400  1.0  0.0648
  H  H217  1  0.088400  0.307700  0.784500  1.0  0.1017
  H  H218  1  0.169000  0.315300  0.709700  1.0  0.0964
  H  H219  1  0.259300  0.362700  0.694300  1.0  0.1091
  H  H220  1  0.268900  0.401200  0.754600  1.0  0.086
  H  H221  1  0.181700  0.453800  0.992400  1.0  0.0892
  H  H222  1  0.111300  0.433200  0.027400  1.0  0.091
  H  H223  1  0.286600  0.382100  0.994100  1.0  0.083
  H  H224  1  0.217200  0.358800  0.025800  1.0  0.0666
  H  H225  1  0.194100  0.404500  0.088300  1.0  0.0656
  H  H226  1  0.244300  0.438100  0.057300  1.0  0.0619
  H  H227  1  0.403800  0.405100  0.754500  1.0  0.0601
  H  H228  1  0.305600  0.351900  0.082700  1.0  0.0796
  H  H229  1  0.357500  0.383900  0.049300  1.0  0.084
  H  H230  1  0.460100  0.399200  0.815400  1.0  0.1075
  H  H231  1  0.266300  0.405900  0.147300  1.0  0.0952
  H  H232  1  0.366300  0.390900  0.127700  1.0  0.1073
  H  H233  1  0.312700  0.440400  0.114200  1.0  0.102
  H  H234  1  0.674600  0.410700  0.724300  1.0  0.1229
  H  H235  1  0.613900  0.413600  0.665200  1.0  0.0752
  H  H236  1  0.604900  0.376700  0.835700  1.0  0.0622
  H  H237  1  0.569600  0.431900  0.839100  1.0  0.0794
  H  H238  1  0.526300  0.648000  0.098600  1.0  0.1085
  H  H239  1  0.435300  0.651100  0.055500  1.0  0.092
  H  H240  1  0.445900  0.586200  0.013200  1.0  0.1136
  H  H241  1  0.557700  0.519900  0.010700  1.0  0.0909
  H  H242  1  0.977400  0.425000  0.074600  1.0  0.105
  H  H243  1  0.932400  0.392700  0.057700  1.0  0.1045
  H  H244  1  0.919300  0.405000  0.153200  1.0  0.0798
  H  H245  1  0.982400  0.360900  0.123100  1.0  0.0871
  H  H246  1  0.803800  0.383200  0.145800  1.0  0.0704
  H  H247  1  0.865200  0.340300  0.113500  1.0  0.0636
  H  H248  1  0.914400  0.304900  0.176500  1.0  0.0774
  H  H249  1  0.855800  0.348300  0.208900  1.0  0.0713
  H  H250  1  0.786800  0.292200  0.226000  1.0  0.1086
  H  H251  1  0.800800  0.282800  0.172200  1.0  0.1054
  H  H252  1  0.737100  0.330200  0.196200  1.0  0.1062
  H  H253  1  0.218900  0.073600  0.191600  1.0  0.1025
  H  H254  1  0.159700  0.071400  0.270600  1.0  0.1012
  H  H255  1  0.070200  0.025400  0.301800  1.0  0.1097
  H  H256  1  0.037400  0.982700  0.252500  1.0  0.0908
  H  H257  1  0.129500  0.916900  0.990300  1.0  0.0963
  H  H258  1  0.087300  0.889900  0.034500  1.0  0.0924
  H  H259  1  0.214300  0.841000  0.984400  1.0  0.0746
  H  H260  1  0.265600  0.872000  0.997400  1.0  0.0778
  H  H261  1  0.175600  0.818100  0.062100  1.0  0.067
  H  H262  1  0.226700  0.849100  0.075100  1.0  0.0724
  H  H263  1  0.302400  0.768400  0.016600  1.0  0.081
  H  H264  1  0.354200  0.800000  0.028200  1.0  0.0752
  H  H265  1  0.296600  0.779200  0.110200  1.0  0.1005
  H  H266  1  0.373000  0.741200  0.078000  1.0  0.1042
  H  H267  1  0.279300  0.737600  0.088200  1.0  0.1091
  H  H268  1  0.285600  0.933700  0.153500  1.0  0.0709
  H  H269  1  0.388400  0.867400  0.158800  1.0  0.1047
  H  H270  1  0.468200  0.862500  0.019900  1.0  0.1201
  H  H271  1  0.365100  0.930000  0.018000  1.0  0.0798
  H  H272  1  0.485200  0.790800  0.117400  1.0  0.0627
  H  H273  1  0.518800  0.792400  0.061800  1.0  0.0669
  H  H274  1  0.127100  0.784500  0.192300  1.0  0.1031
  H  H275  1  0.121300  0.709700  0.184700  1.0  0.096
  H  H276  1  0.046400  0.694300  0.137300  1.0  0.1106
  H  H277  1  0.976500  0.754600  0.098800  1.0  0.0874
  H  H278  1  0.825900  0.992400  0.046200  1.0  0.0885
  H  H279  1  0.861300  0.027400  0.066800  1.0  0.093
  H  H280  1  0.719300  0.994100  0.117900  1.0  0.0848
  H  H281  1  0.757000  0.025800  0.141200  1.0  0.0707
  H  H282  1  0.717600  0.088300  0.095500  1.0  0.0671
  H  H283  1  0.698400  0.057300  0.061900  1.0  0.0655
  H  H284  1  0.841700  0.754500  0.094900  1.0  0.0602
  H  H285  1  0.611700  0.082700  0.148100  1.0  0.0823
  H  H286  1  0.593200  0.049300  0.116100  1.0  0.0833
  H  H287  1  0.724500  0.815400  0.100800  1.0  0.1073
  H  H288  1  0.586400  0.147300  0.094100  1.0  0.0944
  H  H289  1  0.506000  0.127700  0.109100  1.0  0.1062
  H  H290  1  0.573100  0.114200  0.059600  1.0  0.0997
  H  H291  1  0.601100  0.724300  0.089300  1.0  0.1203
  H  H292  1  0.720900  0.665200  0.086400  1.0  0.0745
  H  H293  1  0.559400  0.835700  0.123300  1.0  0.0685
  H  H294  1  0.591300  0.839100  0.068100  1.0  0.0842
  H  H295  1  0.375100  0.098600  0.852000  1.0  0.108
  H  H296  1  0.509200  0.055500  0.848900  1.0  0.0913
  H  H297  1  0.540900  0.013200  0.913800  1.0  0.1142
  H  H298  1  0.431600  0.010700  0.980100  1.0  0.0926
  H  H299  1  0.948000  0.074600  0.075000  1.0  0.1031
  H  H300  1  0.009900  0.057700  0.107300  1.0  0.1077
  H  H301  1  0.927500  0.153200  0.095000  1.0  0.0813
  H  H302  1  0.894500  0.123100  0.139100  1.0  0.0885
  H  H303  1  0.050400  0.145800  0.116800  1.0  0.0696
  H  H304  1  0.021300  0.113500  0.159700  1.0  0.0674
  H  H305  1  0.909100  0.176500  0.195100  1.0  0.074
  H  H306  1  0.935300  0.208900  0.151700  1.0  0.0728
  H  H307  1  0.987200  0.226000  0.207800  1.0  0.1064
  H  H308  1  0.027000  0.172200  0.217200  1.0  0.1062
  H  H309  1  0.066700  0.196200  0.169800  1.0  0.1107
  H  H310  1  0.984100  0.426400  0.308400  1.0  0.1028
  H  H311  1  0.001700  0.428600  0.229400  1.0  0.1005
  H  H312  1  0.897400  0.474600  0.198200  1.0  0.109
  H  H313  1  0.772600  0.517300  0.247500  1.0  0.0894
  H  H314  1  0.536700  0.583100  0.509700  1.0  0.0955
  H  H315  1  0.511700  0.610100  0.465500  1.0  0.0931
  H  H316  1  0.539700  0.659000  0.515600  1.0  0.075
  H  H317  1  0.635000  0.628000  0.502600  1.0  0.0756
  H  H318  1  0.555800  0.681900  0.437900  1.0  0.0697
  H  H319  1  0.650900  0.650900  0.424900  1.0  0.0718
  H  H320  1  0.587400  0.731600  0.483400  1.0  0.0827
  H  H321  1  0.682400  0.700000  0.471800  1.0  0.0783
  H  H322  1  0.686000  0.720800  0.389800  1.0  0.1021
  H  H323  1  0.692200  0.758800  0.422000  1.0  0.1052
  H  H324  1  0.605100  0.762400  0.411800  1.0  0.1094
  H  H325  1  0.872800  0.566300  0.346500  1.0  0.0721
  H  H326  1  0.914600  0.632600  0.341200  1.0  0.1051
  H  H327  1  0.850600  0.637500  0.480100  1.0  0.1178
  H  H328  1  0.813100  0.570000  0.482000  1.0  0.0782
  H  H329  1  0.893400  0.709200  0.382600  1.0  0.0608
  H  H330  1  0.873000  0.707600  0.438200  1.0  0.0657
  H  H331  1  0.603900  0.715500  0.307700  1.0  0.1011
  H  H332  1  0.515700  0.790300  0.315300  1.0  0.0965
  H  H333  1  0.378000  0.805700  0.362700  1.0  0.1099
  H  H334  1  0.329900  0.745400  0.401200  1.0  0.0864
  H  H335  1  0.364500  0.507600  0.453800  1.0  0.0897
  H  H336  1  0.455500  0.472600  0.433200  1.0  0.0917
  H  H337  1  0.331300  0.505900  0.382100  1.0  0.0839
  H  H338  1  0.424000  0.474200  0.358800  1.0  0.0696
  H  H339  1  0.401400  0.411700  0.404500  1.0  0.0668
  H  H340  1  0.317600  0.442700  0.438100  1.0  0.0603
  H  H341  1  0.191100  0.745500  0.405100  1.0  0.0601
  H  H342  1  0.342500  0.417300  0.351900  1.0  0.0813
  H  H343  1  0.258600  0.450700  0.383900  1.0  0.0832
  H  H344  1  0.140700  0.684600  0.399200  1.0  0.1079
  H  H345  1  0.327800  0.352700  0.405900  1.0  0.0928
  H  H346  1  0.242800  0.372300  0.390900  1.0  0.105
  H  H347  1  0.246900  0.385800  0.440400  1.0  0.0987
  H  H348  1  0.914700  0.775700  0.410700  1.0  0.1205
  H  H349  1  0.972500  0.834800  0.413600  1.0  0.0743
  H  H350  1  0.018400  0.664300  0.376700  1.0  0.0677
  H  H351  1  0.998500  0.660900  0.431900  1.0  0.0832
  H  H352  1  0.825700  0.401400  0.648000  1.0  0.1084
  H  H353  1  0.913600  0.444500  0.651100  1.0  0.0908
  H  H354  1  0.967900  0.486800  0.586200  1.0  0.1149
  H  H355  1  0.922400  0.489300  0.519900  1.0  0.0913
  H  H356  1  0.597600  0.425400  0.425000  1.0  0.1033
  H  H357  1  0.674900  0.442300  0.392700  1.0  0.1075
  H  H358  1  0.675700  0.346800  0.405000  1.0  0.0821
  H  H359  1  0.656700  0.376900  0.360900  1.0  0.0908
  H  H360  1  0.813000  0.354200  0.383200  1.0  0.071
  H  H361  1  0.794500  0.386500  0.340300  1.0  0.0668
  H  H362  1  0.780700  0.323500  0.304900  1.0  0.0795
  H  H363  1  0.795900  0.291100  0.348300  1.0  0.0733
  H  H364  1  0.921000  0.274000  0.292200  1.0  0.107
  H  H365  1  0.916400  0.327800  0.282800  1.0  0.1065
  H  H366  1  0.932700  0.303800  0.330200  1.0  0.1057
  H  H367  1  0.410500  0.808400  0.573600  1.0  0.1027
  H  H368  1  0.430300  0.729400  0.571400  1.0  0.1015
  H  H369  1  0.372000  0.698200  0.525400  1.0  0.1097
  H  H370  1  0.289900  0.747500  0.482700  1.0  0.0896
  H  H371  1  0.119800  0.009700  0.416900  1.0  0.0954
  H  H372  1  0.121800  0.965500  0.389900  1.0  0.0938
  H  H373  1  0.198700  0.015600  0.341000  1.0  0.0777
  H  H374  1  0.263000  0.002600  0.372000  1.0  0.0748
  H  H375  1  0.237700  0.937900  0.318100  1.0  0.0695
  H  H376  1  0.301800  0.924900  0.349100  1.0  0.0717
  H  H377  1  0.319000  0.983400  0.268400  1.0  0.0812
  H  H378  1  0.382400  0.971800  0.300000  1.0  0.079
  H  H379  1  0.406800  0.889800  0.279200  1.0  0.1031
  H  H380  1  0.451000  0.922000  0.241200  1.0  0.1057
  H  H381  1  0.367500  0.911800  0.237600  1.0  0.1086
  H  H382  1  0.439100  0.846500  0.433700  1.0  0.0714
  H  H383  1  0.547200  0.841200  0.367400  1.0  0.1044
  H  H384  1  0.488100  0.980100  0.362500  1.0  0.1205
  H  H385  1  0.383100  0.982000  0.430000  1.0  0.0783
  H  H386  1  0.602600  0.882600  0.290800  1.0  0.0613
  H  H387  1  0.580600  0.938200  0.292400  1.0  0.0661
  H  H388  1  0.319400  0.807700  0.284500  1.0  0.1021
  H  H389  1  0.306000  0.815300  0.209700  1.0  0.0963
  H  H390  1  0.183700  0.862700  0.194300  1.0  0.11
  H  H391  1  0.075300  0.901200  0.254600  1.0  0.0869
  H  H392  1  0.872100  0.953800  0.492400  1.0  0.0888
  H  H393  1  0.928100  0.933200  0.527400  1.0  0.0922
  H  H394  1  0.837200  0.882100  0.494100  1.0  0.0828
  H  H395  1  0.898200  0.858800  0.525800  1.0  0.0662
  H  H396  1  0.813100  0.904500  0.588300  1.0  0.0694
  H  H397  1  0.760300  0.938100  0.557300  1.0  0.0611
  H  H398  1  0.936600  0.905100  0.254500  1.0  0.0596
  H  H399  1  0.759800  0.851900  0.582700  1.0  0.076
  H  H400  1  0.709300  0.883900  0.549300  1.0  0.0807
  H  H401  1  0.825300  0.899200  0.315400  1.0  0.1085
  H  H402  1  0.680500  0.905900  0.647300  1.0  0.0981
  H  H403  1  0.615100  0.890900  0.627700  1.0  0.1061
  H  H404  1  0.632700  0.940400  0.614200  1.0  0.1022
  H  H405  1  0.690400  0.910700  0.224300  1.0  0.1211
  H  H406  1  0.807300  0.913600  0.165200  1.0  0.0768
  H  H407  1  0.682700  0.876700  0.335700  1.0  0.0635
  H  H408  1  0.659400  0.931900  0.339100  1.0  0.0805
  H  H409  1  0.227100  0.148000  0.598600  1.0  0.1088
  H  H410  1  0.358100  0.151100  0.555500  1.0  0.0918
  H  H411  1  0.454700  0.086200  0.513200  1.0  0.1133
  H  H412  1  0.411700  0.019900  0.510700  1.0  0.0912
  H  H413  1  0.023000  0.925000  0.574600  1.0  0.1031
  H  H414  1  0.117200  0.892700  0.557700  1.0  0.1062
  H  H415  1  0.022500  0.905000  0.653200  1.0  0.0816
  H  H416  1  0.033600  0.860900  0.623100  1.0  0.0878
  H  H417  1  0.167200  0.883200  0.645800  1.0  0.0695
  H  H418  1  0.181000  0.840300  0.613500  1.0  0.0642
  H  H419  1  0.104200  0.804900  0.676500  1.0  0.0778
  H  H420  1  0.087000  0.848300  0.708900  1.0  0.0719
  H  H421  1  0.195000  0.792200  0.726000  1.0  0.1079
  H  H422  1  0.244200  0.782800  0.672200  1.0  0.105
  H  H423  1  0.236500  0.830200  0.696200  1.0  0.1061
  H  H424  1  0.292500  0.691600  0.926400  1.0  0.102
  H  H425  1  0.231100  0.770600  0.928600  1.0  0.1008
  H  H426  1  0.095600  0.801800  0.974600  1.0  0.1094
  H  H427  1  0.020100  0.752500  0.017300  1.0  0.0901
  H  H428  1  0.046400  0.490300  0.083100  1.0  0.0963
  H  H429  1  0.977200  0.534500  0.110100  1.0  0.0922
  H  H430  1  0.055300  0.484400  0.159000  1.0  0.0775
  H  H431  1  0.137600  0.497400  0.128000  1.0  0.0796
  H  H432  1  0.993700  0.562100  0.181900  1.0  0.0671
  H  H433  1  0.075800  0.575100  0.150900  1.0  0.0708
  H  H434  1  0.070800  0.516600  0.231600  1.0  0.0844
  H  H435  1  0.154200  0.528200  0.200000  1.0  0.0701
  H  H436  1  0.075800  0.610200  0.220800  1.0  0.1034
  H  H437  1  0.114200  0.578000  0.258800  1.0  0.105
  H  H438  1  0.016900  0.588200  0.262400  1.0  0.1047
  H  H439  1  0.219300  0.653500  0.066300  1.0  0.0704
  H  H440  1  0.255800  0.658800  0.132600  1.0  0.1047
  H  H441  1  0.330700  0.519900  0.137500  1.0  0.1192
  H  H442  1  0.295100  0.518000  0.070000  1.0  0.0791
  H  H443  1  0.276000  0.617400  0.209200  1.0  0.0616
  H  H444  1  0.311200  0.561800  0.207600  1.0  0.0675
  H  H445  1  0.911600  0.692300  0.215500  1.0  0.1022
  H  H446  1  0.831000  0.684700  0.290300  1.0  0.0968
  H  H447  1  0.740700  0.637300  0.305700  1.0  0.1095
  H  H448  1  0.731100  0.598800  0.245400  1.0  0.0862
  H  H449  1  0.818300  0.546200  0.007600  1.0  0.0903
  H  H450  1  0.888700  0.566800  0.972600  1.0  0.0922
  H  H451  1  0.713400  0.617900  0.005900  1.0  0.0817
  H  H452  1  0.782800  0.641200  0.974200  1.0  0.0696
  H  H453  1  0.805900  0.595500  0.911700  1.0  0.0624
  H  H454  1  0.755700  0.561900  0.942700  1.0  0.0611
  H  H455  1  0.596200  0.594900  0.245500  1.0  0.0599
  H  H456  1  0.694400  0.648100  0.917300  1.0  0.0795
  H  H457  1  0.642500  0.616100  0.950700  1.0  0.0814
  H  H458  1  0.539900  0.600800  0.184600  1.0  0.1076
  H  H459  1  0.733700  0.594100  0.852700  1.0  0.094
  H  H460  1  0.633700  0.609100  0.872300  1.0  0.1042
  H  H461  1  0.687300  0.559600  0.885800  1.0  0.1039
  H  H462  1  0.325400  0.589300  0.275700  1.0  0.1226
  H  H463  1  0.386100  0.586400  0.334800  1.0  0.0747
  H  H464  1  0.395100  0.623300  0.164300  1.0  0.0625
  H  H465  1  0.430400  0.568100  0.160900  1.0  0.079
  H  H466  1  0.473700  0.352000  0.901400  1.0  0.1081
  H  H467  1  0.564700  0.348900  0.944500  1.0  0.0915
  H  H468  1  0.554100  0.413800  0.986800  1.0  0.1148
  H  H469  1  0.442300  0.480100  0.989300  1.0  0.091
  H  H470  1  0.022600  0.575000  0.925400  1.0  0.1035
  H  H471  1  0.067600  0.607300  0.942300  1.0  0.1037
  H  H472  1  0.080700  0.595000  0.846800  1.0  0.0791
  H  H473  1  0.017600  0.639100  0.876900  1.0  0.0874
  H  H474  1  0.196200  0.616800  0.854200  1.0  0.0701
  H  H475  1  0.134800  0.659700  0.886500  1.0  0.0663
  H  H476  1  0.085600  0.695100  0.823500  1.0  0.0768
  H  H477  1  0.144200  0.651700  0.791100  1.0  0.0706
  H  H478  1  0.213200  0.707800  0.774000  1.0  0.1089
  H  H479  1  0.199200  0.717200  0.827800  1.0  0.1048
  H  H480  1  0.262900  0.669800  0.803800  1.0  0.1098
  C  C481  1  0.834850  0.971080  0.826820  1.0  0.3236
  C  C482  1  0.817890  0.945250  0.796370  1.0  -0.2236
  C  C483  1  0.852990  0.946570  0.749450  1.0  -0.1143
  C  C484  1  0.906310  0.973510  0.730870  1.0  -0.1103
  C  C485  1  0.925450  0.998750  0.760150  1.0  -0.0424
  C  C486  1  0.890960  0.997680  0.808600  1.0  -0.1677
  C  C487  1  0.914220  0.026710  0.837050  1.0  0.5902
  C  C488  1  0.857410  0.064430  0.948750  1.0  0.54
  C  C489  1  0.863210  0.098700  0.980280  1.0  -0.2735
  C  C490  1  0.784170  0.139950  0.990710  1.0  -0.0976
  C  C491  1  0.774600  0.170080  0.949720  1.0  -0.1149
  C  C492  1  0.695720  0.211720  0.959240  1.0  -0.0836
  C  C493  1  0.685800  0.240960  0.917040  1.0  -0.3373
  C  C494  1  0.676470  0.080990  0.874270  1.0  0.1701
  C  C495  1  0.616080  0.120900  0.870940  1.0  -0.2259
  C  C496  1  0.561940  0.144310  0.910010  1.0  0.1374
  C  C497  1  0.569420  0.123640  0.951720  1.0  -0.2394
  C  C498  1  0.630620  0.083300  0.952660  1.0  0.1545
  C  C499  1  0.494030  0.190010  0.909330  1.0  -0.0702
  C  C500  1  0.946760  0.183530  0.849750  1.0  0.3782
  C  C501  1  0.904300  0.220980  0.826820  1.0  -0.2351
  C  C502  1  0.907490  0.265590  0.831430  1.0  -0.127
  C  C503  1  0.952000  0.274870  0.859330  1.0  -0.1279
  C  C504  1  0.993320  0.238970  0.881790  1.0  -0.0486
  C  C505  1  0.993160  0.192970  0.877510  1.0  -0.1547
  C  C506  1  0.040920  0.156490  0.903270  1.0  0.5546
  C  C507  1  0.109230  0.038360  0.907380  1.0  0.5453
  C  C508  1  0.165440  0.998300  0.925220  1.0  -0.2515
  C  C509  1  0.251940  0.981100  0.888220  1.0  -0.1021
  C  C510  1  0.306600  0.937660  0.905140  1.0  -0.1025
  C  C511  1  0.208380  0.251830  0.906010  1.0  0.1742
  C  C512  1  0.382000  0.924700  0.884500  1.0  -0.0882
  C  C513  1  0.277240  0.215330  0.903190  1.0  -0.2145
  C  C514  1  0.434400  0.879300  0.907700  1.0  -0.3301
  C  C515  1  0.349060  0.223280  0.906200  1.0  0.1044
  C  C516  1  0.349440  0.268780  0.909540  1.0  -0.2616
  C  C517  1  0.278160  0.303590  0.911290  1.0  0.1659
  C  C518  1  0.425900  0.181700  0.905900  1.0  -0.1324
  C  C519  1  0.680300  0.917830  0.081170  1.0  0.3356
  C  C520  1  0.614020  0.918820  0.121540  1.0  -0.2423
  C  C521  1  0.534420  0.944330  0.123230  1.0  -0.0987
  C  C522  1  0.515210  0.970190  0.085190  1.0  -0.108
  C  C523  1  0.580320  0.970970  0.045790  1.0  -0.0468
  C  C524  1  0.662790  0.945790  0.042830  1.0  -0.0981
  C  C525  1  0.728040  0.951180  0.001340  1.0  0.5617
  C  C526  1  0.938660  0.911490  0.953190  1.0  0.5565
  C  C527  1  0.010950  0.916730  0.912970  1.0  -0.345
  C  C528  1  0.054600  0.872650  0.884350  1.0  -0.0805
  C  C529  1  0.999020  0.859860  0.859700  1.0  -0.0826
  C  C530  1  0.042660  0.817550  0.829330  1.0  -0.0641
  C  C531  1  0.985420  0.804680  0.806680  1.0  -0.3518
  C  C532  1  0.132750  0.528920  0.673180  1.0  0.3219
  C  C533  1  0.059510  0.554750  0.703630  1.0  -0.222
  C  C534  1  0.049010  0.553430  0.750550  1.0  -0.1123
  C  C535  1  0.110690  0.526490  0.769130  1.0  -0.108
  C  C536  1  0.184350  0.501250  0.739850  1.0  -0.044
  C  C537  1  0.197240  0.502320  0.691400  1.0  -0.1703
  C  C538  1  0.277980  0.473290  0.662950  1.0  0.59
  C  C539  1  0.370590  0.435570  0.551250  1.0  0.5426
  C  C540  1  0.442190  0.401300  0.519720  1.0  -0.2686
  C  C541  1  0.414830  0.360050  0.509290  1.0  -0.0964
  C  C542  1  0.394400  0.329920  0.550280  1.0  -0.1159
  C  C543  1  0.366680  0.288280  0.540760  1.0  -0.0828
  C  C544  1  0.343800  0.259040  0.582960  1.0  -0.3369
  C  C545  1  0.131730  0.419010  0.625730  1.0  0.1704
  C  C546  1  0.107920  0.379100  0.629060  1.0  -0.2293
  C  C547  1  0.116260  0.355690  0.589990  1.0  0.1371
  C  C548  1  0.144780  0.376360  0.548280  1.0  -0.237
  C  C549  1  0.166580  0.416700  0.547340  1.0  0.1542
  C  C550  1  0.093370  0.309990  0.590670  1.0  -0.0715
  C  C551  1  0.480040  0.316470  0.650250  1.0  0.3829
  C  C552  1  0.452100  0.279020  0.673180  1.0  -0.2365
  C  C553  1  0.504510  0.234410  0.668570  1.0  -0.131
  C  C554  1  0.586200  0.225130  0.640670  1.0  -0.1265
  C  C555  1  0.614080  0.261030  0.618210  1.0  -0.0473
  C  C556  1  0.563640  0.307030  0.622490  1.0  -0.1552
  C  C557  1  0.600680  0.343510  0.596730  1.0  0.5556
  C  C558  1  0.554970  0.461640  0.592620  1.0  0.5441
  C  C559  1  0.588960  0.501700  0.574780  1.0  -0.2534
  C  C560  1  0.621260  0.518900  0.611780  1.0  -0.1051
  C  C561  1  0.649400  0.562340  0.594860  1.0  -0.1022
  C  C562  1  0.866220  0.248170  0.593990  1.0  0.1741
  C  C563  1  0.691200  0.575300  0.615500  1.0  -0.0892
  C  C564  1  0.895760  0.284670  0.596810  1.0  -0.215
  C  C565  1  0.721400  0.620700  0.592300  1.0  -0.3347
  C  C566  1  0.978540  0.276720  0.593800  1.0  0.1045
  C  C567  1  0.027760  0.231220  0.590460  1.0  -0.2595
  C  C568  1  0.993040  0.196410  0.588710  1.0  0.1655
  C  C569  1  0.013500  0.318300  0.594100  1.0  -0.1313
  C  C570  1  0.179300  0.582170  0.418830  1.0  0.3369
  C  C571  1  0.154380  0.581180  0.378460  1.0  -0.2456
  C  C572  1  0.101980  0.555670  0.376770  1.0  -0.0966
  C  C573  1  0.070590  0.529810  0.414810  1.0  -0.11
  C  C574  1  0.097080  0.529030  0.454210  1.0  -0.0474
  C  C575  1  0.151410  0.554210  0.457170  1.0  -0.096
  C  C576  1  0.180560  0.548820  0.498660  1.0  0.561
  C  C577  1  0.303340  0.588510  0.546810  1.0  0.5571
  C  C578  1  0.340650  0.583270  0.587030  1.0  -0.3456
  C  C579  1  0.311600  0.627350  0.615650  1.0  -0.0846
  C  C580  1  0.218580  0.640140  0.640300  1.0  -0.0844
  C  C581  1  0.189540  0.682450  0.670670  1.0  -0.0663
  C  C582  1  0.096780  0.695320  0.693320  1.0  -0.3503
  C  C583  1  0.661670  0.173180  0.471080  1.0  0.3173
  C  C584  1  0.614260  0.203630  0.445250  1.0  -0.2217
  C  C585  1  0.602440  0.250550  0.446570  1.0  -0.1132
  C  C586  1  0.637180  0.269130  0.473510  1.0  -0.1108
  C  C587  1  0.685600  0.239850  0.498750  1.0  -0.0446
  C  C588  1  0.699560  0.191400  0.497680  1.0  -0.1699
  C  C589  1  0.751270  0.162950  0.526710  1.0  0.5897
  C  C590  1  0.806160  0.051250  0.564430  1.0  0.5427
  C  C591  1  0.843490  0.019720  0.598700  1.0  -0.2717
  C  C592  1  0.774880  0.009290  0.639950  1.0  -0.0943
  C  C593  1  0.724320  0.050280  0.670080  1.0  -0.1147
  C  C594  1  0.654960  0.040760  0.711720  1.0  -0.0829
  C  C595  1  0.602840  0.082960  0.740960  1.0  -0.3358
  C  C596  1  0.550740  0.125730  0.580990  1.0  0.1708
  C  C597  1  0.487020  0.129060  0.620900  1.0  -0.2316
  C  C598  1  0.471950  0.089990  0.644310  1.0  0.1365
  C  C599  1  0.521140  0.048280  0.623640  1.0  -0.2432
  C  C600  1  0.583280  0.047340  0.583300  1.0  0.1556
  C  C601  1  0.403360  0.090670  0.690010  1.0  -0.0703
  C  C602  1  0.796510  0.150250  0.683530  1.0  0.3846
  C  C603  1  0.731120  0.173180  0.720980  1.0  -0.2358
  C  C604  1  0.738920  0.168570  0.765590  1.0  -0.1212
  C  C605  1  0.811330  0.140670  0.774870  1.0  -0.1246
  C  C606  1  0.875110  0.118210  0.738970  1.0  -0.0491
  C  C607  1  0.870670  0.122490  0.692970  1.0  -0.1544
  C  C608  1  0.944190  0.096730  0.656490  1.0  0.5543
  C  C609  1  0.016610  0.092620  0.538360  1.0  0.5447
  C  C610  1  0.090660  0.074780  0.498300  1.0  -0.251
  C  C611  1  0.140160  0.111780  0.481100  1.0  -0.105
  C  C612  1  0.211740  0.094860  0.437660  1.0  -0.1043
  C  C613  1  0.114390  0.093990  0.751830  1.0  0.1745
  C  C614  1  0.266500  0.115500  0.424700  1.0  -0.0882
  C  C615  1  0.180430  0.096810  0.715330  1.0  -0.2106
  C  C616  1  0.342100  0.092300  0.379300  1.0  -0.3317
  C  C617  1  0.255260  0.093800  0.723280  1.0  0.1037
  C  C618  1  0.258980  0.090460  0.768780  1.0  -0.258
  C  C619  1  0.189450  0.088710  0.803590  1.0  0.1682
  C  C620  1  0.331800  0.094100  0.681700  1.0  -0.1295
  C  C621  1  0.761470  0.918830  0.417830  1.0  0.3383
  C  C622  1  0.735560  0.878460  0.418820  1.0  -0.2446
  C  C623  1  0.657650  0.876770  0.444330  1.0  -0.0989
  C  C624  1  0.600400  0.914810  0.470190  1.0  -0.1118
  C  C625  1  0.626110  0.954210  0.470970  1.0  -0.0477
  C  C626  1  0.705620  0.957170  0.445790  1.0  -0.0963
  C  C627  1  0.729380  0.998660  0.451180  1.0  0.5626
  C  C628  1  0.891850  0.046810  0.411490  1.0  0.5553
  C  C629  1  0.923920  0.087030  0.416730  1.0  -0.3438
  C  C630  1  0.938950  0.115650  0.372650  1.0  -0.0792
  C  C631  1  0.858720  0.140300  0.359860  1.0  -0.0844
  C  C632  1  0.871990  0.170670  0.317550  1.0  -0.0623
  C  C633  1  0.792100  0.193320  0.304680  1.0  -0.351
  C  C634  1  0.805930  0.326820  0.028920  1.0  0.3184
  C  C635  1  0.763140  0.296370  0.054750  1.0  -0.2239
  C  C636  1  0.799560  0.249450  0.053430  1.0  -0.1128
  C  C637  1  0.879820  0.230870  0.026490  1.0  -0.1091
  C  C638  1  0.924200  0.260150  0.001250  1.0  -0.0424
  C  C639  1  0.888640  0.308600  0.002320  1.0  -0.1691
  C  C640  1  0.940930  0.337050  0.973290  1.0  0.5889
  C  C641  1  0.921840  0.448750  0.935570  1.0  0.545
  C  C642  1  0.961910  0.480280  0.901300  1.0  -0.2694
  C  C643  1  0.924120  0.490710  0.860050  1.0  -0.0929
  C  C644  1  0.944680  0.449720  0.829920  1.0  -0.1158
  C  C645  1  0.907440  0.459240  0.788280  1.0  -0.084
  C  C646  1  0.926760  0.417040  0.759040  1.0  -0.3393
  C  C647  1  0.757460  0.374270  0.919010  1.0  0.1725
  C  C648  1  0.736980  0.370940  0.879100  1.0  -0.2281
  C  C649  1  0.706250  0.410010  0.855690  1.0  0.1354
  C  C650  1  0.693060  0.451720  0.876360  1.0  -0.2426
  C  C651  1  0.713920  0.452660  0.916700  1.0  0.157
  C  C652  1  0.684040  0.409330  0.809990  1.0  -0.0737
  C  C653  1  0.130290  0.349750  0.816470  1.0  0.3818
  C  C654  1  0.125280  0.326820  0.779020  1.0  -0.2405
  C  C655  1  0.173080  0.331430  0.734410  1.0  -0.1239
  C  C656  1  0.226870  0.359330  0.725130  1.0  -0.1271
  C  C657  1  0.232290  0.381790  0.761030  1.0  -0.0484
  C  C658  1  0.186130  0.377510  0.807030  1.0  -0.154
  C  C659  1  0.197410  0.403270  0.843510  1.0  0.5556
  C  C660  1  0.147590  0.407380  0.961640  1.0  0.5468
  C  C661  1  0.163740  0.425220  0.001700  1.0  -0.2548
  C  C662  1  0.233040  0.388220  0.018900  1.0  -0.1057
  C  C663  1  0.244260  0.405140  0.062340  1.0  -0.1006
  C  C664  1  0.460210  0.406010  0.748170  1.0  0.1766
  C  C665  1  0.306700  0.384500  0.075300  1.0  -0.0924
  C  C666  1  0.492570  0.403190  0.784670  1.0  -0.2136
  C  C667  1  0.313700  0.407700  0.120700  1.0  -0.3288
  C  C668  1  0.572340  0.406200  0.776720  1.0  0.1066
  C  C669  1  0.618220  0.409540  0.731220  1.0  -0.2581
  C  C670  1  0.581750  0.411290  0.696410  1.0  0.1709
  C  C671  1  0.607600  0.405900  0.818300  1.0  -0.1408
  C  C672  1  0.598130  0.581170  0.082170  1.0  0.3398
  C  C673  1  0.532840  0.621540  0.081180  1.0  -0.2402
  C  C674  1  0.478750  0.623230  0.055670  1.0  -0.0953
  C  C675  1  0.485400  0.585190  0.029810  1.0  -0.1098
  C  C676  1  0.551290  0.545790  0.029030  1.0  -0.0491
  C  C677  1  0.608580  0.542830  0.054210  1.0  -0.0954
  C  C678  1  0.679220  0.501340  0.048820  1.0  0.5621
  C  C679  1  0.850150  0.453190  0.088510  1.0  0.5552
  C  C680  1  0.927680  0.412970  0.083270  1.0  -0.34
  C  C681  1  0.927250  0.384350  0.127350  1.0  -0.0869
  C  C682  1  0.858880  0.359700  0.140140  1.0  -0.0868
  C  C683  1  0.860210  0.329330  0.182450  1.0  -0.0699
  C  C684  1  0.790100  0.306680  0.195320  1.0  -0.3507
  C  C685  1  0.165150  0.028920  0.173180  1.0  0.3236
  C  C686  1  0.182110  0.054750  0.203630  1.0  -0.2219
  C  C687  1  0.147010  0.053430  0.250550  1.0  -0.1126
  C  C688  1  0.093690  0.026490  0.269130  1.0  -0.1102
  C  C689  1  0.074550  0.001250  0.239850  1.0  -0.0437
  C  C690  1  0.109040  0.002320  0.191400  1.0  -0.1669
  C  C691  1  0.085780  0.973290  0.162950  1.0  0.5909
  C  C692  1  0.142590  0.935570  0.051250  1.0  0.5414
  C  C693  1  0.136790  0.901300  0.019720  1.0  -0.2725
  C  C694  1  0.215830  0.860050  0.009290  1.0  -0.0969
  C  C695  1  0.225400  0.829920  0.050280  1.0  -0.116
  C  C696  1  0.304280  0.788280  0.040760  1.0  -0.0832
  C  C697  1  0.314200  0.759040  0.082960  1.0  -0.3382
  C  C698  1  0.323530  0.919010  0.125730  1.0  0.1705
  C  C699  1  0.383920  0.879100  0.129060  1.0  -0.2271
  C  C700  1  0.438060  0.855690  0.089990  1.0  0.1368
  C  C701  1  0.430580  0.876360  0.048280  1.0  -0.239
  C  C702  1  0.369380  0.916700  0.047340  1.0  0.1544
  C  C703  1  0.505970  0.809990  0.090670  1.0  -0.0718
  C  C704  1  0.053240  0.816470  0.150250  1.0  0.3798
  C  C705  1  0.095700  0.779020  0.173180  1.0  -0.2329
  C  C706  1  0.092510  0.734410  0.168570  1.0  -0.1287
  C  C707  1  0.048000  0.725130  0.140670  1.0  -0.128
  C  C708  1  0.006680  0.761030  0.118210  1.0  -0.0484
  C  C709  1  0.006840  0.807030  0.122490  1.0  -0.1544
  C  C710  1  0.959080  0.843510  0.096730  1.0  0.5556
  C  C711  1  0.890770  0.961640  0.092620  1.0  0.5476
  C  C712  1  0.834560  0.001700  0.074780  1.0  -0.2522
  C  C713  1  0.748060  0.018900  0.111780  1.0  -0.105
  C  C714  1  0.693400  0.062340  0.094860  1.0  -0.1012
  C  C715  1  0.791620  0.748170  0.093990  1.0  0.1737
  C  C716  1  0.618000  0.075300  0.115500  1.0  -0.0925
  C  C717  1  0.722760  0.784670  0.096810  1.0  -0.2141
  C  C718  1  0.565600  0.120700  0.092300  1.0  -0.3329
  C  C719  1  0.650940  0.776720  0.093800  1.0  0.105
  C  C720  1  0.650560  0.731220  0.090460  1.0  -0.2598
  C  C721  1  0.721840  0.696410  0.088710  1.0  0.1657
  C  C722  1  0.574100  0.818300  0.094100  1.0  -0.133
  C  C723  1  0.319700  0.082170  0.918830  1.0  0.3353
  C  C724  1  0.385980  0.081180  0.878460  1.0  -0.243
  C  C725  1  0.465580  0.055670  0.876770  1.0  -0.0972
  C  C726  1  0.484790  0.029810  0.914810  1.0  -0.1096
  C  C727  1  0.419680  0.029030  0.954210  1.0  -0.047
  C  C728  1  0.337210  0.054210  0.957170  1.0  -0.0963
  C  C729  1  0.271960  0.048820  0.998660  1.0  0.5619
  C  C730  1  0.061340  0.088510  0.046810  1.0  0.5569
  C  C731  1  0.989050  0.083270  0.087030  1.0  -0.3484
  C  C732  1  0.945400  0.127350  0.115650  1.0  -0.0802
  C  C733  1  0.000980  0.140140  0.140300  1.0  -0.0843
  C  C734  1  0.957340  0.182450  0.170670  1.0  -0.0666
  C  C735  1  0.014580  0.195320  0.193320  1.0  -0.3509
  C  C736  1  0.867250  0.471080  0.326820  1.0  0.3216
  C  C737  1  0.940490  0.445250  0.296370  1.0  -0.2202
  C  C738  1  0.950990  0.446570  0.249450  1.0  -0.1134
  C  C739  1  0.889310  0.473510  0.230870  1.0  -0.1089
  C  C740  1  0.815650  0.498750  0.260150  1.0  -0.0436
  C  C741  1  0.802760  0.497680  0.308600  1.0  -0.1693
  C  C742  1  0.722020  0.526710  0.337050  1.0  0.591
  C  C743  1  0.629410  0.564430  0.448750  1.0  0.5415
  C  C744  1  0.557810  0.598700  0.480280  1.0  -0.269
  C  C745  1  0.585170  0.639950  0.490710  1.0  -0.096
  C  C746  1  0.605600  0.670080  0.449720  1.0  -0.1163
  C  C747  1  0.633320  0.711720  0.459240  1.0  -0.0827
  C  C748  1  0.656200  0.740960  0.417040  1.0  -0.3359
  C  C749  1  0.868270  0.580990  0.374270  1.0  0.1706
  C  C750  1  0.892080  0.620900  0.370940  1.0  -0.2279
  C  C751  1  0.883740  0.644310  0.410010  1.0  0.1369
  C  C752  1  0.855220  0.623640  0.451720  1.0  -0.239
  C  C753  1  0.833420  0.583300  0.452660  1.0  0.1545
  C  C754  1  0.906630  0.690010  0.409330  1.0  -0.0715
  C  C755  1  0.519960  0.683530  0.349750  1.0  0.3819
  C  C756  1  0.547900  0.720980  0.326820  1.0  -0.2381
  C  C757  1  0.495490  0.765590  0.331430  1.0  -0.1291
  C  C758  1  0.413800  0.774870  0.359330  1.0  -0.1276
  C  C759  1  0.385920  0.738970  0.381790  1.0  -0.0463
  C  C760  1  0.436360  0.692970  0.377510  1.0  -0.1547
  C  C761  1  0.399320  0.656490  0.403270  1.0  0.5548
  C  C762  1  0.445030  0.538360  0.407380  1.0  0.5453
  C  C763  1  0.411040  0.498300  0.425220  1.0  -0.2534
  C  C764  1  0.378740  0.481100  0.388220  1.0  -0.1062
  C  C765  1  0.350600  0.437660  0.405140  1.0  -0.1036
  C  C766  1  0.133780  0.751830  0.406010  1.0  0.1743
  C  C767  1  0.308800  0.424700  0.384500  1.0  -0.0882
  C  C768  1  0.104240  0.715330  0.403190  1.0  -0.2152
  C  C769  1  0.278600  0.379300  0.407700  1.0  -0.3339
  C  C770  1  0.021460  0.723280  0.406200  1.0  0.1048
  C  C771  1  0.972240  0.768780  0.409540  1.0  -0.2608
  C  C772  1  0.006960  0.803590  0.411290  1.0  0.1671
  C  C773  1  0.986500  0.681700  0.405900  1.0  -0.1364
  C  C774  1  0.820700  0.417830  0.581170  1.0  0.3359
  C  C775  1  0.845620  0.418820  0.621540  1.0  -0.2465
  C  C776  1  0.898020  0.444330  0.623230  1.0  -0.0945
  C  C777  1  0.929410  0.470190  0.585190  1.0  -0.1048
  C  C778  1  0.902920  0.470970  0.545790  1.0  -0.0455
  C  C779  1  0.848590  0.445790  0.542830  1.0  -0.0976
  C  C780  1  0.819440  0.451180  0.501340  1.0  0.5623
  C  C781  1  0.696660  0.411490  0.453190  1.0  0.5569
  C  C782  1  0.659350  0.416730  0.412970  1.0  -0.3445
  C  C783  1  0.688400  0.372650  0.384350  1.0  -0.0831
  C  C784  1  0.781420  0.359860  0.359700  1.0  -0.0863
  C  C785  1  0.810460  0.317550  0.329330  1.0  -0.0661
  C  C786  1  0.903220  0.304680  0.306680  1.0  -0.3485
  C  C787  1  0.338330  0.826820  0.528920  1.0  0.3165
  C  C788  1  0.385740  0.796370  0.554750  1.0  -0.2204
  C  C789  1  0.397560  0.749450  0.553430  1.0  -0.1132
  C  C790  1  0.362820  0.730870  0.526490  1.0  -0.112
  C  C791  1  0.314400  0.760150  0.501250  1.0  -0.0451
  C  C792  1  0.300440  0.808600  0.502320  1.0  -0.1703
  C  C793  1  0.248730  0.837050  0.473290  1.0  0.5909
  C  C794  1  0.193840  0.948750  0.435570  1.0  0.5428
  C  C795  1  0.156510  0.980280  0.401300  1.0  -0.2705
  C  C796  1  0.225120  0.990710  0.360050  1.0  -0.0943
  C  C797  1  0.275680  0.949720  0.329920  1.0  -0.1159
  C  C798  1  0.345040  0.959240  0.288280  1.0  -0.0831
  C  C799  1  0.397160  0.917040  0.259040  1.0  -0.3377
  C  C800  1  0.449260  0.874270  0.419010  1.0  0.1713
  C  C801  1  0.512980  0.870940  0.379100  1.0  -0.2292
  C  C802  1  0.528050  0.910010  0.355690  1.0  0.1367
  C  C803  1  0.478860  0.951720  0.376360  1.0  -0.2431
  C  C804  1  0.416720  0.952660  0.416700  1.0  0.1547
  C  C805  1  0.596640  0.909330  0.309990  1.0  -0.0705
  C  C806  1  0.203490  0.849750  0.316470  1.0  0.3832
  C  C807  1  0.268880  0.826820  0.279020  1.0  -0.2368
  C  C808  1  0.261080  0.831430  0.234410  1.0  -0.1238
  C  C809  1  0.188670  0.859330  0.225130  1.0  -0.1249
  C  C810  1  0.124890  0.881790  0.261030  1.0  -0.049
  C  C811  1  0.129330  0.877510  0.307030  1.0  -0.1538
  C  C812  1  0.055810  0.903270  0.343510  1.0  0.5553
  C  C813  1  0.983390  0.907380  0.461640  1.0  0.5453
  C  C814  1  0.909340  0.925220  0.501700  1.0  -0.2495
  C  C815  1  0.859840  0.888220  0.518900  1.0  -0.1038
  C  C816  1  0.788260  0.905140  0.562340  1.0  -0.1036
  C  C817  1  0.885610  0.906010  0.248170  1.0  0.1747
  C  C818  1  0.733500  0.884500  0.575300  1.0  -0.0889
  C  C819  1  0.819570  0.903190  0.284670  1.0  -0.2098
  C  C820  1  0.657900  0.907700  0.620700  1.0  -0.33
  C  C821  1  0.744740  0.906200  0.276720  1.0  0.105
  C  C822  1  0.741020  0.909540  0.231220  1.0  -0.2586
  C  C823  1  0.810550  0.911290  0.196410  1.0  0.1665
  C  C824  1  0.668200  0.905900  0.318300  1.0  -0.1335
  C  C825  1  0.238530  0.081170  0.582170  1.0  0.3379
  C  C826  1  0.264440  0.121540  0.581180  1.0  -0.2452
  C  C827  1  0.342350  0.123230  0.555670  1.0  -0.0974
  C  C828  1  0.399600  0.085190  0.529810  1.0  -0.1115
  C  C829  1  0.373890  0.045790  0.529030  1.0  -0.0476
  C  C830  1  0.294380  0.042830  0.554210  1.0  -0.0953
  C  C831  1  0.270620  0.001340  0.548820  1.0  0.5644
  C  C832  1  0.108150  0.953190  0.588510  1.0  0.5557
  C  C833  1  0.076080  0.912970  0.583270  1.0  -0.3442
  C  C834  1  0.061050  0.884350  0.627350  1.0  -0.0806
  C  C835  1  0.141280  0.859700  0.640140  1.0  -0.0836
  C  C836  1  0.128010  0.829330  0.682450  1.0  -0.065
  C  C837  1  0.207900  0.806680  0.695320  1.0  -0.3498
  C  C838  1  0.194070  0.673180  0.971080  1.0  0.3182
  C  C839  1  0.236860  0.703630  0.945250  1.0  -0.2204
  C  C840  1  0.200440  0.750550  0.946570  1.0  -0.112
  C  C841  1  0.120180  0.769130  0.973510  1.0  -0.1093
  C  C842  1  0.075800  0.739850  0.998750  1.0  -0.0438
  C  C843  1  0.111360  0.691400  0.997680  1.0  -0.1681
  C  C844  1  0.059070  0.662950  0.026710  1.0  0.5903
  C  C845  1  0.078160  0.551250  0.064430  1.0  0.5448
  C  C846  1  0.038090  0.519720  0.098700  1.0  -0.268
  C  C847  1  0.075880  0.509290  0.139950  1.0  -0.0935
  C  C848  1  0.055320  0.550280  0.170080  1.0  -0.1138
  C  C849  1  0.092560  0.540760  0.211720  1.0  -0.0822
  C  C850  1  0.073240  0.582960  0.240960  1.0  -0.337
  C  C851  1  0.242540  0.625730  0.080990  1.0  0.172
  C  C852  1  0.263020  0.629060  0.120900  1.0  -0.2312
  C  C853  1  0.293750  0.589990  0.144310  1.0  0.1351
  C  C854  1  0.306940  0.548280  0.123640  1.0  -0.2424
  C  C855  1  0.286080  0.547340  0.083300  1.0  0.1577
  C  C856  1  0.315960  0.590670  0.190010  1.0  -0.0735
  C  C857  1  0.869710  0.650250  0.183530  1.0  0.3834
  C  C858  1  0.874720  0.673180  0.220980  1.0  -0.2383
  C  C859  1  0.826920  0.668570  0.265590  1.0  -0.1211
  C  C860  1  0.773130  0.640670  0.274870  1.0  -0.1267
  C  C861  1  0.767710  0.618210  0.238970  1.0  -0.0486
  C  C862  1  0.813870  0.622490  0.192970  1.0  -0.1539
  C  C863  1  0.802590  0.596730  0.156490  1.0  0.5551
  C  C864  1  0.852410  0.592620  0.038360  1.0  0.5463
  C  C865  1  0.836260  0.574780  0.998300  1.0  -0.2553
  C  C866  1  0.766960  0.611780  0.981100  1.0  -0.1074
  C  C867  1  0.755740  0.594860  0.937660  1.0  -0.1035
  C  C868  1  0.539790  0.593990  0.251830  1.0  0.1752
  C  C869  1  0.693300  0.615500  0.924700  1.0  -0.0921
  C  C870  1  0.507430  0.596810  0.215330  1.0  -0.2125
  C  C871  1  0.686300  0.592300  0.879300  1.0  -0.3303
  C  C872  1  0.427660  0.593800  0.223280  1.0  0.1052
  C  C873  1  0.381780  0.590460  0.268780  1.0  -0.2584
  C  C874  1  0.418250  0.588710  0.303590  1.0  0.1712
  C  C875  1  0.392400  0.594100  0.181700  1.0  -0.1402
  C  C876  1  0.401870  0.418830  0.917830  1.0  0.3385
  C  C877  1  0.467160  0.378460  0.918820  1.0  -0.2417
  C  C878  1  0.521250  0.376770  0.944330  1.0  -0.0966
  C  C879  1  0.514600  0.414810  0.970190  1.0  -0.1087
  C  C880  1  0.448710  0.454210  0.970970  1.0  -0.0476
  C  C881  1  0.391420  0.457170  0.945790  1.0  -0.0964
  C  C882  1  0.320780  0.498660  0.951180  1.0  0.5635
  C  C883  1  0.149850  0.546810  0.911490  1.0  0.5539
  C  C884  1  0.072320  0.587030  0.916730  1.0  -0.3426
  C  C885  1  0.072750  0.615650  0.872650  1.0  -0.0855
  C  C886  1  0.141120  0.640300  0.859860  1.0  -0.0897
  C  C887  1  0.139790  0.670670  0.817550  1.0  -0.0696
  C  C888  1  0.209900  0.693320  0.804680  1.0  -0.3496
  N  N889  1  0.877190  0.029830  0.881990  1.0  -0.2725
  N  N890  1  0.898370  0.061720  0.905280  1.0  -0.2867
  N  N891  1  0.684360  0.061840  0.914440  1.0  -0.3285
  N  N892  1  0.044130  0.112340  0.897840  1.0  -0.2533
  N  N893  1  0.095050  0.080070  0.921870  1.0  -0.2564
  N  N894  1  0.206520  0.295750  0.909950  1.0  -0.3376
  N  N895  1  0.806670  0.928420  0.997340  1.0  -0.2721
  N  N896  1  0.863950  0.938380  0.956380  1.0  -0.2638
  N  N897  1  0.289010  0.470170  0.618010  1.0  -0.2708
  N  N898  1  0.365370  0.438280  0.594720  1.0  -0.284
  N  N899  1  0.160640  0.438160  0.585560  1.0  -0.3311
  N  N900  1  0.554310  0.387660  0.602160  1.0  -0.2536
  N  N901  1  0.596990  0.419930  0.578130  1.0  -0.2575
  N  N902  1  0.912220  0.204250  0.590050  1.0  -0.3367
  N  N903  1  0.232430  0.571580  0.502660  1.0  -0.2746
  N  N904  1  0.258710  0.561620  0.543620  1.0  -0.264
  N  N905  1  0.759180  0.118010  0.529830  1.0  -0.2709
  N  N906  1  0.803650  0.094720  0.561720  1.0  -0.2866
  N  N907  1  0.598800  0.085560  0.561840  1.0  -0.3344
  N  N908  1  0.941970  0.102160  0.612340  1.0  -0.2534
  N  N909  1  0.016920  0.078130  0.580070  1.0  -0.2565
  N  N910  1  0.116470  0.090050  0.795750  1.0  -0.3366
  N  N911  1  0.804010  0.002660  0.428420  1.0  -0.2737
  N  N912  1  0.820330  0.043620  0.438380  1.0  -0.2649
  N  N913  1  0.907020  0.381990  0.970170  1.0  -0.2712
  N  N914  1  0.960090  0.405280  0.938280  1.0  -0.2859
  N  N915  1  0.746200  0.414440  0.938160  1.0  -0.3327
  N  N916  1  0.156470  0.397840  0.887660  1.0  -0.254
  N  N917  1  0.175120  0.421870  0.919930  1.0  -0.2571
  N  N918  1  0.502270  0.409950  0.704250  1.0  -0.3393
  N  N919  1  0.735090  0.497340  0.071580  1.0  -0.2709
  N  N920  1  0.802330  0.456380  0.061620  1.0  -0.2633
  N  N921  1  0.122810  0.970170  0.118010  1.0  -0.2722
  N  N922  1  0.101630  0.938280  0.094720  1.0  -0.2867
  N  N923  1  0.315640  0.938160  0.085560  1.0  -0.3298
  N  N924  1  0.955870  0.887660  0.102160  1.0  -0.2542
  N  N925  1  0.904950  0.919930  0.078130  1.0  -0.2577
  N  N926  1  0.793480  0.704250  0.090050  1.0  -0.3354
  N  N927  1  0.193330  0.071580  0.002660  1.0  -0.271
  N  N928  1  0.136050  0.061620  0.043620  1.0  -0.2643
  N  N929  1  0.710990  0.529830  0.381990  1.0  -0.2717
  N  N930  1  0.634630  0.561720  0.405280  1.0  -0.2839
  N  N931  1  0.839360  0.561840  0.414440  1.0  -0.3301
  N  N932  1  0.445690  0.612340  0.397840  1.0  -0.2536
  N  N933  1  0.403010  0.580070  0.421870  1.0  -0.2554
  N  N934  1  0.087780  0.795750  0.409950  1.0  -0.3353
  N  N935  1  0.767570  0.428420  0.497340  1.0  -0.2736
  N  N936  1  0.741290  0.438380  0.456380  1.0  -0.2637
  N  N937  1  0.240820  0.881990  0.470170  1.0  -0.2711
  N  N938  1  0.196350  0.905280  0.438280  1.0  -0.2866
  N  N939  1  0.401200  0.914440  0.438160  1.0  -0.3307
  N  N940  1  0.058030  0.897840  0.387660  1.0  -0.2536
  N  N941  1  0.983080  0.921870  0.419930  1.0  -0.2573
  N  N942  1  0.883530  0.909950  0.204250  1.0  -0.3351
  N  N943  1  0.195990  0.997340  0.571580  1.0  -0.2713
  N  N944  1  0.179670  0.956380  0.561620  1.0  -0.2642
  N  N945  1  0.092980  0.618010  0.029830  1.0  -0.2722
  N  N946  1  0.039910  0.594720  0.061720  1.0  -0.285
  N  N947  1  0.253800  0.585560  0.061840  1.0  -0.3341
  N  N948  1  0.843530  0.602160  0.112340  1.0  -0.2535
  N  N949  1  0.824880  0.578130  0.080070  1.0  -0.2572
  N  N950  1  0.497730  0.590050  0.295750  1.0  -0.3397
  N  N951  1  0.264910  0.502660  0.928420  1.0  -0.2711
  N  N952  1  0.197670  0.543620  0.938380  1.0  -0.2638
  O  O953  1  0.797090  0.967900  0.872040  1.0  -0.5665
  O  O954  1  0.968790  0.048320  0.817240  1.0  -0.5866
  O  O955  1  0.805580  0.039350  0.966990  1.0  -0.5805
  O  O956  1  0.940840  0.141690  0.842750  1.0  -0.5656
  O  O957  1  0.078440  0.167820  0.929680  1.0  -0.5898
  O  O958  1  0.077700  0.029090  0.875750  1.0  -0.5956
  O  O959  1  0.755520  0.890960  0.081680  1.0  -0.5893
  O  O960  1  0.706790  0.979250  0.969690  1.0  -0.5901
  O  O961  1  0.954940  0.879550  0.983990  1.0  -0.5921
  O  O962  1  0.137030  0.532100  0.627960  1.0  -0.569
  O  O963  1  0.334350  0.451680  0.682760  1.0  -0.5913
  O  O964  1  0.311920  0.460650  0.533010  1.0  -0.5809
  O  O965  1  0.425280  0.358310  0.657250  1.0  -0.5664
  O  O966  1  0.675940  0.332180  0.570320  1.0  -0.5896
  O  O967  1  0.482540  0.470910  0.624250  1.0  -0.5938
  O  O968  1  0.228160  0.609040  0.418320  1.0  -0.5891
  O  O969  1  0.155730  0.520750  0.530310  1.0  -0.586
  O  O970  1  0.318480  0.620450  0.516010  1.0  -0.5939
  O  O971  1  0.669130  0.127960  0.467900  1.0  -0.5675
  O  O972  1  0.786030  0.182760  0.548320  1.0  -0.588
  O  O973  1  0.772570  0.033010  0.539350  1.0  -0.578
  O  O974  1  0.783590  0.157250  0.641690  1.0  -0.5666
  O  O975  1  0.008120  0.070320  0.667820  1.0  -0.589
  O  O976  1  0.953450  0.124250  0.529090  1.0  -0.594
  O  O977  1  0.837200  0.918320  0.390960  1.0  -0.5886
  O  O978  1  0.676480  0.030310  0.479250  1.0  -0.5862
  O  O979  1  0.938930  0.016010  0.379550  1.0  -0.5939
  O  O980  1  0.764990  0.372040  0.032100  1.0  -0.5625
  O  O981  1  0.017110  0.317240  0.951680  1.0  -0.5875
  O  O982  1  0.844930  0.466990  0.960650  1.0  -0.5799
  O  O983  1  0.082530  0.342750  0.858310  1.0  -0.5662
  O  O984  1  0.246260  0.429680  0.832180  1.0  -0.5896
  O  O985  1  0.106790  0.375750  0.970910  1.0  -0.594
  O  O986  1  0.646480  0.581680  0.109040  1.0  -0.5897
  O  O987  1  0.686040  0.469690  0.020750  1.0  -0.5875
  O  O988  1  0.834490  0.483990  0.120450  1.0  -0.5926
  O  O989  1  0.202910  0.032100  0.127960  1.0  -0.5631
  O  O990  1  0.031210  0.951680  0.182760  1.0  -0.5881
  O  O991  1  0.194420  0.960650  0.033010  1.0  -0.5804
  O  O992  1  0.059160  0.858310  0.157250  1.0  -0.5669
  O  O993  1  0.921560  0.832180  0.070320  1.0  -0.5887
  O  O994  1  0.922300  0.970910  0.124250  1.0  -0.5958
  O  O995  1  0.244480  0.109040  0.918320  1.0  -0.5902
  O  O996  1  0.293210  0.020750  0.030310  1.0  -0.5899
  O  O997  1  0.045060  0.120450  0.016010  1.0  -0.5936
  O  O998  1  0.862970  0.467900  0.372040  1.0  -0.5685
  O  O999  1  0.665650  0.548320  0.317240  1.0  -0.5906
  O  O1000  1  0.688080  0.539350  0.466990  1.0  -0.58
  O  O1001  1  0.574720  0.641690  0.342750  1.0  -0.5652
  O  O1002  1  0.324060  0.667820  0.429680  1.0  -0.5889
  O  O1003  1  0.517460  0.529090  0.375750  1.0  -0.5933
  O  O1004  1  0.771840  0.390960  0.581680  1.0  -0.5894
  O  O1005  1  0.844270  0.479250  0.469690  1.0  -0.5871
  O  O1006  1  0.681520  0.379550  0.483990  1.0  -0.592
  O  O1007  1  0.330870  0.872040  0.532100  1.0  -0.5624
  O  O1008  1  0.213970  0.817240  0.451680  1.0  -0.5886
  O  O1009  1  0.227430  0.966990  0.460650  1.0  -0.5791
  O  O1010  1  0.216410  0.842750  0.358310  1.0  -0.5665
  O  O1011  1  0.991880  0.929680  0.332180  1.0  -0.5899
  O  O1012  1  0.046550  0.875750  0.470910  1.0  -0.5936
  O  O1013  1  0.162800  0.081680  0.609040  1.0  -0.5903
  O  O1014  1  0.323520  0.969690  0.520750  1.0  -0.5882
  O  O1015  1  0.061070  0.983990  0.620450  1.0  -0.5905
  O  O1016  1  0.235010  0.627960  0.967900  1.0  -0.5623
  O  O1017  1  0.982890  0.682760  0.048320  1.0  -0.5882
  O  O1018  1  0.155070  0.533010  0.039350  1.0  -0.579
  O  O1019  1  0.917470  0.657250  0.141690  1.0  -0.5668
  O  O1020  1  0.753740  0.570320  0.167820  1.0  -0.588
  O  O1021  1  0.893210  0.624250  0.029090  1.0  -0.5946
  O  O1022  1  0.353520  0.418320  0.890960  1.0  -0.5917
  O  O1023  1  0.313960  0.530310  0.979250  1.0  -0.5858
  O  O1024  1  0.165510  0.516010  0.879550  1.0  -0.5927
