# generated using pymatgen
data_Mn3H57C51N8O9
_symmetry_space_group_name_H-M   'P 1'
_cell_length_a   17.44200000
_cell_length_b   30.13390000
_cell_length_c   30.13390000
_cell_angle_alpha   85.19550000
_cell_angle_beta   73.17740000
_cell_angle_gamma   73.17750000
_symmetry_Int_Tables_number   1
_chemical_formula_structural   Mn3H57C51N8O9
_chemical_formula_sum   'Mn24 H456 C408 N64 O72'
_cell_volume   14511.67325816
_cell_formula_units_Z   8
loop_
 _symmetry_equiv_pos_site_id
 _symmetry_equiv_pos_as_xyz
  1  'x, y, z'
loop_
 _atom_site_type_symbol
 _atom_site_label
 _atom_site_symmetry_multiplicity
 _atom_site_fract_x
 _atom_site_fract_y
 _atom_site_fract_z
 _atom_site_occupancy
 _atom_site_charge
  Mn  Mn1  1  0.361920  0.143630  0.583520  1.0  0.9432
  Mn  Mn2  1  0.606160  0.035630  0.617670  1.0  0.9707
  Mn  Mn3  1  0.216840  0.078410  0.501910  1.0  0.9937
  Mn  Mn4  1  0.589060  0.356370  0.916480  1.0  0.9372
  Mn  Mn5  1  0.759460  0.464370  0.882330  1.0  0.9794
  Mn  Mn6  1  0.297160  0.421590  0.998090  1.0  0.9958
  Mn  Mn7  1  0.945430  0.416480  0.643640  1.0  0.9439
  Mn  Mn8  1  0.223840  0.382320  0.535630  1.0  0.9733
  Mn  Mn9  1  0.718750  0.498090  0.578410  1.0  0.9913
  Mn  Mn10  1  0.505550  0.083520  0.856360  1.0  0.9456
  Mn  Mn11  1  0.641780  0.117680  0.964370  1.0  0.9733
  Mn  Mn12  1  0.295250  0.001910  0.921590  1.0  0.992
  Mn  Mn13  1  0.638080  0.856370  0.416480  1.0  0.938
  Mn  Mn14  1  0.393840  0.964370  0.382330  1.0  0.9776
  Mn  Mn15  1  0.783160  0.921590  0.498090  1.0  0.9921
  Mn  Mn16  1  0.410940  0.643630  0.083520  1.0  0.9408
  Mn  Mn17  1  0.240540  0.535630  0.117670  1.0  0.9774
  Mn  Mn18  1  0.702840  0.578410  0.001910  1.0  0.9944
  Mn  Mn19  1  0.054570  0.583520  0.356360  1.0  0.9418
  Mn  Mn20  1  0.776160  0.617680  0.464370  1.0  0.9763
  Mn  Mn21  1  0.281250  0.501910  0.421590  1.0  0.9917
  Mn  Mn22  1  0.494450  0.916480  0.143640  1.0  0.9413
  Mn  Mn23  1  0.358220  0.882320  0.035630  1.0  0.9761
  Mn  Mn24  1  0.704750  0.998090  0.078410  1.0  0.9946
  H  H25  1  0.183900  0.191900  0.715100  1.0  0.1035
  H  H26  1  0.196600  0.184000  0.789200  1.0  0.1018
  H  H27  1  0.320000  0.137000  0.804200  1.0  0.1166
  H  H28  1  0.427400  0.098700  0.743100  1.0  0.0864
  H  H29  1  0.627700  0.045300  0.506500  1.0  0.0916
  H  H30  1  0.572200  0.065600  0.471400  1.0  0.0931
  H  H31  1  0.663600  0.117600  0.504200  1.0  0.0852
  H  H32  1  0.601900  0.141200  0.473000  1.0  0.072
  H  H33  1  0.687000  0.102200  0.409200  1.0  0.0727
  H  H34  1  0.729000  0.059900  0.437900  1.0  0.0777
  H  H35  1  0.751600  0.143400  0.426600  1.0  0.0806
  H  H36  1  0.792200  0.102000  0.456800  1.0  0.0707
  H  H37  1  0.823200  0.090000  0.356000  1.0  0.1026
  H  H38  1  0.887200  0.105800  0.375600  1.0  0.1077
  H  H39  1  0.873700  0.055300  0.387700  1.0  0.0947
  H  H40  1  0.310300  0.254000  0.591800  1.0  0.068
  H  H41  1  0.362500  0.315500  0.594900  1.0  0.1058
  H  H42  1  0.586200  0.224400  0.584800  1.0  0.1104
  H  H43  1  0.528700  0.165300  0.584100  1.0  0.0796
  H  H44  1  0.476500  0.340400  0.612200  1.0  0.0791
  H  H45  1  0.515400  0.335000  0.557400  1.0  0.1023
  H  H46  1  0.728200  0.146100  0.598900  1.0  0.1155
  H  H47  1  0.860600  0.148000  0.557600  1.0  0.0868
  H  H48  1  0.957100  0.083000  0.516000  1.0  0.1252
  H  H49  1  0.911800  0.018800  0.511200  1.0  0.0901
  H  H50  1  0.522500  0.924900  0.573500  1.0  0.1016
  H  H51  1  0.616300  0.892700  0.556100  1.0  0.1041
  H  H52  1  0.523900  0.905100  0.651900  1.0  0.0873
  H  H53  1  0.534400  0.861100  0.622300  1.0  0.0981
  H  H54  1  0.667800  0.883300  0.644500  1.0  0.0705
  H  H55  1  0.681900  0.840900  0.611900  1.0  0.07
  H  H56  1  0.590500  0.847600  0.707600  1.0  0.0785
  H  H57  1  0.605500  0.804900  0.674900  1.0  0.0769
  H  H58  1  0.735900  0.828400  0.699000  1.0  0.1148
  H  H59  1  0.700700  0.785400  0.720000  1.0  0.1143
  H  H60  1  0.750600  0.785700  0.666500  1.0  0.1056
  H  H61  1  0.089900  0.191900  0.427100  1.0  0.1043
  H  H62  1  0.071400  0.270400  0.429400  1.0  0.0916
  H  H63  1  0.127700  0.301800  0.476400  1.0  0.1106
  H  H64  1  0.210600  0.252100  0.517700  1.0  0.0863
  H  H65  1  0.377300  0.035500  0.610700  1.0  0.0932
  H  H66  1  0.380500  0.991200  0.583400  1.0  0.0942
  H  H67  1  0.238200  0.997200  0.628000  1.0  0.0756
  H  H68  1  0.301600  0.984800  0.659200  1.0  0.076
  H  H69  1  0.196400  0.074900  0.651100  1.0  0.0789
  H  H70  1  0.260700  0.063100  0.681700  1.0  0.0703
  H  H71  1  0.117300  0.029400  0.700600  1.0  0.0808
  H  H72  1  0.182200  0.016400  0.731000  1.0  0.0934
  H  H73  1  0.141500  0.092300  0.757100  1.0  0.1055
  H  H74  1  0.059700  0.075000  0.766200  1.0  0.1044
  H  H75  1  0.082700  0.108500  0.723300  1.0  0.1119
  H  H76  1  0.687500  0.429500  0.518900  1.0  0.0798
  H  H77  1  0.654400  0.359900  0.521100  1.0  0.1234
  H  H78  1  0.585500  0.367700  0.659900  1.0  0.1223
  H  H79  1  0.627900  0.433500  0.654100  1.0  0.0698
  H  H80  1  0.635900  0.289100  0.567700  1.0  0.0694
  H  H81  1  0.596800  0.294000  0.622800  1.0  0.0788
  H  H82  1  0.590900  0.308100  0.784900  1.0  0.1026
  H  H83  1  0.669800  0.316000  0.710800  1.0  0.102
  H  H84  1  0.761200  0.363000  0.695800  1.0  0.1144
  H  H85  1  0.769200  0.401300  0.756900  1.0  0.0857
  H  H86  1  0.679500  0.454700  0.993500  1.0  0.0909
  H  H87  1  0.609200  0.434400  0.028600  1.0  0.0927
  H  H88  1  0.785400  0.382400  0.995800  1.0  0.0888
  H  H89  1  0.716100  0.358800  0.027000  1.0  0.0695
  H  H90  1  0.698400  0.397800  0.090800  1.0  0.07
  H  H91  1  0.726800  0.440100  0.062100  1.0  0.0771
  H  H92  1  0.821600  0.356600  0.073400  1.0  0.0789
  H  H93  1  0.851000  0.398000  0.043200  1.0  0.0824
  H  H94  1  0.769200  0.410000  0.144000  1.0  0.0995
  H  H95  1  0.868600  0.394200  0.124400  1.0  0.1058
  H  H96  1  0.816700  0.444700  0.112300  1.0  0.0912
  H  H97  1  0.656100  0.246000  0.908200  1.0  0.0676
  H  H98  1  0.772900  0.184500  0.905100  1.0  0.1056
  H  H99  1  0.895400  0.275600  0.915200  1.0  0.11
  H  H100  1  0.778100  0.334700  0.915900  1.0  0.0798
  H  H101  1  0.929100  0.159600  0.887800  1.0  0.0768
  H  H102  1  0.907800  0.165000  0.942600  1.0  0.1024
  H  H103  1  0.973200  0.353900  0.901100  1.0  0.1149
  H  H104  1  0.066200  0.352000  0.942400  1.0  0.0862
  H  H105  1  0.056100  0.417000  0.984000  1.0  0.1241
  H  H106  1  0.941800  0.481200  0.988800  1.0  0.0895
  H  H107  1  0.520900  0.575100  0.926500  1.0  0.101
  H  H108  1  0.565100  0.607300  0.943900  1.0  0.1016
  H  H109  1  0.580900  0.594900  0.848100  1.0  0.0849
  H  H110  1  0.517800  0.638900  0.877700  1.0  0.0979
  H  H111  1  0.695600  0.616700  0.855500  1.0  0.0726
  H  H112  1  0.634700  0.659100  0.888100  1.0  0.0724
  H  H113  1  0.645700  0.652400  0.792400  1.0  0.0771
  H  H114  1  0.585300  0.695100  0.825100  1.0  0.0754
  H  H115  1  0.763300  0.671600  0.801000  1.0  0.1168
  H  H116  1  0.706100  0.714600  0.780000  1.0  0.116
  H  H117  1  0.702800  0.714300  0.833500  1.0  0.1092
  H  H118  1  0.208900  0.308100  0.072900  1.0  0.1061
  H  H119  1  0.271200  0.229600  0.070600  1.0  0.0918
  H  H120  1  0.405900  0.198200  0.023600  1.0  0.1114
  H  H121  1  0.480400  0.247900  0.982300  1.0  0.0872
  H  H122  1  0.523500  0.464500  0.889300  1.0  0.0922
  H  H123  1  0.455100  0.508800  0.916600  1.0  0.0957
  H  H124  1  0.363400  0.502800  0.872000  1.0  0.0771
  H  H125  1  0.445600  0.515200  0.840800  1.0  0.0753
  H  H126  1  0.422400  0.425100  0.848900  1.0  0.0795
  H  H127  1  0.505500  0.436900  0.818300  1.0  0.0698
  H  H128  1  0.347300  0.470600  0.799400  1.0  0.0769
  H  H129  1  0.429600  0.483600  0.769000  1.0  0.0938
  H  H130  1  0.490900  0.407700  0.742900  1.0  0.1034
  H  H131  1  0.400900  0.425000  0.733800  1.0  0.1023
  H  H132  1  0.414500  0.391500  0.776700  1.0  0.1117
  H  H133  1  0.135900  0.070500  0.981100  1.0  0.082
  H  H134  1  0.035400  0.140100  0.978900  1.0  0.1241
  H  H135  1  0.113100  0.132300  0.840100  1.0  0.1226
  H  H136  1  0.215500  0.066500  0.845900  1.0  0.0693
  H  H137  1  0.992700  0.210900  0.932300  1.0  0.0676
  H  H138  1  0.013600  0.206000  0.877200  1.0  0.0767
  H  H139  1  0.899000  0.284900  0.691900  1.0  0.1028
  H  H140  1  0.985800  0.210800  0.684000  1.0  0.1017
  H  H141  1  0.124200  0.195800  0.637000  1.0  0.1165
  H  H142  1  0.170500  0.256900  0.598700  1.0  0.086
  H  H143  1  0.134200  0.493500  0.545300  1.0  0.0917
  H  H144  1  0.043600  0.528600  0.565600  1.0  0.0925
  H  H145  1  0.167800  0.495800  0.617600  1.0  0.0915
  H  H146  1  0.074900  0.527000  0.641200  1.0  0.0695
  H  H147  1  0.096200  0.590800  0.602200  1.0  0.0695
  H  H148  1  0.166900  0.562100  0.559900  1.0  0.0749
  H  H149  1  0.178200  0.573400  0.643400  1.0  0.0851
  H  H150  1  0.249000  0.543200  0.602000  1.0  0.0723
  H  H151  1  0.179200  0.644000  0.590000  1.0  0.0997
  H  H152  1  0.262800  0.624400  0.605800  1.0  0.1053
  H  H153  1  0.261400  0.612300  0.555300  1.0  0.0889
  H  H154  1  0.902100  0.408200  0.754000  1.0  0.0676
  H  H155  1  0.957400  0.405100  0.815500  1.0  0.1058
  H  H156  1  0.171000  0.415200  0.724400  1.0  0.1124
  H  H157  1  0.112800  0.415900  0.665300  1.0  0.0803
  H  H158  1  0.088700  0.387800  0.840400  1.0  0.0778
  H  H159  1  0.072800  0.442600  0.835000  1.0  0.0952
  H  H160  1  0.327100  0.401100  0.646100  1.0  0.1142
  H  H161  1  0.418200  0.442400  0.648000  1.0  0.0854
  H  H162  1  0.473100  0.484000  0.583000  1.0  0.1245
  H  H163  1  0.423000  0.488800  0.518800  1.0  0.09
  H  H164  1  0.096000  0.426500  0.424900  1.0  0.1011
  H  H165  1  0.172400  0.443900  0.392700  1.0  0.106
  H  H166  1  0.175800  0.348100  0.405100  1.0  0.0876
  H  H167  1  0.156700  0.377700  0.361100  1.0  0.1009
  H  H168  1  0.312300  0.355500  0.383300  1.0  0.0694
  H  H169  1  0.293800  0.388100  0.340900  1.0  0.073
  H  H170  1  0.298100  0.292400  0.347600  1.0  0.0799
  H  H171  1  0.280400  0.325100  0.304900  1.0  0.0776
  H  H172  1  0.434900  0.301000  0.328400  1.0  0.1147
  H  H173  1  0.420700  0.280000  0.285400  1.0  0.1145
  H  H174  1  0.417100  0.333500  0.285700  1.0  0.1091
  H  H175  1  0.517000  0.572900  0.691900  1.0  0.1062
  H  H176  1  0.500800  0.570600  0.770400  1.0  0.0917
  H  H177  1  0.604100  0.523600  0.801800  1.0  0.1091
  H  H178  1  0.728300  0.482300  0.752100  1.0  0.0861
  H  H179  1  0.988000  0.389300  0.535500  1.0  0.0928
  H  H180  1  0.963900  0.416600  0.491200  1.0  0.0932
  H  H181  1  0.866200  0.372000  0.497200  1.0  0.0779
  H  H182  1  0.960800  0.340800  0.484800  1.0  0.0751
  H  H183  1  0.847500  0.348900  0.574900  1.0  0.0797
  H  H184  1  0.942400  0.318300  0.563100  1.0  0.0704
  H  H185  1  0.817900  0.299400  0.529400  1.0  0.0826
  H  H186  1  0.913200  0.269000  0.516400  1.0  0.0924
  H  H187  1  0.898600  0.242900  0.592300  1.0  0.107
  H  H188  1  0.825900  0.233800  0.575000  1.0  0.1045
  H  H189  1  0.806000  0.276700  0.608500  1.0  0.1125
  H  H190  1  0.206400  0.481100  0.929500  1.0  0.081
  H  H191  1  0.175500  0.478900  0.859900  1.0  0.1241
  H  H192  1  0.245400  0.340100  0.867700  1.0  0.1217
  H  H193  1  0.282000  0.345900  0.933500  1.0  0.0684
  H  H194  1  0.203600  0.432300  0.789100  1.0  0.0689
  H  H195  1  0.219600  0.377200  0.794000  1.0  0.076
  H  H196  1  0.375800  0.215100  0.808100  1.0  0.1032
  H  H197  1  0.380600  0.289200  0.816000  1.0  0.1019
  H  H198  1  0.457000  0.304200  0.863000  1.0  0.1166
  H  H199  1  0.526100  0.243100  0.901300  1.0  0.0869
  H  H200  1  0.673000  0.006500  0.954700  1.0  0.0904
  H  H201  1  0.637800  0.971400  0.934400  1.0  0.0934
  H  H202  1  0.781200  0.004200  0.882400  1.0  0.0911
  H  H203  1  0.743100  0.973000  0.858800  1.0  0.0717
  H  H204  1  0.789200  0.909200  0.897800  1.0  0.0708
  H  H205  1  0.788900  0.937900  0.940100  1.0  0.074
  H  H206  1  0.895000  0.926600  0.856600  1.0  0.0852
  H  H207  1  0.894200  0.956800  0.898000  1.0  0.0773
  H  H208  1  0.913200  0.856000  0.910000  1.0  0.0979
  H  H209  1  0.993000  0.875600  0.894200  1.0  0.1053
  H  H210  1  0.929000  0.887700  0.944700  1.0  0.0898
  H  H211  1  0.564300  0.091800  0.746000  1.0  0.0672
  H  H212  1  0.678000  0.094900  0.684500  1.0  0.1078
  H  H213  1  0.810600  0.084800  0.775600  1.0  0.1106
  H  H214  1  0.694000  0.084100  0.834700  1.0  0.0809
  H  H215  1  0.816900  0.112200  0.659600  1.0  0.0781
  H  H216  1  0.850400  0.057400  0.665000  1.0  0.0963
  H  H217  1  0.874300  0.098900  0.853900  1.0  0.1137
  H  H218  1  0.008600  0.057600  0.852000  1.0  0.0861
  H  H219  1  0.040100  0.016000  0.917000  1.0  0.1245
  H  H220  1  0.930600  0.011200  0.981200  1.0  0.0917
  H  H221  1  0.447400  0.073500  0.075100  1.0  0.1011
  H  H222  1  0.509000  0.056100  0.107300  1.0  0.1061
  H  H223  1  0.429000  0.151900  0.094900  1.0  0.0867
  H  H224  1  0.395500  0.122300  0.138900  1.0  0.0983
  H  H225  1  0.551100  0.144500  0.116700  1.0  0.0706
  H  H226  1  0.522800  0.111900  0.159100  1.0  0.0739
  H  H227  1  0.438100  0.207600  0.152400  1.0  0.0797
  H  H228  1  0.410400  0.174900  0.195100  1.0  0.0746
  H  H229  1  0.564300  0.199000  0.171600  1.0  0.1177
  H  H230  1  0.486100  0.220000  0.214600  1.0  0.1145
  H  H231  1  0.536300  0.166500  0.214300  1.0  0.1083
  H  H232  1  0.281800  0.927100  0.808100  1.0  0.1056
  H  H233  1  0.341800  0.929400  0.729600  1.0  0.0912
  H  H234  1  0.429500  0.976400  0.698200  1.0  0.1097
  H  H235  1  0.462700  0.017700  0.747900  1.0  0.0866
  H  H236  1  0.412800  0.110700  0.964500  1.0  0.0928
  H  H237  1  0.371700  0.083400  0.008800  1.0  0.0944
  H  H238  1  0.235400  0.128000  0.002800  1.0  0.0748
  H  H239  1  0.286400  0.159200  0.015200  1.0  0.0751
  H  H240  1  0.271300  0.151100  0.925100  1.0  0.08
  H  H241  1  0.323800  0.181700  0.936900  1.0  0.0684
  H  H242  1  0.146700  0.200600  0.970600  1.0  0.0782
  H  H243  1  0.198600  0.231000  0.983600  1.0  0.0914
  H  H244  1  0.233800  0.257100  0.907700  1.0  0.1054
  H  H245  1  0.134700  0.266200  0.925000  1.0  0.1052
  H  H246  1  0.191200  0.223300  0.891500  1.0  0.1124
  H  H247  1  0.117000  0.018900  0.570500  1.0  0.0797
  H  H248  1  0.014300  0.021100  0.640100  1.0  0.124
  H  H249  1  0.953200  0.159900  0.632300  1.0  0.1226
  H  H250  1  0.061400  0.154100  0.566500  1.0  0.0699
  H  H251  1  0.925000  0.067700  0.710900  1.0  0.069
  H  H252  1  0.890800  0.122800  0.706000  1.0  0.0768
  H  H253  1  0.816100  0.808100  0.284900  1.0  0.103
  H  H254  1  0.803400  0.816000  0.210800  1.0  0.1019
  H  H255  1  0.680000  0.863000  0.195800  1.0  0.1168
  H  H256  1  0.572600  0.901300  0.256900  1.0  0.0865
  H  H257  1  0.372300  0.954700  0.493500  1.0  0.0904
  H  H258  1  0.427800  0.934400  0.528600  1.0  0.0937
  H  H259  1  0.336400  0.882400  0.495800  1.0  0.0858
  H  H260  1  0.398100  0.858800  0.527000  1.0  0.0701
  H  H261  1  0.313000  0.897800  0.590800  1.0  0.0719
  H  H262  1  0.271000  0.940100  0.562100  1.0  0.0754
  H  H263  1  0.248400  0.856600  0.573400  1.0  0.0791
  H  H264  1  0.207800  0.898000  0.543200  1.0  0.0725
  H  H265  1  0.176800  0.910000  0.644000  1.0  0.1023
  H  H266  1  0.112800  0.894200  0.624400  1.0  0.1044
  H  H267  1  0.126300  0.944700  0.612300  1.0  0.0917
  H  H268  1  0.689700  0.746000  0.408200  1.0  0.0673
  H  H269  1  0.637500  0.684500  0.405100  1.0  0.1058
  H  H270  1  0.413800  0.775600  0.415200  1.0  0.1101
  H  H271  1  0.471300  0.834700  0.415900  1.0  0.0796
  H  H272  1  0.523500  0.659600  0.387800  1.0  0.0793
  H  H273  1  0.484600  0.665000  0.442600  1.0  0.1035
  H  H274  1  0.271800  0.853900  0.401100  1.0  0.1152
  H  H275  1  0.139400  0.852000  0.442400  1.0  0.0867
  H  H276  1  0.042900  0.917000  0.484000  1.0  0.1241
  H  H277  1  0.088200  0.981200  0.488800  1.0  0.0897
  H  H278  1  0.477500  0.075100  0.426500  1.0  0.1017
  H  H279  1  0.383700  0.107300  0.443900  1.0  0.1036
  H  H280  1  0.476100  0.094900  0.348100  1.0  0.087
  H  H281  1  0.465600  0.138900  0.377700  1.0  0.0987
  H  H282  1  0.332200  0.116700  0.355500  1.0  0.0698
  H  H283  1  0.318100  0.159100  0.388100  1.0  0.0735
  H  H284  1  0.409500  0.152400  0.292400  1.0  0.078
  H  H285  1  0.394500  0.195100  0.325100  1.0  0.0759
  H  H286  1  0.264100  0.171600  0.301000  1.0  0.1127
  H  H287  1  0.299300  0.214600  0.280000  1.0  0.1136
  H  H288  1  0.249400  0.214300  0.333500  1.0  0.1071
  H  H289  1  0.910100  0.808100  0.572900  1.0  0.106
  H  H290  1  0.928600  0.729600  0.570600  1.0  0.0926
  H  H291  1  0.872300  0.698200  0.523600  1.0  0.1113
  H  H292  1  0.789400  0.747900  0.482300  1.0  0.0861
  H  H293  1  0.622700  0.964500  0.389300  1.0  0.094
  H  H294  1  0.619500  0.008800  0.416600  1.0  0.0942
  H  H295  1  0.761800  0.002800  0.372000  1.0  0.0763
  H  H296  1  0.698400  0.015200  0.340800  1.0  0.0756
  H  H297  1  0.803600  0.925100  0.348900  1.0  0.0788
  H  H298  1  0.739300  0.936900  0.318300  1.0  0.0686
  H  H299  1  0.882700  0.970600  0.299400  1.0  0.0835
  H  H300  1  0.817800  0.983600  0.269000  1.0  0.0939
  H  H301  1  0.858500  0.907700  0.242900  1.0  0.1057
  H  H302  1  0.940300  0.925000  0.233800  1.0  0.1047
  H  H303  1  0.917300  0.891500  0.276700  1.0  0.1128
  H  H304  1  0.312500  0.570500  0.481100  1.0  0.0804
  H  H305  1  0.345600  0.640100  0.478900  1.0  0.122
  H  H306  1  0.414500  0.632300  0.340100  1.0  0.1221
  H  H307  1  0.372100  0.566500  0.345900  1.0  0.07
  H  H308  1  0.364100  0.710900  0.432300  1.0  0.0695
  H  H309  1  0.403200  0.706000  0.377200  1.0  0.078
  H  H310  1  0.409100  0.691900  0.215100  1.0  0.1025
  H  H311  1  0.330200  0.684000  0.289200  1.0  0.1025
  H  H312  1  0.238800  0.637000  0.304200  1.0  0.1154
  H  H313  1  0.230800  0.598700  0.243100  1.0  0.0859
  H  H314  1  0.320500  0.545300  0.006500  1.0  0.0919
  H  H315  1  0.390800  0.565600  0.971400  1.0  0.0941
  H  H316  1  0.214600  0.617600  0.004200  1.0  0.0898
  H  H317  1  0.283900  0.641200  0.973000  1.0  0.0719
  H  H318  1  0.301600  0.602200  0.909200  1.0  0.0722
  H  H319  1  0.273200  0.559900  0.937900  1.0  0.0775
  H  H320  1  0.178400  0.643400  0.926600  1.0  0.0798
  H  H321  1  0.149000  0.602000  0.956800  1.0  0.0795
  H  H322  1  0.230800  0.590000  0.856000  1.0  0.0989
  H  H323  1  0.131400  0.605800  0.875600  1.0  0.105
  H  H324  1  0.183300  0.555300  0.887700  1.0  0.0946
  H  H325  1  0.343900  0.754000  0.091800  1.0  0.0671
  H  H326  1  0.227100  0.815500  0.094900  1.0  0.1052
  H  H327  1  0.104600  0.724400  0.084800  1.0  0.1102
  H  H328  1  0.221900  0.665300  0.084100  1.0  0.0796
  H  H329  1  0.070900  0.840400  0.112200  1.0  0.0763
  H  H330  1  0.092200  0.835000  0.057400  1.0  0.1023
  H  H331  1  0.026800  0.646100  0.098900  1.0  0.1145
  H  H332  1  0.933800  0.648000  0.057600  1.0  0.0868
  H  H333  1  0.943900  0.583000  0.016000  1.0  0.124
  H  H334  1  0.058200  0.518800  0.011200  1.0  0.0899
  H  H335  1  0.479100  0.424900  0.073500  1.0  0.1028
  H  H336  1  0.434900  0.392700  0.056100  1.0  0.1018
  H  H337  1  0.419100  0.405100  0.151900  1.0  0.0852
  H  H338  1  0.482200  0.361100  0.122300  1.0  0.0983
  H  H339  1  0.304400  0.383300  0.144500  1.0  0.0722
  H  H340  1  0.365300  0.340900  0.111900  1.0  0.0706
  H  H341  1  0.354300  0.347600  0.207600  1.0  0.0759
  H  H342  1  0.414700  0.304900  0.174900  1.0  0.076
  H  H343  1  0.236700  0.328400  0.199000  1.0  0.1123
  H  H344  1  0.293900  0.285400  0.220000  1.0  0.1144
  H  H345  1  0.297200  0.285700  0.166500  1.0  0.1083
  H  H346  1  0.791100  0.691900  0.927100  1.0  0.1049
  H  H347  1  0.728800  0.770400  0.929400  1.0  0.0908
  H  H348  1  0.594100  0.801800  0.976400  1.0  0.1104
  H  H349  1  0.519600  0.752100  0.017700  1.0  0.0867
  H  H350  1  0.476500  0.535500  0.110700  1.0  0.0917
  H  H351  1  0.544900  0.491200  0.083400  1.0  0.0948
  H  H352  1  0.636600  0.497200  0.128000  1.0  0.0797
  H  H353  1  0.554400  0.484800  0.159200  1.0  0.0762
  H  H354  1  0.577600  0.574900  0.151100  1.0  0.0785
  H  H355  1  0.494500  0.563100  0.181700  1.0  0.07
  H  H356  1  0.652700  0.529400  0.200600  1.0  0.0754
  H  H357  1  0.570400  0.516400  0.231000  1.0  0.0952
  H  H358  1  0.509100  0.592300  0.257100  1.0  0.1029
  H  H359  1  0.599100  0.575000  0.266200  1.0  0.1032
  H  H360  1  0.585500  0.608500  0.223300  1.0  0.1127
  H  H361  1  0.864100  0.929500  0.018900  1.0  0.0818
  H  H362  1  0.964600  0.859900  0.021100  1.0  0.1248
  H  H363  1  0.886900  0.867700  0.159900  1.0  0.1216
  H  H364  1  0.784500  0.933500  0.154100  1.0  0.0694
  H  H365  1  0.007300  0.789100  0.067700  1.0  0.0695
  H  H366  1  0.986400  0.794000  0.122800  1.0  0.0789
  H  H367  1  0.101000  0.715100  0.308100  1.0  0.1033
  H  H368  1  0.014200  0.789200  0.316000  1.0  0.1019
  H  H369  1  0.875800  0.804200  0.363000  1.0  0.1165
  H  H370  1  0.829500  0.743100  0.401300  1.0  0.086
  H  H371  1  0.865800  0.506500  0.454700  1.0  0.0918
  H  H372  1  0.956400  0.471400  0.434400  1.0  0.0936
  H  H373  1  0.832200  0.504200  0.382400  1.0  0.0909
  H  H374  1  0.925100  0.473000  0.358800  1.0  0.0706
  H  H375  1  0.903800  0.409200  0.397800  1.0  0.0718
  H  H376  1  0.833100  0.437900  0.440100  1.0  0.0737
  H  H377  1  0.821800  0.426600  0.356600  1.0  0.0857
  H  H378  1  0.751000  0.456800  0.398000  1.0  0.0755
  H  H379  1  0.820800  0.356000  0.410000  1.0  0.0971
  H  H380  1  0.737200  0.375600  0.394200  1.0  0.1059
  H  H381  1  0.738600  0.387700  0.444700  1.0  0.0905
  H  H382  1  0.097900  0.591800  0.246000  1.0  0.0674
  H  H383  1  0.042600  0.594900  0.184500  1.0  0.1059
  H  H384  1  0.829000  0.584800  0.275600  1.0  0.1104
  H  H385  1  0.887200  0.584100  0.334700  1.0  0.0802
  H  H386  1  0.911300  0.612200  0.159600  1.0  0.0772
  H  H387  1  0.927200  0.557400  0.165000  1.0  0.0959
  H  H388  1  0.672900  0.598900  0.353900  1.0  0.1139
  H  H389  1  0.581800  0.557600  0.352000  1.0  0.0859
  H  H390  1  0.526900  0.516000  0.417000  1.0  0.1244
  H  H391  1  0.577000  0.511200  0.481200  1.0  0.0897
  H  H392  1  0.904000  0.573500  0.575100  1.0  0.1014
  H  H393  1  0.827600  0.556100  0.607300  1.0  0.1062
  H  H394  1  0.824200  0.651900  0.594900  1.0  0.0879
  H  H395  1  0.843300  0.622300  0.638900  1.0  0.1015
  H  H396  1  0.687700  0.644500  0.616700  1.0  0.0693
  H  H397  1  0.706200  0.611900  0.659100  1.0  0.0749
  H  H398  1  0.701900  0.707600  0.652400  1.0  0.0798
  H  H399  1  0.719600  0.674900  0.695100  1.0  0.0753
  H  H400  1  0.565100  0.699000  0.671600  1.0  0.1139
  H  H401  1  0.579300  0.720000  0.714600  1.0  0.1134
  H  H402  1  0.582900  0.666500  0.714300  1.0  0.1087
  H  H403  1  0.483000  0.427100  0.308100  1.0  0.1059
  H  H404  1  0.499200  0.429400  0.229600  1.0  0.0909
  H  H405  1  0.395900  0.476400  0.198200  1.0  0.1092
  H  H406  1  0.271700  0.517700  0.247900  1.0  0.0854
  H  H407  1  0.012000  0.610700  0.464500  1.0  0.0928
  H  H408  1  0.036100  0.583400  0.508800  1.0  0.0944
  H  H409  1  0.133800  0.628000  0.502800  1.0  0.077
  H  H410  1  0.039200  0.659200  0.515200  1.0  0.0745
  H  H411  1  0.152500  0.651100  0.425100  1.0  0.0788
  H  H412  1  0.057600  0.681700  0.436900  1.0  0.0694
  H  H413  1  0.182100  0.700600  0.470600  1.0  0.0818
  H  H414  1  0.086800  0.731000  0.483600  1.0  0.0935
  H  H415  1  0.101400  0.757100  0.407700  1.0  0.1067
  H  H416  1  0.174100  0.766200  0.425000  1.0  0.1039
  H  H417  1  0.194000  0.723300  0.391500  1.0  0.1133
  H  H418  1  0.793600  0.518900  0.070500  1.0  0.0811
  H  H419  1  0.824500  0.521100  0.140100  1.0  0.1236
  H  H420  1  0.754600  0.659900  0.132300  1.0  0.122
  H  H421  1  0.718000  0.654100  0.066500  1.0  0.0684
  H  H422  1  0.796400  0.567700  0.210900  1.0  0.0693
  H  H423  1  0.780400  0.622800  0.206000  1.0  0.0766
  H  H424  1  0.624200  0.784900  0.191900  1.0  0.1034
  H  H425  1  0.619400  0.710800  0.184000  1.0  0.1022
  H  H426  1  0.543000  0.695800  0.137000  1.0  0.1169
  H  H427  1  0.473900  0.756900  0.098700  1.0  0.0868
  H  H428  1  0.327000  0.993500  0.045300  1.0  0.0903
  H  H429  1  0.362200  0.028600  0.065600  1.0  0.0942
  H  H430  1  0.218800  0.995800  0.117600  1.0  0.0902
  H  H431  1  0.256900  0.027000  0.141200  1.0  0.0714
  H  H432  1  0.210800  0.090800  0.102200  1.0  0.0692
  H  H433  1  0.211100  0.062100  0.059900  1.0  0.0739
  H  H434  1  0.105000  0.073400  0.143400  1.0  0.0839
  H  H435  1  0.105800  0.043200  0.102000  1.0  0.0774
  H  H436  1  0.086800  0.144000  0.090000  1.0  0.0987
  H  H437  1  0.007000  0.124400  0.105800  1.0  0.1042
  H  H438  1  0.071000  0.112300  0.055300  1.0  0.0899
  H  H439  1  0.435700  0.908200  0.254000  1.0  0.0667
  H  H440  1  0.322000  0.905100  0.315500  1.0  0.1071
  H  H441  1  0.189400  0.915200  0.224400  1.0  0.1109
  H  H442  1  0.306000  0.915900  0.165300  1.0  0.0829
  H  H443  1  0.183100  0.887800  0.340400  1.0  0.079
  H  H444  1  0.149600  0.942600  0.335000  1.0  0.0949
  H  H445  1  0.125700  0.901100  0.146100  1.0  0.1136
  H  H446  1  0.991400  0.942400  0.148000  1.0  0.0867
  H  H447  1  0.959900  0.984000  0.083000  1.0  0.1248
  H  H448  1  0.069400  0.988800  0.018800  1.0  0.0918
  H  H449  1  0.552600  0.926500  0.924900  1.0  0.101
  H  H450  1  0.491000  0.943900  0.892700  1.0  0.1058
  H  H451  1  0.571000  0.848100  0.905100  1.0  0.0882
  H  H452  1  0.604500  0.877700  0.861100  1.0  0.0989
  H  H453  1  0.448900  0.855500  0.883300  1.0  0.0701
  H  H454  1  0.477200  0.888100  0.840900  1.0  0.0726
  H  H455  1  0.561900  0.792400  0.847600  1.0  0.0794
  H  H456  1  0.589600  0.825100  0.804900  1.0  0.0772
  H  H457  1  0.435700  0.801000  0.828400  1.0  0.1123
  H  H458  1  0.513900  0.780000  0.785400  1.0  0.1141
  H  H459  1  0.463700  0.833500  0.785700  1.0  0.1088
  H  H460  1  0.718200  0.072900  0.191900  1.0  0.106
  H  H461  1  0.658200  0.070600  0.270400  1.0  0.0913
  H  H462  1  0.570500  0.023600  0.301800  1.0  0.1105
  H  H463  1  0.537300  0.982300  0.252100  1.0  0.0875
  H  H464  1  0.587200  0.889300  0.035500  1.0  0.0916
  H  H465  1  0.628300  0.916600  0.991200  1.0  0.0939
  H  H466  1  0.764600  0.872000  0.997200  1.0  0.0791
  H  H467  1  0.713600  0.840800  0.984800  1.0  0.0748
  H  H468  1  0.728700  0.848900  0.074900  1.0  0.0794
  H  H469  1  0.676200  0.818300  0.063100  1.0  0.0675
  H  H470  1  0.853300  0.799400  0.029400  1.0  0.0783
  H  H471  1  0.801400  0.769000  0.016400  1.0  0.093
  H  H472  1  0.766200  0.742900  0.092300  1.0  0.1054
  H  H473  1  0.865300  0.733800  0.075000  1.0  0.1056
  H  H474  1  0.808800  0.776700  0.108500  1.0  0.1122
  H  H475  1  0.883000  0.981100  0.429500  1.0  0.0806
  H  H476  1  0.985700  0.978900  0.359900  1.0  0.1241
  H  H477  1  0.046800  0.840100  0.367700  1.0  0.1218
  H  H478  1  0.938600  0.845900  0.433500  1.0  0.07
  H  H479  1  0.075000  0.932300  0.289100  1.0  0.0691
  H  H480  1  0.109200  0.877200  0.294000  1.0  0.0756
  C  C481  1  0.298920  0.150580  0.682780  1.0  0.3721
  C  C482  1  0.234360  0.172850  0.720430  1.0  -0.1749
  C  C483  1  0.241610  0.168160  0.764420  1.0  -0.1268
  C  C484  1  0.314480  0.140330  0.773510  1.0  -0.1282
  C  C485  1  0.377730  0.118010  0.737130  1.0  -0.0537
  C  C486  1  0.372860  0.122270  0.691810  1.0  -0.1714
  C  C487  1  0.445700  0.096270  0.655130  1.0  0.57
  C  C488  1  0.515940  0.092080  0.537440  1.0  0.5282
  C  C489  1  0.590520  0.073710  0.497050  1.0  -0.304
  C  C490  1  0.640190  0.111730  0.479690  1.0  -0.1513
  C  C491  1  0.709800  0.094200  0.436200  1.0  -0.0988
  C  C492  1  0.770100  0.109200  0.429400  1.0  -0.0845
  C  C493  1  0.846400  0.087900  0.382300  1.0  -0.3488
  C  C494  1  0.367490  0.247900  0.590520  1.0  0.157
  C  C495  1  0.398570  0.284790  0.591670  1.0  -0.186
  C  C496  1  0.481080  0.277270  0.588170  1.0  0.1221
  C  C497  1  0.528880  0.231380  0.586060  1.0  -0.2581
  C  C498  1  0.494560  0.196340  0.585740  1.0  0.173
  C  C499  1  0.515600  0.318700  0.587300  1.0  -0.2091
  C  C500  1  0.738720  0.080030  0.581930  1.0  0.3201
  C  C501  1  0.765310  0.119600  0.581780  1.0  -0.1881
  C  C502  1  0.844430  0.120570  0.557170  1.0  -0.0892
  C  C503  1  0.901620  0.082540  0.531620  1.0  -0.0996
  C  C504  1  0.874690  0.044360  0.529860  1.0  -0.0847
  C  C505  1  0.795040  0.041550  0.554370  1.0  -0.1507
  C  C506  1  0.770820  0.000540  0.548020  1.0  0.5613
  C  C507  1  0.607930  0.953020  0.586720  1.0  0.5244
  C  C508  1  0.575760  0.912950  0.581730  1.0  -0.3234
  C  C509  1  0.561940  0.884470  0.626050  1.0  -0.0797
  C  C510  1  0.642380  0.859790  0.638650  1.0  -0.0885
  C  C511  1  0.630220  0.828780  0.680780  1.0  -0.0621
  C  C512  1  0.711600  0.804970  0.692630  1.0  -0.3177
  C  C513  1  0.162870  0.172930  0.471730  1.0  0.3228
  C  C514  1  0.114920  0.203640  0.445920  1.0  -0.2243
  C  C515  1  0.103560  0.250390  0.447490  1.0  -0.1162
  C  C516  1  0.137520  0.269170  0.474790  1.0  -0.1339
  C  C517  1  0.185780  0.239660  0.499380  1.0  -0.032
  C  C518  1  0.199600  0.191560  0.498440  1.0  -0.1585
  C  C519  1  0.251660  0.163300  0.526780  1.0  0.5973
  C  C520  1  0.305350  0.051930  0.565170  1.0  0.5692
  C  C521  1  0.343310  0.020420  0.599160  1.0  -0.2895
  C  C522  1  0.275110  0.009460  0.640120  1.0  -0.084
  C  C523  1  0.223220  0.050620  0.670340  1.0  -0.0986
  C  C524  1  0.155740  0.041180  0.711940  1.0  -0.0758
  C  C525  1  0.105500  0.082900  0.742300  1.0  -0.3281
  C  C526  1  0.667880  0.416070  0.548170  1.0  0.1512
  C  C527  1  0.647670  0.374610  0.549250  1.0  -0.2128
  C  C528  1  0.617910  0.354850  0.591530  1.0  0.1178
  C  C529  1  0.608670  0.378890  0.630170  1.0  -0.233
  C  C530  1  0.632320  0.418790  0.626370  1.0  0.1686
  C  C531  1  0.595100  0.309800  0.592800  1.0  -0.1572
  C  C532  1  0.632280  0.349420  0.817220  1.0  0.3704
  C  C533  1  0.627640  0.327150  0.779570  1.0  -0.1799
  C  C534  1  0.674190  0.331840  0.735580  1.0  -0.1295
  C  C535  1  0.728320  0.359670  0.726490  1.0  -0.1301
  C  C536  1  0.732870  0.381990  0.762870  1.0  -0.0522
  C  C537  1  0.686940  0.377730  0.808190  1.0  -0.1715
  C  C538  1  0.697100  0.403730  0.844870  1.0  0.5709
  C  C539  1  0.645460  0.407920  0.962560  1.0  0.5298
  C  C540  1  0.661280  0.426290  0.002950  1.0  -0.3052
  C  C541  1  0.731610  0.388270  0.020310  1.0  -0.1532
  C  C542  1  0.740200  0.405800  0.063800  1.0  -0.0964
  C  C543  1  0.808700  0.390800  0.070600  1.0  -0.0866
  C  C544  1  0.816600  0.412100  0.117700  1.0  -0.3457
  C  C545  1  0.705910  0.252100  0.909480  1.0  0.1575
  C  C546  1  0.775030  0.215210  0.908330  1.0  -0.1855
  C  C547  1  0.846520  0.222730  0.911830  1.0  0.1214
  C  C548  1  0.846320  0.268620  0.913940  1.0  -0.259
  C  C549  1  0.776640  0.303660  0.914260  1.0  0.1735
  C  C550  1  0.921600  0.181300  0.912700  1.0  -0.2109
  C  C551  1  0.900680  0.419970  0.918070  1.0  0.3216
  C  C552  1  0.966690  0.380400  0.918220  1.0  -0.1846
  C  C553  1  0.022170  0.379430  0.942830  1.0  -0.0881
  C  C554  1  0.015780  0.417460  0.968380  1.0  -0.0969
  C  C555  1  0.948910  0.455640  0.970140  1.0  -0.0866
  C  C556  1  0.890960  0.458450  0.945630  1.0  -0.1494
  C  C557  1  0.819380  0.499460  0.951980  1.0  0.5592
  C  C558  1  0.647670  0.546980  0.913280  1.0  0.523
  C  C559  1  0.570440  0.587050  0.918270  1.0  -0.3223
  C  C560  1  0.572460  0.615530  0.873950  1.0  -0.0837
  C  C561  1  0.640820  0.640210  0.861350  1.0  -0.0927
  C  C562  1  0.639780  0.671220  0.819220  1.0  -0.0659
  C  C563  1  0.709200  0.695030  0.807370  1.0  -0.3162
  C  C564  1  0.307530  0.327070  0.028270  1.0  0.3249
  C  C565  1  0.264480  0.296360  0.054080  1.0  -0.2277
  C  C566  1  0.301440  0.249610  0.052510  1.0  -0.1169
  C  C567  1  0.381480  0.230830  0.025210  1.0  -0.1318
  C  C568  1  0.424820  0.260340  0.000620  1.0  -0.0303
  C  C569  1  0.389600  0.308440  0.001560  1.0  -0.1582
  C  C570  1  0.441740  0.336700  0.973220  1.0  0.5955
  C  C571  1  0.422450  0.448070  0.934830  1.0  0.5712
  C  C572  1  0.462890  0.479580  0.900840  1.0  -0.2877
  C  C573  1  0.424690  0.490540  0.859880  1.0  -0.0835
  C  C574  1  0.444180  0.449380  0.829660  1.0  -0.0992
  C  C575  1  0.408860  0.458820  0.788060  1.0  -0.0757
  C  C576  1  0.430700  0.417100  0.757700  1.0  -0.331
  C  C577  1  0.132120  0.083930  0.951830  1.0  0.1521
  C  C578  1  0.071530  0.125390  0.950750  1.0  -0.2145
  C  C579  1  0.064290  0.145150  0.908470  1.0  0.1178
  C  C580  1  0.117730  0.121110  0.869830  1.0  -0.2298
  C  C581  1  0.177480  0.081210  0.873630  1.0  0.1688
  C  C582  1  0.997700  0.190200  0.907200  1.0  -0.1569
  C  C583  1  0.981700  0.317220  0.650580  1.0  0.3696
  C  C584  1  0.954790  0.279570  0.672850  1.0  -0.1764
  C  C585  1  0.006030  0.235580  0.668160  1.0  -0.1314
  C  C586  1  0.087990  0.226490  0.640330  1.0  -0.13
  C  C587  1  0.114860  0.262870  0.618010  1.0  -0.0521
  C  C588  1  0.064670  0.308190  0.622270  1.0  -0.1741
  C  C589  1  0.100830  0.344870  0.596270  1.0  0.5706
  C  C590  1  0.053380  0.462560  0.592080  1.0  0.5275
  C  C591  1  0.087570  0.502950  0.573710  1.0  -0.3038
  C  C592  1  0.119880  0.520310  0.611730  1.0  -0.1538
  C  C593  1  0.146000  0.563800  0.594200  1.0  -0.0982
  C  C594  1  0.199500  0.570600  0.609200  1.0  -0.0881
  C  C595  1  0.228700  0.617700  0.587900  1.0  -0.3504
  C  C596  1  0.958010  0.409480  0.747900  1.0  0.1584
  C  C597  1  0.990240  0.408330  0.784790  1.0  -0.1856
  C  C598  1  0.069250  0.411830  0.777270  1.0  0.1218
  C  C599  1  0.114940  0.413940  0.731380  1.0  -0.2571
  C  C600  1  0.080300  0.414260  0.696340  1.0  0.1778
  C  C601  1  0.102900  0.412700  0.818700  1.0  -0.2116
  C  C602  1  0.320650  0.418070  0.580030  1.0  0.3207
  C  C603  1  0.347090  0.418220  0.619600  1.0  -0.1894
  C  C604  1  0.401600  0.442830  0.620570  1.0  -0.0867
  C  C605  1  0.433240  0.468380  0.582540  1.0  -0.0951
  C  C606  1  0.404550  0.470140  0.544360  1.0  -0.0821
  C  C607  1  0.349410  0.445630  0.541550  1.0  -0.1515
  C  C608  1  0.318840  0.451980  0.500540  1.0  0.5589
  C  C609  1  0.194650  0.413280  0.453020  1.0  0.5247
  C  C610  1  0.157490  0.418270  0.412950  1.0  -0.3229
  C  C611  1  0.187990  0.373950  0.384470  1.0  -0.0818
  C  C612  1  0.281030  0.361350  0.359790  1.0  -0.0885
  C  C613  1  0.311000  0.319220  0.328780  1.0  -0.062
  C  C614  1  0.404230  0.307370  0.304970  1.0  -0.3166
  C  C615  1  0.634600  0.528270  0.672930  1.0  0.3274
  C  C616  1  0.560840  0.554080  0.703640  1.0  -0.2241
  C  C617  1  0.551050  0.552510  0.750390  1.0  -0.1154
  C  C618  1  0.612310  0.525210  0.769170  1.0  -0.1301
  C  C619  1  0.685160  0.500620  0.739660  1.0  -0.0317
  C  C620  1  0.698040  0.501560  0.691560  1.0  -0.1589
  C  C621  1  0.778440  0.473220  0.663300  1.0  0.5969
  C  C622  1  0.870520  0.434830  0.551930  1.0  0.5691
  C  C623  1  0.942470  0.400840  0.520420  1.0  -0.2872
  C  C624  1  0.915230  0.359880  0.509460  1.0  -0.087
  C  C625  1  0.893560  0.329660  0.550620  1.0  -0.1007
  C  C626  1  0.867680  0.288060  0.541180  1.0  -0.074
  C  C627  1  0.847800  0.257700  0.582900  1.0  -0.3278
  C  C628  1  0.216050  0.451830  0.916070  1.0  0.1534
  C  C629  1  0.196920  0.450750  0.874610  1.0  -0.2183
  C  C630  1  0.209440  0.408470  0.854850  1.0  0.1174
  C  C631  1  0.238840  0.369830  0.878890  1.0  -0.2305
  C  C632  1  0.258690  0.373630  0.918790  1.0  0.1708
  C  C633  1  0.187900  0.407200  0.809800  1.0  -0.1568
  C  C634  1  0.449500  0.182780  0.849420  1.0  0.3666
  C  C635  1  0.407210  0.220430  0.827150  1.0  -0.1747
  C  C636  1  0.409770  0.264420  0.831840  1.0  -0.1294
  C  C637  1  0.454810  0.273510  0.859670  1.0  -0.1319
  C  C638  1  0.495740  0.237130  0.881990  1.0  -0.0533
  C  C639  1  0.495130  0.191810  0.877730  1.0  -0.1722
  C  C640  1  0.541970  0.155130  0.903730  1.0  0.57
  C  C641  1  0.608020  0.037440  0.907920  1.0  0.529
  C  C642  1  0.664230  0.997050  0.926290  1.0  -0.3034
  C  C643  1  0.751920  0.979690  0.888270  1.0  -0.1496
  C  C644  1  0.804000  0.936200  0.905800  1.0  -0.0995
  C  C645  1  0.879300  0.929400  0.890800  1.0  -0.0824
  C  C646  1  0.934300  0.882300  0.912100  1.0  -0.3471
  C  C647  1  0.615390  0.090520  0.752100  1.0  0.157
  C  C648  1  0.683360  0.091670  0.715210  1.0  -0.1842
  C  C649  1  0.758350  0.088170  0.722730  1.0  0.1208
  C  C650  1  0.760260  0.086060  0.768620  1.0  -0.2585
  C  C651  1  0.690900  0.085740  0.803660  1.0  0.1756
  C  C652  1  0.834300  0.087300  0.681300  1.0  -0.2071
  C  C653  1  0.818750  0.081930  0.919970  1.0  0.3187
  C  C654  1  0.884910  0.081780  0.880400  1.0  -0.1872
  C  C655  1  0.965000  0.057170  0.879430  1.0  -0.0892
  C  C656  1  0.984160  0.031620  0.917460  1.0  -0.0976
  C  C657  1  0.919050  0.029860  0.955640  1.0  -0.0812
  C  C658  1  0.836590  0.054370  0.958450  1.0  -0.1516
  C  C659  1  0.771360  0.048020  0.999460  1.0  0.5598
  C  C660  1  0.560950  0.086720  0.046980  1.0  0.5254
  C  C661  1  0.488710  0.081730  0.087050  1.0  -0.3252
  C  C662  1  0.446410  0.126050  0.115530  1.0  -0.0793
  C  C663  1  0.502170  0.138650  0.140210  1.0  -0.0876
  C  C664  1  0.459000  0.180780  0.171220  1.0  -0.0627
  C  C665  1  0.516570  0.192630  0.195030  1.0  -0.3186
  C  C666  1  0.335800  0.971730  0.827070  1.0  0.3294
  C  C667  1  0.318560  0.945920  0.796360  1.0  -0.2253
  C  C668  1  0.353950  0.947490  0.749610  1.0  -0.1185
  C  C669  1  0.406690  0.974790  0.730830  1.0  -0.1336
  C  C670  1  0.425440  0.999380  0.760340  1.0  -0.0309
  C  C671  1  0.391160  0.998440  0.808440  1.0  -0.1565
  C  C672  1  0.414960  0.026780  0.836700  1.0  0.5974
  C  C673  1  0.357280  0.065170  0.948070  1.0  0.568
  C  C674  1  0.363730  0.099160  0.979580  1.0  -0.2913
  C  C675  1  0.284570  0.140120  0.990540  1.0  -0.088
  C  C676  1  0.273840  0.170340  0.949380  1.0  -0.0998
  C  C677  1  0.196920  0.211940  0.958820  1.0  -0.0757
  C  C678  1  0.188400  0.242300  0.917100  1.0  -0.3292
  C  C679  1  0.083950  0.048170  0.583930  1.0  0.1516
  C  C680  1  0.022280  0.049250  0.625390  1.0  -0.2177
  C  C681  1  0.972760  0.091530  0.645150  1.0  0.118
  C  C682  1  0.987560  0.130170  0.621110  1.0  -0.2351
  C  C683  1  0.051110  0.126370  0.581210  1.0  0.1688
  C  C684  1  0.904900  0.092800  0.690200  1.0  -0.1598
  C  C685  1  0.701080  0.849420  0.317220  1.0  0.3718
  C  C686  1  0.765640  0.827150  0.279570  1.0  -0.1762
  C  C687  1  0.758390  0.831840  0.235580  1.0  -0.1297
  C  C688  1  0.685520  0.859670  0.226490  1.0  -0.1296
  C  C689  1  0.622270  0.881990  0.262870  1.0  -0.0528
  C  C690  1  0.627140  0.877730  0.308190  1.0  -0.1729
  C  C691  1  0.554300  0.903730  0.344870  1.0  0.5705
  C  C692  1  0.484060  0.907920  0.462560  1.0  0.5276
  C  C693  1  0.409480  0.926290  0.502950  1.0  -0.2988
  C  C694  1  0.359810  0.888270  0.520310  1.0  -0.1513
  C  C695  1  0.290200  0.905800  0.563800  1.0  -0.0955
  C  C696  1  0.229900  0.890800  0.570600  1.0  -0.083
  C  C697  1  0.153600  0.912100  0.617700  1.0  -0.3478
  C  C698  1  0.632510  0.752100  0.409480  1.0  0.1569
  C  C699  1  0.601430  0.715210  0.408330  1.0  -0.1854
  C  C700  1  0.518920  0.722730  0.411830  1.0  0.1217
  C  C701  1  0.471120  0.768620  0.413940  1.0  -0.2618
  C  C702  1  0.505440  0.803660  0.414260  1.0  0.1736
  C  C703  1  0.484400  0.681300  0.412700  1.0  -0.2105
  C  C704  1  0.261280  0.919970  0.418070  1.0  0.3191
  C  C705  1  0.234690  0.880400  0.418220  1.0  -0.1858
  C  C706  1  0.155570  0.879430  0.442830  1.0  -0.0893
  C  C707  1  0.098380  0.917460  0.468380  1.0  -0.0996
  C  C708  1  0.125310  0.955640  0.470140  1.0  -0.0839
  C  C709  1  0.204960  0.958450  0.445630  1.0  -0.1507
  C  C710  1  0.229180  0.999460  0.451980  1.0  0.5595
  C  C711  1  0.392070  0.046980  0.413280  1.0  0.5241
  C  C712  1  0.424240  0.087050  0.418270  1.0  -0.3231
  C  C713  1  0.438060  0.115530  0.373950  1.0  -0.0788
  C  C714  1  0.357620  0.140210  0.361350  1.0  -0.0877
  C  C715  1  0.369780  0.171220  0.319220  1.0  -0.06
  C  C716  1  0.288400  0.195030  0.307370  1.0  -0.3209
  C  C717  1  0.837130  0.827070  0.528270  1.0  0.3231
  C  C718  1  0.885080  0.796360  0.554080  1.0  -0.2237
  C  C719  1  0.896440  0.749610  0.552510  1.0  -0.117
  C  C720  1  0.862480  0.730830  0.525210  1.0  -0.1338
  C  C721  1  0.814220  0.760340  0.500620  1.0  -0.031
  C  C722  1  0.800400  0.808440  0.501560  1.0  -0.1593
  C  C723  1  0.748340  0.836700  0.473220  1.0  0.5989
  C  C724  1  0.694650  0.948070  0.434830  1.0  0.5687
  C  C725  1  0.656690  0.979580  0.400840  1.0  -0.2879
  C  C726  1  0.724890  0.990540  0.359880  1.0  -0.0849
  C  C727  1  0.776780  0.949380  0.329660  1.0  -0.0997
  C  C728  1  0.844260  0.958820  0.288060  1.0  -0.0749
  C  C729  1  0.894500  0.917100  0.257700  1.0  -0.3294
  C  C730  1  0.332120  0.583930  0.451830  1.0  0.1521
  C  C731  1  0.352330  0.625390  0.450750  1.0  -0.2126
  C  C732  1  0.382090  0.645150  0.408470  1.0  0.1181
  C  C733  1  0.391330  0.621110  0.369830  1.0  -0.2316
  C  C734  1  0.367680  0.581210  0.373630  1.0  0.169
  C  C735  1  0.404900  0.690200  0.407200  1.0  -0.1583
  C  C736  1  0.367720  0.650580  0.182780  1.0  0.3722
  C  C737  1  0.372360  0.672850  0.220430  1.0  -0.1768
  C  C738  1  0.325810  0.668160  0.264420  1.0  -0.1261
  C  C739  1  0.271680  0.640330  0.273510  1.0  -0.1293
  C  C740  1  0.267130  0.618010  0.237130  1.0  -0.0517
  C  C741  1  0.313060  0.622270  0.191810  1.0  -0.1701
  C  C742  1  0.302900  0.596270  0.155130  1.0  0.571
  C  C743  1  0.354540  0.592080  0.037440  1.0  0.5297
  C  C744  1  0.338720  0.573710  0.997050  1.0  -0.3083
  C  C745  1  0.268390  0.611730  0.979690  1.0  -0.1545
  C  C746  1  0.259800  0.594200  0.936200  1.0  -0.0969
  C  C747  1  0.191300  0.609200  0.929400  1.0  -0.09
  C  C748  1  0.183400  0.587900  0.882300  1.0  -0.3492
  C  C749  1  0.294090  0.747900  0.090520  1.0  0.1576
  C  C750  1  0.224970  0.784790  0.091670  1.0  -0.1845
  C  C751  1  0.153480  0.777270  0.088170  1.0  0.1225
  C  C752  1  0.153680  0.731380  0.086060  1.0  -0.2608
  C  C753  1  0.223360  0.696340  0.085740  1.0  0.1731
  C  C754  1  0.078400  0.818700  0.087300  1.0  -0.2086
  C  C755  1  0.099320  0.580030  0.081930  1.0  0.3216
  C  C756  1  0.033310  0.619600  0.081780  1.0  -0.1842
  C  C757  1  0.977830  0.620570  0.057170  1.0  -0.0857
  C  C758  1  0.984220  0.582540  0.031620  1.0  -0.0981
  C  C759  1  0.051090  0.544360  0.029860  1.0  -0.0854
  C  C760  1  0.109040  0.541550  0.054370  1.0  -0.1499
  C  C761  1  0.180620  0.500540  0.048020  1.0  0.5587
  C  C762  1  0.352330  0.453020  0.086720  1.0  0.5239
  C  C763  1  0.429560  0.412950  0.081730  1.0  -0.3188
  C  C764  1  0.427540  0.384470  0.126050  1.0  -0.085
  C  C765  1  0.359180  0.359790  0.138650  1.0  -0.0913
  C  C766  1  0.360220  0.328780  0.180780  1.0  -0.0668
  C  C767  1  0.290800  0.304970  0.192630  1.0  -0.3197
  C  C768  1  0.692470  0.672930  0.971730  1.0  0.3238
  C  C769  1  0.735520  0.703640  0.945920  1.0  -0.2249
  C  C770  1  0.698560  0.750390  0.947490  1.0  -0.1155
  C  C771  1  0.618520  0.769170  0.974790  1.0  -0.1328
  C  C772  1  0.575180  0.739660  0.999380  1.0  -0.0298
  C  C773  1  0.610400  0.691560  0.998440  1.0  -0.1579
  C  C774  1  0.558260  0.663300  0.026780  1.0  0.5978
  C  C775  1  0.577550  0.551930  0.065170  1.0  0.5721
  C  C776  1  0.537110  0.520420  0.099160  1.0  -0.2863
  C  C777  1  0.575310  0.509460  0.140120  1.0  -0.0828
  C  C778  1  0.555820  0.550620  0.170340  1.0  -0.0976
  C  C779  1  0.591140  0.541180  0.211940  1.0  -0.075
  C  C780  1  0.569300  0.582900  0.242300  1.0  -0.3292
  C  C781  1  0.867880  0.916070  0.048170  1.0  0.1515
  C  C782  1  0.928470  0.874610  0.049250  1.0  -0.2145
  C  C783  1  0.935710  0.854850  0.091530  1.0  0.1181
  C  C784  1  0.882270  0.878890  0.130170  1.0  -0.2311
  C  C785  1  0.822520  0.918790  0.126370  1.0  0.1685
  C  C786  1  0.002300  0.809800  0.092800  1.0  -0.1574
  C  C787  1  0.018300  0.682780  0.349420  1.0  0.3692
  C  C788  1  0.045210  0.720430  0.327150  1.0  -0.1784
  C  C789  1  0.993970  0.764420  0.331840  1.0  -0.1303
  C  C790  1  0.912010  0.773510  0.359670  1.0  -0.1306
  C  C791  1  0.885140  0.737130  0.381990  1.0  -0.0509
  C  C792  1  0.935330  0.691810  0.377730  1.0  -0.174
  C  C793  1  0.899170  0.655130  0.403730  1.0  0.5707
  C  C794  1  0.946620  0.537440  0.407920  1.0  0.5278
  C  C795  1  0.912430  0.497050  0.426290  1.0  -0.304
  C  C796  1  0.880120  0.479690  0.388270  1.0  -0.153
  C  C797  1  0.854000  0.436200  0.405800  1.0  -0.0982
  C  C798  1  0.800500  0.429400  0.390800  1.0  -0.0864
  C  C799  1  0.771300  0.382300  0.412100  1.0  -0.355
  C  C800  1  0.041990  0.590520  0.252100  1.0  0.1591
  C  C801  1  0.009760  0.591670  0.215210  1.0  -0.1845
  C  C802  1  0.930750  0.588170  0.222730  1.0  0.122
  C  C803  1  0.885060  0.586060  0.268620  1.0  -0.2605
  C  C804  1  0.919700  0.585740  0.303660  1.0  0.1786
  C  C805  1  0.897100  0.587300  0.181300  1.0  -0.2121
  C  C806  1  0.679350  0.581930  0.419970  1.0  0.3204
  C  C807  1  0.652910  0.581780  0.380400  1.0  -0.1885
  C  C808  1  0.598400  0.557170  0.379430  1.0  -0.0873
  C  C809  1  0.566760  0.531620  0.417460  1.0  -0.0982
  C  C810  1  0.595450  0.529860  0.455640  1.0  -0.0809
  C  C811  1  0.650590  0.554370  0.458450  1.0  -0.1509
  C  C812  1  0.681160  0.548020  0.499460  1.0  0.5578
  C  C813  1  0.805350  0.586720  0.546980  1.0  0.5273
  C  C814  1  0.842510  0.581730  0.587050  1.0  -0.3222
  C  C815  1  0.812010  0.626050  0.615530  1.0  -0.084
  C  C816  1  0.718970  0.638650  0.640210  1.0  -0.0872
  C  C817  1  0.689000  0.680780  0.671220  1.0  -0.0623
  C  C818  1  0.595770  0.692630  0.695030  1.0  -0.3193
  C  C819  1  0.365400  0.471730  0.327070  1.0  0.3273
  C  C820  1  0.439160  0.445920  0.296360  1.0  -0.2229
  C  C821  1  0.448950  0.447490  0.249610  1.0  -0.1163
  C  C822  1  0.387690  0.474790  0.230830  1.0  -0.131
  C  C823  1  0.314840  0.499380  0.260340  1.0  -0.0312
  C  C824  1  0.301960  0.498440  0.308440  1.0  -0.158
  C  C825  1  0.221560  0.526780  0.336700  1.0  0.5977
  C  C826  1  0.129480  0.565170  0.448070  1.0  0.5689
  C  C827  1  0.057530  0.599160  0.479580  1.0  -0.2872
  C  C828  1  0.084770  0.640120  0.490540  1.0  -0.0862
  C  C829  1  0.106440  0.670340  0.449380  1.0  -0.1
  C  C830  1  0.132320  0.711940  0.458820  1.0  -0.0751
  C  C831  1  0.152200  0.742300  0.417100  1.0  -0.3279
  C  C832  1  0.783950  0.548170  0.083930  1.0  0.1538
  C  C833  1  0.803080  0.549250  0.125390  1.0  -0.217
  C  C834  1  0.790560  0.591530  0.145150  1.0  0.1181
  C  C835  1  0.761160  0.630170  0.121110  1.0  -0.2334
  C  C836  1  0.741310  0.626370  0.081210  1.0  0.1699
  C  C837  1  0.812100  0.592800  0.190200  1.0  -0.1587
  C  C838  1  0.550500  0.817220  0.150580  1.0  0.3681
  C  C839  1  0.592790  0.779570  0.172850  1.0  -0.1734
  C  C840  1  0.590230  0.735580  0.168160  1.0  -0.1295
  C  C841  1  0.545190  0.726490  0.140330  1.0  -0.1313
  C  C842  1  0.504260  0.762870  0.118010  1.0  -0.0521
  C  C843  1  0.504870  0.808190  0.122270  1.0  -0.1717
  C  C844  1  0.458030  0.844870  0.096270  1.0  0.5715
  C  C845  1  0.391980  0.962560  0.092080  1.0  0.5296
  C  C846  1  0.335770  0.002950  0.073710  1.0  -0.3049
  C  C847  1  0.248080  0.020310  0.111730  1.0  -0.1537
  C  C848  1  0.196000  0.063800  0.094200  1.0  -0.099
  C  C849  1  0.120700  0.070600  0.109200  1.0  -0.0862
  C  C850  1  0.065700  0.117700  0.087900  1.0  -0.352
  C  C851  1  0.384610  0.909480  0.247900  1.0  0.1568
  C  C852  1  0.316640  0.908330  0.284790  1.0  -0.1829
  C  C853  1  0.241650  0.911830  0.277270  1.0  0.1214
  C  C854  1  0.239740  0.913940  0.231380  1.0  -0.2621
  C  C855  1  0.309100  0.914260  0.196340  1.0  0.1736
  C  C856  1  0.165700  0.912700  0.318700  1.0  -0.2072
  C  C857  1  0.181250  0.918070  0.080030  1.0  0.3187
  C  C858  1  0.115090  0.918220  0.119600  1.0  -0.1876
  C  C859  1  0.035000  0.942830  0.120570  1.0  -0.0894
  C  C860  1  0.015840  0.968380  0.082540  1.0  -0.0976
  C  C861  1  0.080950  0.970140  0.044360  1.0  -0.0817
  C  C862  1  0.163410  0.945630  0.041550  1.0  -0.1521
  C  C863  1  0.228640  0.951980  0.000540  1.0  0.5591
  C  C864  1  0.439050  0.913280  0.953020  1.0  0.5244
  C  C865  1  0.511290  0.918270  0.912950  1.0  -0.3233
  C  C866  1  0.553590  0.873950  0.884470  1.0  -0.0793
  C  C867  1  0.497830  0.861350  0.859790  1.0  -0.0854
  C  C868  1  0.541000  0.819220  0.828780  1.0  -0.0602
  C  C869  1  0.483430  0.807370  0.804970  1.0  -0.3217
  C  C870  1  0.664200  0.028270  0.172930  1.0  0.3287
  C  C871  1  0.681440  0.054080  0.203640  1.0  -0.2244
  C  C872  1  0.646050  0.052510  0.250390  1.0  -0.1153
  C  C873  1  0.593310  0.025210  0.269170  1.0  -0.1332
  C  C874  1  0.574560  0.000620  0.239660  1.0  -0.0296
  C  C875  1  0.608840  0.001560  0.191560  1.0  -0.157
  C  C876  1  0.585040  0.973220  0.163300  1.0  0.5979
  C  C877  1  0.642720  0.934830  0.051930  1.0  0.569
  C  C878  1  0.636270  0.900840  0.020420  1.0  -0.2902
  C  C879  1  0.715430  0.859880  0.009460  1.0  -0.0877
  C  C880  1  0.726160  0.829660  0.050620  1.0  -0.101
  C  C881  1  0.803080  0.788060  0.041180  1.0  -0.0746
  C  C882  1  0.811600  0.757700  0.082900  1.0  -0.3292
  C  C883  1  0.916050  0.951830  0.416070  1.0  0.1513
  C  C884  1  0.977720  0.950750  0.374610  1.0  -0.2178
  C  C885  1  0.027240  0.908470  0.354850  1.0  0.1179
  C  C886  1  0.012440  0.869830  0.378890  1.0  -0.2305
  C  C887  1  0.948890  0.873630  0.418790  1.0  0.1696
  C  C888  1  0.095100  0.907200  0.309800  1.0  -0.1578
  N  N889  1  0.443410  0.102020  0.611620  1.0  -0.2243
  N  N890  1  0.517660  0.078010  0.579270  1.0  -0.2534
  N  N891  1  0.414060  0.204150  0.587730  1.0  -0.3396
  N  N892  1  0.695440  0.996860  0.570660  1.0  -0.2904
  N  N893  1  0.679420  0.955890  0.560270  1.0  -0.2709
  N  N894  1  0.258720  0.118560  0.530560  1.0  -0.2672
  N  N895  1  0.303390  0.094860  0.561800  1.0  -0.2754
  N  N896  1  0.660680  0.437930  0.586510  1.0  -0.3297
  N  N897  1  0.657050  0.397980  0.888380  1.0  -0.2247
  N  N898  1  0.674940  0.421990  0.920730  1.0  -0.2545
  N  N899  1  0.705940  0.295850  0.912270  1.0  -0.34
  N  N900  1  0.762960  0.503140  0.929340  1.0  -0.2895
  N  N901  1  0.695580  0.544110  0.939730  1.0  -0.27
  N  N902  1  0.407840  0.381440  0.969440  1.0  -0.2684
  N  N903  1  0.460050  0.405140  0.938200  1.0  -0.275
  N  N904  1  0.185120  0.062070  0.913490  1.0  -0.3276
  N  N905  1  0.055030  0.388380  0.602020  1.0  -0.2248
  N  N906  1  0.096930  0.420730  0.578010  1.0  -0.2553
  N  N907  1  0.001790  0.412270  0.704150  1.0  -0.3413
  N  N908  1  0.266100  0.429340  0.496860  1.0  -0.2933
  N  N909  1  0.239690  0.439730  0.455890  1.0  -0.2702
  N  N910  1  0.789280  0.469440  0.618560  1.0  -0.2677
  N  N911  1  0.865190  0.438200  0.594860  1.0  -0.2722
  N  N912  1  0.247190  0.413490  0.937930  1.0  -0.3323
  N  N913  1  0.545430  0.111620  0.897980  1.0  -0.2245
  N  N914  1  0.595670  0.079270  0.921990  1.0  -0.2545
  N  N915  1  0.618210  0.087730  0.795850  1.0  -0.3383
  N  N916  1  0.692300  0.070660  0.003140  1.0  -0.292
  N  N917  1  0.635310  0.060270  0.044110  1.0  -0.2706
  N  N918  1  0.377280  0.030560  0.881440  1.0  -0.2695
  N  N919  1  0.398250  0.061800  0.905140  1.0  -0.2752
  N  N920  1  0.098610  0.086510  0.562070  1.0  -0.3343
  N  N921  1  0.556590  0.897980  0.388380  1.0  -0.2243
  N  N922  1  0.482340  0.921990  0.420730  1.0  -0.2549
  N  N923  1  0.585940  0.795850  0.412270  1.0  -0.3374
  N  N924  1  0.304560  0.003140  0.429340  1.0  -0.2929
  N  N925  1  0.320580  0.044110  0.439730  1.0  -0.2713
  N  N926  1  0.741280  0.881440  0.469440  1.0  -0.2684
  N  N927  1  0.696610  0.905140  0.438200  1.0  -0.2756
  N  N928  1  0.339320  0.562070  0.413490  1.0  -0.329
  N  N929  1  0.342950  0.602020  0.111620  1.0  -0.2241
  N  N930  1  0.325060  0.578010  0.079270  1.0  -0.2545
  N  N931  1  0.294060  0.704150  0.087730  1.0  -0.3376
  N  N932  1  0.237040  0.496860  0.070660  1.0  -0.2899
  N  N933  1  0.304420  0.455890  0.060270  1.0  -0.2699
  N  N934  1  0.592160  0.618560  0.030560  1.0  -0.2703
  N  N935  1  0.539950  0.594860  0.061800  1.0  -0.2745
  N  N936  1  0.814880  0.937930  0.086510  1.0  -0.3286
  N  N937  1  0.944970  0.611620  0.397980  1.0  -0.2244
  N  N938  1  0.903070  0.579270  0.421990  1.0  -0.254
  N  N939  1  0.998210  0.587730  0.295850  1.0  -0.3392
  N  N940  1  0.733900  0.570660  0.503140  1.0  -0.2956
  N  N941  1  0.760310  0.560270  0.544110  1.0  -0.2703
  N  N942  1  0.210720  0.530560  0.381440  1.0  -0.2695
  N  N943  1  0.134810  0.561800  0.405140  1.0  -0.2737
  N  N944  1  0.752810  0.586510  0.062070  1.0  -0.3337
  N  N945  1  0.454570  0.888380  0.102020  1.0  -0.2247
  N  N946  1  0.404330  0.920730  0.078010  1.0  -0.2568
  N  N947  1  0.381790  0.912270  0.204150  1.0  -0.337
  N  N948  1  0.307700  0.929340  0.996860  1.0  -0.2914
  N  N949  1  0.364690  0.939730  0.955890  1.0  -0.2705
  N  N950  1  0.622720  0.969440  0.118560  1.0  -0.27
  N  N951  1  0.601750  0.938200  0.094860  1.0  -0.2751
  N  N952  1  0.901390  0.913490  0.437930  1.0  -0.3308
  O  O953  1  0.285780  0.157630  0.641050  1.0  -0.5701
  O  O954  1  0.509190  0.069930  0.666410  1.0  -0.5872
  O  O955  1  0.452820  0.123420  0.528640  1.0  -0.5894
  O  O956  1  0.662770  0.080910  0.608270  1.0  -0.5895
  O  O957  1  0.823300  0.968550  0.520190  1.0  -0.5831
  O  O958  1  0.560890  0.984110  0.618930  1.0  -0.5901
  O  O959  1  0.169550  0.128240  0.468760  1.0  -0.5675
  O  O960  1  0.286950  0.182510  0.548330  1.0  -0.5891
  O  O961  1  0.271610  0.033560  0.540540  1.0  -0.5751
  O  O962  1  0.584460  0.342370  0.858950  1.0  -0.5694
  O  O963  1  0.745530  0.430070  0.833590  1.0  -0.5877
  O  O964  1  0.604880  0.376580  0.971360  1.0  -0.5893
  O  O965  1  0.851950  0.419090  0.891730  1.0  -0.5902
  O  O966  1  0.812040  0.531450  0.979810  1.0  -0.5811
  O  O967  1  0.663930  0.515890  0.881070  1.0  -0.5924
  O  O968  1  0.266550  0.371760  0.031240  1.0  -0.5635
  O  O969  1  0.517790  0.317490  0.951670  1.0  -0.5884
  O  O970  1  0.345710  0.466440  0.959460  1.0  -0.5779
  O  O971  1  0.926830  0.358950  0.657630  1.0  -0.5703
  O  O972  1  0.175600  0.333590  0.569930  1.0  -0.5877
  O  O973  1  0.981460  0.471360  0.623420  1.0  -0.5888
  O  O974  1  0.271040  0.391730  0.580910  1.0  -0.5886
  O  O975  1  0.343490  0.479810  0.468550  1.0  -0.5825
  O  O976  1  0.179820  0.381070  0.484110  1.0  -0.5907
  O  O977  1  0.638310  0.531240  0.628240  1.0  -0.5698
  O  O978  1  0.835280  0.451670  0.682510  1.0  -0.5913
  O  O979  1  0.812150  0.459460  0.533560  1.0  -0.5767
  O  O980  1  0.443410  0.141050  0.842370  1.0  -0.5681
  O  O981  1  0.579120  0.166410  0.930070  1.0  -0.5877
  O  O982  1  0.576240  0.028640  0.876580  1.0  -0.591
  O  O983  1  0.743680  0.108270  0.919090  1.0  -0.5884
  O  O984  1  0.791850  0.020190  0.031450  1.0  -0.5858
  O  O985  1  0.545000  0.118930  0.015890  1.0  -0.5927
  O  O986  1  0.297790  0.968760  0.871760  1.0  -0.5669
  O  O987  1  0.469460  0.048330  0.817490  1.0  -0.5874
  O  O988  1  0.305170  0.040540  0.966440  1.0  -0.5773
  O  O989  1  0.714220  0.842370  0.358950  1.0  -0.569
  O  O990  1  0.490810  0.930070  0.333590  1.0  -0.5876
  O  O991  1  0.547180  0.876580  0.471360  1.0  -0.5883
  O  O992  1  0.337230  0.919090  0.391730  1.0  -0.5877
  O  O993  1  0.176700  0.031450  0.479810  1.0  -0.5807
  O  O994  1  0.439110  0.015890  0.381070  1.0  -0.5929
  O  O995  1  0.830450  0.871760  0.531240  1.0  -0.5624
  O  O996  1  0.713050  0.817490  0.451670  1.0  -0.5906
  O  O997  1  0.728390  0.966440  0.459460  1.0  -0.5758
  O  O998  1  0.415540  0.657630  0.141050  1.0  -0.5697
  O  O999  1  0.254470  0.569930  0.166410  1.0  -0.5859
  O  O1000  1  0.395120  0.623420  0.028640  1.0  -0.5899
  O  O1001  1  0.148050  0.580910  0.108270  1.0  -0.5878
  O  O1002  1  0.187960  0.468550  0.020190  1.0  -0.581
  O  O1003  1  0.336070  0.484110  0.118930  1.0  -0.5918
  O  O1004  1  0.733450  0.628240  0.968760  1.0  -0.5627
  O  O1005  1  0.482210  0.682510  0.048330  1.0  -0.5896
  O  O1006  1  0.654290  0.533560  0.040540  1.0  -0.5736
  O  O1007  1  0.073170  0.641050  0.342370  1.0  -0.5695
  O  O1008  1  0.824400  0.666410  0.430070  1.0  -0.5864
  O  O1009  1  0.018540  0.528640  0.376580  1.0  -0.5895
  O  O1010  1  0.728960  0.608270  0.419090  1.0  -0.5882
  O  O1011  1  0.656510  0.520190  0.531450  1.0  -0.5816
  O  O1012  1  0.820180  0.618930  0.515890  1.0  -0.5928
  O  O1013  1  0.361690  0.468760  0.371760  1.0  -0.5683
  O  O1014  1  0.164720  0.548330  0.317490  1.0  -0.5919
  O  O1015  1  0.187850  0.540540  0.466440  1.0  -0.5754
  O  O1016  1  0.556590  0.858950  0.157630  1.0  -0.5701
  O  O1017  1  0.420880  0.833590  0.069930  1.0  -0.5869
  O  O1018  1  0.423760  0.971360  0.123420  1.0  -0.5898
  O  O1019  1  0.256320  0.891730  0.080910  1.0  -0.589
  O  O1020  1  0.208150  0.979810  0.968550  1.0  -0.5832
  O  O1021  1  0.455000  0.881070  0.984110  1.0  -0.5915
  O  O1022  1  0.702210  0.031240  0.128240  1.0  -0.5642
  O  O1023  1  0.530540  0.951670  0.182510  1.0  -0.5896
  O  O1024  1  0.694830  0.959460  0.033560  1.0  -0.5741
