# generated using pymatgen
data_Mn3H57C51N8O9
_symmetry_space_group_name_H-M   'P 1'
_cell_length_a   17.49930000
_cell_length_b   30.19700000
_cell_length_c   30.19700000
_cell_angle_alpha   85.18390000
_cell_angle_beta   73.15680000
_cell_angle_gamma   73.15680000
_symmetry_Int_Tables_number   1
_chemical_formula_structural   Mn3H57C51N8O9
_chemical_formula_sum   'Mn24 H456 C408 N64 O72'
_cell_volume   14617.19656877
_cell_formula_units_Z   8
loop_
 _symmetry_equiv_pos_site_id
 _symmetry_equiv_pos_as_xyz
  1  'x, y, z'
loop_
 _atom_site_type_symbol
 _atom_site_label
 _atom_site_symmetry_multiplicity
 _atom_site_fract_x
 _atom_site_fract_y
 _atom_site_fract_z
 _atom_site_occupancy
 _atom_site_charge
  Mn  Mn1  1  0.852650  0.882690  0.034660  1.0  0.9995
  Mn  Mn2  1  0.798440  0.003080  0.920260  1.0  0.9733
  Mn  Mn3  1  0.989100  0.916500  0.142540  1.0  0.9527
  Mn  Mn4  1  0.270010  0.617310  0.465330  1.0  1.0029
  Mn  Mn5  1  0.221780  0.496920  0.579740  1.0  0.9709
  Mn  Mn6  1  0.548140  0.583500  0.357460  1.0  0.9536
  Mn  Mn7  1  0.887310  0.965340  0.382690  1.0  1.0
  Mn  Mn8  1  0.718700  0.079740  0.503080  1.0  0.975
  Mn  Mn9  1  0.131640  0.857460  0.416500  1.0  0.9494
  Mn  Mn10  1  0.735340  0.534660  0.117320  1.0  1.0028
  Mn  Mn11  1  0.801520  0.420260  0.996920  1.0  0.976
  Mn  Mn12  1  0.905600  0.642540  0.083500  1.0  0.9522
  Mn  Mn13  1  0.147350  0.117310  0.965330  1.0  1.0038
  Mn  Mn14  1  0.201560  0.996920  0.079740  1.0  0.9743
  Mn  Mn15  1  0.010900  0.083500  0.857460  1.0  0.9574
  Mn  Mn16  1  0.729990  0.382690  0.534670  1.0  0.9992
  Mn  Mn17  1  0.778220  0.503080  0.420260  1.0  0.971
  Mn  Mn18  1  0.451860  0.416500  0.642540  1.0  0.9546
  Mn  Mn19  1  0.112690  0.034660  0.617310  1.0  1.0006
  Mn  Mn20  1  0.281300  0.920260  0.496920  1.0  0.9732
  Mn  Mn21  1  0.868360  0.142540  0.583500  1.0  0.9533
  Mn  Mn22  1  0.264650  0.465340  0.882690  1.0  1.0035
  Mn  Mn23  1  0.198480  0.579740  0.003080  1.0  0.9742
  Mn  Mn24  1  0.094400  0.357460  0.916500  1.0  0.9503
  H  H25  1  0.614200  0.902500  0.141900  1.0  0.1141
  H  H26  1  0.482500  0.945100  0.141100  1.0  0.0908
  H  H27  1  0.457800  0.988700  0.076500  1.0  0.1133
  H  H28  1  0.569900  0.992100  0.013700  1.0  0.0925
  H  H29  1  0.991500  0.944400  0.894000  1.0  0.1072
  H  H30  1  0.051100  0.926500  0.927100  1.0  0.101
  H  H31  1  0.071500  0.848700  0.905500  1.0  0.0869
  H  H32  1  0.105400  0.879000  0.862400  1.0  0.0978
  H  H33  1  0.981900  0.889100  0.839900  1.0  0.0821
  H  H34  1  0.950200  0.857500  0.882300  1.0  0.0736
  H  H35  1  0.093000  0.825000  0.805800  1.0  0.0803
  H  H36  1  0.062800  0.793300  0.848500  1.0  0.0794
  H  H37  1  0.937000  0.803800  0.827200  1.0  0.1153
  H  H38  1  0.971900  0.832800  0.783000  1.0  0.1202
  H  H39  1  0.017000  0.779000  0.787000  1.0  0.1171
  H  H40  1  0.788700  0.928600  0.805800  1.0  0.1071
  H  H41  1  0.852600  0.929500  0.727100  1.0  0.1058
  H  H42  1  0.940800  0.976000  0.697600  1.0  0.1097
  H  H43  1  0.973400  0.016800  0.747600  1.0  0.0928
  H  H44  1  0.877000  0.082100  0.008900  1.0  0.0951
  H  H45  1  0.917400  0.109700  0.964900  1.0  0.0964
  H  H46  1  0.792800  0.157600  0.016600  1.0  0.0824
  H  H47  1  0.741100  0.127400  0.003400  1.0  0.0825
  H  H48  1  0.831100  0.181300  0.938300  1.0  0.0595
  H  H49  1  0.777900  0.151700  0.925700  1.0  0.0732
  H  H50  1  0.707400  0.231400  0.985200  1.0  0.0863
  H  H51  1  0.653700  0.201500  0.973500  1.0  0.0766
  H  H52  1  0.697500  0.222700  0.895100  1.0  0.0997
  H  H53  1  0.640600  0.265400  0.928600  1.0  0.0923
  H  H54  1  0.739200  0.257000  0.911000  1.0  0.0889
  H  H55  1  0.645300  0.074400  0.978600  1.0  0.0823
  H  H56  1  0.543800  0.143000  0.975800  1.0  0.1243
  H  H57  1  0.616400  0.132400  0.837800  1.0  0.1131
  H  H58  1  0.718100  0.066000  0.843800  1.0  0.0772
  H  H59  1  0.516300  0.204500  0.873500  1.0  0.0694
  H  H60  1  0.499600  0.212100  0.927700  1.0  0.0713
  H  H61  1  0.120600  0.784900  0.189100  1.0  0.1069
  H  H62  1  0.114800  0.710200  0.180800  1.0  0.1025
  H  H63  1  0.037600  0.695900  0.135100  1.0  0.1168
  H  H64  1  0.967200  0.756900  0.097700  1.0  0.0894
  H  H65  1  0.821700  0.994100  0.045100  1.0  0.0878
  H  H66  1  0.855200  0.029200  0.066200  1.0  0.1009
  H  H67  1  0.749800  0.030200  0.139200  1.0  0.0816
  H  H68  1  0.717500  0.993600  0.119200  1.0  0.0961
  H  H69  1  0.702400  0.088800  0.089000  1.0  0.0667
  H  H70  1  0.688400  0.052900  0.058300  1.0  0.065
  H  H71  1  0.593300  0.081500  0.146700  1.0  0.0883
  H  H72  1  0.580400  0.043400  0.117600  1.0  0.0737
  H  H73  1  0.585400  0.126600  0.064600  1.0  0.0971
  H  H74  1  0.508300  0.136200  0.110200  1.0  0.1127
  H  H75  1  0.516100  0.099600  0.072600  1.0  0.1131
  H  H76  1  0.161500  0.247200  0.907600  1.0  0.0798
  H  H77  1  0.276800  0.185500  0.906500  1.0  0.1104
  H  H78  1  0.399000  0.276700  0.917300  1.0  0.121
  H  H79  1  0.281000  0.335400  0.917600  1.0  0.0677
  H  H80  1  0.431000  0.160900  0.889100  1.0  0.0743
  H  H81  1  0.415300  0.167400  0.943000  1.0  0.0978
  H  H82  1  0.158600  0.597500  0.358100  1.0  0.1149
  H  H83  1  0.068700  0.554900  0.358900  1.0  0.0914
  H  H84  1  0.023000  0.511300  0.423500  1.0  0.114
  H  H85  1  0.075700  0.507900  0.486300  1.0  0.0913
  H  H86  1  0.329900  0.555600  0.606000  1.0  0.1075
  H  H87  1  0.404700  0.573500  0.572900  1.0  0.0994
  H  H88  1  0.325700  0.651300  0.594500  1.0  0.0881
  H  H89  1  0.346800  0.621000  0.637600  1.0  0.0973
  H  H90  1  0.210900  0.610900  0.660100  1.0  0.0831
  H  H91  1  0.190000  0.642500  0.617700  1.0  0.0724
  H  H92  1  0.223800  0.675000  0.694200  1.0  0.0827
  H  H93  1  0.204600  0.706700  0.651500  1.0  0.0806
  H  H94  1  0.068000  0.696200  0.672800  1.0  0.1157
  H  H95  1  0.087700  0.667200  0.717000  1.0  0.1174
  H  H96  1  0.083000  0.721000  0.713000  1.0  0.1168
  H  H97  1  0.023100  0.571400  0.694200  1.0  0.1074
  H  H98  1  0.009200  0.570500  0.772900  1.0  0.1058
  H  H99  1  0.114400  0.524000  0.802400  1.0  0.1092
  H  H100  1  0.237800  0.483200  0.752400  1.0  0.092
  H  H101  1  0.468000  0.417900  0.491100  1.0  0.0949
  H  H102  1  0.492000  0.390300  0.535100  1.0  0.0968
  H  H103  1  0.467000  0.342400  0.483400  1.0  0.0808
  H  H104  1  0.371900  0.372600  0.496600  1.0  0.0851
  H  H105  1  0.450700  0.318700  0.561700  1.0  0.0627
  H  H106  1  0.355300  0.348300  0.574300  1.0  0.0731
  H  H107  1  0.424000  0.268600  0.514800  1.0  0.0868
  H  H108  1  0.328700  0.298500  0.526500  1.0  0.0818
  H  H109  1  0.315300  0.277300  0.604900  1.0  0.1009
  H  H110  1  0.334600  0.234600  0.571400  1.0  0.0896
  H  H111  1  0.407200  0.243000  0.589000  1.0  0.0897
  H  H112  1  0.198300  0.425600  0.521400  1.0  0.0806
  H  H113  1  0.162600  0.357000  0.524200  1.0  0.1243
  H  H114  1  0.086600  0.367600  0.662200  1.0  0.1121
  H  H115  1  0.127900  0.434000  0.656200  1.0  0.0777
  H  H116  1  0.094300  0.295500  0.626500  1.0  0.0708
  H  H117  1  0.139400  0.287900  0.572300  1.0  0.0726
  H  H118  1  0.594600  0.715100  0.310900  1.0  0.106
  H  H119  1  0.505800  0.789800  0.319200  1.0  0.1027
  H  H120  1  0.368600  0.804100  0.364900  1.0  0.1163
  H  H121  1  0.321800  0.743100  0.402300  1.0  0.0887
  H  H122  1  0.360900  0.505900  0.454900  1.0  0.0895
  H  H123  1  0.450600  0.470800  0.433800  1.0  0.099
  H  H124  1  0.419200  0.469800  0.360800  1.0  0.0829
  H  H125  1  0.330300  0.506400  0.380800  1.0  0.0951
  H  H126  1  0.380200  0.411200  0.411000  1.0  0.0658
  H  H127  1  0.299600  0.447100  0.441700  1.0  0.0629
  H  H128  1  0.321500  0.418500  0.353300  1.0  0.0884
  H  H129  1  0.241400  0.456600  0.382400  1.0  0.0731
  H  H130  1  0.276600  0.373400  0.435400  1.0  0.0985
  H  H131  1  0.254700  0.363800  0.389800  1.0  0.1141
  H  H132  1  0.188300  0.400400  0.427400  1.0  0.1141
  H  H133  1  0.816300  0.252800  0.592400  1.0  0.0802
  H  H134  1  0.868800  0.314500  0.593500  1.0  0.1103
  H  H135  1  0.093000  0.223300  0.582700  1.0  0.1214
  H  H136  1  0.034000  0.164600  0.582400  1.0  0.0676
  H  H137  1  0.981000  0.339100  0.610900  1.0  0.076
  H  H138  1  0.025700  0.332600  0.557000  1.0  0.0997
  H  H139  1  0.756100  0.858100  0.402500  1.0  0.1149
  H  H140  1  0.623600  0.858900  0.445100  1.0  0.0912
  H  H141  1  0.534300  0.923500  0.488700  1.0  0.1128
  H  H142  1  0.583600  0.986300  0.492100  1.0  0.0915
  H  H143  1  0.885500  0.106000  0.444400  1.0  0.1039
  H  H144  1  0.978200  0.072900  0.426500  1.0  0.1011
  H  H145  1  0.977000  0.094500  0.348700  1.0  0.0868
  H  H146  1  0.967800  0.137600  0.379000  1.0  0.0937
  H  H147  1  0.821800  0.160100  0.389100  1.0  0.0811
  H  H148  1  0.832500  0.117700  0.357500  1.0  0.0716
  H  H149  1  0.898800  0.194200  0.325000  1.0  0.0819
  H  H150  1  0.911300  0.151500  0.293300  1.0  0.0779
  H  H151  1  0.764200  0.172800  0.303800  1.0  0.1136
  H  H152  1  0.754900  0.217000  0.332800  1.0  0.1159
  H  H153  1  0.804000  0.213000  0.279000  1.0  0.1169
  H  H154  1  0.594500  0.194200  0.428600  1.0  0.106
  H  H155  1  0.579700  0.272900  0.429500  1.0  0.1048
  H  H156  1  0.638400  0.302400  0.476000  1.0  0.1102
  H  H157  1  0.721000  0.252400  0.516800  1.0  0.0922
  H  H158  1  0.885900  0.991100  0.582100  1.0  0.0952
  H  H159  1  0.882300  0.035100  0.609700  1.0  0.0966
  H  H160  1  0.809400  0.983400  0.657600  1.0  0.0819
  H  H161  1  0.744500  0.996600  0.627400  1.0  0.084
  H  H162  1  0.769400  0.061700  0.681300  1.0  0.0625
  H  H163  1  0.703600  0.074300  0.651700  1.0  0.0723
  H  H164  1  0.692600  0.014800  0.731400  1.0  0.089
  H  H165  1  0.627200  0.026500  0.701500  1.0  0.0786
  H  H166  1  0.592600  0.104900  0.722700  1.0  0.0996
  H  H167  1  0.569200  0.071400  0.765400  1.0  0.0899
  H  H168  1  0.650200  0.089000  0.757000  1.0  0.0883
  H  H169  1  0.623900  0.021400  0.574400  1.0  0.0803
  H  H170  1  0.519600  0.024200  0.643000  1.0  0.125
  H  H171  1  0.454200  0.162200  0.632400  1.0  0.113
  H  H172  1  0.561900  0.156200  0.566000  1.0  0.0778
  H  H173  1  0.389800  0.126500  0.704500  1.0  0.064
  H  H174  1  0.427300  0.072300  0.712100  1.0  0.0726
  H  H175  1  0.309700  0.810900  0.284900  1.0  0.1057
  H  H176  1  0.295600  0.819200  0.210200  1.0  0.1021
  H  H177  1  0.172700  0.864900  0.195900  1.0  0.1159
  H  H178  1  0.064900  0.902300  0.256900  1.0  0.0891
  H  H179  1  0.866800  0.954900  0.494100  1.0  0.0891
  H  H180  1  0.921400  0.933800  0.529200  1.0  0.1001
  H  H181  1  0.889000  0.860800  0.530200  1.0  0.0832
  H  H182  1  0.836700  0.880800  0.493600  1.0  0.0942
  H  H183  1  0.791400  0.911000  0.588800  1.0  0.0721
  H  H184  1  0.746700  0.941700  0.552900  1.0  0.0626
  H  H185  1  0.740000  0.853300  0.581500  1.0  0.0859
  H  H186  1  0.698000  0.882400  0.543400  1.0  0.0724
  H  H187  1  0.650000  0.935400  0.626600  1.0  0.0996
  H  H188  1  0.618500  0.889800  0.636200  1.0  0.1155
  H  H189  1  0.588700  0.927400  0.599600  1.0  0.1141
  H  H190  1  0.069100  0.092400  0.747200  1.0  0.0791
  H  H191  1  0.183300  0.093500  0.685500  1.0  0.1114
  H  H192  1  0.316300  0.082700  0.776700  1.0  0.1221
  H  H193  1  0.198600  0.082400  0.835400  1.0  0.0688
  H  H194  1  0.320100  0.110900  0.660900  1.0  0.074
  H  H195  1  0.358300  0.057000  0.667400  1.0  0.0916
  H  H196  1  0.516700  0.641900  0.097500  1.0  0.1156
  H  H197  1  0.427600  0.641100  0.054900  1.0  0.0909
  H  H198  1  0.446500  0.576500  0.011300  1.0  0.114
  H  H199  1  0.562000  0.513700  0.007900  1.0  0.0919
  H  H200  1  0.935900  0.394000  0.055600  1.0  0.1034
  H  H201  1  0.977600  0.427100  0.073500  1.0  0.1019
  H  H202  1  0.920200  0.405500  0.151300  1.0  0.0864
  H  H203  1  0.984400  0.362400  0.121000  1.0  0.0952
  H  H204  1  0.871000  0.339900  0.110900  1.0  0.0794
  H  H205  1  0.807700  0.382300  0.142500  1.0  0.0754
  H  H206  1  0.918000  0.305800  0.175000  1.0  0.0813
  H  H207  1  0.856100  0.348500  0.206700  1.0  0.0775
  H  H208  1  0.740800  0.327200  0.196200  1.0  0.1153
  H  H209  1  0.804700  0.283000  0.167200  1.0  0.1193
  H  H210  1  0.796000  0.287000  0.221000  1.0  0.118
  H  H211  1  0.717300  0.305800  0.071400  1.0  0.1076
  H  H212  1  0.782100  0.227100  0.070500  1.0  0.1055
  H  H213  1  0.916800  0.197600  0.024000  1.0  0.1105
  H  H214  1  0.990200  0.247600  0.983200  1.0  0.0937
  H  H215  1  0.959100  0.508900  0.917900  1.0  0.0964
  H  H216  1  0.027100  0.464900  0.890300  1.0  0.0955
  H  H217  1  0.950400  0.516600  0.842400  1.0  0.082
  H  H218  1  0.868500  0.503400  0.872600  1.0  0.0856
  H  H219  1  0.012400  0.438300  0.818700  1.0  0.0613
  H  H220  1  0.929600  0.425700  0.848300  1.0  0.0746
  H  H221  1  0.938800  0.485200  0.768600  1.0  0.0872
  H  H222  1  0.855200  0.473500  0.798500  1.0  0.0736
  H  H223  1  0.920200  0.395100  0.777300  1.0  0.0982
  H  H224  1  0.906000  0.428600  0.734600  1.0  0.0883
  H  H225  1  0.996200  0.411000  0.743000  1.0  0.0877
  H  H226  1  0.719700  0.478600  0.925600  1.0  0.0813
  H  H227  1  0.686800  0.475800  0.857000  1.0  0.1248
  H  H228  1  0.748800  0.337800  0.867600  1.0  0.112
  H  H229  1  0.784100  0.343800  0.934000  1.0  0.0762
  H  H230  1  0.720800  0.373500  0.795500  1.0  0.065
  H  H231  1  0.711700  0.427700  0.787900  1.0  0.0726
  H  H232  1  0.905500  0.689100  0.215100  1.0  0.1066
  H  H233  1  0.825000  0.680800  0.289800  1.0  0.1027
  H  H234  1  0.733500  0.635100  0.304100  1.0  0.1149
  H  H235  1  0.724100  0.597700  0.243100  1.0  0.0883
  H  H236  1  0.815800  0.545100  0.005900  1.0  0.0904
  H  H237  1  0.884400  0.566200  0.970800  1.0  0.102
  H  H238  1  0.780000  0.639200  0.969800  1.0  0.0852
  H  H239  1  0.711100  0.619200  0.006400  1.0  0.0945
  H  H240  1  0.791200  0.589000  0.911200  1.0  0.0602
  H  H241  1  0.741300  0.558300  0.947100  1.0  0.0593
  H  H242  1  0.674800  0.646700  0.918500  1.0  0.0882
  H  H243  1  0.623800  0.617600  0.956600  1.0  0.0706
  H  H244  1  0.712000  0.564600  0.873400  1.0  0.0978
  H  H245  1  0.644500  0.610200  0.863800  1.0  0.1128
  H  H246  1  0.615700  0.572600  0.900400  1.0  0.1146
  H  H247  1  0.408700  0.407600  0.752800  1.0  0.0797
  H  H248  1  0.462300  0.406500  0.814500  1.0  0.1101
  H  H249  1  0.675700  0.417300  0.723300  1.0  0.1229
  H  H250  1  0.616400  0.417600  0.664600  1.0  0.0682
  H  H251  1  0.591900  0.389100  0.839100  1.0  0.0747
  H  H252  1  0.582700  0.443000  0.832600  1.0  0.0936
  H  H253  1  0.385800  0.097500  0.858100  1.0  0.1148
  H  H254  1  0.517500  0.054900  0.858900  1.0  0.0912
  H  H255  1  0.542200  0.011300  0.923500  1.0  0.1137
  H  H256  1  0.430100  0.007900  0.986300  1.0  0.0927
  H  H257  1  0.008500  0.055600  0.106000  1.0  0.1074
  H  H258  1  0.948900  0.073500  0.072900  1.0  0.1014
  H  H259  1  0.928500  0.151300  0.094500  1.0  0.0878
  H  H260  1  0.894600  0.121000  0.137600  1.0  0.0973
  H  H261  1  0.018100  0.110900  0.160100  1.0  0.0824
  H  H262  1  0.049800  0.142500  0.117700  1.0  0.0729
  H  H263  1  0.907000  0.175000  0.194200  1.0  0.08
  H  H264  1  0.937200  0.206700  0.151500  1.0  0.0801
  H  H265  1  0.063000  0.196200  0.172800  1.0  0.1195
  H  H266  1  0.028100  0.167200  0.217000  1.0  0.1185
  H  H267  1  0.983000  0.221000  0.213000  1.0  0.1172
  H  H268  1  0.211300  0.071400  0.194200  1.0  0.1077
  H  H269  1  0.147400  0.070500  0.272900  1.0  0.1058
  H  H270  1  0.059200  0.024000  0.302400  1.0  0.1101
  H  H271  1  0.026600  0.983200  0.252400  1.0  0.0922
  H  H272  1  0.123000  0.917900  0.991100  1.0  0.0953
  H  H273  1  0.082600  0.890300  0.035100  1.0  0.0954
  H  H274  1  0.207200  0.842400  0.983400  1.0  0.0809
  H  H275  1  0.258900  0.872600  0.996600  1.0  0.0863
  H  H276  1  0.168900  0.818700  0.061700  1.0  0.0611
  H  H277  1  0.222100  0.848300  0.074300  1.0  0.0727
  H  H278  1  0.292600  0.768600  0.014800  1.0  0.0884
  H  H279  1  0.346300  0.798500  0.026500  1.0  0.0782
  H  H280  1  0.302500  0.777300  0.104900  1.0  0.1003
  H  H281  1  0.359400  0.734600  0.071400  1.0  0.0904
  H  H282  1  0.260800  0.743000  0.089000  1.0  0.0881
  H  H283  1  0.354700  0.925600  0.021400  1.0  0.0821
  H  H284  1  0.456200  0.857000  0.024200  1.0  0.1252
  H  H285  1  0.383600  0.867600  0.162200  1.0  0.1122
  H  H286  1  0.281900  0.934000  0.156200  1.0  0.0775
  H  H287  1  0.483700  0.795500  0.126500  1.0  0.0699
  H  H288  1  0.500400  0.787900  0.072300  1.0  0.0725
  H  H289  1  0.879400  0.215100  0.810900  1.0  0.1062
  H  H290  1  0.885200  0.289800  0.819200  1.0  0.1022
  H  H291  1  0.962400  0.304100  0.864900  1.0  0.1163
  H  H292  1  0.032800  0.243100  0.902300  1.0  0.0896
  H  H293  1  0.178300  0.005900  0.954900  1.0  0.088
  H  H294  1  0.144800  0.970800  0.933800  1.0  0.1007
  H  H295  1  0.250200  0.969800  0.860800  1.0  0.0821
  H  H296  1  0.282500  0.006400  0.880800  1.0  0.0947
  H  H297  1  0.297600  0.911200  0.911000  1.0  0.0695
  H  H298  1  0.311600  0.947100  0.941700  1.0  0.0652
  H  H299  1  0.406700  0.918500  0.853300  1.0  0.0919
  H  H300  1  0.419600  0.956600  0.882400  1.0  0.0738
  H  H301  1  0.414600  0.873400  0.935400  1.0  0.0976
  H  H302  1  0.491700  0.863800  0.889800  1.0  0.1147
  H  H303  1  0.483900  0.900400  0.927400  1.0  0.1145
  H  H304  1  0.838500  0.752800  0.092400  1.0  0.0791
  H  H305  1  0.723200  0.814500  0.093500  1.0  0.1099
  H  H306  1  0.601000  0.723300  0.082700  1.0  0.1211
  H  H307  1  0.719000  0.664600  0.082400  1.0  0.0678
  H  H308  1  0.569000  0.839100  0.110900  1.0  0.0738
  H  H309  1  0.584700  0.832600  0.057000  1.0  0.0987
  H  H310  1  0.841400  0.402500  0.641900  1.0  0.1149
  H  H311  1  0.931300  0.445100  0.641100  1.0  0.0908
  H  H312  1  0.977000  0.488700  0.576500  1.0  0.1133
  H  H313  1  0.924300  0.492100  0.513700  1.0  0.0913
  H  H314  1  0.670100  0.444400  0.394000  1.0  0.1071
  H  H315  1  0.595300  0.426500  0.427100  1.0  0.1007
  H  H316  1  0.674300  0.348700  0.405500  1.0  0.0873
  H  H317  1  0.653200  0.379000  0.362400  1.0  0.0981
  H  H318  1  0.789100  0.389100  0.339900  1.0  0.0823
  H  H319  1  0.810000  0.357500  0.382300  1.0  0.0732
  H  H320  1  0.776200  0.325000  0.305800  1.0  0.0835
  H  H321  1  0.795400  0.293300  0.348500  1.0  0.0801
  H  H322  1  0.932000  0.303800  0.327200  1.0  0.1172
  H  H323  1  0.912300  0.332800  0.283000  1.0  0.1181
  H  H324  1  0.917000  0.279000  0.287000  1.0  0.118
  H  H325  1  0.976900  0.428600  0.305800  1.0  0.1073
  H  H326  1  0.990800  0.429500  0.227100  1.0  0.1055
  H  H327  1  0.885600  0.476000  0.197600  1.0  0.1098
  H  H328  1  0.762200  0.516800  0.247600  1.0  0.0907
  H  H329  1  0.532000  0.582100  0.508900  1.0  0.0948
  H  H330  1  0.508000  0.609700  0.464900  1.0  0.0966
  H  H331  1  0.533000  0.657600  0.516600  1.0  0.0814
  H  H332  1  0.628100  0.627400  0.503400  1.0  0.0845
  H  H333  1  0.549300  0.681300  0.438300  1.0  0.0632
  H  H334  1  0.644700  0.651700  0.425700  1.0  0.0731
  H  H335  1  0.576000  0.731400  0.485200  1.0  0.0883
  H  H336  1  0.671300  0.701500  0.473500  1.0  0.0824
  H  H337  1  0.684700  0.722700  0.395100  1.0  0.1008
  H  H338  1  0.665400  0.765400  0.428600  1.0  0.0897
  H  H339  1  0.592800  0.757000  0.411000  1.0  0.09
  H  H340  1  0.801700  0.574400  0.478600  1.0  0.0814
  H  H341  1  0.837400  0.643000  0.475800  1.0  0.1224
  H  H342  1  0.913400  0.632400  0.337800  1.0  0.1116
  H  H343  1  0.872100  0.566000  0.343800  1.0  0.0779
  H  H344  1  0.905700  0.704500  0.373500  1.0  0.0693
  H  H345  1  0.860600  0.712100  0.427700  1.0  0.0716
  H  H346  1  0.405400  0.284900  0.689100  1.0  0.1064
  H  H347  1  0.494200  0.210200  0.680800  1.0  0.1025
  H  H348  1  0.631400  0.195900  0.635100  1.0  0.1164
  H  H349  1  0.678200  0.256900  0.597700  1.0  0.0889
  H  H350  1  0.639100  0.494100  0.545100  1.0  0.0886
  H  H351  1  0.549400  0.529200  0.566200  1.0  0.0993
  H  H352  1  0.580800  0.530200  0.639200  1.0  0.0842
  H  H353  1  0.669700  0.493600  0.619200  1.0  0.0959
  H  H354  1  0.619800  0.588800  0.589000  1.0  0.0664
  H  H355  1  0.700400  0.552900  0.558300  1.0  0.0628
  H  H356  1  0.678500  0.581500  0.646700  1.0  0.0881
  H  H357  1  0.758600  0.543400  0.617600  1.0  0.0727
  H  H358  1  0.723400  0.626600  0.564600  1.0  0.099
  H  H359  1  0.745300  0.636200  0.610200  1.0  0.1136
  H  H360  1  0.811700  0.599600  0.572600  1.0  0.1128
  H  H361  1  0.183700  0.747200  0.407600  1.0  0.0792
  H  H362  1  0.131200  0.685500  0.406500  1.0  0.1103
  H  H363  1  0.907000  0.776700  0.417300  1.0  0.1207
  H  H364  1  0.966000  0.835400  0.417600  1.0  0.0674
  H  H365  1  0.019000  0.660900  0.389100  1.0  0.0764
  H  H366  1  0.974300  0.667400  0.443000  1.0  0.0997
  H  H367  1  0.243900  0.141900  0.597500  1.0  0.1156
  H  H368  1  0.376400  0.141100  0.554900  1.0  0.0921
  H  H369  1  0.465700  0.076500  0.511300  1.0  0.1126
  H  H370  1  0.416400  0.013700  0.507900  1.0  0.0912
  H  H371  1  0.114500  0.894000  0.555600  1.0  0.1047
  H  H372  1  0.021800  0.927100  0.573500  1.0  0.1016
  H  H373  1  0.023000  0.905500  0.651300  1.0  0.0871
  H  H374  1  0.032200  0.862400  0.621000  1.0  0.0951
  H  H375  1  0.178200  0.839900  0.610900  1.0  0.0788
  H  H376  1  0.167500  0.882300  0.642500  1.0  0.0736
  H  H377  1  0.101200  0.805800  0.675000  1.0  0.0827
  H  H378  1  0.088700  0.848500  0.706700  1.0  0.0784
  H  H379  1  0.235800  0.827200  0.696200  1.0  0.116
  H  H380  1  0.245100  0.783000  0.667200  1.0  0.1152
  H  H381  1  0.196000  0.787000  0.721000  1.0  0.1181
  H  H382  1  0.405500  0.805800  0.571400  1.0  0.1074
  H  H383  1  0.420300  0.727100  0.570500  1.0  0.106
  H  H384  1  0.361600  0.697600  0.524000  1.0  0.1103
  H  H385  1  0.279000  0.747600  0.483200  1.0  0.0911
  H  H386  1  0.114100  0.008900  0.417900  1.0  0.0951
  H  H387  1  0.117700  0.964900  0.390300  1.0  0.0974
  H  H388  1  0.190600  0.016600  0.342400  1.0  0.0823
  H  H389  1  0.255500  0.003400  0.372600  1.0  0.0843
  H  H390  1  0.230600  0.938300  0.318700  1.0  0.062
  H  H391  1  0.296400  0.925700  0.348300  1.0  0.0732
  H  H392  1  0.307400  0.985200  0.268600  1.0  0.0895
  H  H393  1  0.372800  0.973500  0.298500  1.0  0.081
  H  H394  1  0.407400  0.895100  0.277300  1.0  0.0993
  H  H395  1  0.430800  0.928600  0.234600  1.0  0.0921
  H  H396  1  0.349800  0.911000  0.243000  1.0  0.0883
  H  H397  1  0.376100  0.978600  0.425600  1.0  0.0811
  H  H398  1  0.480400  0.975800  0.357000  1.0  0.1254
  H  H399  1  0.545800  0.837800  0.367600  1.0  0.1121
  H  H400  1  0.438100  0.843800  0.434000  1.0  0.0778
  H  H401  1  0.610200  0.873500  0.295500  1.0  0.0651
  H  H402  1  0.572700  0.927700  0.287900  1.0  0.074
  H  H403  1  0.690300  0.189100  0.715100  1.0  0.1071
  H  H404  1  0.704400  0.180800  0.789800  1.0  0.1021
  H  H405  1  0.827300  0.135100  0.804100  1.0  0.1164
  H  H406  1  0.935100  0.097700  0.743100  1.0  0.089
  H  H407  1  0.133200  0.045100  0.505900  1.0  0.09
  H  H408  1  0.078600  0.066200  0.470800  1.0  0.0999
  H  H409  1  0.111000  0.139200  0.469800  1.0  0.0855
  H  H410  1  0.163300  0.119200  0.506400  1.0  0.0934
  H  H411  1  0.208600  0.089000  0.411200  1.0  0.071
  H  H412  1  0.253300  0.058300  0.447100  1.0  0.0603
  H  H413  1  0.260000  0.146700  0.418500  1.0  0.0871
  H  H414  1  0.302000  0.117600  0.456600  1.0  0.0702
  H  H415  1  0.350000  0.064600  0.373400  1.0  0.1014
  H  H416  1  0.381500  0.110200  0.363800  1.0  0.1151
  H  H417  1  0.411300  0.072600  0.400400  1.0  0.1154
  H  H418  1  0.930900  0.907600  0.252800  1.0  0.0789
  H  H419  1  0.816700  0.906500  0.314500  1.0  0.1111
  H  H420  1  0.683700  0.917300  0.223300  1.0  0.1214
  H  H421  1  0.801400  0.917600  0.164600  1.0  0.0701
  H  H422  1  0.679900  0.889100  0.339100  1.0  0.0758
  H  H423  1  0.641700  0.943000  0.332600  1.0  0.0928
  H  H424  1  0.483300  0.358100  0.902500  1.0  0.1154
  H  H425  1  0.572400  0.358900  0.945100  1.0  0.0911
  H  H426  1  0.553500  0.423500  0.988700  1.0  0.1143
  H  H427  1  0.438000  0.486300  0.992100  1.0  0.0915
  H  H428  1  0.064100  0.606000  0.944400  1.0  0.1032
  H  H429  1  0.022400  0.572900  0.926500  1.0  0.1006
  H  H430  1  0.079800  0.594500  0.848700  1.0  0.0859
  H  H431  1  0.015600  0.637600  0.879000  1.0  0.0941
  H  H432  1  0.129000  0.660100  0.889100  1.0  0.0807
  H  H433  1  0.192300  0.617700  0.857500  1.0  0.075
  H  H434  1  0.082000  0.694200  0.825000  1.0  0.0804
  H  H435  1  0.143900  0.651500  0.793300  1.0  0.0772
  H  H436  1  0.259200  0.672800  0.803800  1.0  0.1199
  H  H437  1  0.195300  0.717000  0.832800  1.0  0.1187
  H  H438  1  0.204000  0.713000  0.779000  1.0  0.1187
  H  H439  1  0.282700  0.694200  0.928600  1.0  0.1065
  H  H440  1  0.217900  0.772900  0.929500  1.0  0.1056
  H  H441  1  0.083200  0.802400  0.976000  1.0  0.1103
  H  H442  1  0.009800  0.752400  0.016800  1.0  0.0922
  H  H443  1  0.040900  0.491100  0.082100  1.0  0.0955
  H  H444  1  0.972900  0.535100  0.109700  1.0  0.0954
  H  H445  1  0.049600  0.483400  0.157600  1.0  0.0816
  H  H446  1  0.131500  0.496600  0.127400  1.0  0.0879
  H  H447  1  0.987600  0.561700  0.181300  1.0  0.0626
  H  H448  1  0.070400  0.574300  0.151700  1.0  0.0729
  H  H449  1  0.061200  0.514800  0.231400  1.0  0.0893
  H  H450  1  0.144800  0.526500  0.201500  1.0  0.0743
  H  H451  1  0.079800  0.604900  0.222700  1.0  0.1008
  H  H452  1  0.094000  0.571400  0.265400  1.0  0.0901
  H  H453  1  0.003800  0.589000  0.257000  1.0  0.0861
  H  H454  1  0.280300  0.521400  0.074400  1.0  0.0813
  H  H455  1  0.313200  0.524200  0.143000  1.0  0.1245
  H  H456  1  0.251200  0.662200  0.132400  1.0  0.1125
  H  H457  1  0.215900  0.656200  0.066000  1.0  0.0764
  H  H458  1  0.279200  0.626500  0.204500  1.0  0.0636
  H  H459  1  0.288300  0.572300  0.212100  1.0  0.0729
  H  H460  1  0.094500  0.310900  0.784900  1.0  0.1062
  H  H461  1  0.175000  0.319200  0.710200  1.0  0.1018
  H  H462  1  0.266500  0.364900  0.695900  1.0  0.1133
  H  H463  1  0.275900  0.402300  0.756900  1.0  0.088
  H  H464  1  0.184200  0.454900  0.994100  1.0  0.0894
  H  H465  1  0.115600  0.433800  0.029200  1.0  0.1018
  H  H466  1  0.220000  0.360800  0.030200  1.0  0.0823
  H  H467  1  0.288900  0.380800  0.993600  1.0  0.0949
  H  H468  1  0.208800  0.411000  0.088800  1.0  0.0612
  H  H469  1  0.258700  0.441700  0.052900  1.0  0.0637
  H  H470  1  0.325200  0.353300  0.081500  1.0  0.0869
  H  H471  1  0.376200  0.382400  0.043400  1.0  0.0694
  H  H472  1  0.288000  0.435400  0.126600  1.0  0.0971
  H  H473  1  0.355500  0.389800  0.136200  1.0  0.1155
  H  H474  1  0.384300  0.427400  0.099600  1.0  0.1144
  H  H475  1  0.591300  0.592400  0.247200  1.0  0.079
  H  H476  1  0.537700  0.593500  0.185500  1.0  0.1105
  H  H477  1  0.324300  0.582700  0.276700  1.0  0.1212
  H  H478  1  0.383600  0.582400  0.335400  1.0  0.0685
  H  H479  1  0.408100  0.610900  0.160900  1.0  0.0743
  H  H480  1  0.417300  0.557000  0.167400  1.0  0.0906
  C  C481  1  0.674580  0.919460  0.076180  1.0  0.2791
  C  C482  1  0.605880  0.920020  0.115220  1.0  -0.1755
  C  C483  1  0.527790  0.945510  0.114710  1.0  -0.1085
  C  C484  1  0.512760  0.971980  0.076700  1.0  -0.114
  C  C485  1  0.579340  0.973310  0.039410  1.0  -0.0714
  C  C486  1  0.659840  0.948150  0.038170  1.0  -0.1464
  C  C487  1  0.726990  0.953900  0.997940  1.0  0.5491
  C  C488  1  0.937930  0.913170  0.953030  1.0  0.5316
  C  C489  1  0.010860  0.918520  0.914160  1.0  -0.3128
  C  C490  1  0.054490  0.874750  0.885070  1.0  -0.084
  C  C491  1  0.000330  0.862520  0.859420  1.0  -0.0893
  C  C492  1  0.043480  0.819870  0.829170  1.0  -0.0754
  C  C493  1  0.987240  0.807770  0.804350  1.0  -0.3271
  C  C494  1  0.841830  0.972940  0.825000  1.0  0.335
  C  C495  1  0.825980  0.946990  0.794250  1.0  -0.2222
  C  C496  1  0.863530  0.947670  0.747470  1.0  -0.1123
  C  C497  1  0.916720  0.974500  0.730060  1.0  -0.1159
  C  C498  1  0.934990  0.999230  0.759790  1.0  -0.0315
  C  C499  1  0.898820  0.999270  0.807290  1.0  -0.1628
  C  C500  1  0.921030  0.027300  0.836500  1.0  0.5689
  C  C501  1  0.861210  0.064750  0.948370  1.0  0.5429
  C  C502  1  0.868480  0.098240  0.980000  1.0  -0.3027
  C  C503  1  0.790450  0.139200  0.991700  1.0  -0.0838
  C  C504  1  0.781000  0.170280  0.950320  1.0  -0.1056
  C  C505  1  0.703880  0.212500  0.960940  1.0  -0.0755
  C  C506  1  0.694490  0.241870  0.920550  1.0  -0.3313
  C  C507  1  0.639700  0.086770  0.949430  1.0  0.1602
  C  C508  1  0.578970  0.127710  0.947950  1.0  -0.1773
  C  C509  1  0.569720  0.146220  0.906140  1.0  0.146
  C  C510  1  0.621850  0.121630  0.867470  1.0  -0.2294
  C  C511  1  0.681610  0.081640  0.871340  1.0  0.1771
  C  C512  1  0.502020  0.190120  0.904440  1.0  -0.1093
  C  C513  1  0.045720  0.817420  0.148540  1.0  0.3784
  C  C514  1  0.088610  0.779760  0.170420  1.0  -0.2128
  C  C515  1  0.085320  0.735110  0.165450  1.0  -0.11
  C  C516  1  0.039910  0.726510  0.138470  1.0  -0.1345
  C  C517  1  0.998050  0.762930  0.116570  1.0  -0.0459
  C  C518  1  0.998880  0.808740  0.120840  1.0  -0.1143
  C  C519  1  0.952150  0.845240  0.095860  1.0  0.5658
  C  C520  1  0.886410  0.963160  0.091620  1.0  0.5525
  C  C521  1  0.829570  0.003270  0.073790  1.0  -0.3119
  C  C522  1  0.742520  0.019740  0.110820  1.0  -0.1287
  C  C523  1  0.683200  0.060800  0.090400  1.0  -0.1162
  C  C524  1  0.600500  0.071200  0.115000  1.0  -0.1365
  C  C525  1  0.547200  0.112500  0.087900  1.0  -0.3701
  C  C526  1  0.210850  0.253210  0.909490  1.0  0.1624
  C  C527  1  0.278990  0.216160  0.909260  1.0  -0.2016
  C  C528  1  0.350360  0.224100  0.913180  1.0  0.1226
  C  C529  1  0.350510  0.269630  0.915550  1.0  -0.2627
  C  C530  1  0.280220  0.304360  0.915400  1.0  0.1796
  C  C531  1  0.426720  0.183120  0.912640  1.0  -0.1961
  C  C532  1  0.170220  0.580540  0.423820  1.0  0.2782
  C  C533  1  0.141120  0.579980  0.384780  1.0  -0.1765
  C  C534  1  0.088010  0.554490  0.385290  1.0  -0.1061
  C  C535  1  0.061440  0.528020  0.423300  1.0  -0.1143
  C  C536  1  0.092060  0.526690  0.460590  1.0  -0.0708
  C  C537  1  0.146160  0.551850  0.461830  1.0  -0.146
  C  C538  1  0.178830  0.546100  0.502060  1.0  0.5481
  C  C539  1  0.304130  0.586830  0.546970  1.0  0.5327
  C  C540  1  0.343540  0.581480  0.585840  1.0  -0.3106
  C  C541  1  0.314310  0.625250  0.614930  1.0  -0.0872
  C  C542  1  0.222270  0.637480  0.640580  1.0  -0.0904
  C  C543  1  0.192520  0.680130  0.670830  1.0  -0.0775
  C  C544  1  0.099360  0.692230  0.695650  1.0  -0.3252
  C  C545  1  0.139770  0.527060  0.675000  1.0  0.3344
  C  C546  1  0.067220  0.553010  0.705750  1.0  -0.2221
  C  C547  1  0.058670  0.552330  0.752530  1.0  -0.1092
  C  C548  1  0.121280  0.525500  0.769940  1.0  -0.1126
  C  C549  1  0.194010  0.500770  0.740210  1.0  -0.0324
  C  C550  1  0.205380  0.500730  0.692710  1.0  -0.1662
  C  C551  1  0.284830  0.472700  0.663500  1.0  0.5688
  C  C552  1  0.374330  0.435250  0.551630  1.0  0.545
  C  C553  1  0.446720  0.401760  0.520000  1.0  -0.2985
  C  C554  1  0.421350  0.360800  0.508300  1.0  -0.0831
  C  C555  1  0.401600  0.329720  0.549680  1.0  -0.1051
  C  C556  1  0.377320  0.287500  0.539060  1.0  -0.0733
  C  C557  1  0.356910  0.258130  0.579450  1.0  -0.3301
  C  C558  1  0.175900  0.413230  0.550570  1.0  0.1596
  C  C559  1  0.154630  0.372290  0.552050  1.0  -0.1768
  C  C560  1  0.122080  0.353780  0.593860  1.0  0.146
  C  C561  1  0.110950  0.378370  0.632530  1.0  -0.232
  C  C562  1  0.134590  0.418360  0.628660  1.0  0.1779
  C  C563  1  0.096580  0.309880  0.595560  1.0  -0.1107
  C  C564  1  0.511680  0.682580  0.351460  1.0  0.3785
  C  C565  1  0.538790  0.720240  0.329580  1.0  -0.2187
  C  C566  1  0.485880  0.764890  0.334550  1.0  -0.1109
  C  C567  1  0.404890  0.773490  0.361530  1.0  -0.1335
  C  C568  1  0.377550  0.737070  0.383430  1.0  -0.0457
  C  C569  1  0.428460  0.691260  0.379160  1.0  -0.1161
  C  C570  1  0.393250  0.654760  0.404140  1.0  0.5645
  C  C571  1  0.441190  0.536840  0.408380  1.0  0.5513
  C  C572  1  0.406630  0.496730  0.426210  1.0  -0.3098
  C  C573  1  0.373080  0.480260  0.389180  1.0  -0.1319
  C  C574  1  0.334400  0.439200  0.409600  1.0  -0.116
  C  C575  1  0.286700  0.428800  0.385000  1.0  -0.1364
  C  C576  1  0.247600  0.387500  0.412100  1.0  -0.3682
  C  C577  1  0.873550  0.246790  0.590510  1.0  0.1626
  C  C578  1  0.904410  0.283840  0.590740  1.0  -0.2011
  C  C579  1  0.987640  0.275900  0.586820  1.0  0.1241
  C  C580  1  0.035690  0.230370  0.584450  1.0  -0.2622
  C  C581  1  0.999980  0.195640  0.584600  1.0  0.179
  C  C582  1  0.022480  0.316880  0.587360  1.0  -0.1931
  C  C583  1  0.750760  0.923820  0.419460  1.0  0.2803
  C  C584  1  0.721100  0.884780  0.420020  1.0  -0.1775
  C  C585  1  0.642500  0.885290  0.445510  1.0  -0.1067
  C  C586  1  0.589460  0.923300  0.471980  1.0  -0.1159
  C  C587  1  0.618750  0.960590  0.473310  1.0  -0.0746
  C  C588  1  0.698010  0.961830  0.448150  1.0  -0.1468
  C  C589  1  0.724930  0.002060  0.453900  1.0  0.5498
  C  C590  1  0.890960  0.046970  0.413170  1.0  0.5298
  C  C591  1  0.925020  0.085840  0.418520  1.0  -0.3137
  C  C592  1  0.939560  0.114930  0.374750  1.0  -0.0828
  C  C593  1  0.859750  0.140580  0.362520  1.0  -0.0892
  C  C594  1  0.872650  0.170830  0.319870  1.0  -0.0754
  C  C595  1  0.791590  0.195650  0.307770  1.0  -0.3267
  C  C596  1  0.666830  0.175000  0.472940  1.0  0.3293
  C  C597  1  0.620230  0.205750  0.446990  1.0  -0.2232
  C  C598  1  0.611000  0.252530  0.447670  1.0  -0.1109
  C  C599  1  0.646780  0.269940  0.474500  1.0  -0.1156
  C  C600  1  0.694780  0.240210  0.499230  1.0  -0.0324
  C  C601  1  0.706110  0.192710  0.499270  1.0  -0.1661
  C  C602  1  0.757530  0.163500  0.527300  1.0  0.5686
  C  C603  1  0.809580  0.051630  0.564750  1.0  0.5449
  C  C604  1  0.848480  0.020000  0.598240  1.0  -0.3017
  C  C605  1  0.782150  0.008300  0.639200  1.0  -0.0794
  C  C606  1  0.731320  0.049680  0.670280  1.0  -0.1037
  C  C607  1  0.664820  0.039060  0.712500  1.0  -0.0742
  C  C608  1  0.615040  0.079450  0.741870  1.0  -0.331
  C  C609  1  0.589130  0.050570  0.586770  1.0  0.1598
  C  C610  1  0.526920  0.052050  0.627710  1.0  -0.1798
  C  C611  1  0.475860  0.093860  0.646220  1.0  0.1465
  C  C612  1  0.489320  0.132530  0.621630  1.0  -0.2367
  C  C613  1  0.552950  0.128660  0.581640  1.0  0.1777
  C  C614  1  0.406460  0.095560  0.690120  1.0  -0.1102
  C  C615  1  0.194260  0.851460  0.317420  1.0  0.3819
  C  C616  1  0.259030  0.829580  0.279760  1.0  -0.2175
  C  C617  1  0.250770  0.834550  0.235110  1.0  -0.1089
  C  C618  1  0.178380  0.861530  0.226510  1.0  -0.1321
  C  C619  1  0.114620  0.883430  0.262930  1.0  -0.0472
  C  C620  1  0.119720  0.879160  0.308740  1.0  -0.1174
  C  C621  1  0.048010  0.904140  0.345240  1.0  0.5635
  C  C622  1  0.978030  0.908380  0.463160  1.0  0.5511
  C  C623  1  0.903360  0.926210  0.503270  1.0  -0.3056
  C  C624  1  0.853340  0.889180  0.519740  1.0  -0.1258
  C  C625  1  0.773600  0.909600  0.560800  1.0  -0.1137
  C  C626  1  0.715500  0.885000  0.571200  1.0  -0.1332
  C  C627  1  0.635100  0.912100  0.612500  1.0  -0.3662
  C  C628  1  0.120340  0.090510  0.753210  1.0  0.162
  C  C629  1  0.188250  0.090740  0.716160  1.0  -0.201
  C  C630  1  0.263540  0.086820  0.724100  1.0  0.1209
  C  C631  1  0.266060  0.084450  0.769630  1.0  -0.2627
  C  C632  1  0.195620  0.084600  0.804360  1.0  0.1805
  C  C633  1  0.339360  0.087360  0.683120  1.0  -0.1925
  C  C634  1  0.594040  0.576180  0.080540  1.0  0.2836
  C  C635  1  0.525900  0.615220  0.079980  1.0  -0.176
  C  C636  1  0.473300  0.614710  0.054490  1.0  -0.104
  C  C637  1  0.484740  0.576700  0.028020  1.0  -0.1172
  C  C638  1  0.552650  0.539410  0.026690  1.0  -0.0742
  C  C639  1  0.607990  0.538170  0.051850  1.0  -0.1446
  C  C640  1  0.680890  0.497940  0.046100  1.0  0.5486
  C  C641  1  0.851100  0.453030  0.086830  1.0  0.5297
  C  C642  1  0.929380  0.414160  0.081480  1.0  -0.309
  C  C643  1  0.929240  0.385070  0.125250  1.0  -0.0877
  C  C644  1  0.862850  0.359420  0.137480  1.0  -0.092
  C  C645  1  0.863350  0.329170  0.180130  1.0  -0.0807
  C  C646  1  0.795010  0.304350  0.192230  1.0  -0.3246
  C  C647  1  0.814770  0.325000  0.027060  1.0  0.3306
  C  C648  1  0.772970  0.294250  0.053010  1.0  -0.2241
  C  C649  1  0.811200  0.247470  0.052330  1.0  -0.1118
  C  C650  1  0.891220  0.230060  0.025500  1.0  -0.1145
  C  C651  1  0.934220  0.259790  0.000770  1.0  -0.0312
  C  C652  1  0.898090  0.307290  0.000730  1.0  -0.1653
  C  C653  1  0.948330  0.336500  0.972700  1.0  0.568
  C  C654  1  0.925960  0.448370  0.935250  1.0  0.5472
  C  C655  1  0.966720  0.480000  0.901760  1.0  -0.2989
  C  C656  1  0.929650  0.491700  0.860800  1.0  -0.0806
  C  C657  1  0.951280  0.450320  0.829720  1.0  -0.1052
  C  C658  1  0.916380  0.460940  0.787500  1.0  -0.0751
  C  C659  1  0.936360  0.420550  0.758130  1.0  -0.3339
  C  C660  1  0.726470  0.449430  0.913230  1.0  0.161
  C  C661  1  0.706680  0.447950  0.872290  1.0  -0.1804
  C  C662  1  0.715940  0.406140  0.853780  1.0  0.1455
  C  C663  1  0.743480  0.367470  0.878370  1.0  -0.2317
  C  C664  1  0.763250  0.371340  0.918360  1.0  0.1787
  C  C665  1  0.692140  0.404440  0.809880  1.0  -0.1088
  C  C666  1  0.863140  0.648540  0.182580  1.0  0.3802
  C  C667  1  0.868370  0.670420  0.220240  1.0  -0.2177
  C  C668  1  0.820430  0.665450  0.264890  1.0  -0.1063
  C  C669  1  0.766420  0.638470  0.273490  1.0  -0.1326
  C  C670  1  0.760980  0.616570  0.237070  1.0  -0.0456
  C  C671  1  0.807620  0.620840  0.191260  1.0  -0.114
  C  C672  1  0.797390  0.595860  0.154760  1.0  0.5657
  C  C673  1  0.849570  0.591620  0.036840  1.0  0.5528
  C  C674  1  0.832840  0.573790  0.996730  1.0  -0.3128
  C  C675  1  0.762260  0.610820  0.980260  1.0  -0.1314
  C  C676  1  0.744000  0.590400  0.939200  1.0  -0.1141
  C  C677  1  0.671700  0.615000  0.928800  1.0  -0.1359
  C  C678  1  0.659700  0.587900  0.887500  1.0  -0.3652
  C  C679  1  0.464060  0.409490  0.746790  1.0  0.164
  C  C680  1  0.495150  0.409260  0.783840  1.0  -0.2027
  C  C681  1  0.574460  0.413180  0.775900  1.0  0.1248
  C  C682  1  0.620140  0.415550  0.730370  1.0  -0.2613
  C  C683  1  0.584580  0.415400  0.695640  1.0  0.1823
  C  C684  1  0.609840  0.412640  0.816880  1.0  -0.2016
  C  C685  1  0.325420  0.080540  0.923820  1.0  0.278
  C  C686  1  0.394120  0.079980  0.884780  1.0  -0.175
  C  C687  1  0.472210  0.054490  0.885290  1.0  -0.1063
  C  C688  1  0.487240  0.028020  0.923300  1.0  -0.1127
  C  C689  1  0.420660  0.026690  0.960590  1.0  -0.0707
  C  C690  1  0.340160  0.051850  0.961830  1.0  -0.1473
  C  C691  1  0.273010  0.046100  0.002060  1.0  0.5481
  C  C692  1  0.062070  0.086830  0.046970  1.0  0.533
  C  C693  1  0.989140  0.081480  0.085840  1.0  -0.3143
  C  C694  1  0.945510  0.125250  0.114930  1.0  -0.0833
  C  C695  1  0.999670  0.137480  0.140580  1.0  -0.0896
  C  C696  1  0.956520  0.180130  0.170830  1.0  -0.0775
  C  C697  1  0.012760  0.192230  0.195650  1.0  -0.326
  C  C698  1  0.158170  0.027060  0.175000  1.0  0.3353
  C  C699  1  0.174020  0.053010  0.205750  1.0  -0.2228
  C  C700  1  0.136470  0.052330  0.252530  1.0  -0.1095
  C  C701  1  0.083280  0.025500  0.269940  1.0  -0.1161
  C  C702  1  0.065010  0.000770  0.240210  1.0  -0.0306
  C  C703  1  0.101180  0.000730  0.192710  1.0  -0.1633
  C  C704  1  0.078970  0.972700  0.163500  1.0  0.5692
  C  C705  1  0.138790  0.935250  0.051630  1.0  0.5437
  C  C706  1  0.131520  0.901760  0.020000  1.0  -0.3023
  C  C707  1  0.209550  0.860800  0.008300  1.0  -0.0842
  C  C708  1  0.219000  0.829720  0.049680  1.0  -0.1053
  C  C709  1  0.296120  0.787500  0.039060  1.0  -0.0745
  C  C710  1  0.305510  0.758130  0.079450  1.0  -0.3317
  C  C711  1  0.360300  0.913230  0.050570  1.0  0.1599
  C  C712  1  0.421030  0.872290  0.052050  1.0  -0.178
  C  C713  1  0.430280  0.853780  0.093860  1.0  0.1447
  C  C714  1  0.378150  0.878370  0.132530  1.0  -0.2307
  C  C715  1  0.318390  0.918360  0.128660  1.0  0.1776
  C  C716  1  0.497980  0.809880  0.095560  1.0  -0.1109
  C  C717  1  0.954280  0.182580  0.851460  1.0  0.3762
  C  C718  1  0.911390  0.220240  0.829580  1.0  -0.2145
  C  C719  1  0.914680  0.264890  0.834550  1.0  -0.108
  C  C720  1  0.960090  0.273490  0.861530  1.0  -0.1344
  C  C721  1  0.001950  0.237070  0.883430  1.0  -0.0467
  C  C722  1  0.001120  0.191260  0.879160  1.0  -0.1141
  C  C723  1  0.047850  0.154760  0.904140  1.0  0.5647
  C  C724  1  0.113590  0.036840  0.908380  1.0  0.5524
  C  C725  1  0.170430  0.996730  0.926210  1.0  -0.3103
  C  C726  1  0.257480  0.980260  0.889180  1.0  -0.1296
  C  C727  1  0.316800  0.939200  0.909600  1.0  -0.1148
  C  C728  1  0.399500  0.928800  0.885000  1.0  -0.132
  C  C729  1  0.452800  0.887500  0.912100  1.0  -0.3658
  C  C730  1  0.789150  0.746790  0.090510  1.0  0.1622
  C  C731  1  0.721010  0.783840  0.090740  1.0  -0.2019
  C  C732  1  0.649640  0.775900  0.086820  1.0  0.1235
  C  C733  1  0.649490  0.730370  0.084450  1.0  -0.2642
  C  C734  1  0.719780  0.695640  0.084600  1.0  0.1791
  C  C735  1  0.573280  0.816880  0.087360  1.0  -0.1939
  C  C736  1  0.829780  0.419460  0.576180  1.0  0.2781
  C  C737  1  0.858880  0.420020  0.615220  1.0  -0.1777
  C  C738  1  0.911990  0.445510  0.614710  1.0  -0.1033
  C  C739  1  0.938560  0.471980  0.576700  1.0  -0.111
  C  C740  1  0.907940  0.473310  0.539410  1.0  -0.072
  C  C741  1  0.853840  0.448150  0.538170  1.0  -0.1459
  C  C742  1  0.821170  0.453900  0.497940  1.0  0.549
  C  C743  1  0.695870  0.413170  0.453030  1.0  0.5321
  C  C744  1  0.656460  0.418520  0.414160  1.0  -0.3123
  C  C745  1  0.685690  0.374750  0.385070  1.0  -0.0853
  C  C746  1  0.777730  0.362520  0.359420  1.0  -0.0905
  C  C747  1  0.807480  0.319870  0.329170  1.0  -0.0768
  C  C748  1  0.900640  0.307770  0.304350  1.0  -0.3243
  C  C749  1  0.860230  0.472940  0.325000  1.0  0.3326
  C  C750  1  0.932780  0.446990  0.294250  1.0  -0.2219
  C  C751  1  0.941330  0.447670  0.247470  1.0  -0.1106
  C  C752  1  0.878720  0.474500  0.230060  1.0  -0.1142
  C  C753  1  0.805990  0.499230  0.259790  1.0  -0.0317
  C  C754  1  0.794620  0.499270  0.307290  1.0  -0.1642
  C  C755  1  0.715170  0.527300  0.336500  1.0  0.57
  C  C756  1  0.625670  0.564750  0.448370  1.0  0.5436
  C  C757  1  0.553280  0.598240  0.480000  1.0  -0.2984
  C  C758  1  0.578650  0.639200  0.491700  1.0  -0.0828
  C  C759  1  0.598400  0.670280  0.450320  1.0  -0.1058
  C  C760  1  0.622680  0.712500  0.460940  1.0  -0.0747
  C  C761  1  0.643090  0.741870  0.420550  1.0  -0.3306
  C  C762  1  0.824100  0.586770  0.449430  1.0  0.1605
  C  C763  1  0.845370  0.627710  0.447950  1.0  -0.177
  C  C764  1  0.877920  0.646220  0.406140  1.0  0.1457
  C  C765  1  0.889050  0.621630  0.367470  1.0  -0.2317
  C  C766  1  0.865410  0.581640  0.371340  1.0  0.1777
  C  C767  1  0.903420  0.690120  0.404440  1.0  -0.1114
  C  C768  1  0.488320  0.317420  0.648540  1.0  0.379
  C  C769  1  0.461210  0.279760  0.670420  1.0  -0.216
  C  C770  1  0.514120  0.235110  0.665450  1.0  -0.1141
  C  C771  1  0.595110  0.226510  0.638470  1.0  -0.1336
  C  C772  1  0.622450  0.262930  0.616570  1.0  -0.0464
  C  C773  1  0.571540  0.308740  0.620840  1.0  -0.116
  C  C774  1  0.606750  0.345240  0.595860  1.0  0.5644
  C  C775  1  0.558810  0.463160  0.591620  1.0  0.5511
  C  C776  1  0.593370  0.503270  0.573790  1.0  -0.311
  C  C777  1  0.626920  0.519740  0.610820  1.0  -0.1302
  C  C778  1  0.665600  0.560800  0.590400  1.0  -0.1161
  C  C779  1  0.713300  0.571200  0.615000  1.0  -0.1349
  C  C780  1  0.752400  0.612500  0.587900  1.0  -0.372
  C  C781  1  0.126450  0.753210  0.409490  1.0  0.1629
  C  C782  1  0.095590  0.716160  0.409260  1.0  -0.202
  C  C783  1  0.012360  0.724100  0.413180  1.0  0.1248
  C  C784  1  0.964310  0.769630  0.415550  1.0  -0.2643
  C  C785  1  0.000020  0.804360  0.415400  1.0  0.1791
  C  C786  1  0.977520  0.683120  0.412640  1.0  -0.1956
  C  C787  1  0.249240  0.076180  0.580540  1.0  0.2801
  C  C788  1  0.278900  0.115220  0.579980  1.0  -0.1804
  C  C789  1  0.357500  0.114710  0.554490  1.0  -0.1039
  C  C790  1  0.410540  0.076700  0.528020  1.0  -0.1156
  C  C791  1  0.381250  0.039410  0.526690  1.0  -0.0751
  C  C792  1  0.301990  0.038170  0.551850  1.0  -0.1465
  C  C793  1  0.275070  0.997940  0.546100  1.0  0.5509
  C  C794  1  0.109040  0.953030  0.586830  1.0  0.5307
  C  C795  1  0.074980  0.914160  0.581480  1.0  -0.3138
  C  C796  1  0.060440  0.885070  0.625250  1.0  -0.0832
  C  C797  1  0.140250  0.859420  0.637480  1.0  -0.0892
  C  C798  1  0.127350  0.829170  0.680130  1.0  -0.0767
  C  C799  1  0.208410  0.804350  0.692230  1.0  -0.3249
  C  C800  1  0.333170  0.825000  0.527060  1.0  0.3284
  C  C801  1  0.379770  0.794250  0.553010  1.0  -0.2237
  C  C802  1  0.389000  0.747470  0.552330  1.0  -0.1115
  C  C803  1  0.353220  0.730060  0.525500  1.0  -0.1166
  C  C804  1  0.305220  0.759790  0.500770  1.0  -0.0326
  C  C805  1  0.293890  0.807290  0.500730  1.0  -0.1662
  C  C806  1  0.242470  0.836500  0.472700  1.0  0.5696
  C  C807  1  0.190420  0.948370  0.435250  1.0  0.5451
  C  C808  1  0.151520  0.980000  0.401760  1.0  -0.3017
  C  C809  1  0.217850  0.991700  0.360800  1.0  -0.082
  C  C810  1  0.268680  0.950320  0.329720  1.0  -0.1047
  C  C811  1  0.335180  0.960940  0.287500  1.0  -0.0755
  C  C812  1  0.384960  0.920550  0.258130  1.0  -0.3325
  C  C813  1  0.410870  0.949430  0.413230  1.0  0.1601
  C  C814  1  0.473080  0.947950  0.372290  1.0  -0.1808
  C  C815  1  0.524140  0.906140  0.353780  1.0  0.1453
  C  C816  1  0.510680  0.867470  0.378370  1.0  -0.2316
  C  C817  1  0.447050  0.871340  0.418360  1.0  0.1769
  C  C818  1  0.593540  0.904440  0.309880  1.0  -0.1092
  C  C819  1  0.805740  0.148540  0.682580  1.0  0.3812
  C  C820  1  0.740970  0.170420  0.720240  1.0  -0.2154
  C  C821  1  0.749230  0.165450  0.764890  1.0  -0.1064
  C  C822  1  0.821620  0.138470  0.773490  1.0  -0.1303
  C  C823  1  0.885380  0.116570  0.737070  1.0  -0.0474
  C  C824  1  0.880280  0.120840  0.691260  1.0  -0.117
  C  C825  1  0.951990  0.095860  0.654760  1.0  0.5639
  C  C826  1  0.021970  0.091620  0.536840  1.0  0.5516
  C  C827  1  0.096640  0.073790  0.496730  1.0  -0.3082
  C  C828  1  0.146660  0.110820  0.480260  1.0  -0.1297
  C  C829  1  0.226400  0.090400  0.439200  1.0  -0.1147
  C  C830  1  0.284500  0.115000  0.428800  1.0  -0.1315
  C  C831  1  0.364900  0.087900  0.387500  1.0  -0.3643
  C  C832  1  0.879660  0.909490  0.246790  1.0  0.1623
  C  C833  1  0.811750  0.909260  0.283840  1.0  -0.2011
  C  C834  1  0.736460  0.913180  0.275900  1.0  0.1225
  C  C835  1  0.733940  0.915550  0.230370  1.0  -0.2637
  C  C836  1  0.804380  0.915400  0.195640  1.0  0.1785
  C  C837  1  0.660640  0.912640  0.316880  1.0  -0.1934
  C  C838  1  0.405960  0.423820  0.919460  1.0  0.2827
  C  C839  1  0.474100  0.384780  0.920020  1.0  -0.1767
  C  C840  1  0.526700  0.385290  0.945510  1.0  -0.1045
  C  C841  1  0.515260  0.423300  0.971980  1.0  -0.1144
  C  C842  1  0.447350  0.460590  0.973310  1.0  -0.074
  C  C843  1  0.392010  0.461830  0.948150  1.0  -0.1438
  C  C844  1  0.319110  0.502060  0.953900  1.0  0.5501
  C  C845  1  0.148900  0.546970  0.913170  1.0  0.5292
  C  C846  1  0.070620  0.585840  0.918520  1.0  -0.3118
  C  C847  1  0.070760  0.614930  0.874750  1.0  -0.0874
  C  C848  1  0.137150  0.640580  0.862520  1.0  -0.0937
  C  C849  1  0.136650  0.670830  0.819870  1.0  -0.0797
  C  C850  1  0.204990  0.695650  0.807770  1.0  -0.324
  C  C851  1  0.185230  0.675000  0.972940  1.0  0.33
  C  C852  1  0.227030  0.705750  0.946990  1.0  -0.2238
  C  C853  1  0.188800  0.752530  0.947670  1.0  -0.1092
  C  C854  1  0.108780  0.769940  0.974500  1.0  -0.1148
  C  C855  1  0.065780  0.740210  0.999230  1.0  -0.0306
  C  C856  1  0.101910  0.692710  0.999270  1.0  -0.1654
  C  C857  1  0.051670  0.663500  0.027300  1.0  0.569
  C  C858  1  0.074040  0.551630  0.064750  1.0  0.5477
  C  C859  1  0.033280  0.520000  0.098240  1.0  -0.2983
  C  C860  1  0.070350  0.508300  0.139200  1.0  -0.0788
  C  C861  1  0.048720  0.549680  0.170280  1.0  -0.102
  C  C862  1  0.083620  0.539060  0.212500  1.0  -0.0734
  C  C863  1  0.063640  0.579450  0.241870  1.0  -0.3321
  C  C864  1  0.273530  0.550570  0.086770  1.0  0.1614
  C  C865  1  0.293320  0.552050  0.127710  1.0  -0.179
  C  C866  1  0.284060  0.593860  0.146220  1.0  0.1468
  C  C867  1  0.256520  0.632530  0.121630  1.0  -0.2341
  C  C868  1  0.236750  0.628660  0.081640  1.0  0.1791
  C  C869  1  0.307860  0.595560  0.190120  1.0  -0.1117
  C  C870  1  0.136860  0.351460  0.817420  1.0  0.3792
  C  C871  1  0.131630  0.329580  0.779760  1.0  -0.2202
  C  C872  1  0.179570  0.334550  0.735110  1.0  -0.1087
  C  C873  1  0.233580  0.361530  0.726510  1.0  -0.1335
  C  C874  1  0.239020  0.383430  0.762930  1.0  -0.0464
  C  C875  1  0.192380  0.379160  0.808740  1.0  -0.1149
  C  C876  1  0.202610  0.404140  0.845240  1.0  0.5651
  C  C877  1  0.150430  0.408380  0.963160  1.0  0.5537
  C  C878  1  0.167160  0.426210  0.003270  1.0  -0.3118
  C  C879  1  0.237740  0.389180  0.019740  1.0  -0.1293
  C  C880  1  0.256000  0.409600  0.060800  1.0  -0.1125
  C  C881  1  0.328300  0.385000  0.071200  1.0  -0.1401
  C  C882  1  0.340300  0.412100  0.112500  1.0  -0.3673
  C  C883  1  0.535940  0.590510  0.253210  1.0  0.1644
  C  C884  1  0.504850  0.590740  0.216160  1.0  -0.2023
  C  C885  1  0.425540  0.586820  0.224100  1.0  0.1239
  C  C886  1  0.379860  0.584450  0.269630  1.0  -0.2648
  C  C887  1  0.415420  0.584600  0.304360  1.0  0.1831
  C  C888  1  0.390160  0.587360  0.183120  1.0  -0.1978
  N  N889  1  0.804900  0.930320  0.995240  1.0  -0.2892
  N  N890  1  0.864120  0.940350  0.955150  1.0  -0.2572
  N  N891  1  0.882580  0.030820  0.881120  1.0  -0.3005
  N  N892  1  0.903360  0.061960  0.905320  1.0  -0.2918
  N  N893  1  0.690840  0.064000  0.911020  1.0  -0.3417
  N  N894  1  0.949110  0.888750  0.101250  1.0  -0.2785
  N  N895  1  0.898100  0.921290  0.077590  1.0  -0.2583
  N  N896  1  0.210810  0.296800  0.912200  1.0  -0.3373
  N  N897  1  0.230460  0.569680  0.504760  1.0  -0.2916
  N  N898  1  0.259620  0.559650  0.544850  1.0  -0.2567
  N  N899  1  0.294520  0.469180  0.618880  1.0  -0.2991
  N  N900  1  0.370640  0.438040  0.594680  1.0  -0.2898
  N  N901  1  0.165860  0.436000  0.588980  1.0  -0.3437
  N  N902  1  0.439110  0.611250  0.398750  1.0  -0.2784
  N  N903  1  0.396980  0.578710  0.422410  1.0  -0.2552
  N  N904  1  0.919810  0.203200  0.587800  1.0  -0.3372
  N  N905  1  0.800140  0.004760  0.430320  1.0  -0.2906
  N  N906  1  0.819270  0.044850  0.440350  1.0  -0.2576
  N  N907  1  0.763700  0.118880  0.530820  1.0  -0.2992
  N  N908  1  0.808680  0.094680  0.561960  1.0  -0.2913
  N  N909  1  0.601860  0.088980  0.564000  1.0  -0.3443
  N  N910  1  0.050360  0.898750  0.388750  1.0  -0.2778
  N  N911  1  0.975690  0.922410  0.421290  1.0  -0.2562
  N  N912  1  0.123010  0.087800  0.796800  1.0  -0.3356
  N  N913  1  0.735220  0.495240  0.069680  1.0  -0.2874
  N  N914  1  0.804470  0.455150  0.059650  1.0  -0.2564
  N  N915  1  0.913400  0.381120  0.969180  1.0  -0.2992
  N  N916  1  0.965320  0.405320  0.938040  1.0  -0.2914
  N  N917  1  0.754840  0.411020  0.936000  1.0  -0.3419
  N  N918  1  0.837860  0.601250  0.111250  1.0  -0.2782
  N  N919  1  0.819390  0.577590  0.078710  1.0  -0.256
  N  N920  1  0.507610  0.412200  0.703200  1.0  -0.338
  N  N921  1  0.195100  0.069680  0.004760  1.0  -0.2902
  N  N922  1  0.135880  0.059650  0.044850  1.0  -0.257
  N  N923  1  0.117420  0.969180  0.118880  1.0  -0.2998
  N  N924  1  0.096640  0.938040  0.094680  1.0  -0.2921
  N  N925  1  0.309160  0.936000  0.088980  1.0  -0.3418
  N  N926  1  0.050890  0.111250  0.898750  1.0  -0.278
  N  N927  1  0.101900  0.078710  0.922410  1.0  -0.2559
  N  N928  1  0.789190  0.703200  0.087800  1.0  -0.3372
  N  N929  1  0.769540  0.430320  0.495240  1.0  -0.2905
  N  N930  1  0.740380  0.440350  0.455150  1.0  -0.2559
  N  N931  1  0.705480  0.530820  0.381120  1.0  -0.2991
  N  N932  1  0.629360  0.561960  0.405320  1.0  -0.29
  N  N933  1  0.834140  0.564000  0.411020  1.0  -0.3432
  N  N934  1  0.560890  0.388750  0.601250  1.0  -0.2779
  N  N935  1  0.603020  0.421290  0.577590  1.0  -0.2564
  N  N936  1  0.080190  0.796800  0.412200  1.0  -0.3374
  N  N937  1  0.199860  0.995240  0.569680  1.0  -0.288
  N  N938  1  0.180730  0.955150  0.559650  1.0  -0.2568
  N  N939  1  0.236300  0.881120  0.469180  1.0  -0.2985
  N  N940  1  0.191320  0.905320  0.438040  1.0  -0.2919
  N  N941  1  0.398140  0.911020  0.436000  1.0  -0.3426
  N  N942  1  0.949640  0.101250  0.611250  1.0  -0.2778
  N  N943  1  0.024310  0.077590  0.578710  1.0  -0.2564
  N  N944  1  0.876990  0.912200  0.203200  1.0  -0.337
  N  N945  1  0.264780  0.504760  0.930320  1.0  -0.2864
  N  N946  1  0.195530  0.544850  0.940350  1.0  -0.257
  N  N947  1  0.086600  0.618880  0.030820  1.0  -0.2997
  N  N948  1  0.034680  0.594680  0.061960  1.0  -0.2904
  N  N949  1  0.245160  0.588980  0.064000  1.0  -0.344
  N  N950  1  0.162140  0.398750  0.888750  1.0  -0.2777
  N  N951  1  0.180610  0.422410  0.921290  1.0  -0.2558
  N  N952  1  0.492390  0.587800  0.296800  1.0  -0.336
  O  O953  1  0.748900  0.892400  0.078240  1.0  -0.5811
  O  O954  1  0.708740  0.982310  0.966250  1.0  -0.5876
  O  O955  1  0.951430  0.880990  0.984030  1.0  -0.5831
  O  O956  1  0.802030  0.970660  0.869600  1.0  -0.5707
  O  O957  1  0.975720  0.048850  0.817710  1.0  -0.5857
  O  O958  1  0.808630  0.040770  0.965550  1.0  -0.5764
  O  O959  1  0.051600  0.858920  0.155860  1.0  -0.5671
  O  O960  1  0.913200  0.834210  0.069950  1.0  -0.5867
  O  O961  1  0.918160  0.971580  0.122660  1.0  -0.5946
  O  O962  1  0.219540  0.607600  0.421760  1.0  -0.5826
  O  O963  1  0.157300  0.517690  0.533750  1.0  -0.5847
  O  O964  1  0.316450  0.619010  0.515970  1.0  -0.5843
  O  O965  1  0.142290  0.529340  0.630400  1.0  -0.5724
  O  O966  1  0.342280  0.451150  0.682290  1.0  -0.5901
  O  O967  1  0.314950  0.459230  0.534450  1.0  -0.5772
  O  O968  1  0.566380  0.641080  0.344140  1.0  -0.565
  O  O969  1  0.317360  0.665790  0.430050  1.0  -0.5847
  O  O970  1  0.512400  0.528420  0.377340  1.0  -0.5927
  O  O971  1  0.827140  0.921760  0.392400  1.0  -0.5797
  O  O972  1  0.674990  0.033750  0.482310  1.0  -0.5853
  O  O973  1  0.935460  0.015970  0.380990  1.0  -0.5848
  O  O974  1  0.671630  0.130400  0.470660  1.0  -0.5715
  O  O975  1  0.793430  0.182290  0.548850  1.0  -0.5881
  O  O976  1  0.774180  0.034450  0.540770  1.0  -0.5748
  O  O977  1  0.207460  0.844140  0.358920  1.0  -0.566
  O  O978  1  0.983150  0.930050  0.334210  1.0  -0.5863
  O  O979  1  0.040820  0.877340  0.471580  1.0  -0.5927
  O  O980  1  0.641300  0.578240  0.107600  1.0  -0.5811
  O  O981  1  0.691050  0.466250  0.017690  1.0  -0.5865
  O  O982  1  0.832420  0.484030  0.119010  1.0  -0.5833
  O  O983  1  0.772690  0.369600  0.029340  1.0  -0.5681
  O  O984  1  0.024570  0.317710  0.951150  1.0  -0.5873
  O  O985  1  0.849400  0.465550  0.959230  1.0  -0.5761
  O  O986  1  0.910520  0.655860  0.141080  1.0  -0.5646
  O  O987  1  0.747410  0.569950  0.165790  1.0  -0.5846
  O  O988  1  0.889740  0.622660  0.028420  1.0  -0.5923
  O  O989  1  0.251100  0.107600  0.921760  1.0  -0.5827
  O  O990  1  0.291260  0.017690  0.033750  1.0  -0.5886
  O  O991  1  0.048570  0.119010  0.015970  1.0  -0.5836
  O  O992  1  0.197970  0.029340  0.130400  1.0  -0.5685
  O  O993  1  0.024280  0.951150  0.182290  1.0  -0.5878
  O  O994  1  0.191370  0.959230  0.034450  1.0  -0.5762
  O  O995  1  0.948400  0.141080  0.844140  1.0  -0.566
  O  O996  1  0.086800  0.165790  0.930050  1.0  -0.587
  O  O997  1  0.081840  0.028420  0.877340  1.0  -0.5952
  O  O998  1  0.780460  0.392400  0.578240  1.0  -0.5815
  O  O999  1  0.842700  0.482310  0.466250  1.0  -0.5862
  O  O1000  1  0.683550  0.380990  0.484030  1.0  -0.5828
  O  O1001  1  0.857710  0.470660  0.369600  1.0  -0.5724
  O  O1002  1  0.657720  0.548850  0.317710  1.0  -0.5899
  O  O1003  1  0.685050  0.540770  0.465550  1.0  -0.5764
  O  O1004  1  0.433620  0.358920  0.655860  1.0  -0.5657
  O  O1005  1  0.682640  0.334210  0.569950  1.0  -0.5857
  O  O1006  1  0.487600  0.471580  0.622660  1.0  -0.593
  O  O1007  1  0.172860  0.078240  0.607600  1.0  -0.5809
  O  O1008  1  0.325010  0.966250  0.517690  1.0  -0.5867
  O  O1009  1  0.064540  0.984030  0.619010  1.0  -0.5815
  O  O1010  1  0.328370  0.869600  0.529340  1.0  -0.5684
  O  O1011  1  0.206570  0.817710  0.451150  1.0  -0.5887
  O  O1012  1  0.225820  0.965550  0.459230  1.0  -0.5745
  O  O1013  1  0.792540  0.155860  0.641080  1.0  -0.5649
  O  O1014  1  0.016850  0.069950  0.665790  1.0  -0.5866
  O  O1015  1  0.959180  0.122660  0.528420  1.0  -0.5927
  O  O1016  1  0.358700  0.421760  0.892400  1.0  -0.5829
  O  O1017  1  0.308950  0.533750  0.982310  1.0  -0.5877
  O  O1018  1  0.167580  0.515970  0.880990  1.0  -0.5833
  O  O1019  1  0.227310  0.630400  0.970660  1.0  -0.5686
  O  O1020  1  0.975430  0.682290  0.048850  1.0  -0.5888
  O  O1021  1  0.150600  0.534450  0.040770  1.0  -0.5748
  O  O1022  1  0.089480  0.344140  0.858920  1.0  -0.5662
  O  O1023  1  0.252590  0.430050  0.834210  1.0  -0.5858
  O  O1024  1  0.110260  0.377340  0.971580  1.0  -0.5919
