# generated using pymatgen
data_Mn3Zn4C96N6Cl3O19
_symmetry_space_group_name_H-M   'P 1'
_cell_length_a   29.66880000
_cell_length_b   29.66880000
_cell_length_c   72.71250000
_cell_angle_alpha   90.00000000
_cell_angle_beta   90.00000000
_cell_angle_gamma   120.00000000
_symmetry_Int_Tables_number   1
_chemical_formula_structural   Mn3Zn4C96N6Cl3O19
_chemical_formula_sum   'Mn36 Zn48 C1152 N72 Cl36 O228'
_cell_volume   55429.33527518
_cell_formula_units_Z   12
loop_
 _symmetry_equiv_pos_site_id
 _symmetry_equiv_pos_as_xyz
  1  'x, y, z'
loop_
 _atom_site_type_symbol
 _atom_site_label
 _atom_site_symmetry_multiplicity
 _atom_site_fract_x
 _atom_site_fract_y
 _atom_site_fract_z
 _atom_site_occupancy
 _atom_site_charge
  Mn  Mn1  1  0.532700  0.522400  0.368880  1.0  0.774
  Mn  Mn2  1  0.682100  0.825000  0.215180  1.0  0.6166
  Mn  Mn3  1  0.199370  0.855730  0.702210  1.0  0.774
  Mn  Mn4  1  0.348770  0.158330  0.548510  1.0  0.6166
  Mn  Mn5  1  0.866030  0.189070  0.035550  1.0  0.774
  Mn  Mn6  1  0.015430  0.491670  0.881850  1.0  0.6159
  Mn  Mn7  1  0.477600  0.010300  0.368880  1.0  0.7766
  Mn  Mn8  1  0.175000  0.857100  0.215180  1.0  0.6249
  Mn  Mn9  1  0.144270  0.343630  0.702210  1.0  0.7766
  Mn  Mn10  1  0.841670  0.190430  0.548510  1.0  0.6249
  Mn  Mn11  1  0.810930  0.676970  0.035550  1.0  0.7766
  Mn  Mn12  1  0.508330  0.523770  0.881850  1.0  0.6244
  Mn  Mn13  1  0.989700  0.467300  0.368880  1.0  0.7802
  Mn  Mn14  1  0.142900  0.317900  0.215180  1.0  0.627
  Mn  Mn15  1  0.656370  0.800630  0.702210  1.0  0.7802
  Mn  Mn16  1  0.809570  0.651230  0.548510  1.0  0.627
  Mn  Mn17  1  0.323030  0.133970  0.035550  1.0  0.7802
  Mn  Mn18  1  0.476230  0.984570  0.881850  1.0  0.6262
  Mn  Mn19  1  0.522400  0.532700  0.631120  1.0  0.7599
  Mn  Mn20  1  0.825000  0.682100  0.784820  1.0  0.6332
  Mn  Mn21  1  0.189070  0.866030  0.964450  1.0  0.7599
  Mn  Mn22  1  0.491670  0.015430  0.118150  1.0  0.6332
  Mn  Mn23  1  0.855730  0.199370  0.297790  1.0  0.7599
  Mn  Mn24  1  0.158330  0.348770  0.451490  1.0  0.6332
  Mn  Mn25  1  0.010300  0.477600  0.631120  1.0  0.756
  Mn  Mn26  1  0.857100  0.175000  0.784820  1.0  0.624
  Mn  Mn27  1  0.676970  0.810930  0.964450  1.0  0.756
  Mn  Mn28  1  0.523770  0.508330  0.118150  1.0  0.6239
  Mn  Mn29  1  0.343630  0.144270  0.297790  1.0  0.756
  Mn  Mn30  1  0.190430  0.841670  0.451490  1.0  0.624
  Mn  Mn31  1  0.467300  0.989700  0.631120  1.0  0.7608
  Mn  Mn32  1  0.317900  0.142900  0.784820  1.0  0.6354
  Mn  Mn33  1  0.133970  0.323030  0.964450  1.0  0.7608
  Mn  Mn34  1  0.984570  0.476230  0.118150  1.0  0.6351
  Mn  Mn35  1  0.800630  0.656370  0.297790  1.0  0.7608
  Mn  Mn36  1  0.651230  0.809570  0.451490  1.0  0.6354
  Zn  Zn37  1  0.404730  0.699580  0.300520  1.0  1.1096
  Zn  Zn38  1  0.929150  0.965420  0.116030  1.0  1.1262
  Zn  Zn39  1  0.071400  0.032910  0.633850  1.0  1.1097
  Zn  Zn40  1  0.595820  0.298750  0.449360  1.0  1.1261
  Zn  Zn41  1  0.738060  0.366250  0.967190  1.0  1.1102
  Zn  Zn42  1  0.262480  0.632090  0.782700  1.0  1.1259
  Zn  Zn43  1  0.300420  0.705150  0.300520  1.0  1.1098
  Zn  Zn44  1  0.034580  0.963730  0.116030  1.0  1.1253
  Zn  Zn45  1  0.967090  0.038480  0.633850  1.0  1.1099
  Zn  Zn46  1  0.701250  0.297060  0.449360  1.0  1.1253
  Zn  Zn47  1  0.633750  0.371820  0.967190  1.0  1.1112
  Zn  Zn48  1  0.367910  0.630400  0.782700  1.0  1.1249
  Zn  Zn49  1  0.294850  0.595270  0.300520  1.0  1.1106
  Zn  Zn50  1  0.036270  0.070850  0.116030  1.0  1.1249
  Zn  Zn51  1  0.961520  0.928600  0.633850  1.0  1.112
  Zn  Zn52  1  0.702940  0.404180  0.449360  1.0  1.1249
  Zn  Zn53  1  0.628180  0.261940  0.967190  1.0  1.1113
  Zn  Zn54  1  0.369600  0.737520  0.782700  1.0  1.1247
  Zn  Zn55  1  0.000000  0.000000  0.151770  1.0  1.027
  Zn  Zn56  1  0.666667  0.333333  0.485100  1.0  1.0267
  Zn  Zn57  1  0.333333  0.666667  0.818440  1.0  1.027
  Zn  Zn58  1  0.333333  0.666667  0.265160  1.0  1.1319
  Zn  Zn59  1  0.000000  0.000000  0.598490  1.0  1.1315
  Zn  Zn60  1  0.666667  0.333333  0.931830  1.0  1.1319
  Zn  Zn61  1  0.699580  0.404730  0.699480  1.0  1.1115
  Zn  Zn62  1  0.965420  0.929150  0.883970  1.0  1.1246
  Zn  Zn63  1  0.366250  0.738060  0.032810  1.0  1.1123
  Zn  Zn64  1  0.632090  0.262480  0.217300  1.0  1.1243
  Zn  Zn65  1  0.032910  0.071400  0.366150  1.0  1.1115
  Zn  Zn66  1  0.298750  0.595820  0.550640  1.0  1.1246
  Zn  Zn67  1  0.705150  0.300420  0.699480  1.0  1.1101
  Zn  Zn68  1  0.963730  0.034580  0.883970  1.0  1.1252
  Zn  Zn69  1  0.371820  0.633750  0.032810  1.0  1.1113
  Zn  Zn70  1  0.630400  0.367910  0.217300  1.0  1.1247
  Zn  Zn71  1  0.038480  0.967090  0.366150  1.0  1.1101
  Zn  Zn72  1  0.297060  0.701250  0.550640  1.0  1.1252
  Zn  Zn73  1  0.595270  0.294850  0.699480  1.0  1.1104
  Zn  Zn74  1  0.070850  0.036270  0.883970  1.0  1.1242
  Zn  Zn75  1  0.261940  0.628180  0.032810  1.0  1.1111
  Zn  Zn76  1  0.737520  0.369600  0.217300  1.0  1.124
  Zn  Zn77  1  0.928600  0.961520  0.366150  1.0  1.1119
  Zn  Zn78  1  0.404180  0.702940  0.550640  1.0  1.1242
  Zn  Zn79  1  0.000000  0.000000  0.848230  1.0  1.0295
  Zn  Zn80  1  0.666667  0.333333  0.181560  1.0  1.0295
  Zn  Zn81  1  0.333333  0.666667  0.514900  1.0  1.0296
  Zn  Zn82  1  0.666667  0.333333  0.734840  1.0  1.1327
  Zn  Zn83  1  0.333333  0.666667  0.068170  1.0  1.1323
  Zn  Zn84  1  0.000000  0.000000  0.401510  1.0  1.1323
  C  C85  1  0.411700  0.582800  0.333610  1.0  0.0043
  C  C86  1  0.461400  0.608900  0.341100  1.0  0.0385
  C  C87  1  0.478100  0.582800  0.352600  1.0  0.0786
  C  C88  1  0.445100  0.530400  0.356600  1.0  0.1255
  C  C89  1  0.395400  0.504300  0.349100  1.0  -0.1266
  C  C90  1  0.378700  0.530500  0.337600  1.0  0.0073
  C  C91  1  0.392800  0.611600  0.320700  1.0  0.4587
  C  C92  1  0.581800  0.410000  0.418340  1.0  -0.0692
  C  C93  1  0.608400  0.459600  0.410800  1.0  0.0384
  C  C94  1  0.582300  0.477100  0.399600  1.0  0.1951
  C  C95  1  0.529600  0.444900  0.396000  1.0  0.1112
  C  C96  1  0.503000  0.395300  0.403500  1.0  -0.0867
  C  C97  1  0.529100  0.377800  0.414700  1.0  -0.0174
  C  C98  1  0.355700  0.446500  0.353400  1.0  0.4333
  C  C99  1  0.829900  0.916300  0.165300  1.0  0.0217
  C  C100  1  0.829900  0.923400  0.184200  1.0  0.0127
  C  C101  1  0.783100  0.905100  0.193500  1.0  0.1383
  C  C102  1  0.736300  0.879800  0.184000  1.0  0.1325
  C  C103  1  0.736200  0.872600  0.165100  1.0  -0.0666
  C  C104  1  0.783000  0.890900  0.155700  1.0  0.0319
  C  C105  1  0.376000  0.415100  0.348800  1.0  -0.0221
  C  C106  1  0.493100  0.748900  0.250900  1.0  -0.0293
  C  C107  1  0.544500  0.772500  0.256800  1.0  0.0137
  C  C108  1  0.584800  0.796300  0.244200  1.0  0.1566
  C  C109  1  0.573800  0.796700  0.225600  1.0  0.1525
  C  C110  1  0.522400  0.773100  0.219700  1.0  -0.0429
  C  C111  1  0.482000  0.749200  0.232400  1.0  0.0058
  C  C112  1  0.309000  0.435000  0.344300  1.0  -0.0324
  C  C113  1  0.343000  0.440600  0.372100  1.0  -0.0362
  C  C114  1  0.529100  0.615800  0.359000  1.0  0.0894
  C  C115  1  0.612600  0.392300  0.430800  1.0  0.4637
  C  C116  1  0.443700  0.360200  0.398900  1.0  0.3936
  C  C117  1  0.423700  0.311400  0.407700  1.0  -0.0243
  C  C118  1  0.437800  0.353600  0.379900  1.0  -0.045
  C  C119  1  0.416500  0.384600  0.404300  1.0  -0.0232
  C  C120  1  0.616300  0.528300  0.393400  1.0  0.0831
  C  C121  1  0.607600  0.631700  0.373300  1.0  0.0582
  C  C122  1  0.639100  0.692400  0.372200  1.0  -0.013
  C  C123  1  0.685800  0.722000  0.383400  1.0  0.0261
  C  C124  1  0.703900  0.692500  0.393700  1.0  0.0275
  C  C125  1  0.691800  0.638700  0.387300  1.0  -0.0765
  C  C126  1  0.636100  0.606400  0.375500  1.0  0.0834
  C  C127  1  0.881300  0.936400  0.154600  1.0  0.4283
  C  C128  1  0.684400  0.842900  0.153900  1.0  0.3817
  C  C129  1  0.643300  0.851000  0.158000  1.0  -0.0061
  C  C130  1  0.664000  0.789000  0.154400  1.0  -0.017
  C  C131  1  0.696000  0.856000  0.135000  1.0  -0.0243
  C  C132  1  0.788300  0.913300  0.212700  1.0  -0.0009
  C  C133  1  0.446900  0.722000  0.264300  1.0  0.555
  C  C134  1  0.504000  0.770300  0.199300  1.0  0.3637
  C  C135  1  0.509000  0.819000  0.194600  1.0  -0.0231
  C  C136  1  0.450000  0.733300  0.197400  1.0  -0.0141
  C  C137  1  0.530300  0.756000  0.186600  1.0  -0.0126
  C  C138  1  0.635200  0.817600  0.252100  1.0  0.0599
  C  C139  1  0.765000  0.872200  0.242700  1.0  0.1138
  C  C140  1  0.820000  0.880100  0.249600  1.0  -0.0387
  C  C141  1  0.820500  0.849100  0.265700  1.0  0.018
  C  C142  1  0.780000  0.836300  0.279100  1.0  0.0596
  C  C143  1  0.727000  0.830900  0.273900  1.0  0.0025
  C  C144  1  0.723100  0.829300  0.251200  1.0  0.0463
  C  C145  1  0.869100  0.672500  0.535900  1.0  0.1756
  C  C146  1  0.512300  0.533800  0.386800  1.0  0.0867
  C  C147  1  0.817800  0.680900  0.531700  1.0  0.1131
  C  C148  1  0.480000  0.496100  0.382000  1.0  0.187
  C  C149  1  0.078370  0.916130  0.666940  1.0  0.0043
  C  C150  1  0.128070  0.942230  0.674430  1.0  0.0385
  C  C151  1  0.144770  0.916130  0.685930  1.0  0.0786
  C  C152  1  0.111770  0.863730  0.689930  1.0  0.1255
  C  C153  1  0.062070  0.837630  0.682430  1.0  -0.1266
  C  C154  1  0.045370  0.863830  0.670930  1.0  0.0073
  C  C155  1  0.059470  0.944930  0.654030  1.0  0.4587
  C  C156  1  0.248470  0.743330  0.751670  1.0  -0.0692
  C  C157  1  0.275070  0.792930  0.744130  1.0  0.0384
  C  C158  1  0.248970  0.810430  0.732930  1.0  0.1951
  C  C159  1  0.196270  0.778230  0.729330  1.0  0.1112
  C  C160  1  0.169670  0.728630  0.736830  1.0  -0.0867
  C  C161  1  0.195770  0.711130  0.748030  1.0  -0.0174
  C  C162  1  0.022370  0.779830  0.686730  1.0  0.4333
  C  C163  1  0.496570  0.249630  0.498630  1.0  0.0217
  C  C164  1  0.496570  0.256730  0.517530  1.0  0.0115
  C  C165  1  0.449770  0.238430  0.526830  1.0  0.1383
  C  C166  1  0.402970  0.213130  0.517330  1.0  0.1325
  C  C167  1  0.402870  0.205930  0.498430  1.0  -0.0666
  C  C168  1  0.449670  0.224230  0.489030  1.0  0.0319
  C  C169  1  0.042670  0.748430  0.682130  1.0  -0.0221
  C  C170  1  0.159770  0.082230  0.584230  1.0  -0.0287
  C  C171  1  0.211170  0.105830  0.590130  1.0  0.0137
  C  C172  1  0.251470  0.129630  0.577530  1.0  0.1566
  C  C173  1  0.240470  0.130030  0.558930  1.0  0.1525
  C  C174  1  0.189070  0.106430  0.553030  1.0  -0.0429
  C  C175  1  0.148670  0.082530  0.565730  1.0  0.0058
  C  C176  1  0.975670  0.768330  0.677630  1.0  -0.0324
  C  C177  1  0.009670  0.773930  0.705430  1.0  -0.0362
  C  C178  1  0.195770  0.949130  0.692330  1.0  0.0894
  C  C179  1  0.279270  0.725630  0.764130  1.0  0.4637
  C  C180  1  0.110370  0.693530  0.732230  1.0  0.3937
  C  C181  1  0.090370  0.644730  0.741030  1.0  -0.0243
  C  C182  1  0.104470  0.686930  0.713230  1.0  -0.045
  C  C183  1  0.083170  0.717930  0.737630  1.0  -0.0233
  C  C184  1  0.282970  0.861630  0.726730  1.0  0.0831
  C  C185  1  0.274270  0.965030  0.706630  1.0  0.0582
  C  C186  1  0.305770  0.025730  0.705530  1.0  -0.013
  C  C187  1  0.352470  0.055330  0.716730  1.0  0.0261
  C  C188  1  0.370570  0.025830  0.727030  1.0  0.0275
  C  C189  1  0.358470  0.972030  0.720630  1.0  -0.0765
  C  C190  1  0.302770  0.939730  0.708830  1.0  0.0834
  C  C191  1  0.547970  0.269730  0.487930  1.0  0.4283
  C  C192  1  0.351070  0.176230  0.487230  1.0  0.3817
  C  C193  1  0.309970  0.184330  0.491330  1.0  -0.006
  C  C194  1  0.330670  0.122330  0.487730  1.0  -0.017
  C  C195  1  0.362670  0.189330  0.468330  1.0  -0.0243
  C  C196  1  0.454970  0.246630  0.546030  1.0  0.003
  C  C197  1  0.113570  0.055330  0.597630  1.0  0.555
  C  C198  1  0.170670  0.103630  0.532630  1.0  0.3637
  C  C199  1  0.175670  0.152330  0.527930  1.0  -0.0232
  C  C200  1  0.116670  0.066630  0.530730  1.0  -0.0092
  C  C201  1  0.196970  0.089330  0.519930  1.0  -0.0126
  C  C202  1  0.301870  0.150930  0.585430  1.0  0.0599
  C  C203  1  0.431670  0.205530  0.576030  1.0  0.1138
  C  C204  1  0.486670  0.213430  0.582930  1.0  -0.0387
  C  C205  1  0.487170  0.182430  0.599030  1.0  0.018
  C  C206  1  0.446670  0.169630  0.612430  1.0  0.0596
  C  C207  1  0.393670  0.164230  0.607230  1.0  0.0025
  C  C208  1  0.389770  0.162630  0.584530  1.0  0.0463
  C  C209  1  0.535770  0.005830  0.869230  1.0  0.1727
  C  C210  1  0.178970  0.867130  0.720130  1.0  0.0867
  C  C211  1  0.484470  0.014230  0.865030  1.0  0.1133
  C  C212  1  0.146670  0.829430  0.715330  1.0  0.187
  C  C213  1  0.745030  0.249470  0.000280  1.0  0.0043
  C  C214  1  0.794730  0.275570  0.007770  1.0  0.0385
  C  C215  1  0.811430  0.249470  0.019270  1.0  0.0785
  C  C216  1  0.778430  0.197070  0.023270  1.0  0.1255
  C  C217  1  0.728730  0.170970  0.015770  1.0  -0.1266
  C  C218  1  0.712030  0.197170  0.004270  1.0  0.0073
  C  C219  1  0.726130  0.278270  0.987370  1.0  0.4559
  C  C220  1  0.915130  0.076670  0.085010  1.0  -0.0692
  C  C221  1  0.941730  0.126270  0.077470  1.0  0.0384
  C  C222  1  0.915630  0.143770  0.066270  1.0  0.1951
  C  C223  1  0.862930  0.111570  0.062670  1.0  0.1112
  C  C224  1  0.836330  0.061970  0.070170  1.0  -0.0867
  C  C225  1  0.862430  0.044470  0.081370  1.0  -0.0174
  C  C226  1  0.689030  0.113170  0.020070  1.0  0.4333
  C  C227  1  0.163230  0.582970  0.831970  1.0  0.0217
  C  C228  1  0.163230  0.590070  0.850870  1.0  0.0115
  C  C229  1  0.116430  0.571770  0.860170  1.0  0.1384
  C  C230  1  0.069630  0.546470  0.850670  1.0  0.1325
  C  C231  1  0.069530  0.539270  0.831770  1.0  -0.0666
  C  C232  1  0.116330  0.557570  0.822370  1.0  0.0319
  C  C233  1  0.709330  0.081770  0.015470  1.0  -0.0221
  C  C234  1  0.826430  0.415570  0.917570  1.0  -0.0293
  C  C235  1  0.877830  0.439170  0.923470  1.0  0.0134
  C  C236  1  0.918130  0.462970  0.910870  1.0  0.1566
  C  C237  1  0.907130  0.463370  0.892270  1.0  0.1531
  C  C238  1  0.855730  0.439770  0.886370  1.0  -0.0429
  C  C239  1  0.815330  0.415870  0.899070  1.0  0.0058
  C  C240  1  0.642330  0.101670  0.010970  1.0  -0.0324
  C  C241  1  0.676330  0.107270  0.038770  1.0  -0.0362
  C  C242  1  0.862430  0.282470  0.025670  1.0  0.0892
  C  C243  1  0.945930  0.058970  0.097470  1.0  0.4637
  C  C244  1  0.777030  0.026870  0.065570  1.0  0.3937
  C  C245  1  0.757030  0.978070  0.074370  1.0  -0.0243
  C  C246  1  0.771130  0.020270  0.046570  1.0  -0.045
  C  C247  1  0.749830  0.051270  0.070970  1.0  -0.0233
  C  C248  1  0.949630  0.194970  0.060070  1.0  0.0831
  C  C249  1  0.940930  0.298370  0.039970  1.0  0.0582
  C  C250  1  0.972430  0.359070  0.038870  1.0  -0.013
  C  C251  1  0.019130  0.388670  0.050070  1.0  0.0258
  C  C252  1  0.037230  0.359170  0.060370  1.0  0.0275
  C  C253  1  0.025130  0.305370  0.053970  1.0  -0.0765
  C  C254  1  0.969430  0.273070  0.042170  1.0  0.0834
  C  C255  1  0.214630  0.603070  0.821270  1.0  0.4283
  C  C256  1  0.017730  0.509570  0.820570  1.0  0.3821
  C  C257  1  0.976630  0.517670  0.824670  1.0  -0.0062
  C  C258  1  0.997330  0.455670  0.821070  1.0  -0.017
  C  C259  1  0.029330  0.522670  0.801670  1.0  -0.0243
  C  C260  1  0.121630  0.579970  0.879370  1.0  0.0029
  C  C261  1  0.780230  0.388670  0.930970  1.0  0.555
  C  C262  1  0.837330  0.436970  0.865970  1.0  0.3637
  C  C263  1  0.842330  0.485670  0.861270  1.0  -0.0231
  C  C264  1  0.783330  0.399970  0.864070  1.0  -0.0141
  C  C265  1  0.863630  0.422670  0.853270  1.0  -0.0125
  C  C266  1  0.968530  0.484270  0.918770  1.0  0.06
  C  C267  1  0.098330  0.538870  0.909370  1.0  0.1138
  C  C268  1  0.153330  0.546770  0.916270  1.0  -0.0387
  C  C269  1  0.153830  0.515770  0.932370  1.0  0.0209
  C  C270  1  0.113330  0.502970  0.945770  1.0  0.0604
  C  C271  1  0.060330  0.497570  0.940570  1.0  0.0028
  C  C272  1  0.056430  0.495970  0.917870  1.0  0.0463
  C  C273  1  0.202430  0.339170  0.202570  1.0  0.1756
  C  C274  1  0.845630  0.200470  0.053470  1.0  0.0868
  C  C275  1  0.151130  0.347570  0.198370  1.0  0.1131
  C  C276  1  0.813330  0.162770  0.048670  1.0  0.187
  C  C277  1  0.417200  0.828900  0.333610  1.0  0.0056
  C  C278  1  0.391100  0.852500  0.341100  1.0  0.042
  C  C279  1  0.417200  0.895300  0.352600  1.0  0.0779
  C  C280  1  0.469600  0.914700  0.356600  1.0  0.1242
  C  C281  1  0.495700  0.891100  0.349100  1.0  -0.126
  C  C282  1  0.469500  0.848200  0.337600  1.0  0.0053
  C  C283  1  0.388400  0.781200  0.320700  1.0  0.4513
  C  C284  1  0.590000  0.171800  0.418340  1.0  -0.0685
  C  C285  1  0.540400  0.148800  0.410800  1.0  0.0408
  C  C286  1  0.522900  0.105200  0.399600  1.0  0.1964
  C  C287  1  0.555100  0.084700  0.396000  1.0  0.1119
  C  C288  1  0.604700  0.107700  0.403500  1.0  -0.0858
  C  C289  1  0.622200  0.151300  0.414700  1.0  -0.0231
  C  C290  1  0.553500  0.909200  0.353400  1.0  0.4277
  C  C291  1  0.083700  0.913600  0.165300  1.0  0.0207
  C  C292  1  0.076600  0.906500  0.184200  1.0  0.0138
  C  C293  1  0.094900  0.878000  0.193500  1.0  0.141
  C  C294  1  0.120200  0.856500  0.184000  1.0  0.1316
  C  C295  1  0.127400  0.863600  0.165100  1.0  -0.0668
  C  C296  1  0.109100  0.892100  0.155700  1.0  0.0338
  C  C297  1  0.584900  0.960900  0.348800  1.0  -0.0252
  C  C298  1  0.251100  0.744200  0.250900  1.0  -0.0303
  C  C299  1  0.227500  0.772000  0.256800  1.0  0.0123
  C  C300  1  0.203700  0.788500  0.244200  1.0  0.1572
  C  C301  1  0.203300  0.777100  0.225600  1.0  0.1522
  C  C302  1  0.226900  0.749300  0.219700  1.0  -0.0426
  C  C303  1  0.250800  0.732800  0.232400  1.0  0.0045
  C  C304  1  0.565000  0.874000  0.344300  1.0  -0.0333
  C  C305  1  0.559400  0.902400  0.372100  1.0  -0.0346
  C  C306  1  0.384200  0.913300  0.359000  1.0  0.0892
  C  C307  1  0.607700  0.220300  0.430800  1.0  0.4635
  C  C308  1  0.639800  0.083500  0.398900  1.0  0.3871
  C  C309  1  0.688600  0.112300  0.407700  1.0  -0.0241
  C  C310  1  0.646400  0.084200  0.379900  1.0  -0.0426
  C  C311  1  0.615400  0.031900  0.404300  1.0  -0.0297
  C  C312  1  0.471700  0.088000  0.393400  1.0  0.0846
  C  C313  1  0.368300  0.975900  0.373300  1.0  0.0583
  C  C314  1  0.307600  0.946700  0.372200  1.0  -0.014
  C  C315  1  0.278000  0.963800  0.383400  1.0  0.0252
  C  C316  1  0.307500  0.011400  0.393700  1.0  0.0265
  C  C317  1  0.361300  0.053100  0.387300  1.0  -0.0805
  C  C318  1  0.393600  0.029700  0.375500  1.0  0.0823
  C  C319  1  0.063600  0.944900  0.154600  1.0  0.4286
  C  C320  1  0.157100  0.841500  0.153900  1.0  0.38
  C  C321  1  0.149000  0.792300  0.158000  1.0  -0.0134
  C  C322  1  0.211000  0.875000  0.154400  1.0  -0.013
  C  C323  1  0.144000  0.840000  0.135000  1.0  -0.024
  C  C324  1  0.086700  0.875000  0.212700  1.0  0.0013
  C  C325  1  0.278000  0.724900  0.264300  1.0  0.5553
  C  C326  1  0.229700  0.733700  0.199300  1.0  0.364
  C  C327  1  0.181000  0.690000  0.194600  1.0  -0.0228
  C  C328  1  0.266700  0.716700  0.197400  1.0  -0.0087
  C  C329  1  0.244000  0.774300  0.186600  1.0  -0.0156
  C  C330  1  0.182400  0.817600  0.252100  1.0  0.0617
  C  C331  1  0.127800  0.892800  0.242700  1.0  0.1138
  C  C332  1  0.119900  0.939900  0.249600  1.0  -0.0369
  C  C333  1  0.150900  0.971400  0.265700  1.0  0.0151
  C  C334  1  0.163700  0.943700  0.279100  1.0  0.0568
  C  C335  1  0.169100  0.896100  0.273900  1.0  0.0007
  C  C336  1  0.170700  0.893800  0.251200  1.0  0.0463
  C  C337  1  0.327500  0.196600  0.535900  1.0  0.1767
  C  C338  1  0.466200  0.978500  0.386800  1.0  0.089
  C  C339  1  0.319100  0.136900  0.531700  1.0  0.1116
  C  C340  1  0.503900  0.983900  0.382000  1.0  0.1846
  C  C341  1  0.083870  0.162230  0.666940  1.0  0.0056
  C  C342  1  0.057770  0.185830  0.674430  1.0  0.042
  C  C343  1  0.083870  0.228630  0.685930  1.0  0.0779
  C  C344  1  0.136270  0.248030  0.689930  1.0  0.1242
  C  C345  1  0.162370  0.224430  0.682430  1.0  -0.126
  C  C346  1  0.136170  0.181530  0.670930  1.0  0.0053
  C  C347  1  0.055070  0.114530  0.654030  1.0  0.4513
  C  C348  1  0.256670  0.505130  0.751670  1.0  -0.0685
  C  C349  1  0.207070  0.482130  0.744130  1.0  0.0408
  C  C350  1  0.189570  0.438530  0.732930  1.0  0.1964
  C  C351  1  0.221770  0.418030  0.729330  1.0  0.1119
  C  C352  1  0.271370  0.441030  0.736830  1.0  -0.0858
  C  C353  1  0.288870  0.484630  0.748030  1.0  -0.0231
  C  C354  1  0.220170  0.242530  0.686730  1.0  0.4277
  C  C355  1  0.750370  0.246930  0.498630  1.0  0.0207
  C  C356  1  0.743270  0.239830  0.517530  1.0  0.0123
  C  C357  1  0.761570  0.211330  0.526830  1.0  0.141
  C  C358  1  0.786870  0.189830  0.517330  1.0  0.1317
  C  C359  1  0.794070  0.196930  0.498430  1.0  -0.0668
  C  C360  1  0.775770  0.225430  0.489030  1.0  0.0338
  C  C361  1  0.251570  0.294230  0.682130  1.0  -0.0252
  C  C362  1  0.917770  0.077530  0.584230  1.0  -0.0301
  C  C363  1  0.894170  0.105330  0.590130  1.0  0.0123
  C  C364  1  0.870370  0.121830  0.577530  1.0  0.1572
  C  C365  1  0.869970  0.110430  0.558930  1.0  0.1522
  C  C366  1  0.893570  0.082630  0.553030  1.0  -0.0426
  C  C367  1  0.917470  0.066130  0.565730  1.0  0.0045
  C  C368  1  0.231670  0.207330  0.677630  1.0  -0.0333
  C  C369  1  0.226070  0.235730  0.705430  1.0  -0.0346
  C  C370  1  0.050870  0.246630  0.692330  1.0  0.0892
  C  C371  1  0.274370  0.553630  0.764130  1.0  0.4635
  C  C372  1  0.306470  0.416830  0.732230  1.0  0.3871
  C  C373  1  0.355270  0.445630  0.741030  1.0  -0.0241
  C  C374  1  0.313070  0.417530  0.713230  1.0  -0.0426
  C  C375  1  0.282070  0.365230  0.737630  1.0  -0.0294
  C  C376  1  0.138370  0.421330  0.726730  1.0  0.0846
  C  C377  1  0.034970  0.309230  0.706630  1.0  0.0583
  C  C378  1  0.974270  0.280030  0.705530  1.0  -0.014
  C  C379  1  0.944670  0.297130  0.716730  1.0  0.0252
  C  C380  1  0.974170  0.344730  0.727030  1.0  0.0265
  C  C381  1  0.027970  0.386430  0.720630  1.0  -0.0805
  C  C382  1  0.060270  0.363030  0.708830  1.0  0.0823
  C  C383  1  0.730270  0.278230  0.487930  1.0  0.4286
  C  C384  1  0.823770  0.174830  0.487230  1.0  0.38
  C  C385  1  0.815670  0.125630  0.491330  1.0  -0.0134
  C  C386  1  0.877670  0.208330  0.487730  1.0  -0.013
  C  C387  1  0.810670  0.173330  0.468330  1.0  -0.024
  C  C388  1  0.753370  0.208330  0.546030  1.0  0.0038
  C  C389  1  0.944670  0.058230  0.597630  1.0  0.5553
  C  C390  1  0.896370  0.067030  0.532630  1.0  0.364
  C  C391  1  0.847670  0.023330  0.527930  1.0  -0.0228
  C  C392  1  0.933370  0.050030  0.530730  1.0  -0.0125
  C  C393  1  0.910670  0.107630  0.519930  1.0  -0.0156
  C  C394  1  0.849070  0.150930  0.585430  1.0  0.0617
  C  C395  1  0.794470  0.226130  0.576030  1.0  0.1138
  C  C396  1  0.786570  0.273230  0.582930  1.0  -0.0369
  C  C397  1  0.817570  0.304730  0.599030  1.0  0.0151
  C  C398  1  0.830370  0.277030  0.612430  1.0  0.0568
  C  C399  1  0.835770  0.229430  0.607230  1.0  0.0007
  C  C400  1  0.837370  0.227130  0.584530  1.0  0.0463
  C  C401  1  0.994170  0.529930  0.869230  1.0  0.1755
  C  C402  1  0.132870  0.311830  0.720130  1.0  0.089
  C  C403  1  0.985770  0.470230  0.865030  1.0  0.111
  C  C404  1  0.170570  0.317230  0.715330  1.0  0.1846
  C  C405  1  0.750530  0.495570  0.000280  1.0  0.0056
  C  C406  1  0.724430  0.519170  0.007770  1.0  0.042
  C  C407  1  0.750530  0.561970  0.019270  1.0  0.0779
  C  C408  1  0.802930  0.581370  0.023270  1.0  0.1242
  C  C409  1  0.829030  0.557770  0.015770  1.0  -0.126
  C  C410  1  0.802830  0.514870  0.004270  1.0  0.0053
  C  C411  1  0.721730  0.447870  0.987370  1.0  0.4586
  C  C412  1  0.923330  0.838470  0.085010  1.0  -0.0685
  C  C413  1  0.873730  0.815470  0.077470  1.0  0.0408
  C  C414  1  0.856230  0.771870  0.066270  1.0  0.1964
  C  C415  1  0.888430  0.751370  0.062670  1.0  0.1119
  C  C416  1  0.938030  0.774370  0.070170  1.0  -0.0858
  C  C417  1  0.955530  0.817970  0.081370  1.0  -0.0231
  C  C418  1  0.886830  0.575870  0.020070  1.0  0.4277
  C  C419  1  0.417030  0.580270  0.831970  1.0  0.0207
  C  C420  1  0.409930  0.573170  0.850870  1.0  0.012
  C  C421  1  0.428230  0.544670  0.860170  1.0  0.141
  C  C422  1  0.453530  0.523170  0.850670  1.0  0.1316
  C  C423  1  0.460730  0.530270  0.831770  1.0  -0.0668
  C  C424  1  0.442430  0.558770  0.822370  1.0  0.0338
  C  C425  1  0.918230  0.627570  0.015470  1.0  -0.0252
  C  C426  1  0.584430  0.410870  0.917570  1.0  -0.0303
  C  C427  1  0.560830  0.438670  0.923470  1.0  0.0121
  C  C428  1  0.537030  0.455170  0.910870  1.0  0.1572
  C  C429  1  0.536630  0.443770  0.892270  1.0  0.1522
  C  C430  1  0.560230  0.415970  0.886370  1.0  -0.0426
  C  C431  1  0.584130  0.399470  0.899070  1.0  0.0045
  C  C432  1  0.898330  0.540670  0.010970  1.0  -0.0335
  C  C433  1  0.892730  0.569070  0.038770  1.0  -0.0346
  C  C434  1  0.717530  0.579970  0.025670  1.0  0.0894
  C  C435  1  0.941030  0.886970  0.097470  1.0  0.4635
  C  C436  1  0.973130  0.750170  0.065570  1.0  0.3871
  C  C437  1  0.021930  0.778970  0.074370  1.0  -0.0241
  C  C438  1  0.979730  0.750870  0.046570  1.0  -0.0426
  C  C439  1  0.948730  0.698570  0.070970  1.0  -0.0291
  C  C440  1  0.805030  0.754670  0.060070  1.0  0.0846
  C  C441  1  0.701630  0.642570  0.039970  1.0  0.0584
  C  C442  1  0.640930  0.613370  0.038870  1.0  -0.0136
  C  C443  1  0.611330  0.630470  0.050070  1.0  0.025
  C  C444  1  0.640830  0.678070  0.060370  1.0  0.0263
  C  C445  1  0.694630  0.719770  0.053970  1.0  -0.0805
  C  C446  1  0.726930  0.696370  0.042170  1.0  0.0823
  C  C447  1  0.396930  0.611570  0.821270  1.0  0.4286
  C  C448  1  0.490430  0.508170  0.820570  1.0  0.3802
  C  C449  1  0.482330  0.458970  0.824670  1.0  -0.0132
  C  C450  1  0.544330  0.541670  0.821070  1.0  -0.013
  C  C451  1  0.477330  0.506670  0.801670  1.0  -0.024
  C  C452  1  0.420030  0.541670  0.879370  1.0  0.0038
  C  C453  1  0.611330  0.391570  0.930970  1.0  0.5553
  C  C454  1  0.563030  0.400370  0.865970  1.0  0.364
  C  C455  1  0.514330  0.356670  0.861270  1.0  -0.0228
  C  C456  1  0.600030  0.383370  0.864070  1.0  -0.0087
  C  C457  1  0.577330  0.440970  0.853270  1.0  -0.0156
  C  C458  1  0.515730  0.484270  0.918770  1.0  0.0617
  C  C459  1  0.461130  0.559470  0.909370  1.0  0.1138
  C  C460  1  0.453230  0.606570  0.916270  1.0  -0.0369
  C  C461  1  0.484230  0.638070  0.932370  1.0  0.0159
  C  C462  1  0.497030  0.610370  0.945770  1.0  0.0576
  C  C463  1  0.502430  0.562770  0.940570  1.0  0.001
  C  C464  1  0.504030  0.560470  0.917870  1.0  0.0463
  C  C465  1  0.660830  0.863270  0.202570  1.0  0.1767
  C  C466  1  0.799530  0.645170  0.053470  1.0  0.0891
  C  C467  1  0.652430  0.803570  0.198370  1.0  0.1116
  C  C468  1  0.837230  0.650570  0.048670  1.0  0.1846
  C  C469  1  0.171100  0.588300  0.333610  1.0  0.0052
  C  C470  1  0.147500  0.538600  0.341100  1.0  0.0411
  C  C471  1  0.104700  0.521900  0.352600  1.0  0.0773
  C  C472  1  0.085300  0.554900  0.356600  1.0  0.1247
  C  C473  1  0.108900  0.604600  0.349100  1.0  -0.1275
  C  C474  1  0.151800  0.621300  0.337600  1.0  0.0073
  C  C475  1  0.218800  0.607200  0.320700  1.0  0.453
  C  C476  1  0.828200  0.418200  0.418340  1.0  -0.0684
  C  C477  1  0.851200  0.391600  0.410800  1.0  0.0371
  C  C478  1  0.894800  0.417700  0.399600  1.0  0.1951
  C  C479  1  0.915300  0.470400  0.396000  1.0  0.1125
  C  C480  1  0.892300  0.497000  0.403500  1.0  -0.0841
  C  C481  1  0.848700  0.470900  0.414700  1.0  -0.0185
  C  C482  1  0.090800  0.644300  0.353400  1.0  0.4292
  C  C483  1  0.086400  0.170100  0.165300  1.0  0.0215
  C  C484  1  0.093500  0.170100  0.184200  1.0  0.0103
  C  C485  1  0.122000  0.216900  0.193500  1.0  0.1383
  C  C486  1  0.143500  0.263700  0.184000  1.0  0.1305
  C  C487  1  0.136400  0.263800  0.165100  1.0  -0.0668
  C  C488  1  0.107900  0.217000  0.155700  1.0  0.0337
  C  C489  1  0.039100  0.624000  0.348800  1.0  -0.0209
  C  C490  1  0.255800  0.506900  0.250900  1.0  -0.0292
  C  C491  1  0.228000  0.455500  0.256800  1.0  0.0131
  C  C492  1  0.211500  0.415200  0.244200  1.0  0.1561
  C  C493  1  0.222900  0.426200  0.225600  1.0  0.1515
  C  C494  1  0.250700  0.477600  0.219700  1.0  -0.0434
  C  C495  1  0.267200  0.518000  0.232400  1.0  0.0069
  C  C496  1  0.126000  0.691000  0.344300  1.0  -0.0367
  C  C497  1  0.097600  0.657000  0.372100  1.0  -0.0376
  C  C498  1  0.086700  0.470900  0.359000  1.0  0.0905
  C  C499  1  0.779700  0.387400  0.430800  1.0  0.4612
  C  C500  1  0.916500  0.556300  0.398900  1.0  0.3893
  C  C501  1  0.887700  0.576300  0.407700  1.0  -0.0208
  C  C502  1  0.915800  0.562200  0.379900  1.0  -0.0426
  C  C503  1  0.968100  0.583500  0.404300  1.0  -0.0274
  C  C504  1  0.912000  0.383700  0.393400  1.0  0.0843
  C  C505  1  0.024100  0.392400  0.373300  1.0  0.059
  C  C506  1  0.053300  0.360900  0.372200  1.0  -0.0132
  C  C507  1  0.036200  0.314200  0.383400  1.0  0.0255
  C  C508  1  0.988600  0.296100  0.393700  1.0  0.0269
  C  C509  1  0.946900  0.308200  0.387300  1.0  -0.0793
  C  C510  1  0.970300  0.363900  0.375500  1.0  0.084
  C  C511  1  0.055100  0.118700  0.154600  1.0  0.4283
  C  C512  1  0.158500  0.315600  0.153900  1.0  0.381
  C  C513  1  0.207700  0.356700  0.158000  1.0  -0.014
  C  C514  1  0.125000  0.336000  0.154400  1.0  -0.0117
  C  C515  1  0.160000  0.304000  0.135000  1.0  -0.0238
  C  C516  1  0.125000  0.211700  0.212700  1.0  0.002
  C  C517  1  0.275100  0.553100  0.264300  1.0  0.5562
  C  C518  1  0.266300  0.496000  0.199300  1.0  0.3622
  C  C519  1  0.310000  0.491000  0.194600  1.0  -0.0186
  C  C520  1  0.283300  0.550000  0.197400  1.0  -0.0223
  C  C521  1  0.225700  0.469700  0.186600  1.0  -0.0096
  C  C522  1  0.182400  0.364800  0.252100  1.0  0.0605
  C  C523  1  0.107200  0.235000  0.242700  1.0  0.1128
  C  C524  1  0.060100  0.180000  0.249600  1.0  -0.0378
  C  C525  1  0.028600  0.179500  0.265700  1.0  0.0224
  C  C526  1  0.056300  0.220000  0.279100  1.0  0.0573
  C  C527  1  0.103900  0.273000  0.273900  1.0  0.0033
  C  C528  1  0.106200  0.276900  0.251200  1.0  0.048
  C  C529  1  0.803400  0.130900  0.535900  1.0  0.1757
  C  C530  1  0.021500  0.487700  0.386800  1.0  0.0897
  C  C531  1  0.863100  0.182200  0.531700  1.0  0.111
  C  C532  1  0.016100  0.520000  0.382000  1.0  0.1857
  C  C533  1  0.837770  0.921630  0.666940  1.0  0.0052
  C  C534  1  0.814170  0.871930  0.674430  1.0  0.0411
  C  C535  1  0.771370  0.855230  0.685930  1.0  0.0773
  C  C536  1  0.751970  0.888230  0.689930  1.0  0.1247
  C  C537  1  0.775570  0.937930  0.682430  1.0  -0.1275
  C  C538  1  0.818470  0.954630  0.670930  1.0  0.0073
  C  C539  1  0.885470  0.940530  0.654030  1.0  0.453
  C  C540  1  0.494870  0.751530  0.751670  1.0  -0.0684
  C  C541  1  0.517870  0.724930  0.744130  1.0  0.0371
  C  C542  1  0.561470  0.751030  0.732930  1.0  0.1951
  C  C543  1  0.581970  0.803730  0.729330  1.0  0.1125
  C  C544  1  0.558970  0.830330  0.736830  1.0  -0.0841
  C  C545  1  0.515370  0.804230  0.748030  1.0  -0.0185
  C  C546  1  0.757470  0.977630  0.686730  1.0  0.4292
  C  C547  1  0.753070  0.503430  0.498630  1.0  0.0215
  C  C548  1  0.760170  0.503430  0.517530  1.0  0.0103
  C  C549  1  0.788670  0.550230  0.526830  1.0  0.1383
  C  C550  1  0.810170  0.597030  0.517330  1.0  0.1305
  C  C551  1  0.803070  0.597130  0.498430  1.0  -0.0668
  C  C552  1  0.774570  0.550330  0.489030  1.0  0.0337
  C  C553  1  0.705770  0.957330  0.682130  1.0  -0.0209
  C  C554  1  0.922470  0.840230  0.584230  1.0  -0.0291
  C  C555  1  0.894670  0.788830  0.590130  1.0  0.0131
  C  C556  1  0.878170  0.748530  0.577530  1.0  0.1561
  C  C557  1  0.889570  0.759530  0.558930  1.0  0.1515
  C  C558  1  0.917370  0.810930  0.553030  1.0  -0.0434
  C  C559  1  0.933870  0.851330  0.565730  1.0  0.0069
  C  C560  1  0.792670  0.024330  0.677630  1.0  -0.0367
  C  C561  1  0.764270  0.990330  0.705430  1.0  -0.0376
  C  C562  1  0.753370  0.804230  0.692330  1.0  0.0905
  C  C563  1  0.446370  0.720730  0.764130  1.0  0.4612
  C  C564  1  0.583170  0.889630  0.732230  1.0  0.3893
  C  C565  1  0.554370  0.909630  0.741030  1.0  -0.0208
  C  C566  1  0.582470  0.895530  0.713230  1.0  -0.0426
  C  C567  1  0.634770  0.916830  0.737630  1.0  -0.0275
  C  C568  1  0.578670  0.717030  0.726730  1.0  0.0843
  C  C569  1  0.690770  0.725730  0.706630  1.0  0.059
  C  C570  1  0.719970  0.694230  0.705530  1.0  -0.0132
  C  C571  1  0.702870  0.647530  0.716730  1.0  0.0255
  C  C572  1  0.655270  0.629430  0.727030  1.0  0.0269
  C  C573  1  0.613570  0.641530  0.720630  1.0  -0.0793
  C  C574  1  0.636970  0.697230  0.708830  1.0  0.084
  C  C575  1  0.721770  0.452030  0.487930  1.0  0.4283
  C  C576  1  0.825170  0.648930  0.487230  1.0  0.381
  C  C577  1  0.874370  0.690030  0.491330  1.0  -0.014
  C  C578  1  0.791670  0.669330  0.487730  1.0  -0.0117
  C  C579  1  0.826670  0.637330  0.468330  1.0  -0.0238
  C  C580  1  0.791670  0.545030  0.546030  1.0  0.002
  C  C581  1  0.941770  0.886430  0.597630  1.0  0.5562
  C  C582  1  0.932970  0.829330  0.532630  1.0  0.3622
  C  C583  1  0.976670  0.824330  0.527930  1.0  -0.0183
  C  C584  1  0.949970  0.883330  0.530730  1.0  -0.0175
  C  C585  1  0.892370  0.803030  0.519930  1.0  -0.0096
  C  C586  1  0.849070  0.698130  0.585430  1.0  0.0605
  C  C587  1  0.773870  0.568330  0.576030  1.0  0.1128
  C  C588  1  0.726770  0.513330  0.582930  1.0  -0.0378
  C  C589  1  0.695270  0.512830  0.599030  1.0  0.0224
  C  C590  1  0.722970  0.553330  0.612430  1.0  0.0573
  C  C591  1  0.770570  0.606330  0.607230  1.0  0.0033
  C  C592  1  0.772870  0.610230  0.584530  1.0  0.048
  C  C593  1  0.470070  0.464230  0.869230  1.0  0.1746
  C  C594  1  0.688170  0.821030  0.720130  1.0  0.0897
  C  C595  1  0.529770  0.515530  0.865030  1.0  0.11
  C  C596  1  0.682770  0.853330  0.715330  1.0  0.1857
  C  C597  1  0.504430  0.254970  0.000280  1.0  0.0052
  C  C598  1  0.480830  0.205270  0.007770  1.0  0.0411
  C  C599  1  0.438030  0.188570  0.019270  1.0  0.0773
  C  C600  1  0.418630  0.221570  0.023270  1.0  0.1247
  C  C601  1  0.442230  0.271270  0.015770  1.0  -0.1275
  C  C602  1  0.485130  0.287970  0.004270  1.0  0.0073
  C  C603  1  0.552130  0.273870  0.987370  1.0  0.457
  C  C604  1  0.161530  0.084870  0.085010  1.0  -0.0679
  C  C605  1  0.184530  0.058270  0.077470  1.0  0.0371
  C  C606  1  0.228130  0.084370  0.066270  1.0  0.1951
  C  C607  1  0.248630  0.137070  0.062670  1.0  0.1125
  C  C608  1  0.225630  0.163670  0.070170  1.0  -0.0841
  C  C609  1  0.182030  0.137570  0.081370  1.0  -0.0185
  C  C610  1  0.424130  0.310970  0.020070  1.0  0.4292
  C  C611  1  0.419730  0.836770  0.831970  1.0  0.0215
  C  C612  1  0.426830  0.836770  0.850870  1.0  0.0105
  C  C613  1  0.455330  0.883570  0.860170  1.0  0.1383
  C  C614  1  0.476830  0.930370  0.850670  1.0  0.1305
  C  C615  1  0.469730  0.930470  0.831770  1.0  -0.0668
  C  C616  1  0.441230  0.883670  0.822370  1.0  0.0337
  C  C617  1  0.372430  0.290670  0.015470  1.0  -0.0209
  C  C618  1  0.589130  0.173570  0.917570  1.0  -0.0292
  C  C619  1  0.561330  0.122170  0.923470  1.0  0.013
  C  C620  1  0.544830  0.081870  0.910870  1.0  0.1561
  C  C621  1  0.556230  0.092870  0.892270  1.0  0.1518
  C  C622  1  0.584030  0.144270  0.886370  1.0  -0.0434
  C  C623  1  0.600530  0.184670  0.899070  1.0  0.0069
  C  C624  1  0.459330  0.357670  0.010970  1.0  -0.0367
  C  C625  1  0.430930  0.323670  0.038770  1.0  -0.0376
  C  C626  1  0.420030  0.137570  0.025670  1.0  0.0903
  C  C627  1  0.113030  0.054070  0.097470  1.0  0.4612
  C  C628  1  0.249830  0.222970  0.065570  1.0  0.3893
  C  C629  1  0.221030  0.242970  0.074370  1.0  -0.0208
  C  C630  1  0.249130  0.228870  0.046570  1.0  -0.0426
  C  C631  1  0.301430  0.250170  0.070970  1.0  -0.0273
  C  C632  1  0.245330  0.050370  0.060070  1.0  0.0844
  C  C633  1  0.357430  0.059070  0.039970  1.0  0.0591
  C  C634  1  0.386630  0.027570  0.038870  1.0  -0.0127
  C  C635  1  0.369530  0.980870  0.050070  1.0  0.0254
  C  C636  1  0.321930  0.962770  0.060370  1.0  0.0268
  C  C637  1  0.280230  0.974870  0.053970  1.0  -0.0793
  C  C638  1  0.303630  0.030570  0.042170  1.0  0.084
  C  C639  1  0.388430  0.785370  0.821270  1.0  0.4283
  C  C640  1  0.491830  0.982270  0.820570  1.0  0.3813
  C  C641  1  0.541030  0.023370  0.824670  1.0  -0.0138
  C  C642  1  0.458330  0.002670  0.821070  1.0  -0.0117
  C  C643  1  0.493330  0.970670  0.801670  1.0  -0.0238
  C  C644  1  0.458330  0.878370  0.879370  1.0  0.002
  C  C645  1  0.608430  0.219770  0.930970  1.0  0.5562
  C  C646  1  0.599630  0.162670  0.865970  1.0  0.3622
  C  C647  1  0.643330  0.157670  0.861270  1.0  -0.0186
  C  C648  1  0.616630  0.216670  0.864070  1.0  -0.0223
  C  C649  1  0.559030  0.136370  0.853270  1.0  -0.0096
  C  C650  1  0.515730  0.031470  0.918770  1.0  0.0605
  C  C651  1  0.440530  0.901670  0.909370  1.0  0.1128
  C  C652  1  0.393430  0.846670  0.916270  1.0  -0.0378
  C  C653  1  0.361930  0.846170  0.932370  1.0  0.0176
  C  C654  1  0.389630  0.886670  0.945770  1.0  0.0581
  C  C655  1  0.437230  0.939670  0.940570  1.0  0.0036
  C  C656  1  0.439530  0.943570  0.917870  1.0  0.048
  C  C657  1  0.136730  0.797570  0.202570  1.0  0.1757
  C  C658  1  0.354830  0.154370  0.053470  1.0  0.0897
  C  C659  1  0.196430  0.848870  0.198370  1.0  0.111
  C  C660  1  0.349430  0.186670  0.048670  1.0  0.1857
  C  C661  1  0.582800  0.411700  0.666390  1.0  0.0051
  C  C662  1  0.608900  0.461400  0.658900  1.0  0.041
  C  C663  1  0.582800  0.478100  0.647400  1.0  0.0766
  C  C664  1  0.530400  0.445100  0.643400  1.0  0.1238
  C  C665  1  0.504300  0.395400  0.650900  1.0  -0.1276
  C  C666  1  0.530500  0.378700  0.662400  1.0  0.01
  C  C667  1  0.611600  0.392800  0.679300  1.0  0.4588
  C  C668  1  0.410000  0.581800  0.581660  1.0  -0.0683
  C  C669  1  0.459600  0.608400  0.589200  1.0  0.0361
  C  C670  1  0.477100  0.582300  0.600400  1.0  0.1944
  C  C671  1  0.444900  0.529600  0.604000  1.0  0.1127
  C  C672  1  0.395300  0.503000  0.596500  1.0  -0.085
  C  C673  1  0.377800  0.529100  0.585300  1.0  -0.0198
  C  C674  1  0.446500  0.355700  0.646600  1.0  0.4322
  C  C675  1  0.916300  0.829900  0.834700  1.0  0.0224
  C  C676  1  0.923400  0.829900  0.815800  1.0  0.0118
  C  C677  1  0.905100  0.783100  0.806500  1.0  0.1378
  C  C678  1  0.879800  0.736300  0.816000  1.0  0.1301
  C  C679  1  0.872600  0.736200  0.834900  1.0  -0.0674
  C  C680  1  0.890900  0.783000  0.844300  1.0  0.0341
  C  C681  1  0.415100  0.376000  0.651200  1.0  -0.0192
  C  C682  1  0.748900  0.493100  0.749100  1.0  -0.0287
  C  C683  1  0.772500  0.544500  0.743200  1.0  0.0157
  C  C684  1  0.796300  0.584800  0.755800  1.0  0.1561
  C  C685  1  0.796700  0.573800  0.774400  1.0  0.1514
  C  C686  1  0.773100  0.522400  0.780300  1.0  -0.0432
  C  C687  1  0.749200  0.482000  0.767600  1.0  0.0077
  C  C688  1  0.435000  0.309000  0.655700  1.0  -0.0357
  C  C689  1  0.440600  0.343000  0.627900  1.0  -0.0368
  C  C690  1  0.615800  0.529100  0.641000  1.0  0.0905
  C  C691  1  0.392300  0.612600  0.569200  1.0  0.4617
  C  C692  1  0.360200  0.443700  0.601100  1.0  0.3924
  C  C693  1  0.311400  0.423700  0.592300  1.0  -0.0193
  C  C694  1  0.353600  0.437800  0.620100  1.0  -0.0481
  C  C695  1  0.384600  0.416500  0.595700  1.0  -0.0252
  C  C696  1  0.528300  0.616300  0.606600  1.0  0.0839
  C  C697  1  0.631700  0.607600  0.626700  1.0  0.0587
  C  C698  1  0.692400  0.639100  0.627800  1.0  -0.0136
  C  C699  1  0.722000  0.685800  0.616600  1.0  0.0262
  C  C700  1  0.692500  0.703900  0.606300  1.0  0.0257
  C  C701  1  0.638700  0.691800  0.612700  1.0  -0.0773
  C  C702  1  0.606400  0.636100  0.624500  1.0  0.0826
  C  C703  1  0.936400  0.881300  0.845400  1.0  0.4288
  C  C704  1  0.842900  0.684400  0.846100  1.0  0.3811
  C  C705  1  0.851000  0.643300  0.842000  1.0  -0.0117
  C  C706  1  0.789000  0.664000  0.845600  1.0  -0.0123
  C  C707  1  0.856000  0.696000  0.865000  1.0  -0.0243
  C  C708  1  0.913300  0.788300  0.787300  1.0  -0.0031
  C  C709  1  0.722000  0.446900  0.735700  1.0  0.5561
  C  C710  1  0.770300  0.504000  0.800700  1.0  0.364
  C  C711  1  0.819000  0.509000  0.805400  1.0  -0.0188
  C  C712  1  0.733300  0.450000  0.802600  1.0  -0.0192
  C  C713  1  0.756000  0.530300  0.813400  1.0  -0.012
  C  C714  1  0.817600  0.635200  0.747900  1.0  0.0617
  C  C715  1  0.872200  0.765000  0.757300  1.0  0.1119
  C  C716  1  0.880100  0.820000  0.750400  1.0  -0.0404
  C  C717  1  0.849100  0.820500  0.734300  1.0  0.0183
  C  C718  1  0.836300  0.780000  0.720900  1.0  0.0557
  C  C719  1  0.830900  0.727000  0.726100  1.0  0.0051
  C  C720  1  0.829300  0.723100  0.748800  1.0  0.0477
  C  C721  1  0.672500  0.869100  0.464100  1.0  0.1765
  C  C722  1  0.533800  0.512300  0.613200  1.0  0.0921
  C  C723  1  0.680900  0.817800  0.468300  1.0  0.1074
  C  C724  1  0.496100  0.480000  0.618000  1.0  0.1885
  C  C725  1  0.249470  0.745030  0.999720  1.0  0.0051
  C  C726  1  0.275570  0.794730  0.992230  1.0  0.041
  C  C727  1  0.249470  0.811430  0.980730  1.0  0.0766
  C  C728  1  0.197070  0.778430  0.976730  1.0  0.1238
  C  C729  1  0.170970  0.728730  0.984230  1.0  -0.1276
  C  C730  1  0.197170  0.712030  0.995730  1.0  0.01
  C  C731  1  0.278270  0.726130  0.012630  1.0  0.4559
  C  C732  1  0.076670  0.915130  0.914990  1.0  -0.0683
  C  C733  1  0.126270  0.941730  0.922530  1.0  0.0361
  C  C734  1  0.143770  0.915630  0.933730  1.0  0.1944
  C  C735  1  0.111570  0.862930  0.937330  1.0  0.1127
  C  C736  1  0.061970  0.836330  0.929830  1.0  -0.085
  C  C737  1  0.044470  0.862430  0.918630  1.0  -0.0198
  C  C738  1  0.113170  0.689030  0.979930  1.0  0.4322
  C  C739  1  0.582970  0.163230  0.168030  1.0  0.0224
  C  C740  1  0.590070  0.163230  0.149130  1.0  0.0097
  C  C741  1  0.571770  0.116430  0.139830  1.0  0.1379
  C  C742  1  0.546470  0.069630  0.149330  1.0  0.1301
  C  C743  1  0.539270  0.069530  0.168230  1.0  -0.0674
  C  C744  1  0.557570  0.116330  0.177630  1.0  0.0341
  C  C745  1  0.081770  0.709330  0.984530  1.0  -0.0192
  C  C746  1  0.415570  0.826430  0.082430  1.0  -0.0287
  C  C747  1  0.439170  0.877830  0.076530  1.0  0.0155
  C  C748  1  0.462970  0.918130  0.089130  1.0  0.1561
  C  C749  1  0.463370  0.907130  0.107730  1.0  0.1518
  C  C750  1  0.439770  0.855730  0.113630  1.0  -0.0432
  C  C751  1  0.415870  0.815330  0.100930  1.0  0.0077
  C  C752  1  0.101670  0.642330  0.989030  1.0  -0.0358
  C  C753  1  0.107270  0.676330  0.961230  1.0  -0.0368
  C  C754  1  0.282470  0.862430  0.974330  1.0  0.0902
  C  C755  1  0.058970  0.945930  0.902530  1.0  0.4617
  C  C756  1  0.026870  0.777030  0.934430  1.0  0.3924
  C  C757  1  0.978070  0.757030  0.925630  1.0  -0.0193
  C  C758  1  0.020270  0.771130  0.953430  1.0  -0.0481
  C  C759  1  0.051270  0.749830  0.929030  1.0  -0.0252
  C  C760  1  0.194970  0.949630  0.939930  1.0  0.0839
  C  C761  1  0.298370  0.940930  0.960030  1.0  0.0588
  C  C762  1  0.359070  0.972430  0.961130  1.0  -0.0136
  C  C763  1  0.388670  0.019130  0.949930  1.0  0.0259
  C  C764  1  0.359170  0.037230  0.939630  1.0  0.0256
  C  C765  1  0.305370  0.025130  0.946030  1.0  -0.0773
  C  C766  1  0.273070  0.969430  0.957830  1.0  0.0826
  C  C767  1  0.603070  0.214630  0.178730  1.0  0.4288
  C  C768  1  0.509570  0.017730  0.179430  1.0  0.3814
  C  C769  1  0.517670  0.976630  0.175330  1.0  -0.0116
  C  C770  1  0.455670  0.997330  0.178930  1.0  -0.0123
  C  C771  1  0.522670  0.029330  0.198330  1.0  -0.0243
  C  C772  1  0.579970  0.121630  0.120630  1.0  -0.0002
  C  C773  1  0.388670  0.780230  0.069030  1.0  0.5561
  C  C774  1  0.436970  0.837330  0.134030  1.0  0.364
  C  C775  1  0.485670  0.842330  0.138730  1.0  -0.0188
  C  C776  1  0.399970  0.783330  0.135930  1.0  -0.0192
  C  C777  1  0.422670  0.863630  0.146730  1.0  -0.012
  C  C778  1  0.484270  0.968530  0.081230  1.0  0.0617
  C  C779  1  0.538870  0.098330  0.090630  1.0  0.1119
  C  C780  1  0.546770  0.153330  0.083730  1.0  -0.0404
  C  C781  1  0.515770  0.153830  0.067630  1.0  0.0203
  C  C782  1  0.502970  0.113330  0.054230  1.0  0.0565
  C  C783  1  0.497570  0.060330  0.059430  1.0  0.0054
  C  C784  1  0.495970  0.056430  0.082130  1.0  0.0477
  C  C785  1  0.339170  0.202430  0.797430  1.0  0.1765
  C  C786  1  0.200470  0.845630  0.946530  1.0  0.0921
  C  C787  1  0.347570  0.151130  0.801630  1.0  0.1074
  C  C788  1  0.162770  0.813330  0.951330  1.0  0.1885
  C  C789  1  0.916130  0.078370  0.333060  1.0  0.0051
  C  C790  1  0.942230  0.128070  0.325570  1.0  0.041
  C  C791  1  0.916130  0.144770  0.314070  1.0  0.0766
  C  C792  1  0.863730  0.111770  0.310070  1.0  0.1238
  C  C793  1  0.837630  0.062070  0.317570  1.0  -0.1276
  C  C794  1  0.863830  0.045370  0.329070  1.0  0.01
  C  C795  1  0.944930  0.059470  0.345970  1.0  0.4588
  C  C796  1  0.743330  0.248470  0.248330  1.0  -0.0683
  C  C797  1  0.792930  0.275070  0.255870  1.0  0.0361
  C  C798  1  0.810430  0.248970  0.267070  1.0  0.1944
  C  C799  1  0.778230  0.196270  0.270670  1.0  0.1127
  C  C800  1  0.728630  0.169670  0.263170  1.0  -0.085
  C  C801  1  0.711130  0.195770  0.251970  1.0  -0.0198
  C  C802  1  0.779830  0.022370  0.313270  1.0  0.4322
  C  C803  1  0.249630  0.496570  0.501370  1.0  0.0224
  C  C804  1  0.256730  0.496570  0.482470  1.0  0.0097
  C  C805  1  0.238430  0.449770  0.473170  1.0  0.1378
  C  C806  1  0.213130  0.402970  0.482670  1.0  0.1301
  C  C807  1  0.205930  0.402870  0.501570  1.0  -0.0674
  C  C808  1  0.224230  0.449670  0.510970  1.0  0.0341
  C  C809  1  0.748430  0.042670  0.317870  1.0  -0.0192
  C  C810  1  0.082230  0.159770  0.415770  1.0  -0.0281
  C  C811  1  0.105830  0.211170  0.409870  1.0  0.0157
  C  C812  1  0.129630  0.251470  0.422470  1.0  0.1561
  C  C813  1  0.130030  0.240470  0.441070  1.0  0.1514
  C  C814  1  0.106430  0.189070  0.446970  1.0  -0.0432
  C  C815  1  0.082530  0.148670  0.434270  1.0  0.0077
  C  C816  1  0.768330  0.975670  0.322370  1.0  -0.0357
  C  C817  1  0.773930  0.009670  0.294570  1.0  -0.0368
  C  C818  1  0.949130  0.195770  0.307670  1.0  0.0905
  C  C819  1  0.725630  0.279270  0.235870  1.0  0.4616
  C  C820  1  0.693530  0.110370  0.267770  1.0  0.3924
  C  C821  1  0.644730  0.090370  0.258970  1.0  -0.0193
  C  C822  1  0.686930  0.104470  0.286770  1.0  -0.0481
  C  C823  1  0.717930  0.083170  0.262370  1.0  -0.0253
  C  C824  1  0.861630  0.282970  0.273270  1.0  0.0839
  C  C825  1  0.965030  0.274270  0.293370  1.0  0.0587
  C  C826  1  0.025730  0.305770  0.294470  1.0  -0.0136
  C  C827  1  0.055330  0.352470  0.283270  1.0  0.0262
  C  C828  1  0.025830  0.370570  0.272970  1.0  0.0256
  C  C829  1  0.972030  0.358470  0.279370  1.0  -0.0773
  C  C830  1  0.939730  0.302770  0.291170  1.0  0.0826
  C  C831  1  0.269730  0.547970  0.512070  1.0  0.4288
  C  C832  1  0.176230  0.351070  0.512770  1.0  0.3811
  C  C833  1  0.184330  0.309970  0.508670  1.0  -0.0116
  C  C834  1  0.122330  0.330670  0.512270  1.0  -0.0123
  C  C835  1  0.189330  0.362670  0.531670  1.0  -0.0243
  C  C836  1  0.246630  0.454970  0.453970  1.0  -1e-04
  C  C837  1  0.055330  0.113570  0.402370  1.0  0.5561
  C  C838  1  0.103630  0.170670  0.467370  1.0  0.364
  C  C839  1  0.152330  0.175670  0.472070  1.0  -0.0187
  C  C840  1  0.066630  0.116670  0.469270  1.0  -0.0149
  C  C841  1  0.089330  0.196970  0.480070  1.0  -0.012
  C  C842  1  0.150930  0.301870  0.414570  1.0  0.0617
  C  C843  1  0.205530  0.431670  0.423970  1.0  0.1119
  C  C844  1  0.213430  0.486670  0.417070  1.0  -0.0404
  C  C845  1  0.182430  0.487170  0.400970  1.0  0.0183
  C  C846  1  0.169630  0.446670  0.387570  1.0  0.0557
  C  C847  1  0.164230  0.393670  0.392770  1.0  0.0051
  C  C848  1  0.162630  0.389770  0.415470  1.0  0.0477
  C  C849  1  0.005830  0.535770  0.130770  1.0  0.1736
  C  C850  1  0.867130  0.178970  0.279870  1.0  0.0921
  C  C851  1  0.014230  0.484470  0.134970  1.0  0.1079
  C  C852  1  0.829430  0.146670  0.284670  1.0  0.1885
  C  C853  1  0.828900  0.417200  0.666390  1.0  0.0046
  C  C854  1  0.852500  0.391100  0.658900  1.0  0.0412
  C  C855  1  0.895300  0.417200  0.647400  1.0  0.0781
  C  C856  1  0.914700  0.469600  0.643400  1.0  0.1251
  C  C857  1  0.891100  0.495700  0.650900  1.0  -0.1268
  C  C858  1  0.848200  0.469500  0.662400  1.0  0.0104
  C  C859  1  0.781200  0.388400  0.679300  1.0  0.4508
  C  C860  1  0.171800  0.590000  0.581660  1.0  -0.0691
  C  C861  1  0.148800  0.540400  0.589200  1.0  0.0393
  C  C862  1  0.105200  0.522900  0.600400  1.0  0.1955
  C  C863  1  0.084700  0.555100  0.604000  1.0  0.1117
  C  C864  1  0.107700  0.604700  0.596500  1.0  -0.0872
  C  C865  1  0.151300  0.622200  0.585300  1.0  -0.0185
  C  C866  1  0.909200  0.553500  0.646600  1.0  0.4284
  C  C867  1  0.913600  0.083700  0.834700  1.0  0.0217
  C  C868  1  0.906500  0.076600  0.815800  1.0  0.0134
  C  C869  1  0.878000  0.094900  0.806500  1.0  0.1369
  C  C870  1  0.856500  0.120200  0.816000  1.0  0.1324
  C  C871  1  0.863600  0.127400  0.834900  1.0  -0.0676
  C  C872  1  0.892100  0.109100  0.844300  1.0  0.0329
  C  C873  1  0.960900  0.584900  0.651200  1.0  -0.0203
  C  C874  1  0.744200  0.251100  0.749100  1.0  -0.0283
  C  C875  1  0.772000  0.227500  0.743200  1.0  0.0168
  C  C876  1  0.788500  0.203700  0.755800  1.0  0.1565
  C  C877  1  0.777100  0.203300  0.774400  1.0  0.1527
  C  C878  1  0.749300  0.226900  0.780300  1.0  -0.043
  C  C879  1  0.732800  0.250800  0.767600  1.0  0.0067
  C  C880  1  0.874000  0.565000  0.655700  1.0  -0.0301
  C  C881  1  0.902400  0.559400  0.627900  1.0  -0.0345
  C  C882  1  0.913300  0.384200  0.641000  1.0  0.0907
  C  C883  1  0.220300  0.607700  0.569200  1.0  0.4642
  C  C884  1  0.083500  0.639800  0.601100  1.0  0.3909
  C  C885  1  0.112300  0.688600  0.592300  1.0  -0.0238
  C  C886  1  0.084200  0.646400  0.620100  1.0  -0.0497
  C  C887  1  0.031900  0.615400  0.595700  1.0  -0.0215
  C  C888  1  0.088000  0.471700  0.606600  1.0  0.0815
  C  C889  1  0.975900  0.368300  0.626700  1.0  0.0575
  C  C890  1  0.946700  0.307600  0.627800  1.0  -0.016
  C  C891  1  0.963800  0.278000  0.616600  1.0  0.0247
  C  C892  1  0.011400  0.307500  0.606300  1.0  0.0294
  C  C893  1  0.053100  0.361300  0.612700  1.0  -0.0746
  C  C894  1  0.029700  0.393600  0.624500  1.0  0.0837
  C  C895  1  0.944900  0.063600  0.845400  1.0  0.4281
  C  C896  1  0.841500  0.157100  0.846100  1.0  0.3806
  C  C897  1  0.792300  0.149000  0.842000  1.0  -0.0058
  C  C898  1  0.875000  0.211000  0.845600  1.0  -0.019
  C  C899  1  0.840000  0.144000  0.865000  1.0  -0.0234
  C  C900  1  0.875000  0.086700  0.787300  1.0  -0.0017
  C  C901  1  0.724900  0.278000  0.735700  1.0  0.5549
  C  C902  1  0.733700  0.229700  0.800700  1.0  0.3643
  C  C903  1  0.690000  0.181000  0.805400  1.0  -0.0199
  C  C904  1  0.716700  0.266700  0.802600  1.0  -0.0101
  C  C905  1  0.774300  0.244000  0.813400  1.0  -0.0154
  C  C906  1  0.817600  0.182400  0.747900  1.0  0.0614
  C  C907  1  0.892800  0.127800  0.757300  1.0  0.1111
  C  C908  1  0.939900  0.119900  0.750400  1.0  -0.0419
  C  C909  1  0.971400  0.150900  0.734300  1.0  0.0191
  C  C910  1  0.943700  0.163700  0.720900  1.0  0.0582
  C  C911  1  0.896100  0.169100  0.726100  1.0  0.0064
  C  C912  1  0.893800  0.170700  0.748800  1.0  0.0432
  C  C913  1  0.196600  0.327500  0.464100  1.0  0.1763
  C  C914  1  0.978500  0.466200  0.613200  1.0  0.0914
  C  C915  1  0.136900  0.319100  0.468300  1.0  0.1083
  C  C916  1  0.983900  0.503900  0.618000  1.0  0.1863
  C  C917  1  0.495570  0.750530  0.999720  1.0  0.0046
  C  C918  1  0.519170  0.724430  0.992230  1.0  0.0412
  C  C919  1  0.561970  0.750530  0.980730  1.0  0.0781
  C  C920  1  0.581370  0.802930  0.976730  1.0  0.1252
  C  C921  1  0.557770  0.829030  0.984230  1.0  -0.1268
  C  C922  1  0.514870  0.802830  0.995730  1.0  0.0104
  C  C923  1  0.447870  0.721730  0.012630  1.0  0.458
  C  C924  1  0.838470  0.923330  0.914990  1.0  -0.0692
  C  C925  1  0.815470  0.873730  0.922530  1.0  0.0393
  C  C926  1  0.771870  0.856230  0.933730  1.0  0.1955
  C  C927  1  0.751370  0.888430  0.937330  1.0  0.1117
  C  C928  1  0.774370  0.938030  0.929830  1.0  -0.0872
  C  C929  1  0.817970  0.955530  0.918630  1.0  -0.0185
  C  C930  1  0.575870  0.886830  0.979930  1.0  0.4284
  C  C931  1  0.580270  0.417030  0.168030  1.0  0.0217
  C  C932  1  0.573170  0.409930  0.149130  1.0  0.0116
  C  C933  1  0.544670  0.428230  0.139830  1.0  0.1369
  C  C934  1  0.523170  0.453530  0.149330  1.0  0.1324
  C  C935  1  0.530270  0.460730  0.168230  1.0  -0.0676
  C  C936  1  0.558770  0.442430  0.177630  1.0  0.0329
  C  C937  1  0.627570  0.918230  0.984530  1.0  -0.0203
  C  C938  1  0.410870  0.584430  0.082430  1.0  -0.0283
  C  C939  1  0.438670  0.560830  0.076530  1.0  0.0166
  C  C940  1  0.455170  0.537030  0.089130  1.0  0.1565
  C  C941  1  0.443770  0.536630  0.107730  1.0  0.1527
  C  C942  1  0.415970  0.560230  0.113630  1.0  -0.043
  C  C943  1  0.399470  0.584130  0.100930  1.0  0.0067
  C  C944  1  0.540670  0.898330  0.989030  1.0  -0.0303
  C  C945  1  0.569070  0.892730  0.961230  1.0  -0.0345
  C  C946  1  0.579970  0.717530  0.974330  1.0  0.0909
  C  C947  1  0.886970  0.941030  0.902530  1.0  0.4642
  C  C948  1  0.750170  0.973130  0.934430  1.0  0.3909
  C  C949  1  0.778970  0.021930  0.925630  1.0  -0.0238
  C  C950  1  0.750870  0.979730  0.953430  1.0  -0.0497
  C  C951  1  0.698570  0.948730  0.929030  1.0  -0.0208
  C  C952  1  0.754670  0.805030  0.939930  1.0  0.0815
  C  C953  1  0.642570  0.701630  0.960030  1.0  0.0575
  C  C954  1  0.613370  0.640930  0.961130  1.0  -0.0155
  C  C955  1  0.630470  0.611330  0.949930  1.0  0.0245
  C  C956  1  0.678070  0.640830  0.939630  1.0  0.0292
  C  C957  1  0.719770  0.694630  0.946030  1.0  -0.0746
  C  C958  1  0.696370  0.726930  0.957830  1.0  0.0837
  C  C959  1  0.611570  0.396930  0.178730  1.0  0.4281
  C  C960  1  0.508170  0.490430  0.179430  1.0  0.3809
  C  C961  1  0.458970  0.482330  0.175330  1.0  -0.0057
  C  C962  1  0.541670  0.544330  0.178930  1.0  -0.019
  C  C963  1  0.506670  0.477330  0.198330  1.0  -0.0234
  C  C964  1  0.541670  0.420030  0.120630  1.0  0.0013
  C  C965  1  0.391570  0.611330  0.069030  1.0  0.5549
  C  C966  1  0.400370  0.563030  0.134030  1.0  0.3643
  C  C967  1  0.356670  0.514330  0.138730  1.0  -0.0199
  C  C968  1  0.383370  0.600030  0.135930  1.0  -0.0101
  C  C969  1  0.440970  0.577330  0.146730  1.0  -0.0154
  C  C970  1  0.484270  0.515730  0.081230  1.0  0.0614
  C  C971  1  0.559470  0.461130  0.090630  1.0  0.1111
  C  C972  1  0.606570  0.453230  0.083730  1.0  -0.0419
  C  C973  1  0.638070  0.484230  0.067630  1.0  0.0193
  C  C974  1  0.610370  0.497030  0.054230  1.0  0.059
  C  C975  1  0.562770  0.502430  0.059430  1.0  0.0068
  C  C976  1  0.560470  0.504030  0.082130  1.0  0.0432
  C  C977  1  0.863270  0.660830  0.797430  1.0  0.1763
  C  C978  1  0.645170  0.799530  0.946530  1.0  0.0914
  C  C979  1  0.803570  0.652430  0.801630  1.0  0.1083
  C  C980  1  0.650570  0.837230  0.951330  1.0  0.1863
  C  C981  1  0.162230  0.083870  0.333060  1.0  0.0046
  C  C982  1  0.185830  0.057770  0.325570  1.0  0.0412
  C  C983  1  0.228630  0.083870  0.314070  1.0  0.0781
  C  C984  1  0.248030  0.136270  0.310070  1.0  0.1251
  C  C985  1  0.224430  0.162370  0.317570  1.0  -0.1268
  C  C986  1  0.181530  0.136170  0.329070  1.0  0.0104
  C  C987  1  0.114530  0.055070  0.345970  1.0  0.4508
  C  C988  1  0.505130  0.256670  0.248330  1.0  -0.0691
  C  C989  1  0.482130  0.207070  0.255870  1.0  0.0393
  C  C990  1  0.438530  0.189570  0.267070  1.0  0.1955
  C  C991  1  0.418030  0.221770  0.270670  1.0  0.1117
  C  C992  1  0.441030  0.271370  0.263170  1.0  -0.0872
  C  C993  1  0.484630  0.288870  0.251970  1.0  -0.0185
  C  C994  1  0.242530  0.220170  0.313270  1.0  0.4284
  C  C995  1  0.246930  0.750370  0.501370  1.0  0.0217
  C  C996  1  0.239830  0.743270  0.482470  1.0  0.0118
  C  C997  1  0.211330  0.761570  0.473170  1.0  0.1369
  C  C998  1  0.189830  0.786870  0.482670  1.0  0.1324
  C  C999  1  0.196930  0.794070  0.501570  1.0  -0.0676
  C  C1000  1  0.225430  0.775770  0.510970  1.0  0.0329
  C  C1001  1  0.294230  0.251570  0.317870  1.0  -0.0203
  C  C1002  1  0.077530  0.917770  0.415770  1.0  -0.0281
  C  C1003  1  0.105330  0.894170  0.409870  1.0  0.0168
  C  C1004  1  0.121830  0.870370  0.422470  1.0  0.1565
  C  C1005  1  0.110430  0.869970  0.441070  1.0  0.1527
  C  C1006  1  0.082630  0.893570  0.446970  1.0  -0.043
  C  C1007  1  0.066130  0.917470  0.434270  1.0  0.0067
  C  C1008  1  0.207330  0.231670  0.322370  1.0  -0.0301
  C  C1009  1  0.235730  0.226070  0.294570  1.0  -0.0345
  C  C1010  1  0.246630  0.050870  0.307670  1.0  0.0907
  C  C1011  1  0.553630  0.274370  0.235870  1.0  0.4642
  C  C1012  1  0.416830  0.306470  0.267770  1.0  0.3909
  C  C1013  1  0.445630  0.355270  0.258970  1.0  -0.0238
  C  C1014  1  0.417530  0.313070  0.286770  1.0  -0.0497
  C  C1015  1  0.365230  0.282070  0.262370  1.0  -0.0213
  C  C1016  1  0.421330  0.138370  0.273270  1.0  0.0815
  C  C1017  1  0.309230  0.034970  0.293370  1.0  0.0575
  C  C1018  1  0.280030  0.974270  0.294470  1.0  -0.016
  C  C1019  1  0.297130  0.944670  0.283270  1.0  0.0247
  C  C1020  1  0.344730  0.974170  0.272970  1.0  0.0294
  C  C1021  1  0.386430  0.027970  0.279370  1.0  -0.0746
  C  C1022  1  0.363030  0.060270  0.291170  1.0  0.0837
  C  C1023  1  0.278230  0.730270  0.512070  1.0  0.4281
  C  C1024  1  0.174830  0.823770  0.512770  1.0  0.3806
  C  C1025  1  0.125630  0.815670  0.508670  1.0  -0.0058
  C  C1026  1  0.208330  0.877670  0.512270  1.0  -0.019
  C  C1027  1  0.173330  0.810670  0.531670  1.0  -0.0234
  C  C1028  1  0.208330  0.753370  0.453970  1.0  0.0013
  C  C1029  1  0.058230  0.944670  0.402370  1.0  0.5549
  C  C1030  1  0.067030  0.896370  0.467370  1.0  0.3643
  C  C1031  1  0.023330  0.847670  0.472070  1.0  -0.0198
  C  C1032  1  0.050030  0.933370  0.469270  1.0  -0.014
  C  C1033  1  0.107630  0.910670  0.480070  1.0  -0.0154
  C  C1034  1  0.150930  0.849070  0.414570  1.0  0.0614
  C  C1035  1  0.226130  0.794470  0.423970  1.0  0.1111
  C  C1036  1  0.273230  0.786570  0.417070  1.0  -0.0419
  C  C1037  1  0.304730  0.817570  0.400970  1.0  0.0191
  C  C1038  1  0.277030  0.830370  0.387570  1.0  0.0582
  C  C1039  1  0.229430  0.835770  0.392770  1.0  0.0064
  C  C1040  1  0.227130  0.837370  0.415470  1.0  0.0432
  C  C1041  1  0.529930  0.994170  0.130770  1.0  0.1731
  C  C1042  1  0.311830  0.132870  0.279870  1.0  0.0914
  C  C1043  1  0.470230  0.985770  0.134970  1.0  0.1075
  C  C1044  1  0.317230  0.170570  0.284670  1.0  0.1863
  C  C1045  1  0.588300  0.171100  0.666390  1.0  0.0054
  C  C1046  1  0.538600  0.147500  0.658900  1.0  0.0432
  C  C1047  1  0.521900  0.104700  0.647400  1.0  0.0784
  C  C1048  1  0.554900  0.085300  0.643400  1.0  0.1246
  C  C1049  1  0.604600  0.108900  0.650900  1.0  -0.1266
  C  C1050  1  0.621300  0.151800  0.662400  1.0  0.0063
  C  C1051  1  0.607200  0.218800  0.679300  1.0  0.4532
  C  C1052  1  0.418200  0.828200  0.581660  1.0  -0.0694
  C  C1053  1  0.391600  0.851200  0.589200  1.0  0.0398
  C  C1054  1  0.417700  0.894800  0.600400  1.0  0.1968
  C  C1055  1  0.470400  0.915300  0.604000  1.0  0.1115
  C  C1056  1  0.497000  0.892300  0.596500  1.0  -0.0854
  C  C1057  1  0.470900  0.848700  0.585300  1.0  -0.0223
  C  C1058  1  0.644300  0.090800  0.646600  1.0  0.4275
  C  C1059  1  0.170100  0.086400  0.834700  1.0  0.0209
  C  C1060  1  0.170100  0.093500  0.815800  1.0  0.0113
  C  C1061  1  0.216900  0.122000  0.806500  1.0  0.141
  C  C1062  1  0.263700  0.143500  0.816000  1.0  0.1314
  C  C1063  1  0.263800  0.136400  0.834900  1.0  -0.0674
  C  C1064  1  0.217000  0.107900  0.844300  1.0  0.0338
  C  C1065  1  0.624000  0.039100  0.651200  1.0  -0.0257
  C  C1066  1  0.506900  0.255800  0.749100  1.0  -0.0293
  C  C1067  1  0.455500  0.228000  0.743200  1.0  0.0154
  C  C1068  1  0.415200  0.211500  0.755800  1.0  0.1576
  C  C1069  1  0.426200  0.222900  0.774400  1.0  0.1525
  C  C1070  1  0.477600  0.250700  0.780300  1.0  -0.043
  C  C1071  1  0.518000  0.267200  0.767600  1.0  0.002
  C  C1072  1  0.691000  0.126000  0.655700  1.0  -0.0314
  C  C1073  1  0.657000  0.097600  0.627900  1.0  -0.0333
  C  C1074  1  0.470900  0.086700  0.641000  1.0  0.0885
  C  C1075  1  0.387400  0.779700  0.569200  1.0  0.4629
  C  C1076  1  0.556300  0.916500  0.601100  1.0  0.3873
  C  C1077  1  0.576300  0.887700  0.592300  1.0  -0.0215
  C  C1078  1  0.562200  0.915800  0.620100  1.0  -0.0477
  C  C1079  1  0.583500  0.968100  0.595700  1.0  -0.027
  C  C1080  1  0.383700  0.912000  0.606600  1.0  0.0827
  C  C1081  1  0.392400  0.024100  0.626700  1.0  0.0598
  C  C1082  1  0.360900  0.053300  0.627800  1.0  -0.0144
  C  C1083  1  0.314200  0.036200  0.616600  1.0  0.0256
  C  C1084  1  0.296100  0.988600  0.606300  1.0  0.0259
  C  C1085  1  0.308200  0.946900  0.612700  1.0  -0.0794
  C  C1086  1  0.363900  0.970300  0.624500  1.0  0.0823
  C  C1087  1  0.118700  0.055100  0.845400  1.0  0.4286
  C  C1088  1  0.315600  0.158500  0.846100  1.0  0.38
  C  C1089  1  0.356700  0.207700  0.842000  1.0  -0.0131
  C  C1090  1  0.336000  0.125000  0.845600  1.0  -0.0135
  C  C1091  1  0.304000  0.160000  0.865000  1.0  -0.0245
  C  C1092  1  0.211700  0.125000  0.787300  1.0  0.003
  C  C1093  1  0.553100  0.275100  0.735700  1.0  0.5558
  C  C1094  1  0.496000  0.266300  0.800700  1.0  0.3645
  C  C1095  1  0.491000  0.310000  0.805400  1.0  -0.0224
  C  C1096  1  0.550000  0.283300  0.802600  1.0  -0.0151
  C  C1097  1  0.469700  0.225700  0.813400  1.0  -0.0181
  C  C1098  1  0.364800  0.182400  0.747900  1.0  0.0624
  C  C1099  1  0.235000  0.107200  0.757300  1.0  0.1129
  C  C1100  1  0.180000  0.060100  0.750400  1.0  -0.0371
  C  C1101  1  0.179500  0.028600  0.734300  1.0  0.0208
  C  C1102  1  0.220000  0.056300  0.720900  1.0  0.0567
  C  C1103  1  0.273000  0.103900  0.726100  1.0  0.0044
  C  C1104  1  0.276900  0.106200  0.748800  1.0  0.0472
  C  C1105  1  0.130900  0.803400  0.464100  1.0  0.1786
  C  C1106  1  0.487700  0.021500  0.613200  1.0  0.093
  C  C1107  1  0.182200  0.863100  0.468300  1.0  0.1074
  C  C1108  1  0.520000  0.016100  0.618000  1.0  0.1821
  C  C1109  1  0.254970  0.504430  0.999720  1.0  0.0054
  C  C1110  1  0.205270  0.480830  0.992230  1.0  0.0432
  C  C1111  1  0.188570  0.438030  0.980730  1.0  0.0783
  C  C1112  1  0.221570  0.418630  0.976730  1.0  0.1246
  C  C1113  1  0.271270  0.442230  0.984230  1.0  -0.1266
  C  C1114  1  0.287970  0.485130  0.995730  1.0  0.0063
  C  C1115  1  0.273870  0.552130  0.012630  1.0  0.4574
  C  C1116  1  0.084870  0.161530  0.914990  1.0  -0.069
  C  C1117  1  0.058270  0.184530  0.922530  1.0  0.0398
  C  C1118  1  0.084370  0.228130  0.933730  1.0  0.1968
  C  C1119  1  0.137070  0.248630  0.937330  1.0  0.1115
  C  C1120  1  0.163670  0.225630  0.929830  1.0  -0.0854
  C  C1121  1  0.137570  0.182030  0.918630  1.0  -0.0223
  C  C1122  1  0.310970  0.424130  0.979930  1.0  0.4275
  C  C1123  1  0.836770  0.419730  0.168030  1.0  0.0209
  C  C1124  1  0.836770  0.426830  0.149130  1.0  0.0114
  C  C1125  1  0.883570  0.455330  0.139830  1.0  0.1409
  C  C1126  1  0.930370  0.476830  0.149330  1.0  0.1314
  C  C1127  1  0.930470  0.469730  0.168230  1.0  -0.0674
  C  C1128  1  0.883670  0.441230  0.177630  1.0  0.0338
  C  C1129  1  0.290670  0.372430  0.984530  1.0  -0.0257
  C  C1130  1  0.173570  0.589130  0.082430  1.0  -0.0293
  C  C1131  1  0.122170  0.561330  0.076530  1.0  0.0152
  C  C1132  1  0.081870  0.544830  0.089130  1.0  0.1576
  C  C1133  1  0.092870  0.556230  0.107730  1.0  0.1529
  C  C1134  1  0.144270  0.584030  0.113630  1.0  -0.043
  C  C1135  1  0.184670  0.600530  0.100930  1.0  0.002
  C  C1136  1  0.357670  0.459330  0.989030  1.0  -0.0313
  C  C1137  1  0.323670  0.430930  0.961230  1.0  -0.0333
  C  C1138  1  0.137570  0.420030  0.974330  1.0  0.0884
  C  C1139  1  0.054070  0.113030  0.902530  1.0  0.4629
  C  C1140  1  0.222970  0.249830  0.934430  1.0  0.3873
  C  C1141  1  0.242970  0.221030  0.925630  1.0  -0.0215
  C  C1142  1  0.228870  0.249130  0.953430  1.0  -0.0477
  C  C1143  1  0.250170  0.301430  0.929030  1.0  -0.027
  C  C1144  1  0.050370  0.245330  0.939930  1.0  0.0827
  C  C1145  1  0.059070  0.357430  0.960030  1.0  0.0598
  C  C1146  1  0.027570  0.386630  0.961130  1.0  -0.014
  C  C1147  1  0.980870  0.369530  0.949930  1.0  0.0255
  C  C1148  1  0.962770  0.321930  0.939630  1.0  0.0257
  C  C1149  1  0.974870  0.280230  0.946030  1.0  -0.0794
  C  C1150  1  0.030570  0.303630  0.957830  1.0  0.0823
  C  C1151  1  0.785370  0.388430  0.178730  1.0  0.4286
  C  C1152  1  0.982270  0.491830  0.179430  1.0  0.3802
  C  C1153  1  0.023370  0.541030  0.175330  1.0  -0.0129
  C  C1154  1  0.002670  0.458330  0.178930  1.0  -0.0135
  C  C1155  1  0.970670  0.493330  0.198330  1.0  -0.0245
  C  C1156  1  0.878370  0.458330  0.120630  1.0  0.003
  C  C1157  1  0.219770  0.608430  0.069030  1.0  0.5558
  C  C1158  1  0.162670  0.599630  0.134030  1.0  0.3645
  C  C1159  1  0.157670  0.643330  0.138730  1.0  -0.0224
  C  C1160  1  0.216670  0.616630  0.135930  1.0  -0.0151
  C  C1161  1  0.136370  0.559030  0.146730  1.0  -0.0181
  C  C1162  1  0.031470  0.515730  0.081230  1.0  0.0624
  C  C1163  1  0.901670  0.440530  0.090630  1.0  0.1129
  C  C1164  1  0.846670  0.393430  0.083730  1.0  -0.0371
  C  C1165  1  0.846170  0.361930  0.067630  1.0  0.0159
  C  C1166  1  0.886670  0.389630  0.054230  1.0  0.0575
  C  C1167  1  0.939670  0.437230  0.059430  1.0  0.0047
  C  C1168  1  0.943570  0.439530  0.082130  1.0  0.0472
  C  C1169  1  0.797570  0.136730  0.797430  1.0  0.1786
  C  C1170  1  0.154370  0.354830  0.946530  1.0  0.093
  C  C1171  1  0.848870  0.196430  0.801630  1.0  0.1073
  C  C1172  1  0.186670  0.349430  0.951330  1.0  0.1821
  C  C1173  1  0.921630  0.837770  0.333060  1.0  0.0054
  C  C1174  1  0.871930  0.814170  0.325570  1.0  0.0432
  C  C1175  1  0.855230  0.771370  0.314070  1.0  0.0784
  C  C1176  1  0.888230  0.751970  0.310070  1.0  0.1246
  C  C1177  1  0.937930  0.775570  0.317570  1.0  -0.1266
  C  C1178  1  0.954630  0.818470  0.329070  1.0  0.0063
  C  C1179  1  0.940530  0.885470  0.345970  1.0  0.4532
  C  C1180  1  0.751530  0.494870  0.248330  1.0  -0.0694
  C  C1181  1  0.724930  0.517870  0.255870  1.0  0.0398
  C  C1182  1  0.751030  0.561470  0.267070  1.0  0.1968
  C  C1183  1  0.803730  0.581970  0.270670  1.0  0.1115
  C  C1184  1  0.830330  0.558970  0.263170  1.0  -0.0854
  C  C1185  1  0.804230  0.515370  0.251970  1.0  -0.0223
  C  C1186  1  0.977630  0.757470  0.313270  1.0  0.4275
  C  C1187  1  0.503430  0.753070  0.501370  1.0  0.0209
  C  C1188  1  0.503430  0.760170  0.482470  1.0  0.0113
  C  C1189  1  0.550230  0.788670  0.473170  1.0  0.141
  C  C1190  1  0.597030  0.810170  0.482670  1.0  0.1314
  C  C1191  1  0.597130  0.803070  0.501570  1.0  -0.0674
  C  C1192  1  0.550330  0.774570  0.510970  1.0  0.0338
  C  C1193  1  0.957330  0.705770  0.317870  1.0  -0.0257
  C  C1194  1  0.840230  0.922470  0.415770  1.0  -0.0292
  C  C1195  1  0.788830  0.894670  0.409870  1.0  0.0154
  C  C1196  1  0.748530  0.878170  0.422470  1.0  0.1576
  C  C1197  1  0.759530  0.889570  0.441070  1.0  0.1525
  C  C1198  1  0.810930  0.917370  0.446970  1.0  -0.043
  C  C1199  1  0.851330  0.933870  0.434270  1.0  0.002
  C  C1200  1  0.024330  0.792670  0.322370  1.0  -0.0314
  C  C1201  1  0.990330  0.764270  0.294570  1.0  -0.0333
  C  C1202  1  0.804230  0.753370  0.307670  1.0  0.0885
  C  C1203  1  0.720730  0.446370  0.235870  1.0  0.4629
  C  C1204  1  0.889630  0.583170  0.267770  1.0  0.3873
  C  C1205  1  0.909630  0.554370  0.258970  1.0  -0.0215
  C  C1206  1  0.895530  0.582470  0.286770  1.0  -0.0477
  C  C1207  1  0.916830  0.634770  0.262370  1.0  -0.0271
  C  C1208  1  0.717030  0.578670  0.273270  1.0  0.0827
  C  C1209  1  0.725730  0.690770  0.293370  1.0  0.0598
  C  C1210  1  0.694230  0.719970  0.294470  1.0  -0.0144
  C  C1211  1  0.647530  0.702870  0.283270  1.0  0.0256
  C  C1212  1  0.629430  0.655270  0.272970  1.0  0.0259
  C  C1213  1  0.641530  0.613570  0.279370  1.0  -0.0794
  C  C1214  1  0.697230  0.636970  0.291170  1.0  0.0823
  C  C1215  1  0.452030  0.721770  0.512070  1.0  0.4286
  C  C1216  1  0.648930  0.825170  0.512770  1.0  0.38
  C  C1217  1  0.690030  0.874370  0.508670  1.0  -0.0131
  C  C1218  1  0.669330  0.791670  0.512270  1.0  -0.0135
  C  C1219  1  0.637330  0.826670  0.531670  1.0  -0.0245
  C  C1220  1  0.545030  0.791670  0.453970  1.0  0.003
  C  C1221  1  0.886430  0.941770  0.402370  1.0  0.5558
  C  C1222  1  0.829330  0.932970  0.467370  1.0  0.3645
  C  C1223  1  0.824330  0.976670  0.472070  1.0  -0.0222
  C  C1224  1  0.883330  0.949970  0.469270  1.0  -0.0098
  C  C1225  1  0.803030  0.892370  0.480070  1.0  -0.0181
  C  C1226  1  0.698130  0.849070  0.414570  1.0  0.0624
  C  C1227  1  0.568330  0.773870  0.423970  1.0  0.1129
  C  C1228  1  0.513330  0.726770  0.417070  1.0  -0.0371
  C  C1229  1  0.512830  0.695270  0.400970  1.0  0.0208
  C  C1230  1  0.553330  0.722970  0.387570  1.0  0.0567
  C  C1231  1  0.606330  0.770570  0.392770  1.0  0.0044
  C  C1232  1  0.610230  0.772870  0.415470  1.0  0.0472
  C  C1233  1  0.464230  0.470070  0.130770  1.0  0.1774
  C  C1234  1  0.821030  0.688170  0.279870  1.0  0.093
  C  C1235  1  0.515530  0.529770  0.134970  1.0  0.1068
  C  C1236  1  0.853330  0.682770  0.284670  1.0  0.1821
  N  N1237  1  0.561300  0.599400  0.364800  1.0  -0.2598
  N  N1238  1  0.601600  0.553700  0.381900  1.0  -0.2454
  N  N1239  1  0.756800  0.872600  0.224100  1.0  -0.2612
  N  N1240  1  0.673400  0.814500  0.243200  1.0  -0.1891
  N  N1241  1  0.227970  0.932730  0.698130  1.0  -0.2598
  N  N1242  1  0.268270  0.887030  0.715230  1.0  -0.2454
  N  N1243  1  0.423470  0.205930  0.557430  1.0  -0.2612
  N  N1244  1  0.340070  0.147830  0.576530  1.0  -0.1891
  N  N1245  1  0.894630  0.266070  0.031470  1.0  -0.2598
  N  N1246  1  0.934930  0.220370  0.048570  1.0  -0.2454
  N  N1247  1  0.090130  0.539270  0.890770  1.0  -0.2612
  N  N1248  1  0.006730  0.481170  0.909870  1.0  -0.1883
  N  N1249  1  0.400600  0.961900  0.364800  1.0  -0.2608
  N  N1250  1  0.446300  0.047900  0.381900  1.0  -0.2469
  N  N1251  1  0.127400  0.884200  0.224100  1.0  -0.262
  N  N1252  1  0.185500  0.858900  0.243200  1.0  -0.1892
  N  N1253  1  0.067270  0.295230  0.698130  1.0  -0.2608
  N  N1254  1  0.112970  0.381230  0.715230  1.0  -0.2469
  N  N1255  1  0.794070  0.217530  0.557430  1.0  -0.262
  N  N1256  1  0.852170  0.192230  0.576530  1.0  -0.1892
  N  N1257  1  0.733930  0.628570  0.031470  1.0  -0.2608
  N  N1258  1  0.779630  0.714570  0.048570  1.0  -0.2469
  N  N1259  1  0.460730  0.550870  0.890770  1.0  -0.2622
  N  N1260  1  0.518830  0.525570  0.909870  1.0  -0.1885
  N  N1261  1  0.038100  0.438700  0.364800  1.0  -0.2611
  N  N1262  1  0.952100  0.398400  0.381900  1.0  -0.2443
  N  N1263  1  0.115800  0.243200  0.224100  1.0  -0.2626
  N  N1264  1  0.141100  0.326600  0.243200  1.0  -0.1888
  N  N1265  1  0.704770  0.772030  0.698130  1.0  -0.2611
  N  N1266  1  0.618770  0.731730  0.715230  1.0  -0.2443
  N  N1267  1  0.782470  0.576530  0.557430  1.0  -0.2626
  N  N1268  1  0.807770  0.659930  0.576530  1.0  -0.1888
  N  N1269  1  0.371430  0.105370  0.031470  1.0  -0.2611
  N  N1270  1  0.285430  0.065070  0.048570  1.0  -0.2443
  N  N1271  1  0.449130  0.909870  0.890770  1.0  -0.2626
  N  N1272  1  0.474430  0.993270  0.909870  1.0  -0.188
  N  N1273  1  0.599400  0.561300  0.635200  1.0  -0.2592
  N  N1274  1  0.553700  0.601600  0.618100  1.0  -0.2452
  N  N1275  1  0.872600  0.756800  0.775900  1.0  -0.2623
  N  N1276  1  0.814500  0.673400  0.756800  1.0  -0.1896
  N  N1277  1  0.266070  0.894630  0.968530  1.0  -0.2592
  N  N1278  1  0.220370  0.934930  0.951430  1.0  -0.2452
  N  N1279  1  0.539270  0.090130  0.109230  1.0  -0.2623
  N  N1280  1  0.481170  0.006730  0.090130  1.0  -0.1889
  N  N1281  1  0.932730  0.227970  0.301870  1.0  -0.2592
  N  N1282  1  0.887030  0.268270  0.284770  1.0  -0.2452
  N  N1283  1  0.205930  0.423470  0.442570  1.0  -0.2623
  N  N1284  1  0.147830  0.340070  0.423470  1.0  -0.1896
  N  N1285  1  0.961900  0.400600  0.635200  1.0  -0.2605
  N  N1286  1  0.047900  0.446300  0.618100  1.0  -0.2457
  N  N1287  1  0.884200  0.127400  0.775900  1.0  -0.261
  N  N1288  1  0.858900  0.185500  0.756800  1.0  -0.1897
  N  N1289  1  0.628570  0.733930  0.968530  1.0  -0.2605
  N  N1290  1  0.714570  0.779630  0.951430  1.0  -0.2457
  N  N1291  1  0.550870  0.460730  0.109230  1.0  -0.261
  N  N1292  1  0.525570  0.518830  0.090130  1.0  -0.189
  N  N1293  1  0.295230  0.067270  0.301870  1.0  -0.2605
  N  N1294  1  0.381230  0.112970  0.284770  1.0  -0.2457
  N  N1295  1  0.217530  0.794070  0.442570  1.0  -0.261
  N  N1296  1  0.192230  0.852170  0.423470  1.0  -0.1897
  N  N1297  1  0.438700  0.038100  0.635200  1.0  -0.26
  N  N1298  1  0.398400  0.952100  0.618100  1.0  -0.2443
  N  N1299  1  0.243200  0.115800  0.775900  1.0  -0.2605
  N  N1300  1  0.326600  0.141100  0.756800  1.0  -0.1895
  N  N1301  1  0.105370  0.371430  0.968530  1.0  -0.26
  N  N1302  1  0.065070  0.285430  0.951430  1.0  -0.2443
  N  N1303  1  0.909870  0.449130  0.109230  1.0  -0.2605
  N  N1304  1  0.993270  0.474430  0.090130  1.0  -0.1887
  N  N1305  1  0.772030  0.704770  0.301870  1.0  -0.26
  N  N1306  1  0.731730  0.618770  0.284770  1.0  -0.2443
  N  N1307  1  0.576530  0.782470  0.442570  1.0  -0.2605
  N  N1308  1  0.659930  0.807770  0.423470  1.0  -0.1895
  Cl  Cl1309  1  0.543300  0.484400  0.344300  1.0  -0.3895
  Cl  Cl1310  1  0.670900  0.747000  0.208500  1.0  -0.3232
  Cl  Cl1311  1  0.209970  0.817730  0.677630  1.0  -0.3895
  Cl  Cl1312  1  0.337570  0.080330  0.541830  1.0  -0.3232
  Cl  Cl1313  1  0.876630  0.151070  0.010970  1.0  -0.3978
  Cl  Cl1314  1  0.004230  0.413670  0.875170  1.0  -0.3231
  Cl  Cl1315  1  0.515600  0.058900  0.344300  1.0  -0.3936
  Cl  Cl1316  1  0.253000  0.923900  0.208500  1.0  -0.3298
  Cl  Cl1317  1  0.182270  0.392230  0.677630  1.0  -0.3936
  Cl  Cl1318  1  0.919670  0.257230  0.541830  1.0  -0.3219
  Cl  Cl1319  1  0.848930  0.725570  0.010970  1.0  -0.3949
  Cl  Cl1320  1  0.586330  0.590570  0.875170  1.0  -0.3217
  Cl  Cl1321  1  0.941100  0.456700  0.344300  1.0  -0.3964
  Cl  Cl1322  1  0.076100  0.329100  0.208500  1.0  -0.3353
  Cl  Cl1323  1  0.607770  0.790030  0.677630  1.0  -0.3964
  Cl  Cl1324  1  0.742770  0.662430  0.541830  1.0  -0.3272
  Cl  Cl1325  1  0.274430  0.123370  0.010970  1.0  -0.4
  Cl  Cl1326  1  0.409430  0.995770  0.875170  1.0  -0.3271
  Cl  Cl1327  1  0.484400  0.543300  0.655700  1.0  -0.3907
  Cl  Cl1328  1  0.747000  0.670900  0.791500  1.0  -0.3271
  Cl  Cl1329  1  0.151070  0.876630  0.989030  1.0  -0.3997
  Cl  Cl1330  1  0.413670  0.004230  0.124830  1.0  -0.327
  Cl  Cl1331  1  0.817730  0.209970  0.322370  1.0  -0.3907
  Cl  Cl1332  1  0.080330  0.337570  0.458170  1.0  -0.3271
  Cl  Cl1333  1  0.058900  0.515600  0.655700  1.0  -0.3932
  Cl  Cl1334  1  0.923900  0.253000  0.791500  1.0  -0.3297
  Cl  Cl1335  1  0.725570  0.848930  0.989030  1.0  -0.3951
  Cl  Cl1336  1  0.590570  0.586330  0.124830  1.0  -0.3216
  Cl  Cl1337  1  0.392230  0.182270  0.322370  1.0  -0.3932
  Cl  Cl1338  1  0.257230  0.919670  0.458170  1.0  -0.3217
  Cl  Cl1339  1  0.456700  0.941100  0.655700  1.0  -0.3958
  Cl  Cl1340  1  0.329100  0.076100  0.791500  1.0  -0.3309
  Cl  Cl1341  1  0.123370  0.274430  0.989030  1.0  -0.3996
  Cl  Cl1342  1  0.995770  0.409430  0.124830  1.0  -0.3233
  Cl  Cl1343  1  0.790030  0.607770  0.322370  1.0  -0.3958
  Cl  Cl1344  1  0.662430  0.742770  0.458170  1.0  -0.3234
  O  O1345  1  0.425300  0.660800  0.314700  1.0  -0.5525
  O  O1346  1  0.341300  0.583700  0.316000  1.0  -0.6096
  O  O1347  1  0.459000  0.499900  0.368700  1.0  -0.5925
  O  O1348  1  0.658800  0.424000  0.437300  1.0  -0.5595
  O  O1349  1  0.580800  0.340300  0.432500  1.0  -0.5506
  O  O1350  1  0.500200  0.461400  0.383700  1.0  -0.5917
  O  O1351  1  0.929400  0.959600  0.162300  1.0  -0.551
  O  O1352  1  0.879300  0.930700  0.136100  1.0  -0.5702
  O  O1353  1  0.685900  0.859900  0.193000  1.0  -0.7018
  O  O1354  1  0.454300  0.724700  0.282200  1.0  -0.5394
  O  O1355  1  0.401300  0.696300  0.255800  1.0  -0.5792
  O  O1356  1  0.616900  0.821500  0.212400  1.0  -0.5768
  O  O1357  1  0.091970  0.994130  0.648030  1.0  -0.5525
  O  O1358  1  0.007970  0.917030  0.649330  1.0  -0.6077
  O  O1359  1  0.125670  0.833230  0.702030  1.0  -0.5925
  O  O1360  1  0.325470  0.757330  0.770630  1.0  -0.5592
  O  O1361  1  0.247470  0.673630  0.765830  1.0  -0.5506
  O  O1362  1  0.166870  0.794730  0.717030  1.0  -0.5917
  O  O1363  1  0.596070  0.292930  0.495630  1.0  -0.551
  O  O1364  1  0.545970  0.264030  0.469430  1.0  -0.5702
  O  O1365  1  0.352570  0.193230  0.526330  1.0  -0.7018
  O  O1366  1  0.120970  0.058030  0.615530  1.0  -0.5394
  O  O1367  1  0.067970  0.029630  0.589130  1.0  -0.5799
  O  O1368  1  0.283570  0.154830  0.545730  1.0  -0.5768
  O  O1369  1  0.758630  0.327470  0.981370  1.0  -0.5525
  O  O1370  1  0.674630  0.250370  0.982670  1.0  -0.6098
  O  O1371  1  0.792330  0.166570  0.035370  1.0  -0.5923
  O  O1372  1  0.992130  0.090670  0.103970  1.0  -0.5595
  O  O1373  1  0.914130  0.006970  0.099170  1.0  -0.5506
  O  O1374  1  0.833530  0.128070  0.050370  1.0  -0.5917
  O  O1375  1  0.262730  0.626270  0.828970  1.0  -0.5508
  O  O1376  1  0.212630  0.597370  0.802770  1.0  -0.5702
  O  O1377  1  0.019230  0.526570  0.859670  1.0  -0.7005
  O  O1378  1  0.787630  0.391370  0.948870  1.0  -0.5395
  O  O1379  1  0.734630  0.362970  0.922470  1.0  -0.5778
  O  O1380  1  0.950230  0.488170  0.879070  1.0  -0.5793
  O  O1381  1  0.339200  0.764500  0.314700  1.0  -0.5537
  O  O1382  1  0.416300  0.757600  0.316000  1.0  -0.6096
  O  O1383  1  0.500100  0.959100  0.368700  1.0  -0.5916
  O  O1384  1  0.576000  0.234800  0.437300  1.0  -0.5593
  O  O1385  1  0.659700  0.240500  0.432500  1.0  -0.5507
  O  O1386  1  0.538600  0.038800  0.383700  1.0  -0.5923
  O  O1387  1  0.040400  0.969800  0.162300  1.0  -0.5536
  O  O1388  1  0.069300  0.948600  0.136100  1.0  -0.5686
  O  O1389  1  0.140100  0.826000  0.193000  1.0  -0.7046
  O  O1390  1  0.275300  0.729600  0.282200  1.0  -0.5401
  O  O1391  1  0.303700  0.705000  0.255800  1.0  -0.5779
  O  O1392  1  0.178500  0.795400  0.212400  1.0  -0.5786
  O  O1393  1  0.005870  0.097830  0.648030  1.0  -0.5537
  O  O1394  1  0.082970  0.090930  0.649330  1.0  -0.6095
  O  O1395  1  0.166770  0.292430  0.702030  1.0  -0.5916
  O  O1396  1  0.242670  0.568130  0.770630  1.0  -0.5595
  O  O1397  1  0.326370  0.573830  0.765830  1.0  -0.5506
  O  O1398  1  0.205270  0.372130  0.717030  1.0  -0.5923
  O  O1399  1  0.707070  0.303130  0.495630  1.0  -0.5535
  O  O1400  1  0.735970  0.281930  0.469430  1.0  -0.5686
  O  O1401  1  0.806770  0.159330  0.526330  1.0  -0.7046
  O  O1402  1  0.941970  0.062930  0.615530  1.0  -0.5401
  O  O1403  1  0.970370  0.038330  0.589130  1.0  -0.5779
  O  O1404  1  0.845170  0.128730  0.545730  1.0  -0.5786
  O  O1405  1  0.672530  0.431170  0.981370  1.0  -0.5537
  O  O1406  1  0.749630  0.424270  0.982670  1.0  -0.6085
  O  O1407  1  0.833430  0.625770  0.035370  1.0  -0.5913
  O  O1408  1  0.909330  0.901470  0.103970  1.0  -0.5593
  O  O1409  1  0.993030  0.907170  0.099170  1.0  -0.5508
  O  O1410  1  0.871930  0.705470  0.050370  1.0  -0.5923
  O  O1411  1  0.373730  0.636470  0.828970  1.0  -0.5535
  O  O1412  1  0.402630  0.615270  0.802770  1.0  -0.5684
  O  O1413  1  0.473430  0.492670  0.859670  1.0  -0.7032
  O  O1414  1  0.608630  0.396270  0.948870  1.0  -0.54
  O  O1415  1  0.637030  0.371670  0.922470  1.0  -0.5785
  O  O1416  1  0.511830  0.462070  0.879070  1.0  -0.5804
  O  O1417  1  0.235500  0.574700  0.314700  1.0  -0.5529
  O  O1418  1  0.242400  0.658700  0.316000  1.0  -0.6117
  O  O1419  1  0.040900  0.541000  0.368700  1.0  -0.595
  O  O1420  1  0.765200  0.341200  0.437300  1.0  -0.561
  O  O1421  1  0.759500  0.419200  0.432500  1.0  -0.5502
  O  O1422  1  0.961200  0.499800  0.383700  1.0  -0.5931
  O  O1423  1  0.030200  0.070600  0.162300  1.0  -0.5546
  O  O1424  1  0.051400  0.120700  0.136100  1.0  -0.5701
  O  O1425  1  0.174000  0.314100  0.193000  1.0  -0.7041
  O  O1426  1  0.270400  0.545700  0.282200  1.0  -0.5412
  O  O1427  1  0.295000  0.598700  0.255800  1.0  -0.5784
  O  O1428  1  0.204600  0.383100  0.212400  1.0  -0.5812
  O  O1429  1  0.902170  0.908030  0.648030  1.0  -0.5529
  O  O1430  1  0.909070  0.992030  0.649330  1.0  -0.6116
  O  O1431  1  0.707570  0.874330  0.702030  1.0  -0.595
  O  O1432  1  0.431870  0.674530  0.770630  1.0  -0.561
  O  O1433  1  0.426170  0.752530  0.765830  1.0  -0.5505
  O  O1434  1  0.627870  0.833130  0.717030  1.0  -0.5931
  O  O1435  1  0.696870  0.403930  0.495630  1.0  -0.5545
  O  O1436  1  0.718070  0.454030  0.469430  1.0  -0.5701
  O  O1437  1  0.840670  0.647430  0.526330  1.0  -0.7041
  O  O1438  1  0.937070  0.879030  0.615530  1.0  -0.5412
  O  O1439  1  0.961670  0.932030  0.589130  1.0  -0.5784
  O  O1440  1  0.871270  0.716430  0.545730  1.0  -0.5812
  O  O1441  1  0.568830  0.241370  0.981370  1.0  -0.5529
  O  O1442  1  0.575730  0.325370  0.982670  1.0  -0.6104
  O  O1443  1  0.374230  0.207670  0.035370  1.0  -0.595
  O  O1444  1  0.098530  0.007870  0.103970  1.0  -0.561
  O  O1445  1  0.092830  0.085870  0.099170  1.0  -0.5502
  O  O1446  1  0.294530  0.166470  0.050370  1.0  -0.5931
  O  O1447  1  0.363530  0.737270  0.828970  1.0  -0.5543
  O  O1448  1  0.384730  0.787370  0.802770  1.0  -0.5701
  O  O1449  1  0.507330  0.980770  0.859670  1.0  -0.7055
  O  O1450  1  0.603730  0.212370  0.948870  1.0  -0.5412
  O  O1451  1  0.628330  0.265370  0.922470  1.0  -0.579
  O  O1452  1  0.537930  0.049770  0.879070  1.0  -0.5795
  O  O1453  1  0.000000  0.000000  0.124900  1.0  -1.2127
  O  O1454  1  0.666667  0.333333  0.458230  1.0  -1.2126
  O  O1455  1  0.333333  0.666667  0.791570  1.0  -1.2125
  O  O1456  1  0.333333  0.666667  0.290800  1.0  -1.1896
  O  O1457  1  0.000000  0.000000  0.624130  1.0  -1.1884
  O  O1458  1  0.666667  0.333333  0.957470  1.0  -1.1896
  O  O1459  1  0.660800  0.425300  0.685300  1.0  -0.5524
  O  O1460  1  0.583700  0.341300  0.684000  1.0  -0.6099
  O  O1461  1  0.499900  0.459000  0.631300  1.0  -0.5933
  O  O1462  1  0.424000  0.658800  0.562700  1.0  -0.5592
  O  O1463  1  0.340300  0.580800  0.567500  1.0  -0.5501
  O  O1464  1  0.461400  0.500200  0.616300  1.0  -0.594
  O  O1465  1  0.959600  0.929400  0.837700  1.0  -0.5559
  O  O1466  1  0.930700  0.879300  0.863900  1.0  -0.5684
  O  O1467  1  0.859900  0.685900  0.807000  1.0  -0.7029
  O  O1468  1  0.724700  0.454300  0.717800  1.0  -0.5421
  O  O1469  1  0.696300  0.401300  0.744200  1.0  -0.5783
  O  O1470  1  0.821500  0.616900  0.787600  1.0  -0.5793
  O  O1471  1  0.327470  0.758630  0.018630  1.0  -0.5524
  O  O1472  1  0.250370  0.674630  0.017330  1.0  -0.6101
  O  O1473  1  0.166570  0.792330  0.964630  1.0  -0.5931
  O  O1474  1  0.090670  0.992130  0.896030  1.0  -0.5592
  O  O1475  1  0.006970  0.914130  0.900830  1.0  -0.5501
  O  O1476  1  0.128070  0.833530  0.949630  1.0  -0.594
  O  O1477  1  0.626270  0.262730  0.171030  1.0  -0.5557
  O  O1478  1  0.597370  0.212630  0.197230  1.0  -0.5684
  O  O1479  1  0.526570  0.019230  0.140330  1.0  -0.7023
  O  O1480  1  0.391370  0.787630  0.051130  1.0  -0.5421
  O  O1481  1  0.362970  0.734630  0.077530  1.0  -0.5769
  O  O1482  1  0.488170  0.950230  0.120930  1.0  -0.582
  O  O1483  1  0.994130  0.091970  0.351970  1.0  -0.5524
  O  O1484  1  0.917030  0.007970  0.350670  1.0  -0.6081
  O  O1485  1  0.833230  0.125670  0.297970  1.0  -0.5933
  O  O1486  1  0.757330  0.325470  0.229370  1.0  -0.559
  O  O1487  1  0.673630  0.247470  0.234170  1.0  -0.5499
  O  O1488  1  0.794730  0.166870  0.282970  1.0  -0.594
  O  O1489  1  0.292930  0.596070  0.504370  1.0  -0.5558
  O  O1490  1  0.264030  0.545970  0.530570  1.0  -0.5684
  O  O1491  1  0.193230  0.352570  0.473670  1.0  -0.7029
  O  O1492  1  0.058030  0.120970  0.384470  1.0  -0.5421
  O  O1493  1  0.029630  0.067970  0.410870  1.0  -0.579
  O  O1494  1  0.154830  0.283570  0.454270  1.0  -0.5793
  O  O1495  1  0.764500  0.339200  0.685300  1.0  -0.5549
  O  O1496  1  0.757600  0.416300  0.684000  1.0  -0.6113
  O  O1497  1  0.959100  0.500100  0.631300  1.0  -0.5946
  O  O1498  1  0.234800  0.576000  0.562700  1.0  -0.56
  O  O1499  1  0.240500  0.659700  0.567500  1.0  -0.5517
  O  O1500  1  0.038800  0.538600  0.616300  1.0  -0.5962
  O  O1501  1  0.969800  0.040400  0.837700  1.0  -0.5534
  O  O1502  1  0.948600  0.069300  0.863900  1.0  -0.5684
  O  O1503  1  0.826000  0.140100  0.807000  1.0  -0.7012
  O  O1504  1  0.729600  0.275300  0.717800  1.0  -0.5413
  O  O1505  1  0.705000  0.303700  0.744200  1.0  -0.5773
  O  O1506  1  0.795400  0.178500  0.787600  1.0  -0.5774
  O  O1507  1  0.431170  0.672530  0.018630  1.0  -0.5549
  O  O1508  1  0.424270  0.749630  0.017330  1.0  -0.6102
  O  O1509  1  0.625770  0.833430  0.964630  1.0  -0.5944
  O  O1510  1  0.901470  0.909330  0.896030  1.0  -0.56
  O  O1511  1  0.907170  0.993030  0.900830  1.0  -0.5519
  O  O1512  1  0.705470  0.871930  0.949630  1.0  -0.5962
  O  O1513  1  0.636470  0.373730  0.171030  1.0  -0.5533
  O  O1514  1  0.615270  0.402630  0.197230  1.0  -0.5683
  O  O1515  1  0.492670  0.473430  0.140330  1.0  -0.7
  O  O1516  1  0.396270  0.608630  0.051130  1.0  -0.5413
  O  O1517  1  0.371670  0.637030  0.077530  1.0  -0.578
  O  O1518  1  0.462070  0.511830  0.120930  1.0  -0.5786
  O  O1519  1  0.097830  0.005870  0.351970  1.0  -0.5549
  O  O1520  1  0.090930  0.082970  0.350670  1.0  -0.6112
  O  O1521  1  0.292430  0.166770  0.297970  1.0  -0.5946
  O  O1522  1  0.568130  0.242670  0.229370  1.0  -0.5602
  O  O1523  1  0.573830  0.326370  0.234170  1.0  -0.5517
  O  O1524  1  0.372130  0.205270  0.282970  1.0  -0.5962
  O  O1525  1  0.303130  0.707070  0.504370  1.0  -0.5536
  O  O1526  1  0.281930  0.735970  0.530570  1.0  -0.5684
  O  O1527  1  0.159330  0.806770  0.473670  1.0  -0.7012
  O  O1528  1  0.062930  0.941970  0.384470  1.0  -0.5414
  O  O1529  1  0.038330  0.970370  0.410870  1.0  -0.5773
  O  O1530  1  0.128730  0.845170  0.454270  1.0  -0.5774
  O  O1531  1  0.574700  0.235500  0.685300  1.0  -0.5543
  O  O1532  1  0.658700  0.242400  0.684000  1.0  -0.6087
  O  O1533  1  0.541000  0.040900  0.631300  1.0  -0.5932
  O  O1534  1  0.341200  0.765200  0.562700  1.0  -0.5591
  O  O1535  1  0.419200  0.759500  0.567500  1.0  -0.5512
  O  O1536  1  0.499800  0.961200  0.616300  1.0  -0.5939
  O  O1537  1  0.070600  0.030200  0.837700  1.0  -0.5557
  O  O1538  1  0.120700  0.051400  0.863900  1.0  -0.5667
  O  O1539  1  0.314100  0.174000  0.807000  1.0  -0.7039
  O  O1540  1  0.545700  0.270400  0.717800  1.0  -0.5417
  O  O1541  1  0.598700  0.295000  0.744200  1.0  -0.5759
  O  O1542  1  0.383100  0.204600  0.787600  1.0  -0.5826
  O  O1543  1  0.241370  0.568830  0.018630  1.0  -0.5543
  O  O1544  1  0.325370  0.575730  0.017330  1.0  -0.6075
  O  O1545  1  0.207670  0.374230  0.964630  1.0  -0.5933
  O  O1546  1  0.007870  0.098530  0.896030  1.0  -0.5591
  O  O1547  1  0.085870  0.092830  0.900830  1.0  -0.5512
  O  O1548  1  0.166470  0.294530  0.949630  1.0  -0.5939
  O  O1549  1  0.737270  0.363530  0.171030  1.0  -0.5555
  O  O1550  1  0.787370  0.384730  0.197230  1.0  -0.5667
  O  O1551  1  0.980770  0.507330  0.140330  1.0  -0.7058
  O  O1552  1  0.212370  0.603730  0.051130  1.0  -0.5417
  O  O1553  1  0.265370  0.628330  0.077530  1.0  -0.5766
  O  O1554  1  0.049770  0.537930  0.120930  1.0  -0.5808
  O  O1555  1  0.908030  0.902170  0.351970  1.0  -0.5543
  O  O1556  1  0.992030  0.909070  0.350670  1.0  -0.6085
  O  O1557  1  0.874330  0.707570  0.297970  1.0  -0.5932
  O  O1558  1  0.674530  0.431870  0.229370  1.0  -0.5591
  O  O1559  1  0.752530  0.426170  0.234170  1.0  -0.5515
  O  O1560  1  0.833130  0.627870  0.282970  1.0  -0.5939
  O  O1561  1  0.403930  0.696870  0.504370  1.0  -0.5557
  O  O1562  1  0.454030  0.718070  0.530570  1.0  -0.5667
  O  O1563  1  0.647430  0.840670  0.473670  1.0  -0.7039
  O  O1564  1  0.879030  0.937070  0.384470  1.0  -0.5417
  O  O1565  1  0.932030  0.961670  0.410870  1.0  -0.5759
  O  O1566  1  0.716430  0.871270  0.454270  1.0  -0.5826
  O  O1567  1  0.000000  0.000000  0.875100  1.0  -1.2125
  O  O1568  1  0.666667  0.333333  0.208430  1.0  -1.2124
  O  O1569  1  0.333333  0.666667  0.541770  1.0  -1.2124
  O  O1570  1  0.666667  0.333333  0.709200  1.0  -1.189
  O  O1571  1  0.333333  0.666667  0.042530  1.0  -1.1888
  O  O1572  1  0.000000  0.000000  0.375870  1.0  -1.188
