# generated using pymatgen
data_Cu2H27C45N5O12
_symmetry_space_group_name_H-M   'P 1'
_cell_length_a   41.47340000
_cell_length_b   41.47340000
_cell_length_c   41.47340000
_cell_angle_alpha   90.00000000
_cell_angle_beta   90.00000000
_cell_angle_gamma   90.00000000
_symmetry_Int_Tables_number   1
_chemical_formula_structural   Cu2H27C45N5O12
_chemical_formula_sum   'Cu48 H648 C1080 N120 O288'
_cell_volume   71336.02752240
_cell_formula_units_Z   24
loop_
 _symmetry_equiv_pos_site_id
 _symmetry_equiv_pos_as_xyz
  1  'x, y, z'
loop_
 _atom_site_type_symbol
 _atom_site_label
 _atom_site_symmetry_multiplicity
 _atom_site_fract_x
 _atom_site_fract_y
 _atom_site_fract_z
 _atom_site_occupancy
 _atom_site_charge
  Cu  Cu1  1  0.181190  0.000000  0.181190  1.0  0.8815
  Cu  Cu2  1  0.681190  0.500000  0.681190  1.0  0.8815
  Cu  Cu3  1  0.818810  0.000000  0.181190  1.0  0.8819
  Cu  Cu4  1  0.318810  0.500000  0.681190  1.0  0.8819
  Cu  Cu5  1  0.818810  0.000000  0.818810  1.0  0.8818
  Cu  Cu6  1  0.318810  0.500000  0.318810  1.0  0.8818
  Cu  Cu7  1  0.181190  0.000000  0.818810  1.0  0.8816
  Cu  Cu8  1  0.681190  0.500000  0.318810  1.0  0.8816
  Cu  Cu9  1  0.181190  0.181190  0.000000  1.0  0.8813
  Cu  Cu10  1  0.681190  0.681190  0.500000  1.0  0.8813
  Cu  Cu11  1  0.181190  0.818810  0.000000  1.0  0.8809
  Cu  Cu12  1  0.681190  0.318810  0.500000  1.0  0.8809
  Cu  Cu13  1  0.818810  0.818810  0.000000  1.0  0.8812
  Cu  Cu14  1  0.318810  0.318810  0.500000  1.0  0.8812
  Cu  Cu15  1  0.818810  0.181190  0.000000  1.0  0.8816
  Cu  Cu16  1  0.318810  0.681190  0.500000  1.0  0.8816
  Cu  Cu17  1  0.000000  0.181190  0.181190  1.0  0.882
  Cu  Cu18  1  0.500000  0.681190  0.681190  1.0  0.882
  Cu  Cu19  1  0.000000  0.181190  0.818810  1.0  0.8823
  Cu  Cu20  1  0.500000  0.681190  0.318810  1.0  0.8823
  Cu  Cu21  1  0.000000  0.818810  0.818810  1.0  0.8817
  Cu  Cu22  1  0.500000  0.318810  0.318810  1.0  0.8817
  Cu  Cu23  1  0.000000  0.818810  0.181190  1.0  0.8817
  Cu  Cu24  1  0.500000  0.318810  0.681190  1.0  0.8817
  Cu  Cu25  1  0.363840  0.363840  0.500000  1.0  0.9113
  Cu  Cu26  1  0.863840  0.863840  0.000000  1.0  0.9113
  Cu  Cu27  1  0.636160  0.636160  0.500000  1.0  0.9099
  Cu  Cu28  1  0.136160  0.136160  0.000000  1.0  0.9099
  Cu  Cu29  1  0.636160  0.363840  0.500000  1.0  0.9105
  Cu  Cu30  1  0.136160  0.863840  0.000000  1.0  0.9105
  Cu  Cu31  1  0.363840  0.636160  0.500000  1.0  0.9095
  Cu  Cu32  1  0.863840  0.136160  0.000000  1.0  0.9095
  Cu  Cu33  1  0.500000  0.363840  0.363840  1.0  0.9089
  Cu  Cu34  1  0.000000  0.863840  0.863840  1.0  0.9089
  Cu  Cu35  1  0.500000  0.636160  0.636160  1.0  0.9085
  Cu  Cu36  1  0.000000  0.136160  0.136160  1.0  0.9085
  Cu  Cu37  1  0.500000  0.636160  0.363840  1.0  0.9079
  Cu  Cu38  1  0.000000  0.136160  0.863840  1.0  0.9079
  Cu  Cu39  1  0.500000  0.363840  0.636160  1.0  0.9086
  Cu  Cu40  1  0.000000  0.863840  0.136160  1.0  0.9086
  Cu  Cu41  1  0.363840  0.500000  0.363840  1.0  0.9089
  Cu  Cu42  1  0.863840  0.000000  0.863840  1.0  0.9089
  Cu  Cu43  1  0.636160  0.500000  0.636160  1.0  0.9097
  Cu  Cu44  1  0.136160  0.000000  0.136160  1.0  0.9097
  Cu  Cu45  1  0.363840  0.500000  0.636160  1.0  0.9089
  Cu  Cu46  1  0.863840  0.000000  0.136160  1.0  0.9089
  Cu  Cu47  1  0.636160  0.500000  0.363840  1.0  0.9086
  Cu  Cu48  1  0.136160  0.000000  0.863840  1.0  0.9086
  H  H49  1  0.354300  0.260000  0.423400  1.0  0.1302
  H  H50  1  0.351300  0.227200  0.376600  1.0  0.2063
  H  H51  1  0.854300  0.760000  0.923400  1.0  0.1302
  H  H52  1  0.851300  0.727200  0.876600  1.0  0.2063
  H  H53  1  0.645700  0.740000  0.423400  1.0  0.1297
  H  H54  1  0.648700  0.772800  0.376600  1.0  0.2093
  H  H55  1  0.145700  0.240000  0.923400  1.0  0.1297
  H  H56  1  0.148700  0.272800  0.876600  1.0  0.2093
  H  H57  1  0.645700  0.260000  0.576600  1.0  0.1291
  H  H58  1  0.648700  0.227200  0.623400  1.0  0.2094
  H  H59  1  0.145700  0.760000  0.076600  1.0  0.1291
  H  H60  1  0.148700  0.727200  0.123400  1.0  0.2094
  H  H61  1  0.354300  0.740000  0.576600  1.0  0.1302
  H  H62  1  0.351300  0.772800  0.623400  1.0  0.2081
  H  H63  1  0.854300  0.240000  0.076600  1.0  0.1302
  H  H64  1  0.851300  0.272800  0.123400  1.0  0.2081
  H  H65  1  0.423400  0.354300  0.260000  1.0  0.1305
  H  H66  1  0.376600  0.351300  0.227200  1.0  0.2087
  H  H67  1  0.923400  0.854300  0.760000  1.0  0.1305
  H  H68  1  0.876600  0.851300  0.727200  1.0  0.2087
  H  H69  1  0.423400  0.645700  0.740000  1.0  0.131
  H  H70  1  0.376600  0.648700  0.772800  1.0  0.2112
  H  H71  1  0.923400  0.145700  0.240000  1.0  0.131
  H  H72  1  0.876600  0.148700  0.272800  1.0  0.2112
  H  H73  1  0.576600  0.645700  0.260000  1.0  0.1308
  H  H74  1  0.623400  0.648700  0.227200  1.0  0.21
  H  H75  1  0.076600  0.145700  0.760000  1.0  0.1308
  H  H76  1  0.123400  0.148700  0.727200  1.0  0.21
  H  H77  1  0.576600  0.354300  0.740000  1.0  0.131
  H  H78  1  0.623400  0.351300  0.772800  1.0  0.2095
  H  H79  1  0.076600  0.854300  0.240000  1.0  0.131
  H  H80  1  0.123400  0.851300  0.272800  1.0  0.2095
  H  H81  1  0.260000  0.423400  0.354300  1.0  0.1309
  H  H82  1  0.227200  0.376600  0.351300  1.0  0.2107
  H  H83  1  0.760000  0.923400  0.854300  1.0  0.1309
  H  H84  1  0.727200  0.876600  0.851300  1.0  0.2107
  H  H85  1  0.740000  0.423400  0.645700  1.0  0.1312
  H  H86  1  0.772800  0.376600  0.648700  1.0  0.2116
  H  H87  1  0.240000  0.923400  0.145700  1.0  0.1312
  H  H88  1  0.272800  0.876600  0.148700  1.0  0.2116
  H  H89  1  0.260000  0.576600  0.645700  1.0  0.1314
  H  H90  1  0.227200  0.623400  0.648700  1.0  0.2115
  H  H91  1  0.760000  0.076600  0.145700  1.0  0.1314
  H  H92  1  0.727200  0.123400  0.148700  1.0  0.2115
  H  H93  1  0.740000  0.576600  0.354300  1.0  0.1306
  H  H94  1  0.772800  0.623400  0.351300  1.0  0.211
  H  H95  1  0.240000  0.076600  0.854300  1.0  0.1306
  H  H96  1  0.272800  0.123400  0.851300  1.0  0.211
  H  H97  1  0.260000  0.354300  0.576600  1.0  0.1302
  H  H98  1  0.227200  0.351300  0.623400  1.0  0.2109
  H  H99  1  0.760000  0.854300  0.076600  1.0  0.1302
  H  H100  1  0.727200  0.851300  0.123400  1.0  0.2109
  H  H101  1  0.740000  0.645700  0.576600  1.0  0.1304
  H  H102  1  0.772800  0.648700  0.623400  1.0  0.2128
  H  H103  1  0.240000  0.145700  0.076600  1.0  0.1304
  H  H104  1  0.272800  0.148700  0.123400  1.0  0.2128
  H  H105  1  0.260000  0.645700  0.423400  1.0  0.1307
  H  H106  1  0.227200  0.648700  0.376600  1.0  0.2108
  H  H107  1  0.760000  0.145700  0.923400  1.0  0.1307
  H  H108  1  0.727200  0.148700  0.876600  1.0  0.2108
  H  H109  1  0.740000  0.354300  0.423400  1.0  0.1308
  H  H110  1  0.772800  0.351300  0.376600  1.0  0.2092
  H  H111  1  0.240000  0.854300  0.923400  1.0  0.1308
  H  H112  1  0.272800  0.851300  0.876600  1.0  0.2092
  H  H113  1  0.354300  0.423400  0.740000  1.0  0.1304
  H  H114  1  0.351300  0.376600  0.772800  1.0  0.2066
  H  H115  1  0.854300  0.923400  0.240000  1.0  0.1304
  H  H116  1  0.851300  0.876600  0.272800  1.0  0.2066
  H  H117  1  0.645700  0.423400  0.260000  1.0  0.1297
  H  H118  1  0.648700  0.376600  0.227200  1.0  0.2075
  H  H119  1  0.145700  0.923400  0.760000  1.0  0.1297
  H  H120  1  0.148700  0.876600  0.727200  1.0  0.2075
  H  H121  1  0.645700  0.576600  0.740000  1.0  0.1296
  H  H122  1  0.648700  0.623400  0.772800  1.0  0.2089
  H  H123  1  0.145700  0.076600  0.240000  1.0  0.1296
  H  H124  1  0.148700  0.123400  0.272800  1.0  0.2089
  H  H125  1  0.354300  0.576600  0.260000  1.0  0.1302
  H  H126  1  0.351300  0.623400  0.227200  1.0  0.2062
  H  H127  1  0.854300  0.076600  0.760000  1.0  0.1302
  H  H128  1  0.851300  0.123400  0.727200  1.0  0.2062
  H  H129  1  0.423400  0.260000  0.645700  1.0  0.1311
  H  H130  1  0.376600  0.227200  0.648700  1.0  0.2103
  H  H131  1  0.923400  0.760000  0.145700  1.0  0.1311
  H  H132  1  0.876600  0.727200  0.148700  1.0  0.2103
  H  H133  1  0.423400  0.740000  0.354300  1.0  0.1309
  H  H134  1  0.376600  0.772800  0.351300  1.0  0.2107
  H  H135  1  0.923400  0.240000  0.854300  1.0  0.1309
  H  H136  1  0.876600  0.272800  0.851300  1.0  0.2107
  H  H137  1  0.576600  0.260000  0.354300  1.0  0.1306
  H  H138  1  0.623400  0.227200  0.351300  1.0  0.2108
  H  H139  1  0.076600  0.760000  0.854300  1.0  0.1306
  H  H140  1  0.123400  0.727200  0.851300  1.0  0.2108
  H  H141  1  0.576600  0.740000  0.645700  1.0  0.1314
  H  H142  1  0.623400  0.772800  0.648700  1.0  0.2122
  H  H143  1  0.076600  0.240000  0.145700  1.0  0.1314
  H  H144  1  0.123400  0.272800  0.148700  1.0  0.2122
  H  H145  1  0.645700  0.740000  0.576600  1.0  0.1297
  H  H146  1  0.648700  0.772800  0.623400  1.0  0.2087
  H  H147  1  0.145700  0.240000  0.076600  1.0  0.1297
  H  H148  1  0.148700  0.272800  0.123400  1.0  0.2087
  H  H149  1  0.354300  0.260000  0.576600  1.0  0.1299
  H  H150  1  0.351300  0.227200  0.623400  1.0  0.2068
  H  H151  1  0.854300  0.760000  0.076600  1.0  0.1299
  H  H152  1  0.851300  0.727200  0.123400  1.0  0.2068
  H  H153  1  0.354300  0.740000  0.423400  1.0  0.1301
  H  H154  1  0.351300  0.772800  0.376600  1.0  0.2064
  H  H155  1  0.854300  0.240000  0.923400  1.0  0.1301
  H  H156  1  0.851300  0.272800  0.876600  1.0  0.2064
  H  H157  1  0.645700  0.260000  0.423400  1.0  0.1294
  H  H158  1  0.648700  0.227200  0.376600  1.0  0.207
  H  H159  1  0.145700  0.760000  0.923400  1.0  0.1294
  H  H160  1  0.148700  0.727200  0.876600  1.0  0.207
  H  H161  1  0.576600  0.645700  0.740000  1.0  0.1311
  H  H162  1  0.623400  0.648700  0.772800  1.0  0.2108
  H  H163  1  0.076600  0.145700  0.240000  1.0  0.1311
  H  H164  1  0.123400  0.148700  0.272800  1.0  0.2108
  H  H165  1  0.576600  0.354300  0.260000  1.0  0.1305
  H  H166  1  0.623400  0.351300  0.227200  1.0  0.2076
  H  H167  1  0.076600  0.854300  0.760000  1.0  0.1305
  H  H168  1  0.123400  0.851300  0.727200  1.0  0.2076
  H  H169  1  0.423400  0.354300  0.740000  1.0  0.131
  H  H170  1  0.376600  0.351300  0.772800  1.0  0.2088
  H  H171  1  0.923400  0.854300  0.240000  1.0  0.131
  H  H172  1  0.876600  0.851300  0.272800  1.0  0.2088
  H  H173  1  0.423400  0.645700  0.260000  1.0  0.1306
  H  H174  1  0.376600  0.648700  0.227200  1.0  0.2086
  H  H175  1  0.923400  0.145700  0.760000  1.0  0.1306
  H  H176  1  0.876600  0.148700  0.727200  1.0  0.2086
  H  H177  1  0.740000  0.576600  0.645700  1.0  0.1312
  H  H178  1  0.772800  0.623400  0.648700  1.0  0.2112
  H  H179  1  0.240000  0.076600  0.145700  1.0  0.1312
  H  H180  1  0.272800  0.123400  0.148700  1.0  0.2112
  H  H181  1  0.260000  0.576600  0.354300  1.0  0.1306
  H  H182  1  0.227200  0.623400  0.351300  1.0  0.21
  H  H183  1  0.760000  0.076600  0.854300  1.0  0.1306
  H  H184  1  0.727200  0.123400  0.851300  1.0  0.21
  H  H185  1  0.740000  0.423400  0.354300  1.0  0.1309
  H  H186  1  0.772800  0.376600  0.351300  1.0  0.2093
  H  H187  1  0.240000  0.923400  0.854300  1.0  0.1309
  H  H188  1  0.272800  0.876600  0.851300  1.0  0.2093
  H  H189  1  0.260000  0.423400  0.645700  1.0  0.1313
  H  H190  1  0.227200  0.376600  0.648700  1.0  0.2099
  H  H191  1  0.760000  0.923400  0.145700  1.0  0.1313
  H  H192  1  0.727200  0.876600  0.148700  1.0  0.2099
  H  H193  1  0.740000  0.645700  0.423400  1.0  0.1305
  H  H194  1  0.772800  0.648700  0.376600  1.0  0.2098
  H  H195  1  0.240000  0.145700  0.923400  1.0  0.1305
  H  H196  1  0.272800  0.148700  0.876600  1.0  0.2098
  H  H197  1  0.260000  0.354300  0.423400  1.0  0.1306
  H  H198  1  0.227200  0.351300  0.376600  1.0  0.2094
  H  H199  1  0.760000  0.854300  0.923400  1.0  0.1306
  H  H200  1  0.727200  0.851300  0.876600  1.0  0.2094
  H  H201  1  0.740000  0.354300  0.576600  1.0  0.1304
  H  H202  1  0.772800  0.351300  0.623400  1.0  0.2094
  H  H203  1  0.240000  0.854300  0.076600  1.0  0.1304
  H  H204  1  0.272800  0.851300  0.123400  1.0  0.2094
  H  H205  1  0.260000  0.645700  0.576600  1.0  0.1306
  H  H206  1  0.227200  0.648700  0.623400  1.0  0.2117
  H  H207  1  0.760000  0.145700  0.076600  1.0  0.1306
  H  H208  1  0.727200  0.148700  0.123400  1.0  0.2117
  H  H209  1  0.645700  0.576600  0.260000  1.0  0.1291
  H  H210  1  0.648700  0.623400  0.227200  1.0  0.2071
  H  H211  1  0.145700  0.076600  0.760000  1.0  0.1291
  H  H212  1  0.148700  0.123400  0.727200  1.0  0.2071
  H  H213  1  0.354300  0.576600  0.740000  1.0  0.1306
  H  H214  1  0.351300  0.623400  0.772800  1.0  0.206
  H  H215  1  0.854300  0.076600  0.240000  1.0  0.1306
  H  H216  1  0.851300  0.123400  0.272800  1.0  0.206
  H  H217  1  0.354300  0.423400  0.260000  1.0  0.1304
  H  H218  1  0.351300  0.376600  0.227200  1.0  0.2047
  H  H219  1  0.854300  0.923400  0.760000  1.0  0.1304
  H  H220  1  0.851300  0.876600  0.727200  1.0  0.2047
  H  H221  1  0.645700  0.423400  0.740000  1.0  0.1298
  H  H222  1  0.648700  0.376600  0.772800  1.0  0.2074
  H  H223  1  0.145700  0.923400  0.240000  1.0  0.1298
  H  H224  1  0.148700  0.876600  0.272800  1.0  0.2074
  H  H225  1  0.576600  0.740000  0.354300  1.0  0.1309
  H  H226  1  0.623400  0.772800  0.351300  1.0  0.2102
  H  H227  1  0.076600  0.240000  0.854300  1.0  0.1309
  H  H228  1  0.123400  0.272800  0.851300  1.0  0.2102
  H  H229  1  0.576600  0.260000  0.645700  1.0  0.1313
  H  H230  1  0.623400  0.227200  0.648700  1.0  0.2104
  H  H231  1  0.076600  0.760000  0.145700  1.0  0.1313
  H  H232  1  0.123400  0.727200  0.148700  1.0  0.2104
  H  H233  1  0.423400  0.740000  0.645700  1.0  0.1312
  H  H234  1  0.376600  0.772800  0.648700  1.0  0.2101
  H  H235  1  0.923400  0.240000  0.145700  1.0  0.1312
  H  H236  1  0.876600  0.272800  0.148700  1.0  0.2101
  H  H237  1  0.423400  0.260000  0.354300  1.0  0.1306
  H  H238  1  0.376600  0.227200  0.351300  1.0  0.209
  H  H239  1  0.923400  0.760000  0.854300  1.0  0.1306
  H  H240  1  0.876600  0.727200  0.851300  1.0  0.209
  H  H241  1  0.426000  0.326500  0.426000  1.0  0.1267
  H  H242  1  0.334600  0.203700  0.334600  1.0  0.1231
  H  H243  1  0.378700  0.129100  0.378700  1.0  0.1283
  H  H244  1  0.347800  0.092700  0.347800  1.0  0.1315
  H  H245  1  0.294100  0.194100  0.294100  1.0  0.1375
  H  H246  1  0.263400  0.156600  0.263400  1.0  0.1295
  H  H247  1  0.307600  0.082300  0.307600  1.0  0.2482
  H  H248  1  0.221100  0.048200  0.221100  1.0  0.1272
  H  H249  1  0.248200  0.098700  0.248200  1.0  0.2323
  H  H250  1  0.926000  0.826500  0.926000  1.0  0.1267
  H  H251  1  0.834600  0.703700  0.834600  1.0  0.1231
  H  H252  1  0.878700  0.629100  0.878700  1.0  0.1283
  H  H253  1  0.847800  0.592700  0.847800  1.0  0.1316
  H  H254  1  0.794100  0.694100  0.794100  1.0  0.1375
  H  H255  1  0.763400  0.656600  0.763400  1.0  0.1295
  H  H256  1  0.807600  0.582300  0.807600  1.0  0.2482
  H  H257  1  0.721100  0.548200  0.721100  1.0  0.1272
  H  H258  1  0.748200  0.598700  0.748200  1.0  0.2323
  H  H259  1  0.574000  0.673500  0.426000  1.0  0.1268
  H  H260  1  0.665400  0.796300  0.334600  1.0  0.1224
  H  H261  1  0.621300  0.870900  0.378700  1.0  0.1281
  H  H262  1  0.652200  0.907300  0.347800  1.0  0.1307
  H  H263  1  0.705900  0.805900  0.294100  1.0  0.1377
  H  H264  1  0.736600  0.843400  0.263400  1.0  0.1297
  H  H265  1  0.692400  0.917700  0.307600  1.0  0.2479
  H  H266  1  0.778900  0.951800  0.221100  1.0  0.1268
  H  H267  1  0.751800  0.901300  0.248200  1.0  0.2313
  H  H268  1  0.074000  0.173500  0.926000  1.0  0.1268
  H  H269  1  0.165400  0.296300  0.834600  1.0  0.1224
  H  H270  1  0.121300  0.370900  0.878700  1.0  0.1281
  H  H271  1  0.152200  0.407300  0.847800  1.0  0.1307
  H  H272  1  0.205900  0.305900  0.794100  1.0  0.1377
  H  H273  1  0.236600  0.343400  0.763400  1.0  0.1297
  H  H274  1  0.192400  0.417700  0.807600  1.0  0.2479
  H  H275  1  0.278900  0.451800  0.721100  1.0  0.1268
  H  H276  1  0.251800  0.401300  0.748200  1.0  0.2313
  H  H277  1  0.574000  0.326500  0.574000  1.0  0.1265
  H  H278  1  0.665400  0.203700  0.665400  1.0  0.1224
  H  H279  1  0.621300  0.129100  0.621300  1.0  0.128
  H  H280  1  0.652200  0.092700  0.652200  1.0  0.1317
  H  H281  1  0.705900  0.194100  0.705900  1.0  0.1377
  H  H282  1  0.736600  0.156600  0.736600  1.0  0.1291
  H  H283  1  0.692400  0.082300  0.692400  1.0  0.2479
  H  H284  1  0.778900  0.048200  0.778900  1.0  0.127
  H  H285  1  0.751800  0.098700  0.751800  1.0  0.2313
  H  H286  1  0.074000  0.826500  0.074000  1.0  0.1265
  H  H287  1  0.165400  0.703700  0.165400  1.0  0.1224
  H  H288  1  0.121300  0.629100  0.121300  1.0  0.128
  H  H289  1  0.152200  0.592700  0.152200  1.0  0.1317
  H  H290  1  0.205900  0.694100  0.205900  1.0  0.1377
  H  H291  1  0.236600  0.656600  0.236600  1.0  0.1291
  H  H292  1  0.192400  0.582300  0.192400  1.0  0.2479
  H  H293  1  0.278900  0.548200  0.278900  1.0  0.127
  H  H294  1  0.251800  0.598700  0.251800  1.0  0.2313
  H  H295  1  0.426000  0.673500  0.574000  1.0  0.1267
  H  H296  1  0.334600  0.796300  0.665400  1.0  0.1222
  H  H297  1  0.378700  0.870900  0.621300  1.0  0.1287
  H  H298  1  0.347800  0.907300  0.652200  1.0  0.131
  H  H299  1  0.294100  0.805900  0.705900  1.0  0.1373
  H  H300  1  0.263400  0.843400  0.736600  1.0  0.1294
  H  H301  1  0.307600  0.917700  0.692400  1.0  0.2485
  H  H302  1  0.221100  0.951800  0.778900  1.0  0.1261
  H  H303  1  0.248200  0.901300  0.751800  1.0  0.2326
  H  H304  1  0.926000  0.173500  0.074000  1.0  0.1267
  H  H305  1  0.834600  0.296300  0.165400  1.0  0.1222
  H  H306  1  0.878700  0.370900  0.121300  1.0  0.1287
  H  H307  1  0.847800  0.407300  0.152200  1.0  0.131
  H  H308  1  0.794100  0.305900  0.205900  1.0  0.1373
  H  H309  1  0.763400  0.343400  0.236600  1.0  0.1294
  H  H310  1  0.807600  0.417700  0.192400  1.0  0.2485
  H  H311  1  0.721100  0.451800  0.278900  1.0  0.1261
  H  H312  1  0.748200  0.401300  0.251800  1.0  0.2326
  H  H313  1  0.426000  0.426000  0.326500  1.0  0.1278
  H  H314  1  0.334600  0.334600  0.203700  1.0  0.1235
  H  H315  1  0.378700  0.378700  0.129100  1.0  0.1283
  H  H316  1  0.347800  0.347800  0.092700  1.0  0.1304
  H  H317  1  0.294100  0.294100  0.194100  1.0  0.136
  H  H318  1  0.263400  0.263400  0.156600  1.0  0.1301
  H  H319  1  0.307600  0.307600  0.082300  1.0  0.2503
  H  H320  1  0.221100  0.221100  0.048200  1.0  0.1272
  H  H321  1  0.248200  0.248200  0.098700  1.0  0.2316
  H  H322  1  0.926000  0.926000  0.826500  1.0  0.1278
  H  H323  1  0.834600  0.834600  0.703700  1.0  0.1235
  H  H324  1  0.878700  0.878700  0.629100  1.0  0.1283
  H  H325  1  0.847800  0.847800  0.592700  1.0  0.1307
  H  H326  1  0.794100  0.794100  0.694100  1.0  0.136
  H  H327  1  0.763400  0.763400  0.656600  1.0  0.1301
  H  H328  1  0.807600  0.807600  0.582300  1.0  0.2503
  H  H329  1  0.721100  0.721100  0.548200  1.0  0.1272
  H  H330  1  0.748200  0.748200  0.598700  1.0  0.2316
  H  H331  1  0.426000  0.574000  0.673500  1.0  0.1274
  H  H332  1  0.334600  0.665400  0.796300  1.0  0.1254
  H  H333  1  0.378700  0.621300  0.870900  1.0  0.1284
  H  H334  1  0.347800  0.652200  0.907300  1.0  0.1304
  H  H335  1  0.294100  0.705900  0.805900  1.0  0.1361
  H  H336  1  0.263400  0.736600  0.843400  1.0  0.1306
  H  H337  1  0.307600  0.692400  0.917700  1.0  0.2497
  H  H338  1  0.221100  0.778900  0.951800  1.0  0.1279
  H  H339  1  0.248200  0.751800  0.901300  1.0  0.2322
  H  H340  1  0.926000  0.074000  0.173500  1.0  0.1274
  H  H341  1  0.834600  0.165400  0.296300  1.0  0.1254
  H  H342  1  0.878700  0.121300  0.370900  1.0  0.1284
  H  H343  1  0.847800  0.152200  0.407300  1.0  0.1303
  H  H344  1  0.794100  0.205900  0.305900  1.0  0.1361
  H  H345  1  0.763400  0.236600  0.343400  1.0  0.1306
  H  H346  1  0.807600  0.192400  0.417700  1.0  0.2497
  H  H347  1  0.721100  0.278900  0.451800  1.0  0.1279
  H  H348  1  0.748200  0.251800  0.401300  1.0  0.2322
  H  H349  1  0.574000  0.574000  0.326500  1.0  0.1278
  H  H350  1  0.665400  0.665400  0.203700  1.0  0.1241
  H  H351  1  0.621300  0.621300  0.129100  1.0  0.1277
  H  H352  1  0.652200  0.652200  0.092700  1.0  0.1302
  H  H353  1  0.705900  0.705900  0.194100  1.0  0.136
  H  H354  1  0.736600  0.736600  0.156600  1.0  0.1305
  H  H355  1  0.692400  0.692400  0.082300  1.0  0.25
  H  H356  1  0.778900  0.778900  0.048200  1.0  0.1272
  H  H357  1  0.751800  0.751800  0.098700  1.0  0.2301
  H  H358  1  0.074000  0.074000  0.826500  1.0  0.1278
  H  H359  1  0.165400  0.165400  0.703700  1.0  0.1241
  H  H360  1  0.121300  0.121300  0.629100  1.0  0.1277
  H  H361  1  0.152200  0.152200  0.592700  1.0  0.1302
  H  H362  1  0.205900  0.205900  0.694100  1.0  0.136
  H  H363  1  0.236600  0.236600  0.656600  1.0  0.1305
  H  H364  1  0.192400  0.192400  0.582300  1.0  0.25
  H  H365  1  0.278900  0.278900  0.548200  1.0  0.1272
  H  H366  1  0.251800  0.251800  0.598700  1.0  0.2301
  H  H367  1  0.574000  0.426000  0.673500  1.0  0.127
  H  H368  1  0.665400  0.334600  0.796300  1.0  0.1247
  H  H369  1  0.621300  0.378700  0.870900  1.0  0.1283
  H  H370  1  0.652200  0.347800  0.907300  1.0  0.1302
  H  H371  1  0.705900  0.294100  0.805900  1.0  0.1362
  H  H372  1  0.736600  0.263400  0.843400  1.0  0.13
  H  H373  1  0.692400  0.307600  0.917700  1.0  0.25
  H  H374  1  0.778900  0.221100  0.951800  1.0  0.1285
  H  H375  1  0.751800  0.248200  0.901300  1.0  0.231
  H  H376  1  0.074000  0.926000  0.173500  1.0  0.127
  H  H377  1  0.165400  0.834600  0.296300  1.0  0.1247
  H  H378  1  0.121300  0.878700  0.370900  1.0  0.1283
  H  H379  1  0.152200  0.847800  0.407300  1.0  0.1301
  H  H380  1  0.205900  0.794100  0.305900  1.0  0.1362
  H  H381  1  0.236600  0.763400  0.343400  1.0  0.13
  H  H382  1  0.192400  0.807600  0.417700  1.0  0.25
  H  H383  1  0.278900  0.721100  0.451800  1.0  0.1285
  H  H384  1  0.251800  0.748200  0.401300  1.0  0.231
  H  H385  1  0.326500  0.426000  0.426000  1.0  0.1266
  H  H386  1  0.203700  0.334600  0.334600  1.0  0.1223
  H  H387  1  0.129100  0.378700  0.378700  1.0  0.128
  H  H388  1  0.092700  0.347800  0.347800  1.0  0.1294
  H  H389  1  0.194100  0.294100  0.294100  1.0  0.1361
  H  H390  1  0.156600  0.263400  0.263400  1.0  0.1303
  H  H391  1  0.082300  0.307600  0.307600  1.0  0.2491
  H  H392  1  0.048200  0.221100  0.221100  1.0  0.1251
  H  H393  1  0.098700  0.248200  0.248200  1.0  0.2315
  H  H394  1  0.826500  0.926000  0.926000  1.0  0.1266
  H  H395  1  0.703700  0.834600  0.834600  1.0  0.1223
  H  H396  1  0.629100  0.878700  0.878700  1.0  0.128
  H  H397  1  0.592700  0.847800  0.847800  1.0  0.1299
  H  H398  1  0.694100  0.794100  0.794100  1.0  0.1361
  H  H399  1  0.656600  0.763400  0.763400  1.0  0.1303
  H  H400  1  0.582300  0.807600  0.807600  1.0  0.2491
  H  H401  1  0.548200  0.721100  0.721100  1.0  0.1251
  H  H402  1  0.598700  0.748200  0.748200  1.0  0.2315
  H  H403  1  0.673500  0.426000  0.574000  1.0  0.1265
  H  H404  1  0.796300  0.334600  0.665400  1.0  0.1224
  H  H405  1  0.870900  0.378700  0.621300  1.0  0.1283
  H  H406  1  0.907300  0.347800  0.652200  1.0  0.131
  H  H407  1  0.805900  0.294100  0.705900  1.0  0.1351
  H  H408  1  0.843400  0.263400  0.736600  1.0  0.1305
  H  H409  1  0.917700  0.307600  0.692400  1.0  0.2501
  H  H410  1  0.951800  0.221100  0.778900  1.0  0.1246
  H  H411  1  0.901300  0.248200  0.751800  1.0  0.2327
  H  H412  1  0.173500  0.926000  0.074000  1.0  0.1265
  H  H413  1  0.296300  0.834600  0.165400  1.0  0.1224
  H  H414  1  0.370900  0.878700  0.121300  1.0  0.1283
  H  H415  1  0.407300  0.847800  0.152200  1.0  0.131
  H  H416  1  0.305900  0.794100  0.205900  1.0  0.1351
  H  H417  1  0.343400  0.763400  0.236600  1.0  0.1305
  H  H418  1  0.417700  0.807600  0.192400  1.0  0.2501
  H  H419  1  0.451800  0.721100  0.278900  1.0  0.1246
  H  H420  1  0.401300  0.748200  0.251800  1.0  0.2327
  H  H421  1  0.326500  0.574000  0.574000  1.0  0.1264
  H  H422  1  0.203700  0.665400  0.665400  1.0  0.1219
  H  H423  1  0.129100  0.621300  0.621300  1.0  0.128
  H  H424  1  0.092700  0.652200  0.652200  1.0  0.1294
  H  H425  1  0.194100  0.705900  0.705900  1.0  0.1358
  H  H426  1  0.156600  0.736600  0.736600  1.0  0.1302
  H  H427  1  0.082300  0.692400  0.692400  1.0  0.2496
  H  H428  1  0.048200  0.778900  0.778900  1.0  0.1244
  H  H429  1  0.098700  0.751800  0.751800  1.0  0.2312
  H  H430  1  0.826500  0.074000  0.074000  1.0  0.1264
  H  H431  1  0.703700  0.165400  0.165400  1.0  0.1219
  H  H432  1  0.629100  0.121300  0.121300  1.0  0.128
  H  H433  1  0.592700  0.152200  0.152200  1.0  0.1294
  H  H434  1  0.694100  0.205900  0.205900  1.0  0.1358
  H  H435  1  0.656600  0.236600  0.236600  1.0  0.1302
  H  H436  1  0.582300  0.192400  0.192400  1.0  0.2496
  H  H437  1  0.548200  0.278900  0.278900  1.0  0.1244
  H  H438  1  0.598700  0.251800  0.251800  1.0  0.2312
  H  H439  1  0.673500  0.574000  0.426000  1.0  0.1269
  H  H440  1  0.796300  0.665400  0.334600  1.0  0.1234
  H  H441  1  0.870900  0.621300  0.378700  1.0  0.1281
  H  H442  1  0.907300  0.652200  0.347800  1.0  0.1307
  H  H443  1  0.805900  0.705900  0.294100  1.0  0.1346
  H  H444  1  0.843400  0.736600  0.263400  1.0  0.1309
  H  H445  1  0.917700  0.692400  0.307600  1.0  0.2498
  H  H446  1  0.951800  0.778900  0.221100  1.0  0.1251
  H  H447  1  0.901300  0.751800  0.248200  1.0  0.2326
  H  H448  1  0.173500  0.074000  0.926000  1.0  0.1269
  H  H449  1  0.296300  0.165400  0.834600  1.0  0.1234
  H  H450  1  0.370900  0.121300  0.878700  1.0  0.1281
  H  H451  1  0.407300  0.152200  0.847800  1.0  0.1305
  H  H452  1  0.305900  0.205900  0.794100  1.0  0.1346
  H  H453  1  0.343400  0.236600  0.763400  1.0  0.1309
  H  H454  1  0.417700  0.192400  0.807600  1.0  0.2498
  H  H455  1  0.451800  0.278900  0.721100  1.0  0.1251
  H  H456  1  0.401300  0.251800  0.748200  1.0  0.2326
  H  H457  1  0.326500  0.426000  0.574000  1.0  0.1265
  H  H458  1  0.203700  0.334600  0.665400  1.0  0.1219
  H  H459  1  0.129100  0.378700  0.621300  1.0  0.1282
  H  H460  1  0.092700  0.347800  0.652200  1.0  0.1295
  H  H461  1  0.194100  0.294100  0.705900  1.0  0.1362
  H  H462  1  0.156600  0.263400  0.736600  1.0  0.1302
  H  H463  1  0.082300  0.307600  0.692400  1.0  0.25
  H  H464  1  0.048200  0.221100  0.778900  1.0  0.1247
  H  H465  1  0.098700  0.248200  0.751800  1.0  0.2314
  H  H466  1  0.826500  0.926000  0.074000  1.0  0.1265
  H  H467  1  0.703700  0.834600  0.165400  1.0  0.1219
  H  H468  1  0.629100  0.878700  0.121300  1.0  0.1282
  H  H469  1  0.592700  0.847800  0.152200  1.0  0.1296
  H  H470  1  0.694100  0.794100  0.205900  1.0  0.1362
  H  H471  1  0.656600  0.763400  0.236600  1.0  0.1302
  H  H472  1  0.582300  0.807600  0.192400  1.0  0.25
  H  H473  1  0.548200  0.721100  0.278900  1.0  0.1247
  H  H474  1  0.598700  0.748200  0.251800  1.0  0.2314
  H  H475  1  0.673500  0.574000  0.574000  1.0  0.1265
  H  H476  1  0.796300  0.665400  0.665400  1.0  0.1227
  H  H477  1  0.870900  0.621300  0.621300  1.0  0.1282
  H  H478  1  0.907300  0.652200  0.652200  1.0  0.1308
  H  H479  1  0.805900  0.705900  0.705900  1.0  0.1345
  H  H480  1  0.843400  0.736600  0.736600  1.0  0.1304
  H  H481  1  0.917700  0.692400  0.692400  1.0  0.2499
  H  H482  1  0.951800  0.778900  0.778900  1.0  0.1245
  H  H483  1  0.901300  0.751800  0.751800  1.0  0.2323
  H  H484  1  0.173500  0.074000  0.074000  1.0  0.1265
  H  H485  1  0.296300  0.165400  0.165400  1.0  0.1227
  H  H486  1  0.370900  0.121300  0.121300  1.0  0.1282
  H  H487  1  0.407300  0.152200  0.152200  1.0  0.1308
  H  H488  1  0.305900  0.205900  0.205900  1.0  0.1345
  H  H489  1  0.343400  0.236600  0.236600  1.0  0.1304
  H  H490  1  0.417700  0.192400  0.192400  1.0  0.2499
  H  H491  1  0.451800  0.278900  0.278900  1.0  0.1245
  H  H492  1  0.401300  0.251800  0.251800  1.0  0.2323
  H  H493  1  0.326500  0.574000  0.426000  1.0  0.1268
  H  H494  1  0.203700  0.665400  0.334600  1.0  0.1228
  H  H495  1  0.129100  0.621300  0.378700  1.0  0.1285
  H  H496  1  0.092700  0.652200  0.347800  1.0  0.1295
  H  H497  1  0.194100  0.705900  0.294100  1.0  0.1363
  H  H498  1  0.156600  0.736600  0.263400  1.0  0.1308
  H  H499  1  0.082300  0.692400  0.307600  1.0  0.2489
  H  H500  1  0.048200  0.778900  0.221100  1.0  0.1249
  H  H501  1  0.098700  0.751800  0.248200  1.0  0.2315
  H  H502  1  0.826500  0.074000  0.926000  1.0  0.1268
  H  H503  1  0.703700  0.165400  0.834600  1.0  0.1228
  H  H504  1  0.629100  0.121300  0.878700  1.0  0.1285
  H  H505  1  0.592700  0.152200  0.847800  1.0  0.1295
  H  H506  1  0.694100  0.205900  0.794100  1.0  0.1363
  H  H507  1  0.656600  0.236600  0.763400  1.0  0.1308
  H  H508  1  0.582300  0.192400  0.807600  1.0  0.2489
  H  H509  1  0.548200  0.278900  0.721100  1.0  0.1249
  H  H510  1  0.598700  0.251800  0.748200  1.0  0.2315
  H  H511  1  0.673500  0.426000  0.426000  1.0  0.1266
  H  H512  1  0.796300  0.334600  0.334600  1.0  0.1227
  H  H513  1  0.870900  0.378700  0.378700  1.0  0.1276
  H  H514  1  0.907300  0.347800  0.347800  1.0  0.1307
  H  H515  1  0.805900  0.294100  0.294100  1.0  0.1348
  H  H516  1  0.843400  0.263400  0.263400  1.0  0.1305
  H  H517  1  0.917700  0.307600  0.307600  1.0  0.2497
  H  H518  1  0.951800  0.221100  0.221100  1.0  0.125
  H  H519  1  0.901300  0.248200  0.248200  1.0  0.2327
  H  H520  1  0.173500  0.926000  0.926000  1.0  0.1266
  H  H521  1  0.296300  0.834600  0.834600  1.0  0.1227
  H  H522  1  0.370900  0.878700  0.878700  1.0  0.1276
  H  H523  1  0.407300  0.847800  0.847800  1.0  0.131
  H  H524  1  0.305900  0.794100  0.794100  1.0  0.1348
  H  H525  1  0.343400  0.763400  0.763400  1.0  0.1305
  H  H526  1  0.417700  0.807600  0.807600  1.0  0.2497
  H  H527  1  0.451800  0.721100  0.721100  1.0  0.125
  H  H528  1  0.401300  0.748200  0.748200  1.0  0.2327
  H  H529  1  0.426000  0.426000  0.673500  1.0  0.1274
  H  H530  1  0.334600  0.334600  0.796300  1.0  0.1252
  H  H531  1  0.378700  0.378700  0.870900  1.0  0.1281
  H  H532  1  0.347800  0.347800  0.907300  1.0  0.1304
  H  H533  1  0.294100  0.294100  0.805900  1.0  0.1359
  H  H534  1  0.263400  0.263400  0.843400  1.0  0.1298
  H  H535  1  0.307600  0.307600  0.917700  1.0  0.2505
  H  H536  1  0.221100  0.221100  0.951800  1.0  0.1281
  H  H537  1  0.248200  0.248200  0.901300  1.0  0.232
  H  H538  1  0.926000  0.926000  0.173500  1.0  0.1274
  H  H539  1  0.834600  0.834600  0.296300  1.0  0.1252
  H  H540  1  0.878700  0.878700  0.370900  1.0  0.1281
  H  H541  1  0.847800  0.847800  0.407300  1.0  0.1306
  H  H542  1  0.794100  0.794100  0.305900  1.0  0.1359
  H  H543  1  0.763400  0.763400  0.343400  1.0  0.1298
  H  H544  1  0.807600  0.807600  0.417700  1.0  0.2505
  H  H545  1  0.721100  0.721100  0.451800  1.0  0.1281
  H  H546  1  0.748200  0.748200  0.401300  1.0  0.232
  H  H547  1  0.574000  0.426000  0.326500  1.0  0.1276
  H  H548  1  0.665400  0.334600  0.203700  1.0  0.1239
  H  H549  1  0.621300  0.378700  0.129100  1.0  0.128
  H  H550  1  0.652200  0.347800  0.092700  1.0  0.1304
  H  H551  1  0.705900  0.294100  0.194100  1.0  0.1364
  H  H552  1  0.736600  0.263400  0.156600  1.0  0.1299
  H  H553  1  0.692400  0.307600  0.082300  1.0  0.2499
  H  H554  1  0.778900  0.221100  0.048200  1.0  0.1275
  H  H555  1  0.751800  0.248200  0.098700  1.0  0.2305
  H  H556  1  0.074000  0.926000  0.826500  1.0  0.1276
  H  H557  1  0.165400  0.834600  0.703700  1.0  0.1239
  H  H558  1  0.121300  0.878700  0.629100  1.0  0.128
  H  H559  1  0.152200  0.847800  0.592700  1.0  0.1302
  H  H560  1  0.205900  0.794100  0.694100  1.0  0.1364
  H  H561  1  0.236600  0.763400  0.656600  1.0  0.1299
  H  H562  1  0.192400  0.807600  0.582300  1.0  0.2499
  H  H563  1  0.278900  0.721100  0.548200  1.0  0.1275
  H  H564  1  0.251800  0.748200  0.598700  1.0  0.2305
  H  H565  1  0.574000  0.574000  0.673500  1.0  0.1271
  H  H566  1  0.665400  0.665400  0.796300  1.0  0.125
  H  H567  1  0.621300  0.621300  0.870900  1.0  0.1284
  H  H568  1  0.652200  0.652200  0.907300  1.0  0.1304
  H  H569  1  0.705900  0.705900  0.805900  1.0  0.1363
  H  H570  1  0.736600  0.736600  0.843400  1.0  0.1308
  H  H571  1  0.692400  0.692400  0.917700  1.0  0.2495
  H  H572  1  0.778900  0.778900  0.951800  1.0  0.1281
  H  H573  1  0.751800  0.751800  0.901300  1.0  0.231
  H  H574  1  0.074000  0.074000  0.173500  1.0  0.1271
  H  H575  1  0.165400  0.165400  0.296300  1.0  0.125
  H  H576  1  0.121300  0.121300  0.370900  1.0  0.1284
  H  H577  1  0.152200  0.152200  0.407300  1.0  0.1304
  H  H578  1  0.205900  0.205900  0.305900  1.0  0.1363
  H  H579  1  0.236600  0.236600  0.343400  1.0  0.1308
  H  H580  1  0.192400  0.192400  0.417700  1.0  0.2495
  H  H581  1  0.278900  0.278900  0.451800  1.0  0.1281
  H  H582  1  0.251800  0.251800  0.401300  1.0  0.231
  H  H583  1  0.426000  0.574000  0.326500  1.0  0.1277
  H  H584  1  0.334600  0.665400  0.203700  1.0  0.1236
  H  H585  1  0.378700  0.621300  0.129100  1.0  0.1283
  H  H586  1  0.347800  0.652200  0.092700  1.0  0.13
  H  H587  1  0.294100  0.705900  0.194100  1.0  0.1357
  H  H588  1  0.263400  0.736600  0.156600  1.0  0.1304
  H  H589  1  0.307600  0.692400  0.082300  1.0  0.2505
  H  H590  1  0.221100  0.778900  0.048200  1.0  0.1269
  H  H591  1  0.248200  0.751800  0.098700  1.0  0.2314
  H  H592  1  0.926000  0.074000  0.826500  1.0  0.1277
  H  H593  1  0.834600  0.165400  0.703700  1.0  0.1236
  H  H594  1  0.878700  0.121300  0.629100  1.0  0.1283
  H  H595  1  0.847800  0.152200  0.592700  1.0  0.13
  H  H596  1  0.794100  0.205900  0.694100  1.0  0.1357
  H  H597  1  0.763400  0.236600  0.656600  1.0  0.1304
  H  H598  1  0.807600  0.192400  0.582300  1.0  0.2505
  H  H599  1  0.721100  0.278900  0.548200  1.0  0.1269
  H  H600  1  0.748200  0.251800  0.598700  1.0  0.2314
  H  H601  1  0.426000  0.326500  0.574000  1.0  0.1267
  H  H602  1  0.334600  0.203700  0.665400  1.0  0.1226
  H  H603  1  0.378700  0.129100  0.621300  1.0  0.1283
  H  H604  1  0.347800  0.092700  0.652200  1.0  0.1316
  H  H605  1  0.294100  0.194100  0.705900  1.0  0.1371
  H  H606  1  0.263400  0.156600  0.736600  1.0  0.129
  H  H607  1  0.307600  0.082300  0.692400  1.0  0.2482
  H  H608  1  0.221100  0.048200  0.778900  1.0  0.1266
  H  H609  1  0.248200  0.098700  0.751800  1.0  0.2322
  H  H610  1  0.926000  0.826500  0.074000  1.0  0.1267
  H  H611  1  0.834600  0.703700  0.165400  1.0  0.1226
  H  H612  1  0.878700  0.629100  0.121300  1.0  0.1283
  H  H613  1  0.847800  0.592700  0.152200  1.0  0.1316
  H  H614  1  0.794100  0.694100  0.205900  1.0  0.1371
  H  H615  1  0.763400  0.656600  0.236600  1.0  0.129
  H  H616  1  0.807600  0.582300  0.192400  1.0  0.2482
  H  H617  1  0.721100  0.548200  0.278900  1.0  0.1266
  H  H618  1  0.748200  0.598700  0.251800  1.0  0.2322
  H  H619  1  0.426000  0.673500  0.426000  1.0  0.1269
  H  H620  1  0.334600  0.796300  0.334600  1.0  0.1228
  H  H621  1  0.378700  0.870900  0.378700  1.0  0.1281
  H  H622  1  0.347800  0.907300  0.347800  1.0  0.1309
  H  H623  1  0.294100  0.805900  0.294100  1.0  0.1374
  H  H624  1  0.263400  0.843400  0.263400  1.0  0.1294
  H  H625  1  0.307600  0.917700  0.307600  1.0  0.2488
  H  H626  1  0.221100  0.951800  0.221100  1.0  0.1264
  H  H627  1  0.248200  0.901300  0.248200  1.0  0.2329
  H  H628  1  0.926000  0.173500  0.926000  1.0  0.1269
  H  H629  1  0.834600  0.296300  0.834600  1.0  0.1228
  H  H630  1  0.878700  0.370900  0.878700  1.0  0.1281
  H  H631  1  0.847800  0.407300  0.847800  1.0  0.1311
  H  H632  1  0.794100  0.305900  0.794100  1.0  0.1374
  H  H633  1  0.763400  0.343400  0.763400  1.0  0.1294
  H  H634  1  0.807600  0.417700  0.807600  1.0  0.2488
  H  H635  1  0.721100  0.451800  0.721100  1.0  0.1264
  H  H636  1  0.748200  0.401300  0.748200  1.0  0.2329
  H  H637  1  0.574000  0.326500  0.426000  1.0  0.1268
  H  H638  1  0.665400  0.203700  0.334600  1.0  0.1228
  H  H639  1  0.621300  0.129100  0.378700  1.0  0.1284
  H  H640  1  0.652200  0.092700  0.347800  1.0  0.1315
  H  H641  1  0.705900  0.194100  0.294100  1.0  0.1379
  H  H642  1  0.736600  0.156600  0.263400  1.0  0.1298
  H  H643  1  0.692400  0.082300  0.307600  1.0  0.2479
  H  H644  1  0.778900  0.048200  0.221100  1.0  0.1274
  H  H645  1  0.751800  0.098700  0.248200  1.0  0.2311
  H  H646  1  0.074000  0.826500  0.926000  1.0  0.1268
  H  H647  1  0.165400  0.703700  0.834600  1.0  0.1228
  H  H648  1  0.121300  0.629100  0.878700  1.0  0.1284
  H  H649  1  0.152200  0.592700  0.847800  1.0  0.1314
  H  H650  1  0.205900  0.694100  0.794100  1.0  0.1379
  H  H651  1  0.236600  0.656600  0.763400  1.0  0.1298
  H  H652  1  0.192400  0.582300  0.807600  1.0  0.2479
  H  H653  1  0.278900  0.548200  0.721100  1.0  0.1274
  H  H654  1  0.251800  0.598700  0.748200  1.0  0.2311
  H  H655  1  0.574000  0.673500  0.574000  1.0  0.1262
  H  H656  1  0.665400  0.796300  0.665400  1.0  0.1216
  H  H657  1  0.621300  0.870900  0.621300  1.0  0.1282
  H  H658  1  0.652200  0.907300  0.652200  1.0  0.1309
  H  H659  1  0.705900  0.805900  0.705900  1.0  0.1378
  H  H660  1  0.736600  0.843400  0.736600  1.0  0.1292
  H  H661  1  0.692400  0.917700  0.692400  1.0  0.2477
  H  H662  1  0.778900  0.951800  0.778900  1.0  0.1264
  H  H663  1  0.751800  0.901300  0.751800  1.0  0.2314
  H  H664  1  0.074000  0.173500  0.074000  1.0  0.1262
  H  H665  1  0.165400  0.296300  0.165400  1.0  0.1216
  H  H666  1  0.121300  0.370900  0.121300  1.0  0.1282
  H  H667  1  0.152200  0.407300  0.152200  1.0  0.1309
  H  H668  1  0.205900  0.305900  0.205900  1.0  0.1378
  H  H669  1  0.236600  0.343400  0.236600  1.0  0.1292
  H  H670  1  0.192400  0.417700  0.192400  1.0  0.2477
  H  H671  1  0.278900  0.451800  0.278900  1.0  0.1264
  H  H672  1  0.251800  0.401300  0.251800  1.0  0.2314
  H  H673  1  0.281400  0.000000  0.281400  1.0  0.1337
  H  H674  1  0.781400  0.500000  0.781400  1.0  0.1337
  H  H675  1  0.718600  0.000000  0.281400  1.0  0.1343
  H  H676  1  0.218600  0.500000  0.781400  1.0  0.1343
  H  H677  1  0.718600  0.000000  0.718600  1.0  0.1332
  H  H678  1  0.218600  0.500000  0.218600  1.0  0.1332
  H  H679  1  0.281400  0.000000  0.718600  1.0  0.1329
  H  H680  1  0.781400  0.500000  0.218600  1.0  0.1329
  H  H681  1  0.281400  0.281400  0.000000  1.0  0.1312
  H  H682  1  0.781400  0.781400  0.500000  1.0  0.1312
  H  H683  1  0.281400  0.718600  0.000000  1.0  0.1319
  H  H684  1  0.781400  0.218600  0.500000  1.0  0.1319
  H  H685  1  0.718600  0.718600  0.000000  1.0  0.1322
  H  H686  1  0.218600  0.218600  0.500000  1.0  0.1322
  H  H687  1  0.718600  0.281400  0.000000  1.0  0.1316
  H  H688  1  0.218600  0.781400  0.500000  1.0  0.1316
  H  H689  1  0.000000  0.281400  0.281400  1.0  0.1331
  H  H690  1  0.500000  0.781400  0.781400  1.0  0.1331
  H  H691  1  0.000000  0.281400  0.718600  1.0  0.1323
  H  H692  1  0.500000  0.781400  0.218600  1.0  0.1323
  H  H693  1  0.000000  0.718600  0.718600  1.0  0.1331
  H  H694  1  0.500000  0.218600  0.218600  1.0  0.1331
  H  H695  1  0.000000  0.718600  0.281400  1.0  0.1337
  H  H696  1  0.500000  0.218600  0.781400  1.0  0.1337
  C  C697  1  0.371550  0.311700  0.455960  1.0  0.7125
  C  C698  1  0.388630  0.295130  0.429520  1.0  -0.12
  C  C699  1  0.373890  0.268390  0.415040  1.0  -0.1456
  C  C700  1  0.871550  0.811700  0.955960  1.0  0.7125
  C  C701  1  0.888630  0.795130  0.929520  1.0  -0.12
  C  C702  1  0.873890  0.768390  0.915040  1.0  -0.1456
  C  C703  1  0.628450  0.688300  0.455960  1.0  0.7115
  C  C704  1  0.611370  0.704870  0.429520  1.0  -0.1203
  C  C705  1  0.626110  0.731610  0.415040  1.0  -0.1457
  C  C706  1  0.128450  0.188300  0.955960  1.0  0.7115
  C  C707  1  0.111370  0.204870  0.929520  1.0  -0.1203
  C  C708  1  0.126110  0.231610  0.915040  1.0  -0.1457
  C  C709  1  0.628450  0.311700  0.544040  1.0  0.7117
  C  C710  1  0.611370  0.295130  0.570480  1.0  -0.1203
  C  C711  1  0.626110  0.268390  0.584960  1.0  -0.1442
  C  C712  1  0.128450  0.811700  0.044040  1.0  0.7117
  C  C713  1  0.111370  0.795130  0.070480  1.0  -0.1203
  C  C714  1  0.126110  0.768390  0.084960  1.0  -0.1442
  C  C715  1  0.371550  0.688300  0.544040  1.0  0.712
  C  C716  1  0.388630  0.704870  0.570480  1.0  -0.1196
  C  C717  1  0.373890  0.731610  0.584960  1.0  -0.1452
  C  C718  1  0.871550  0.188300  0.044040  1.0  0.712
  C  C719  1  0.888630  0.204870  0.070480  1.0  -0.1196
  C  C720  1  0.873890  0.231610  0.084960  1.0  -0.1452
  C  C721  1  0.455960  0.371550  0.311700  1.0  0.7091
  C  C722  1  0.429520  0.388630  0.295130  1.0  -0.1198
  C  C723  1  0.415040  0.373890  0.268390  1.0  -0.1436
  C  C724  1  0.955960  0.871550  0.811700  1.0  0.7091
  C  C725  1  0.929520  0.888630  0.795130  1.0  -0.1198
  C  C726  1  0.915040  0.873890  0.768390  1.0  -0.1436
  C  C727  1  0.455960  0.628450  0.688300  1.0  0.7088
  C  C728  1  0.429520  0.611370  0.704870  1.0  -0.1201
  C  C729  1  0.415040  0.626110  0.731610  1.0  -0.1438
  C  C730  1  0.955960  0.128450  0.188300  1.0  0.7088
  C  C731  1  0.929520  0.111370  0.204870  1.0  -0.1201
  C  C732  1  0.915040  0.126110  0.231610  1.0  -0.1438
  C  C733  1  0.544040  0.628450  0.311700  1.0  0.7093
  C  C734  1  0.570480  0.611370  0.295130  1.0  -0.1206
  C  C735  1  0.584960  0.626110  0.268390  1.0  -0.1441
  C  C736  1  0.044040  0.128450  0.811700  1.0  0.7093
  C  C737  1  0.070480  0.111370  0.795130  1.0  -0.1206
  C  C738  1  0.084960  0.126110  0.768390  1.0  -0.1441
  C  C739  1  0.544040  0.371550  0.688300  1.0  0.7094
  C  C740  1  0.570480  0.388630  0.704870  1.0  -0.1201
  C  C741  1  0.584960  0.373890  0.731610  1.0  -0.1441
  C  C742  1  0.044040  0.871550  0.188300  1.0  0.7094
  C  C743  1  0.070480  0.888630  0.204870  1.0  -0.1201
  C  C744  1  0.084960  0.873890  0.231610  1.0  -0.1441
  C  C745  1  0.311700  0.455960  0.371550  1.0  0.7086
  C  C746  1  0.295130  0.429520  0.388630  1.0  -0.1196
  C  C747  1  0.268390  0.415040  0.373890  1.0  -0.1434
  C  C748  1  0.811700  0.955960  0.871550  1.0  0.7086
  C  C749  1  0.795130  0.929520  0.888630  1.0  -0.1196
  C  C750  1  0.768390  0.915040  0.873890  1.0  -0.1434
  C  C751  1  0.688300  0.455960  0.628450  1.0  0.7091
  C  C752  1  0.704870  0.429520  0.611370  1.0  -0.1193
  C  C753  1  0.731610  0.415040  0.626110  1.0  -0.1432
  C  C754  1  0.188300  0.955960  0.128450  1.0  0.7091
  C  C755  1  0.204870  0.929520  0.111370  1.0  -0.1193
  C  C756  1  0.231610  0.915040  0.126110  1.0  -0.1432
  C  C757  1  0.311700  0.544040  0.628450  1.0  0.709
  C  C758  1  0.295130  0.570480  0.611370  1.0  -0.1194
  C  C759  1  0.268390  0.584960  0.626110  1.0  -0.1449
  C  C760  1  0.811700  0.044040  0.128450  1.0  0.709
  C  C761  1  0.795130  0.070480  0.111370  1.0  -0.1194
  C  C762  1  0.768390  0.084960  0.126110  1.0  -0.1449
  C  C763  1  0.688300  0.544040  0.371550  1.0  0.7082
  C  C764  1  0.704870  0.570480  0.388630  1.0  -0.1191
  C  C765  1  0.731610  0.584960  0.373890  1.0  -0.1436
  C  C766  1  0.188300  0.044040  0.871550  1.0  0.7082
  C  C767  1  0.204870  0.070480  0.888630  1.0  -0.1191
  C  C768  1  0.231610  0.084960  0.873890  1.0  -0.1436
  C  C769  1  0.311700  0.371550  0.544040  1.0  0.7099
  C  C770  1  0.295130  0.388630  0.570480  1.0  -0.1191
  C  C771  1  0.268390  0.373890  0.584960  1.0  -0.144
  C  C772  1  0.811700  0.871550  0.044040  1.0  0.7099
  C  C773  1  0.795130  0.888630  0.070480  1.0  -0.1191
  C  C774  1  0.768390  0.873890  0.084960  1.0  -0.144
  C  C775  1  0.688300  0.628450  0.544040  1.0  0.7094
  C  C776  1  0.704870  0.611370  0.570480  1.0  -0.119
  C  C777  1  0.731610  0.626110  0.584960  1.0  -0.1433
  C  C778  1  0.188300  0.128450  0.044040  1.0  0.7094
  C  C779  1  0.204870  0.111370  0.070480  1.0  -0.119
  C  C780  1  0.231610  0.126110  0.084960  1.0  -0.1433
  C  C781  1  0.311700  0.628450  0.455960  1.0  0.7097
  C  C782  1  0.295130  0.611370  0.429520  1.0  -0.1192
  C  C783  1  0.268390  0.626110  0.415040  1.0  -0.1449
  C  C784  1  0.811700  0.128450  0.955960  1.0  0.7097
  C  C785  1  0.795130  0.111370  0.929520  1.0  -0.1192
  C  C786  1  0.768390  0.126110  0.915040  1.0  -0.1449
  C  C787  1  0.688300  0.371550  0.455960  1.0  0.7097
  C  C788  1  0.704870  0.388630  0.429520  1.0  -0.119
  C  C789  1  0.731610  0.373890  0.415040  1.0  -0.1441
  C  C790  1  0.188300  0.871550  0.955960  1.0  0.7097
  C  C791  1  0.204870  0.888630  0.929520  1.0  -0.119
  C  C792  1  0.231610  0.873890  0.915040  1.0  -0.1441
  C  C793  1  0.371550  0.455960  0.688300  1.0  0.7116
  C  C794  1  0.388630  0.429520  0.704870  1.0  -0.1198
  C  C795  1  0.373890  0.415040  0.731610  1.0  -0.1442
  C  C796  1  0.871550  0.955960  0.188300  1.0  0.7116
  C  C797  1  0.888630  0.929520  0.204870  1.0  -0.1198
  C  C798  1  0.873890  0.915040  0.231610  1.0  -0.1442
  C  C799  1  0.628450  0.455960  0.311700  1.0  0.7114
  C  C800  1  0.611370  0.429520  0.295130  1.0  -0.1203
  C  C801  1  0.626110  0.415040  0.268390  1.0  -0.1432
  C  C802  1  0.128450  0.955960  0.811700  1.0  0.7114
  C  C803  1  0.111370  0.929520  0.795130  1.0  -0.1203
  C  C804  1  0.126110  0.915040  0.768390  1.0  -0.1432
  C  C805  1  0.628450  0.544040  0.688300  1.0  0.7108
  C  C806  1  0.611370  0.570480  0.704870  1.0  -0.1203
  C  C807  1  0.626110  0.584960  0.731610  1.0  -0.1437
  C  C808  1  0.128450  0.044040  0.188300  1.0  0.7108
  C  C809  1  0.111370  0.070480  0.204870  1.0  -0.1203
  C  C810  1  0.126110  0.084960  0.231610  1.0  -0.1437
  C  C811  1  0.371550  0.544040  0.311700  1.0  0.7116
  C  C812  1  0.388630  0.570480  0.295130  1.0  -0.1196
  C  C813  1  0.373890  0.584960  0.268390  1.0  -0.1444
  C  C814  1  0.871550  0.044040  0.811700  1.0  0.7116
  C  C815  1  0.888630  0.070480  0.795130  1.0  -0.1196
  C  C816  1  0.873890  0.084960  0.768390  1.0  -0.1444
  C  C817  1  0.455960  0.311700  0.628450  1.0  0.7089
  C  C818  1  0.429520  0.295130  0.611370  1.0  -0.1203
  C  C819  1  0.415040  0.268390  0.626110  1.0  -0.1444
  C  C820  1  0.955960  0.811700  0.128450  1.0  0.7089
  C  C821  1  0.929520  0.795130  0.111370  1.0  -0.1203
  C  C822  1  0.915040  0.768390  0.126110  1.0  -0.1444
  C  C823  1  0.455960  0.688300  0.371550  1.0  0.7081
  C  C824  1  0.429520  0.704870  0.388630  1.0  -0.12
  C  C825  1  0.415040  0.731610  0.373890  1.0  -0.1446
  C  C826  1  0.955960  0.188300  0.871550  1.0  0.7081
  C  C827  1  0.929520  0.204870  0.888630  1.0  -0.12
  C  C828  1  0.915040  0.231610  0.873890  1.0  -0.1446
  C  C829  1  0.544040  0.311700  0.371550  1.0  0.7086
  C  C830  1  0.570480  0.295130  0.388630  1.0  -0.1201
  C  C831  1  0.584960  0.268390  0.373890  1.0  -0.1445
  C  C832  1  0.044040  0.811700  0.871550  1.0  0.7086
  C  C833  1  0.070480  0.795130  0.888630  1.0  -0.1201
  C  C834  1  0.084960  0.768390  0.873890  1.0  -0.1445
  C  C835  1  0.544040  0.688300  0.628450  1.0  0.7092
  C  C836  1  0.570480  0.704870  0.611370  1.0  -0.1205
  C  C837  1  0.584960  0.731610  0.626110  1.0  -0.1463
  C  C838  1  0.044040  0.188300  0.128450  1.0  0.7092
  C  C839  1  0.070480  0.204870  0.111370  1.0  -0.1205
  C  C840  1  0.084960  0.231610  0.126110  1.0  -0.1463
  C  C841  1  0.628450  0.688300  0.544040  1.0  0.7115
  C  C842  1  0.611370  0.704870  0.570480  1.0  -0.1203
  C  C843  1  0.626110  0.731610  0.584960  1.0  -0.1447
  C  C844  1  0.128450  0.188300  0.044040  1.0  0.7115
  C  C845  1  0.111370  0.204870  0.070480  1.0  -0.1203
  C  C846  1  0.126110  0.231610  0.084960  1.0  -0.1447
  C  C847  1  0.371550  0.311700  0.544040  1.0  0.7121
  C  C848  1  0.388630  0.295130  0.570480  1.0  -0.1196
  C  C849  1  0.373890  0.268390  0.584960  1.0  -0.1447
  C  C850  1  0.871550  0.811700  0.044040  1.0  0.7121
  C  C851  1  0.888630  0.795130  0.070480  1.0  -0.1196
  C  C852  1  0.873890  0.768390  0.084960  1.0  -0.1447
  C  C853  1  0.371550  0.688300  0.455960  1.0  0.7123
  C  C854  1  0.388630  0.704870  0.429520  1.0  -0.12
  C  C855  1  0.373890  0.731610  0.415040  1.0  -0.1464
  C  C856  1  0.871550  0.188300  0.955960  1.0  0.7123
  C  C857  1  0.888630  0.204870  0.929520  1.0  -0.12
  C  C858  1  0.873890  0.231610  0.915040  1.0  -0.1464
  C  C859  1  0.628450  0.311700  0.455960  1.0  0.7118
  C  C860  1  0.611370  0.295130  0.429520  1.0  -0.1203
  C  C861  1  0.626110  0.268390  0.415040  1.0  -0.145
  C  C862  1  0.128450  0.811700  0.955960  1.0  0.7118
  C  C863  1  0.111370  0.795130  0.929520  1.0  -0.1203
  C  C864  1  0.126110  0.768390  0.915040  1.0  -0.145
  C  C865  1  0.544040  0.628450  0.688300  1.0  0.7093
  C  C866  1  0.570480  0.611370  0.704870  1.0  -0.1206
  C  C867  1  0.584960  0.626110  0.731610  1.0  -0.1441
  C  C868  1  0.044040  0.128450  0.188300  1.0  0.7093
  C  C869  1  0.070480  0.111370  0.204870  1.0  -0.1206
  C  C870  1  0.084960  0.126110  0.231610  1.0  -0.1441
  C  C871  1  0.544040  0.371550  0.311700  1.0  0.7095
  C  C872  1  0.570480  0.388630  0.295130  1.0  -0.1202
  C  C873  1  0.584960  0.373890  0.268390  1.0  -0.1441
  C  C874  1  0.044040  0.871550  0.811700  1.0  0.7095
  C  C875  1  0.070480  0.888630  0.795130  1.0  -0.1202
  C  C876  1  0.084960  0.873890  0.768390  1.0  -0.1441
  C  C877  1  0.455960  0.371550  0.688300  1.0  0.7089
  C  C878  1  0.429520  0.388630  0.704870  1.0  -0.1199
  C  C879  1  0.415040  0.373890  0.731610  1.0  -0.1436
  C  C880  1  0.955960  0.871550  0.188300  1.0  0.7089
  C  C881  1  0.929520  0.888630  0.204870  1.0  -0.1199
  C  C882  1  0.915040  0.873890  0.231610  1.0  -0.1436
  C  C883  1  0.455960  0.628450  0.311700  1.0  0.7089
  C  C884  1  0.429520  0.611370  0.295130  1.0  -0.12
  C  C885  1  0.415040  0.626110  0.268390  1.0  -0.1439
  C  C886  1  0.955960  0.128450  0.811700  1.0  0.7089
  C  C887  1  0.929520  0.111370  0.795130  1.0  -0.12
  C  C888  1  0.915040  0.126110  0.768390  1.0  -0.1439
  C  C889  1  0.688300  0.544040  0.628450  1.0  0.7088
  C  C890  1  0.704870  0.570480  0.611370  1.0  -0.1193
  C  C891  1  0.731610  0.584960  0.626110  1.0  -0.1437
  C  C892  1  0.188300  0.044040  0.128450  1.0  0.7088
  C  C893  1  0.204870  0.070480  0.111370  1.0  -0.1193
  C  C894  1  0.231610  0.084960  0.126110  1.0  -0.1437
  C  C895  1  0.311700  0.544040  0.371550  1.0  0.7083
  C  C896  1  0.295130  0.570480  0.388630  1.0  -0.1193
  C  C897  1  0.268390  0.584960  0.373890  1.0  -0.1443
  C  C898  1  0.811700  0.044040  0.871550  1.0  0.7083
  C  C899  1  0.795130  0.070480  0.888630  1.0  -0.1193
  C  C900  1  0.768390  0.084960  0.873890  1.0  -0.1443
  C  C901  1  0.688300  0.455960  0.371550  1.0  0.7086
  C  C902  1  0.704870  0.429520  0.388630  1.0  -0.1192
  C  C903  1  0.731610  0.415040  0.373890  1.0  -0.1428
  C  C904  1  0.188300  0.955960  0.871550  1.0  0.7086
  C  C905  1  0.204870  0.929520  0.888630  1.0  -0.1192
  C  C906  1  0.231610  0.915040  0.873890  1.0  -0.1428
  C  C907  1  0.311700  0.455960  0.628450  1.0  0.7093
  C  C908  1  0.295130  0.429520  0.611370  1.0  -0.1196
  C  C909  1  0.268390  0.415040  0.626110  1.0  -0.1448
  C  C910  1  0.811700  0.955960  0.128450  1.0  0.7093
  C  C911  1  0.795130  0.929520  0.111370  1.0  -0.1196
  C  C912  1  0.768390  0.915040  0.126110  1.0  -0.1448
  C  C913  1  0.688300  0.628450  0.455960  1.0  0.7097
  C  C914  1  0.704870  0.611370  0.429520  1.0  -0.1189
  C  C915  1  0.731610  0.626110  0.415040  1.0  -0.1439
  C  C916  1  0.188300  0.128450  0.955960  1.0  0.7097
  C  C917  1  0.204870  0.111370  0.929520  1.0  -0.1189
  C  C918  1  0.231610  0.126110  0.915040  1.0  -0.1439
  C  C919  1  0.311700  0.371550  0.455960  1.0  0.7099
  C  C920  1  0.295130  0.388630  0.429520  1.0  -0.1193
  C  C921  1  0.268390  0.373890  0.415040  1.0  -0.145
  C  C922  1  0.811700  0.871550  0.955960  1.0  0.7099
  C  C923  1  0.795130  0.888630  0.929520  1.0  -0.1193
  C  C924  1  0.768390  0.873890  0.915040  1.0  -0.145
  C  C925  1  0.688300  0.371550  0.544040  1.0  0.7097
  C  C926  1  0.704870  0.388630  0.570480  1.0  -0.1188
  C  C927  1  0.731610  0.373890  0.584960  1.0  -0.1432
  C  C928  1  0.188300  0.871550  0.044040  1.0  0.7097
  C  C929  1  0.204870  0.888630  0.070480  1.0  -0.1188
  C  C930  1  0.231610  0.873890  0.084960  1.0  -0.1432
  C  C931  1  0.311700  0.628450  0.544040  1.0  0.7095
  C  C932  1  0.295130  0.611370  0.570480  1.0  -0.1193
  C  C933  1  0.268390  0.626110  0.584960  1.0  -0.1439
  C  C934  1  0.811700  0.128450  0.044040  1.0  0.7095
  C  C935  1  0.795130  0.111370  0.070480  1.0  -0.1193
  C  C936  1  0.768390  0.126110  0.084960  1.0  -0.1439
  C  C937  1  0.628450  0.544040  0.311700  1.0  0.7109
  C  C938  1  0.611370  0.570480  0.295130  1.0  -0.1202
  C  C939  1  0.626110  0.584960  0.268390  1.0  -0.1441
  C  C940  1  0.128450  0.044040  0.811700  1.0  0.7109
  C  C941  1  0.111370  0.070480  0.795130  1.0  -0.1202
  C  C942  1  0.126110  0.084960  0.768390  1.0  -0.1441
  C  C943  1  0.371550  0.544040  0.688300  1.0  0.7113
  C  C944  1  0.388630  0.570480  0.704870  1.0  -0.1196
  C  C945  1  0.373890  0.584960  0.731610  1.0  -0.1445
  C  C946  1  0.871550  0.044040  0.188300  1.0  0.7113
  C  C947  1  0.888630  0.070480  0.204870  1.0  -0.1196
  C  C948  1  0.873890  0.084960  0.231610  1.0  -0.1445
  C  C949  1  0.371550  0.455960  0.311700  1.0  0.7119
  C  C950  1  0.388630  0.429520  0.295130  1.0  -0.1199
  C  C951  1  0.373890  0.415040  0.268390  1.0  -0.144
  C  C952  1  0.871550  0.955960  0.811700  1.0  0.7119
  C  C953  1  0.888630  0.929520  0.795130  1.0  -0.1199
  C  C954  1  0.873890  0.915040  0.768390  1.0  -0.144
  C  C955  1  0.628450  0.455960  0.688300  1.0  0.7113
  C  C956  1  0.611370  0.429520  0.704870  1.0  -0.1202
  C  C957  1  0.626110  0.415040  0.731610  1.0  -0.1432
  C  C958  1  0.128450  0.955960  0.188300  1.0  0.7113
  C  C959  1  0.111370  0.929520  0.204870  1.0  -0.1202
  C  C960  1  0.126110  0.915040  0.231610  1.0  -0.1432
  C  C961  1  0.544040  0.688300  0.371550  1.0  0.7083
  C  C962  1  0.570480  0.704870  0.388630  1.0  -0.1202
  C  C963  1  0.584960  0.731610  0.373890  1.0  -0.1448
  C  C964  1  0.044040  0.188300  0.871550  1.0  0.7083
  C  C965  1  0.070480  0.204870  0.888630  1.0  -0.1202
  C  C966  1  0.084960  0.231610  0.873890  1.0  -0.1448
  C  C967  1  0.544040  0.311700  0.628450  1.0  0.7092
  C  C968  1  0.570480  0.295130  0.611370  1.0  -0.1205
  C  C969  1  0.584960  0.268390  0.626110  1.0  -0.1454
  C  C970  1  0.044040  0.811700  0.128450  1.0  0.7092
  C  C971  1  0.070480  0.795130  0.111370  1.0  -0.1205
  C  C972  1  0.084960  0.768390  0.126110  1.0  -0.1454
  C  C973  1  0.455960  0.688300  0.628450  1.0  0.7088
  C  C974  1  0.429520  0.704870  0.611370  1.0  -0.1203
  C  C975  1  0.415040  0.731610  0.626110  1.0  -0.1453
  C  C976  1  0.955960  0.188300  0.128450  1.0  0.7088
  C  C977  1  0.929520  0.204870  0.111370  1.0  -0.1203
  C  C978  1  0.915040  0.231610  0.126110  1.0  -0.1453
  C  C979  1  0.455960  0.311700  0.371550  1.0  0.7084
  C  C980  1  0.429520  0.295130  0.388630  1.0  -0.12
  C  C981  1  0.415040  0.268390  0.373890  1.0  -0.1438
  C  C982  1  0.955960  0.811700  0.871550  1.0  0.7084
  C  C983  1  0.929520  0.795130  0.888630  1.0  -0.12
  C  C984  1  0.915040  0.768390  0.873890  1.0  -0.1438
  C  C985  1  0.416180  0.308310  0.416180  1.0  0.0277
  C  C986  1  0.388370  0.254340  0.388370  1.0  0.1536
  C  C987  1  0.379820  0.191810  0.379820  1.0  0.3141
  C  C988  1  0.337470  0.181170  0.337470  1.0  -0.1434
  C  C989  1  0.359070  0.170120  0.359070  1.0  0.0324
  C  C990  1  0.363430  0.136840  0.363430  1.0  -0.0494
  C  C991  1  0.345110  0.115280  0.345110  1.0  -0.1012
  C  C992  1  0.323410  0.126820  0.323410  1.0  0.038
  C  C993  1  0.319180  0.159510  0.319180  1.0  0.0401
  C  C994  1  0.296920  0.171510  0.296920  1.0  -0.1286
  C  C995  1  0.278660  0.149020  0.278660  1.0  -0.0492
  C  C996  1  0.282700  0.116900  0.282700  1.0  0.0386
  C  C997  1  0.304920  0.104880  0.304920  1.0  -0.1457
  C  C998  1  0.267480  0.058720  0.267480  1.0  0.2747
  C  C999  1  0.253420  0.028030  0.253420  1.0  -0.0561
  C  C1000  1  0.229220  0.028460  0.229220  1.0  0.1754
  C  C1001  1  0.916180  0.808310  0.916180  1.0  0.0277
  C  C1002  1  0.888370  0.754340  0.888370  1.0  0.1536
  C  C1003  1  0.879820  0.691810  0.879820  1.0  0.3141
  C  C1004  1  0.837470  0.681170  0.837470  1.0  -0.1434
  C  C1005  1  0.859070  0.670120  0.859070  1.0  0.0324
  C  C1006  1  0.863430  0.636840  0.863430  1.0  -0.0494
  C  C1007  1  0.845110  0.615280  0.845110  1.0  -0.1012
  C  C1008  1  0.823410  0.626820  0.823410  1.0  0.038
  C  C1009  1  0.819180  0.659510  0.819180  1.0  0.0401
  C  C1010  1  0.796920  0.671510  0.796920  1.0  -0.1286
  C  C1011  1  0.778660  0.649020  0.778660  1.0  -0.0492
  C  C1012  1  0.782700  0.616900  0.782700  1.0  0.0386
  C  C1013  1  0.804920  0.604880  0.804920  1.0  -0.1457
  C  C1014  1  0.767480  0.558720  0.767480  1.0  0.2747
  C  C1015  1  0.753420  0.528030  0.753420  1.0  -0.0561
  C  C1016  1  0.729220  0.528460  0.729220  1.0  0.1754
  C  C1017  1  0.583820  0.691690  0.416180  1.0  0.0271
  C  C1018  1  0.611630  0.745660  0.388370  1.0  0.1543
  C  C1019  1  0.620180  0.808190  0.379820  1.0  0.3134
  C  C1020  1  0.662530  0.818830  0.337470  1.0  -0.1457
  C  C1021  1  0.640930  0.829880  0.359070  1.0  0.0339
  C  C1022  1  0.636570  0.863160  0.363430  1.0  -0.0493
  C  C1023  1  0.654890  0.884720  0.345110  1.0  -0.0995
  C  C1024  1  0.676590  0.873180  0.323410  1.0  0.0387
  C  C1025  1  0.680820  0.840490  0.319180  1.0  0.04
  C  C1026  1  0.703080  0.828490  0.296920  1.0  -0.1277
  C  C1027  1  0.721340  0.850980  0.278660  1.0  -0.0469
  C  C1028  1  0.717300  0.883100  0.282700  1.0  0.0381
  C  C1029  1  0.695080  0.895120  0.304920  1.0  -0.1442
  C  C1030  1  0.732520  0.941280  0.267480  1.0  0.276
  C  C1031  1  0.746580  0.971970  0.253420  1.0  -0.0553
  C  C1032  1  0.770780  0.971540  0.229220  1.0  0.1759
  C  C1033  1  0.083820  0.191690  0.916180  1.0  0.0271
  C  C1034  1  0.111630  0.245660  0.888370  1.0  0.1543
  C  C1035  1  0.120180  0.308190  0.879820  1.0  0.3134
  C  C1036  1  0.162530  0.318830  0.837470  1.0  -0.1457
  C  C1037  1  0.140930  0.329880  0.859070  1.0  0.0339
  C  C1038  1  0.136570  0.363160  0.863430  1.0  -0.0493
  C  C1039  1  0.154890  0.384720  0.845110  1.0  -0.0995
  C  C1040  1  0.176590  0.373180  0.823410  1.0  0.0387
  C  C1041  1  0.180820  0.340490  0.819180  1.0  0.04
  C  C1042  1  0.203080  0.328490  0.796920  1.0  -0.1277
  C  C1043  1  0.221340  0.350980  0.778660  1.0  -0.0469
  C  C1044  1  0.217300  0.383100  0.782700  1.0  0.0381
  C  C1045  1  0.195080  0.395120  0.804920  1.0  -0.1442
  C  C1046  1  0.232520  0.441280  0.767480  1.0  0.276
  C  C1047  1  0.246580  0.471970  0.753420  1.0  -0.0553
  C  C1048  1  0.270780  0.471540  0.729220  1.0  0.1759
  C  C1049  1  0.583820  0.308310  0.583820  1.0  0.0273
  C  C1050  1  0.611630  0.254340  0.611630  1.0  0.1539
  C  C1051  1  0.620180  0.191810  0.620180  1.0  0.3146
  C  C1052  1  0.662530  0.181170  0.662530  1.0  -0.1434
  C  C1053  1  0.640930  0.170120  0.640930  1.0  0.0328
  C  C1054  1  0.636570  0.136840  0.636570  1.0  -0.0497
  C  C1055  1  0.654890  0.115280  0.654890  1.0  -0.1014
  C  C1056  1  0.676590  0.126820  0.676590  1.0  0.0379
  C  C1057  1  0.680820  0.159510  0.680820  1.0  0.0402
  C  C1058  1  0.703080  0.171510  0.703080  1.0  -0.1294
  C  C1059  1  0.721340  0.149020  0.721340  1.0  -0.0466
  C  C1060  1  0.717300  0.116900  0.717300  1.0  0.0372
  C  C1061  1  0.695080  0.104880  0.695080  1.0  -0.1465
  C  C1062  1  0.732520  0.058720  0.732520  1.0  0.2762
  C  C1063  1  0.746580  0.028030  0.746580  1.0  -0.0548
  C  C1064  1  0.770780  0.028460  0.770780  1.0  0.1754
  C  C1065  1  0.083820  0.808310  0.083820  1.0  0.0273
  C  C1066  1  0.111630  0.754340  0.111630  1.0  0.1539
  C  C1067  1  0.120180  0.691810  0.120180  1.0  0.3146
  C  C1068  1  0.162530  0.681170  0.162530  1.0  -0.1434
  C  C1069  1  0.140930  0.670120  0.140930  1.0  0.0328
  C  C1070  1  0.136570  0.636840  0.136570  1.0  -0.0497
  C  C1071  1  0.154890  0.615280  0.154890  1.0  -0.1014
  C  C1072  1  0.176590  0.626820  0.176590  1.0  0.0379
  C  C1073  1  0.180820  0.659510  0.180820  1.0  0.0402
  C  C1074  1  0.203080  0.671510  0.203080  1.0  -0.1294
  C  C1075  1  0.221340  0.649020  0.221340  1.0  -0.0466
  C  C1076  1  0.217300  0.616900  0.217300  1.0  0.0372
  C  C1077  1  0.195080  0.604880  0.195080  1.0  -0.1465
  C  C1078  1  0.232520  0.558720  0.232520  1.0  0.2762
  C  C1079  1  0.246580  0.528030  0.246580  1.0  -0.0548
  C  C1080  1  0.270780  0.528460  0.270780  1.0  0.1754
  C  C1081  1  0.416180  0.691690  0.583820  1.0  0.0274
  C  C1082  1  0.388370  0.745660  0.611630  1.0  0.1544
  C  C1083  1  0.379820  0.808190  0.620180  1.0  0.3149
  C  C1084  1  0.337470  0.818830  0.662530  1.0  -0.1462
  C  C1085  1  0.359070  0.829880  0.640930  1.0  0.0327
  C  C1086  1  0.363430  0.863160  0.636570  1.0  -0.0503
  C  C1087  1  0.345110  0.884720  0.654890  1.0  -0.0999
  C  C1088  1  0.323410  0.873180  0.676590  1.0  0.0381
  C  C1089  1  0.319180  0.840490  0.680820  1.0  0.0399
  C  C1090  1  0.296920  0.828490  0.703080  1.0  -0.1293
  C  C1091  1  0.278660  0.850980  0.721340  1.0  -0.0486
  C  C1092  1  0.282700  0.883100  0.717300  1.0  0.0381
  C  C1093  1  0.304920  0.895120  0.695080  1.0  -0.144
  C  C1094  1  0.267480  0.941280  0.732520  1.0  0.2745
  C  C1095  1  0.253420  0.971970  0.746580  1.0  -0.0563
  C  C1096  1  0.229220  0.971540  0.770780  1.0  0.1752
  C  C1097  1  0.916180  0.191690  0.083820  1.0  0.0274
  C  C1098  1  0.888370  0.245660  0.111630  1.0  0.1544
  C  C1099  1  0.879820  0.308190  0.120180  1.0  0.3149
  C  C1100  1  0.837470  0.318830  0.162530  1.0  -0.1462
  C  C1101  1  0.859070  0.329880  0.140930  1.0  0.0327
  C  C1102  1  0.863430  0.363160  0.136570  1.0  -0.0503
  C  C1103  1  0.845110  0.384720  0.154890  1.0  -0.0999
  C  C1104  1  0.823410  0.373180  0.176590  1.0  0.0381
  C  C1105  1  0.819180  0.340490  0.180820  1.0  0.0399
  C  C1106  1  0.796920  0.328490  0.203080  1.0  -0.1293
  C  C1107  1  0.778660  0.350980  0.221340  1.0  -0.0486
  C  C1108  1  0.782700  0.383100  0.217300  1.0  0.0381
  C  C1109  1  0.804920  0.395120  0.195080  1.0  -0.144
  C  C1110  1  0.767480  0.441280  0.232520  1.0  0.2745
  C  C1111  1  0.753420  0.471970  0.246580  1.0  -0.0563
  C  C1112  1  0.729220  0.471540  0.270780  1.0  0.1752
  C  C1113  1  0.416180  0.416180  0.308310  1.0  0.0266
  C  C1114  1  0.388370  0.388370  0.254340  1.0  0.1532
  C  C1115  1  0.379820  0.379820  0.191810  1.0  0.3154
  C  C1116  1  0.337470  0.337470  0.181170  1.0  -0.1456
  C  C1117  1  0.359070  0.359070  0.170120  1.0  0.0325
  C  C1118  1  0.363430  0.363430  0.136840  1.0  -0.0494
  C  C1119  1  0.345110  0.345110  0.115280  1.0  -0.0974
  C  C1120  1  0.323410  0.323410  0.126820  1.0  0.0377
  C  C1121  1  0.319180  0.319180  0.159510  1.0  0.0408
  C  C1122  1  0.296920  0.296920  0.171510  1.0  -0.1271
  C  C1123  1  0.278660  0.278660  0.149020  1.0  -0.051
  C  C1124  1  0.282700  0.282700  0.116900  1.0  0.0377
  C  C1125  1  0.304920  0.304920  0.104880  1.0  -0.1462
  C  C1126  1  0.267480  0.267480  0.058720  1.0  0.2755
  C  C1127  1  0.253420  0.253420  0.028030  1.0  -0.0557
  C  C1128  1  0.229220  0.229220  0.028460  1.0  0.1706
  C  C1129  1  0.916180  0.916180  0.808310  1.0  0.0266
  C  C1130  1  0.888370  0.888370  0.754340  1.0  0.1532
  C  C1131  1  0.879820  0.879820  0.691810  1.0  0.3154
  C  C1132  1  0.837470  0.837470  0.681170  1.0  -0.1456
  C  C1133  1  0.859070  0.859070  0.670120  1.0  0.0325
  C  C1134  1  0.863430  0.863430  0.636840  1.0  -0.0494
  C  C1135  1  0.845110  0.845110  0.615280  1.0  -0.0974
  C  C1136  1  0.823410  0.823410  0.626820  1.0  0.0377
  C  C1137  1  0.819180  0.819180  0.659510  1.0  0.0408
  C  C1138  1  0.796920  0.796920  0.671510  1.0  -0.1271
  C  C1139  1  0.778660  0.778660  0.649020  1.0  -0.051
  C  C1140  1  0.782700  0.782700  0.616900  1.0  0.0377
  C  C1141  1  0.804920  0.804920  0.604880  1.0  -0.1462
  C  C1142  1  0.767480  0.767480  0.558720  1.0  0.2755
  C  C1143  1  0.753420  0.753420  0.528030  1.0  -0.0557
  C  C1144  1  0.729220  0.729220  0.528460  1.0  0.1706
  C  C1145  1  0.416180  0.583820  0.691690  1.0  0.0273
  C  C1146  1  0.388370  0.611630  0.745660  1.0  0.1538
  C  C1147  1  0.379820  0.620180  0.808190  1.0  0.3128
  C  C1148  1  0.337470  0.662530  0.818830  1.0  -0.1469
  C  C1149  1  0.359070  0.640930  0.829880  1.0  0.0333
  C  C1150  1  0.363430  0.636570  0.863160  1.0  -0.0483
  C  C1151  1  0.345110  0.654890  0.884720  1.0  -0.0968
  C  C1152  1  0.323410  0.676590  0.873180  1.0  0.039
  C  C1153  1  0.319180  0.680820  0.840490  1.0  0.0404
  C  C1154  1  0.296920  0.703080  0.828490  1.0  -0.1266
  C  C1155  1  0.278660  0.721340  0.850980  1.0  -0.0517
  C  C1156  1  0.282700  0.717300  0.883100  1.0  0.0384
  C  C1157  1  0.304920  0.695080  0.895120  1.0  -0.1459
  C  C1158  1  0.267480  0.732520  0.941280  1.0  0.276
  C  C1159  1  0.253420  0.746580  0.971970  1.0  -0.0546
  C  C1160  1  0.229220  0.770780  0.971540  1.0  0.1726
  C  C1161  1  0.916180  0.083820  0.191690  1.0  0.0273
  C  C1162  1  0.888370  0.111630  0.245660  1.0  0.1538
  C  C1163  1  0.879820  0.120180  0.308190  1.0  0.3128
  C  C1164  1  0.837470  0.162530  0.318830  1.0  -0.1469
  C  C1165  1  0.859070  0.140930  0.329880  1.0  0.0333
  C  C1166  1  0.863430  0.136570  0.363160  1.0  -0.0483
  C  C1167  1  0.845110  0.154890  0.384720  1.0  -0.0968
  C  C1168  1  0.823410  0.176590  0.373180  1.0  0.039
  C  C1169  1  0.819180  0.180820  0.340490  1.0  0.0404
  C  C1170  1  0.796920  0.203080  0.328490  1.0  -0.1266
  C  C1171  1  0.778660  0.221340  0.350980  1.0  -0.0517
  C  C1172  1  0.782700  0.217300  0.383100  1.0  0.0384
  C  C1173  1  0.804920  0.195080  0.395120  1.0  -0.1459
  C  C1174  1  0.767480  0.232520  0.441280  1.0  0.276
  C  C1175  1  0.753420  0.246580  0.471970  1.0  -0.0546
  C  C1176  1  0.729220  0.270780  0.471540  1.0  0.1726
  C  C1177  1  0.583820  0.583820  0.308310  1.0  0.0273
  C  C1178  1  0.611630  0.611630  0.254340  1.0  0.1535
  C  C1179  1  0.620180  0.620180  0.191810  1.0  0.3146
  C  C1180  1  0.662530  0.662530  0.181170  1.0  -0.1456
  C  C1181  1  0.640930  0.640930  0.170120  1.0  0.033
  C  C1182  1  0.636570  0.636570  0.136840  1.0  -0.0492
  C  C1183  1  0.654890  0.654890  0.115280  1.0  -0.0965
  C  C1184  1  0.676590  0.676590  0.126820  1.0  0.038
  C  C1185  1  0.680820  0.680820  0.159510  1.0  0.0408
  C  C1186  1  0.703080  0.703080  0.171510  1.0  -0.126
  C  C1187  1  0.721340  0.721340  0.149020  1.0  -0.049
  C  C1188  1  0.717300  0.717300  0.116900  1.0  0.0373
  C  C1189  1  0.695080  0.695080  0.104880  1.0  -0.1456
  C  C1190  1  0.732520  0.732520  0.058720  1.0  0.2777
  C  C1191  1  0.746580  0.746580  0.028030  1.0  -0.0547
  C  C1192  1  0.770780  0.770780  0.028460  1.0  0.1701
  C  C1193  1  0.083820  0.083820  0.808310  1.0  0.0273
  C  C1194  1  0.111630  0.111630  0.754340  1.0  0.1535
  C  C1195  1  0.120180  0.120180  0.691810  1.0  0.3146
  C  C1196  1  0.162530  0.162530  0.681170  1.0  -0.1456
  C  C1197  1  0.140930  0.140930  0.670120  1.0  0.033
  C  C1198  1  0.136570  0.136570  0.636840  1.0  -0.0492
  C  C1199  1  0.154890  0.154890  0.615280  1.0  -0.0965
  C  C1200  1  0.176590  0.176590  0.626820  1.0  0.038
  C  C1201  1  0.180820  0.180820  0.659510  1.0  0.0408
  C  C1202  1  0.203080  0.203080  0.671510  1.0  -0.126
  C  C1203  1  0.221340  0.221340  0.649020  1.0  -0.049
  C  C1204  1  0.217300  0.217300  0.616900  1.0  0.0373
  C  C1205  1  0.195080  0.195080  0.604880  1.0  -0.1456
  C  C1206  1  0.232520  0.232520  0.558720  1.0  0.2777
  C  C1207  1  0.246580  0.246580  0.528030  1.0  -0.0547
  C  C1208  1  0.270780  0.270780  0.528460  1.0  0.1701
  C  C1209  1  0.583820  0.416180  0.691690  1.0  0.0265
  C  C1210  1  0.611630  0.388370  0.745660  1.0  0.1538
  C  C1211  1  0.620180  0.379820  0.808190  1.0  0.3132
  C  C1212  1  0.662530  0.337470  0.818830  1.0  -0.1467
  C  C1213  1  0.640930  0.359070  0.829880  1.0  0.0342
  C  C1214  1  0.636570  0.363430  0.863160  1.0  -0.0484
  C  C1215  1  0.654890  0.345110  0.884720  1.0  -0.0971
  C  C1216  1  0.676590  0.323410  0.873180  1.0  0.0391
  C  C1217  1  0.680820  0.319180  0.840490  1.0  0.0405
  C  C1218  1  0.703080  0.296920  0.828490  1.0  -0.1271
  C  C1219  1  0.721340  0.278660  0.850980  1.0  -0.05
  C  C1220  1  0.717300  0.282700  0.883100  1.0  0.0373
  C  C1221  1  0.695080  0.304920  0.895120  1.0  -0.1464
  C  C1222  1  0.732520  0.267480  0.941280  1.0  0.2766
  C  C1223  1  0.746580  0.253420  0.971970  1.0  -0.0531
  C  C1224  1  0.770780  0.229220  0.971540  1.0  0.1729
  C  C1225  1  0.083820  0.916180  0.191690  1.0  0.0265
  C  C1226  1  0.111630  0.888370  0.245660  1.0  0.1538
  C  C1227  1  0.120180  0.879820  0.308190  1.0  0.3132
  C  C1228  1  0.162530  0.837470  0.318830  1.0  -0.1467
  C  C1229  1  0.140930  0.859070  0.329880  1.0  0.0342
  C  C1230  1  0.136570  0.863430  0.363160  1.0  -0.0484
  C  C1231  1  0.154890  0.845110  0.384720  1.0  -0.0971
  C  C1232  1  0.176590  0.823410  0.373180  1.0  0.0391
  C  C1233  1  0.180820  0.819180  0.340490  1.0  0.0405
  C  C1234  1  0.203080  0.796920  0.328490  1.0  -0.1271
  C  C1235  1  0.221340  0.778660  0.350980  1.0  -0.05
  C  C1236  1  0.217300  0.782700  0.383100  1.0  0.0373
  C  C1237  1  0.195080  0.804920  0.395120  1.0  -0.1464
  C  C1238  1  0.232520  0.767480  0.441280  1.0  0.2766
  C  C1239  1  0.246580  0.753420  0.471970  1.0  -0.0531
  C  C1240  1  0.270780  0.729220  0.471540  1.0  0.1729
  C  C1241  1  0.308310  0.416180  0.416180  1.0  0.0265
  C  C1242  1  0.254340  0.388370  0.388370  1.0  0.1535
  C  C1243  1  0.191810  0.379820  0.379820  1.0  0.3137
  C  C1244  1  0.181170  0.337470  0.337470  1.0  -0.1446
  C  C1245  1  0.170120  0.359070  0.359070  1.0  0.0336
  C  C1246  1  0.136840  0.363430  0.363430  1.0  -0.0483
  C  C1247  1  0.115280  0.345110  0.345110  1.0  -0.0985
  C  C1248  1  0.126820  0.323410  0.323410  1.0  0.0387
  C  C1249  1  0.159510  0.319180  0.319180  1.0  0.0404
  C  C1250  1  0.171510  0.296920  0.296920  1.0  -0.1273
  C  C1251  1  0.149020  0.278660  0.278660  1.0  -0.0507
  C  C1252  1  0.116900  0.282700  0.282700  1.0  0.0374
  C  C1253  1  0.104880  0.304920  0.304920  1.0  -0.1464
  C  C1254  1  0.058720  0.267480  0.267480  1.0  0.2766
  C  C1255  1  0.028030  0.253420  0.253420  1.0  -0.0558
  C  C1256  1  0.028460  0.229220  0.229220  1.0  0.1738
  C  C1257  1  0.808310  0.916180  0.916180  1.0  0.0265
  C  C1258  1  0.754340  0.888370  0.888370  1.0  0.1535
  C  C1259  1  0.691810  0.879820  0.879820  1.0  0.3137
  C  C1260  1  0.681170  0.837470  0.837470  1.0  -0.1446
  C  C1261  1  0.670120  0.859070  0.859070  1.0  0.0336
  C  C1262  1  0.636840  0.863430  0.863430  1.0  -0.0483
  C  C1263  1  0.615280  0.845110  0.845110  1.0  -0.0985
  C  C1264  1  0.626820  0.823410  0.823410  1.0  0.0387
  C  C1265  1  0.659510  0.819180  0.819180  1.0  0.0404
  C  C1266  1  0.671510  0.796920  0.796920  1.0  -0.1273
  C  C1267  1  0.649020  0.778660  0.778660  1.0  -0.0507
  C  C1268  1  0.616900  0.782700  0.782700  1.0  0.0374
  C  C1269  1  0.604880  0.804920  0.804920  1.0  -0.1464
  C  C1270  1  0.558720  0.767480  0.767480  1.0  0.2766
  C  C1271  1  0.528030  0.753420  0.753420  1.0  -0.0558
  C  C1272  1  0.528460  0.729220  0.729220  1.0  0.1738
  C  C1273  1  0.691690  0.416180  0.583820  1.0  0.0263
  C  C1274  1  0.745660  0.388370  0.611630  1.0  0.154
  C  C1275  1  0.808190  0.379820  0.620180  1.0  0.3162
  C  C1276  1  0.818830  0.337470  0.662530  1.0  -0.147
  C  C1277  1  0.829880  0.359070  0.640930  1.0  0.0326
  C  C1278  1  0.863160  0.363430  0.636570  1.0  -0.0496
  C  C1279  1  0.884720  0.345110  0.654890  1.0  -0.0974
  C  C1280  1  0.873180  0.323410  0.676590  1.0  0.0388
  C  C1281  1  0.840490  0.319180  0.680820  1.0  0.0408
  C  C1282  1  0.828490  0.296920  0.703080  1.0  -0.132
  C  C1283  1  0.850980  0.278660  0.721340  1.0  -0.0508
  C  C1284  1  0.883100  0.282700  0.717300  1.0  0.037
  C  C1285  1  0.895120  0.304920  0.695080  1.0  -0.1456
  C  C1286  1  0.941280  0.267480  0.732520  1.0  0.2763
  C  C1287  1  0.971970  0.253420  0.746580  1.0  -0.0559
  C  C1288  1  0.971540  0.229220  0.770780  1.0  0.1738
  C  C1289  1  0.191690  0.916180  0.083820  1.0  0.0263
  C  C1290  1  0.245660  0.888370  0.111630  1.0  0.154
  C  C1291  1  0.308190  0.879820  0.120180  1.0  0.3162
  C  C1292  1  0.318830  0.837470  0.162530  1.0  -0.147
  C  C1293  1  0.329880  0.859070  0.140930  1.0  0.0326
  C  C1294  1  0.363160  0.863430  0.136570  1.0  -0.0496
  C  C1295  1  0.384720  0.845110  0.154890  1.0  -0.0974
  C  C1296  1  0.373180  0.823410  0.176590  1.0  0.0388
  C  C1297  1  0.340490  0.819180  0.180820  1.0  0.0408
  C  C1298  1  0.328490  0.796920  0.203080  1.0  -0.132
  C  C1299  1  0.350980  0.778660  0.221340  1.0  -0.0508
  C  C1300  1  0.383100  0.782700  0.217300  1.0  0.037
  C  C1301  1  0.395120  0.804920  0.195080  1.0  -0.1456
  C  C1302  1  0.441280  0.767480  0.232520  1.0  0.2763
  C  C1303  1  0.471970  0.753420  0.246580  1.0  -0.0559
  C  C1304  1  0.471540  0.729220  0.270780  1.0  0.1738
  C  C1305  1  0.308310  0.583820  0.583820  1.0  0.0267
  C  C1306  1  0.254340  0.611630  0.611630  1.0  0.1535
  C  C1307  1  0.191810  0.620180  0.620180  1.0  0.3143
  C  C1308  1  0.181170  0.662530  0.662530  1.0  -0.1446
  C  C1309  1  0.170120  0.640930  0.640930  1.0  0.033
  C  C1310  1  0.136840  0.636570  0.636570  1.0  -0.0489
  C  C1311  1  0.115280  0.654890  0.654890  1.0  -0.0984
  C  C1312  1  0.126820  0.676590  0.676590  1.0  0.0387
  C  C1313  1  0.159510  0.680820  0.680820  1.0  0.0403
  C  C1314  1  0.171510  0.703080  0.703080  1.0  -0.1289
  C  C1315  1  0.149020  0.721340  0.721340  1.0  -0.0489
  C  C1316  1  0.116900  0.717300  0.717300  1.0  0.038
  C  C1317  1  0.104880  0.695080  0.695080  1.0  -0.1461
  C  C1318  1  0.058720  0.732520  0.732520  1.0  0.2776
  C  C1319  1  0.028030  0.746580  0.746580  1.0  -0.056
  C  C1320  1  0.028460  0.770780  0.770780  1.0  0.1737
  C  C1321  1  0.808310  0.083820  0.083820  1.0  0.0267
  C  C1322  1  0.754340  0.111630  0.111630  1.0  0.1535
  C  C1323  1  0.691810  0.120180  0.120180  1.0  0.3143
  C  C1324  1  0.681170  0.162530  0.162530  1.0  -0.1446
  C  C1325  1  0.670120  0.140930  0.140930  1.0  0.033
  C  C1326  1  0.636840  0.136570  0.136570  1.0  -0.0489
  C  C1327  1  0.615280  0.154890  0.154890  1.0  -0.0984
  C  C1328  1  0.626820  0.176590  0.176590  1.0  0.0387
  C  C1329  1  0.659510  0.180820  0.180820  1.0  0.0403
  C  C1330  1  0.671510  0.203080  0.203080  1.0  -0.1289
  C  C1331  1  0.649020  0.221340  0.221340  1.0  -0.0489
  C  C1332  1  0.616900  0.217300  0.217300  1.0  0.038
  C  C1333  1  0.604880  0.195080  0.195080  1.0  -0.1461
  C  C1334  1  0.558720  0.232520  0.232520  1.0  0.2776
  C  C1335  1  0.528030  0.246580  0.246580  1.0  -0.056
  C  C1336  1  0.528460  0.270780  0.270780  1.0  0.1737
  C  C1337  1  0.691690  0.583820  0.416180  1.0  0.0272
  C  C1338  1  0.745660  0.611630  0.388370  1.0  0.1539
  C  C1339  1  0.808190  0.620180  0.379820  1.0  0.3151
  C  C1340  1  0.818830  0.662530  0.337470  1.0  -0.147
  C  C1341  1  0.829880  0.640930  0.359070  1.0  0.0329
  C  C1342  1  0.863160  0.636570  0.363430  1.0  -0.0475
  C  C1343  1  0.884720  0.654890  0.345110  1.0  -0.0975
  C  C1344  1  0.873180  0.676590  0.323410  1.0  0.0392
  C  C1345  1  0.840490  0.680820  0.319180  1.0  0.0407
  C  C1346  1  0.828490  0.703080  0.296920  1.0  -0.1318
  C  C1347  1  0.850980  0.721340  0.278660  1.0  -0.0512
  C  C1348  1  0.883100  0.717300  0.282700  1.0  0.0376
  C  C1349  1  0.895120  0.695080  0.304920  1.0  -0.1453
  C  C1350  1  0.941280  0.732520  0.267480  1.0  0.2767
  C  C1351  1  0.971970  0.746580  0.253420  1.0  -0.0562
  C  C1352  1  0.971540  0.770780  0.229220  1.0  0.1735
  C  C1353  1  0.191690  0.083820  0.916180  1.0  0.0272
  C  C1354  1  0.245660  0.111630  0.888370  1.0  0.1539
  C  C1355  1  0.308190  0.120180  0.879820  1.0  0.3151
  C  C1356  1  0.318830  0.162530  0.837470  1.0  -0.147
  C  C1357  1  0.329880  0.140930  0.859070  1.0  0.0329
  C  C1358  1  0.363160  0.136570  0.863430  1.0  -0.0475
  C  C1359  1  0.384720  0.154890  0.845110  1.0  -0.0975
  C  C1360  1  0.373180  0.176590  0.823410  1.0  0.0392
  C  C1361  1  0.340490  0.180820  0.819180  1.0  0.0407
  C  C1362  1  0.328490  0.203080  0.796920  1.0  -0.1318
  C  C1363  1  0.350980  0.221340  0.778660  1.0  -0.0512
  C  C1364  1  0.383100  0.217300  0.782700  1.0  0.0376
  C  C1365  1  0.395120  0.195080  0.804920  1.0  -0.1453
  C  C1366  1  0.441280  0.232520  0.767480  1.0  0.2767
  C  C1367  1  0.471970  0.246580  0.753420  1.0  -0.0562
  C  C1368  1  0.471540  0.270780  0.729220  1.0  0.1735
  C  C1369  1  0.308310  0.416180  0.583820  1.0  0.0264
  C  C1370  1  0.254340  0.388370  0.611630  1.0  0.1536
  C  C1371  1  0.191810  0.379820  0.620180  1.0  0.3152
  C  C1372  1  0.181170  0.337470  0.662530  1.0  -0.1448
  C  C1373  1  0.170120  0.359070  0.640930  1.0  0.0333
  C  C1374  1  0.136840  0.363430  0.636570  1.0  -0.0489
  C  C1375  1  0.115280  0.345110  0.654890  1.0  -0.0982
  C  C1376  1  0.126820  0.323410  0.676590  1.0  0.0385
  C  C1377  1  0.159510  0.319180  0.680820  1.0  0.0405
  C  C1378  1  0.171510  0.296920  0.703080  1.0  -0.1286
  C  C1379  1  0.149020  0.278660  0.721340  1.0  -0.0492
  C  C1380  1  0.116900  0.282700  0.717300  1.0  0.0377
  C  C1381  1  0.104880  0.304920  0.695080  1.0  -0.1464
  C  C1382  1  0.058720  0.267480  0.732520  1.0  0.2768
  C  C1383  1  0.028030  0.253420  0.746580  1.0  -0.0556
  C  C1384  1  0.028460  0.229220  0.770780  1.0  0.1742
  C  C1385  1  0.808310  0.916180  0.083820  1.0  0.0264
  C  C1386  1  0.754340  0.888370  0.111630  1.0  0.1536
  C  C1387  1  0.691810  0.879820  0.120180  1.0  0.3152
  C  C1388  1  0.681170  0.837470  0.162530  1.0  -0.1448
  C  C1389  1  0.670120  0.859070  0.140930  1.0  0.0333
  C  C1390  1  0.636840  0.863430  0.136570  1.0  -0.0489
  C  C1391  1  0.615280  0.845110  0.154890  1.0  -0.0982
  C  C1392  1  0.626820  0.823410  0.176590  1.0  0.0385
  C  C1393  1  0.659510  0.819180  0.180820  1.0  0.0405
  C  C1394  1  0.671510  0.796920  0.203080  1.0  -0.1286
  C  C1395  1  0.649020  0.778660  0.221340  1.0  -0.0492
  C  C1396  1  0.616900  0.782700  0.217300  1.0  0.0377
  C  C1397  1  0.604880  0.804920  0.195080  1.0  -0.1464
  C  C1398  1  0.558720  0.767480  0.232520  1.0  0.2768
  C  C1399  1  0.528030  0.753420  0.246580  1.0  -0.0556
  C  C1400  1  0.528460  0.729220  0.270780  1.0  0.1742
  C  C1401  1  0.691690  0.583820  0.583820  1.0  0.0264
  C  C1402  1  0.745660  0.611630  0.611630  1.0  0.154
  C  C1403  1  0.808190  0.620180  0.620180  1.0  0.3156
  C  C1404  1  0.818830  0.662530  0.662530  1.0  -0.1472
  C  C1405  1  0.829880  0.640930  0.640930  1.0  0.0326
  C  C1406  1  0.863160  0.636570  0.636570  1.0  -0.0499
  C  C1407  1  0.884720  0.654890  0.654890  1.0  -0.0982
  C  C1408  1  0.873180  0.676590  0.676590  1.0  0.0389
  C  C1409  1  0.840490  0.680820  0.680820  1.0  0.0407
  C  C1410  1  0.828490  0.703080  0.703080  1.0  -0.1326
  C  C1411  1  0.850980  0.721340  0.721340  1.0  -0.0511
  C  C1412  1  0.883100  0.717300  0.717300  1.0  0.037
  C  C1413  1  0.895120  0.695080  0.695080  1.0  -0.1456
  C  C1414  1  0.941280  0.732520  0.732520  1.0  0.277
  C  C1415  1  0.971970  0.746580  0.746580  1.0  -0.0559
  C  C1416  1  0.971540  0.770780  0.770780  1.0  0.1734
  C  C1417  1  0.191690  0.083820  0.083820  1.0  0.0264
  C  C1418  1  0.245660  0.111630  0.111630  1.0  0.154
  C  C1419  1  0.308190  0.120180  0.120180  1.0  0.3156
  C  C1420  1  0.318830  0.162530  0.162530  1.0  -0.1472
  C  C1421  1  0.329880  0.140930  0.140930  1.0  0.0326
  C  C1422  1  0.363160  0.136570  0.136570  1.0  -0.0499
  C  C1423  1  0.384720  0.154890  0.154890  1.0  -0.0982
  C  C1424  1  0.373180  0.176590  0.176590  1.0  0.0389
  C  C1425  1  0.340490  0.180820  0.180820  1.0  0.0407
  C  C1426  1  0.328490  0.203080  0.203080  1.0  -0.1326
  C  C1427  1  0.350980  0.221340  0.221340  1.0  -0.0511
  C  C1428  1  0.383100  0.217300  0.217300  1.0  0.037
  C  C1429  1  0.395120  0.195080  0.195080  1.0  -0.1456
  C  C1430  1  0.441280  0.232520  0.232520  1.0  0.277
  C  C1431  1  0.471970  0.246580  0.246580  1.0  -0.0559
  C  C1432  1  0.471540  0.270780  0.270780  1.0  0.1734
  C  C1433  1  0.308310  0.583820  0.416180  1.0  0.0272
  C  C1434  1  0.254340  0.611630  0.388370  1.0  0.1535
  C  C1435  1  0.191810  0.620180  0.379820  1.0  0.313
  C  C1436  1  0.181170  0.662530  0.337470  1.0  -0.1444
  C  C1437  1  0.170120  0.640930  0.359070  1.0  0.0336
  C  C1438  1  0.136840  0.636570  0.363430  1.0  -0.0483
  C  C1439  1  0.115280  0.654890  0.345110  1.0  -0.0984
  C  C1440  1  0.126820  0.676590  0.323410  1.0  0.0389
  C  C1441  1  0.159510  0.680820  0.319180  1.0  0.0404
  C  C1442  1  0.171510  0.703080  0.296920  1.0  -0.1277
  C  C1443  1  0.149020  0.721340  0.278660  1.0  -0.05
  C  C1444  1  0.116900  0.717300  0.282700  1.0  0.0382
  C  C1445  1  0.104880  0.695080  0.304920  1.0  -0.1461
  C  C1446  1  0.058720  0.732520  0.267480  1.0  0.2771
  C  C1447  1  0.028030  0.746580  0.253420  1.0  -0.0557
  C  C1448  1  0.028460  0.770780  0.229220  1.0  0.1735
  C  C1449  1  0.808310  0.083820  0.916180  1.0  0.0272
  C  C1450  1  0.754340  0.111630  0.888370  1.0  0.1535
  C  C1451  1  0.691810  0.120180  0.879820  1.0  0.313
  C  C1452  1  0.681170  0.162530  0.837470  1.0  -0.1444
  C  C1453  1  0.670120  0.140930  0.859070  1.0  0.0336
  C  C1454  1  0.636840  0.136570  0.863430  1.0  -0.0483
  C  C1455  1  0.615280  0.154890  0.845110  1.0  -0.0984
  C  C1456  1  0.626820  0.176590  0.823410  1.0  0.0389
  C  C1457  1  0.659510  0.180820  0.819180  1.0  0.0404
  C  C1458  1  0.671510  0.203080  0.796920  1.0  -0.1277
  C  C1459  1  0.649020  0.221340  0.778660  1.0  -0.05
  C  C1460  1  0.616900  0.217300  0.782700  1.0  0.0382
  C  C1461  1  0.604880  0.195080  0.804920  1.0  -0.1461
  C  C1462  1  0.558720  0.232520  0.767480  1.0  0.2771
  C  C1463  1  0.528030  0.246580  0.753420  1.0  -0.0557
  C  C1464  1  0.528460  0.270780  0.729220  1.0  0.1735
  C  C1465  1  0.691690  0.416180  0.416180  1.0  0.0264
  C  C1466  1  0.745660  0.388370  0.388370  1.0  0.1539
  C  C1467  1  0.808190  0.379820  0.379820  1.0  0.3155
  C  C1468  1  0.818830  0.337470  0.337470  1.0  -0.1468
  C  C1469  1  0.829880  0.359070  0.359070  1.0  0.0327
  C  C1470  1  0.863160  0.363430  0.363430  1.0  -0.0466
  C  C1471  1  0.884720  0.345110  0.345110  1.0  -0.097
  C  C1472  1  0.873180  0.323410  0.323410  1.0  0.0391
  C  C1473  1  0.840490  0.319180  0.319180  1.0  0.0407
  C  C1474  1  0.828490  0.296920  0.296920  1.0  -0.131
  C  C1475  1  0.850980  0.278660  0.278660  1.0  -0.0513
  C  C1476  1  0.883100  0.282700  0.282700  1.0  0.0373
  C  C1477  1  0.895120  0.304920  0.304920  1.0  -0.1455
  C  C1478  1  0.941280  0.267480  0.267480  1.0  0.2763
  C  C1479  1  0.971970  0.253420  0.253420  1.0  -0.0558
  C  C1480  1  0.971540  0.229220  0.229220  1.0  0.174
  C  C1481  1  0.191690  0.916180  0.916180  1.0  0.0264
  C  C1482  1  0.245660  0.888370  0.888370  1.0  0.1539
  C  C1483  1  0.308190  0.879820  0.879820  1.0  0.3155
  C  C1484  1  0.318830  0.837470  0.837470  1.0  -0.1468
  C  C1485  1  0.329880  0.859070  0.859070  1.0  0.0327
  C  C1486  1  0.363160  0.863430  0.863430  1.0  -0.0466
  C  C1487  1  0.384720  0.845110  0.845110  1.0  -0.097
  C  C1488  1  0.373180  0.823410  0.823410  1.0  0.0391
  C  C1489  1  0.340490  0.819180  0.819180  1.0  0.0407
  C  C1490  1  0.328490  0.796920  0.796920  1.0  -0.131
  C  C1491  1  0.350980  0.778660  0.778660  1.0  -0.0513
  C  C1492  1  0.383100  0.782700  0.782700  1.0  0.0373
  C  C1493  1  0.395120  0.804920  0.804920  1.0  -0.1455
  C  C1494  1  0.441280  0.767480  0.767480  1.0  0.2763
  C  C1495  1  0.471970  0.753420  0.753420  1.0  -0.0558
  C  C1496  1  0.471540  0.729220  0.729220  1.0  0.174
  C  C1497  1  0.416180  0.416180  0.691690  1.0  0.0269
  C  C1498  1  0.388370  0.388370  0.745660  1.0  0.1536
  C  C1499  1  0.379820  0.379820  0.808190  1.0  0.3137
  C  C1500  1  0.337470  0.337470  0.818830  1.0  -0.1466
  C  C1501  1  0.359070  0.359070  0.829880  1.0  0.0331
  C  C1502  1  0.363430  0.363430  0.863160  1.0  -0.0472
  C  C1503  1  0.345110  0.345110  0.884720  1.0  -0.0961
  C  C1504  1  0.323410  0.323410  0.873180  1.0  0.0389
  C  C1505  1  0.319180  0.319180  0.840490  1.0  0.0404
  C  C1506  1  0.296920  0.296920  0.828490  1.0  -0.1261
  C  C1507  1  0.278660  0.278660  0.850980  1.0  -0.0517
  C  C1508  1  0.282700  0.282700  0.883100  1.0  0.038
  C  C1509  1  0.304920  0.304920  0.895120  1.0  -0.1458
  C  C1510  1  0.267480  0.267480  0.941280  1.0  0.2752
  C  C1511  1  0.253420  0.253420  0.971970  1.0  -0.054
  C  C1512  1  0.229220  0.229220  0.971540  1.0  0.1731
  C  C1513  1  0.916180  0.916180  0.191690  1.0  0.0269
  C  C1514  1  0.888370  0.888370  0.245660  1.0  0.1536
  C  C1515  1  0.879820  0.879820  0.308190  1.0  0.3137
  C  C1516  1  0.837470  0.837470  0.318830  1.0  -0.1466
  C  C1517  1  0.859070  0.859070  0.329880  1.0  0.0331
  C  C1518  1  0.863430  0.863430  0.363160  1.0  -0.0472
  C  C1519  1  0.845110  0.845110  0.384720  1.0  -0.0961
  C  C1520  1  0.823410  0.823410  0.373180  1.0  0.0389
  C  C1521  1  0.819180  0.819180  0.340490  1.0  0.0404
  C  C1522  1  0.796920  0.796920  0.328490  1.0  -0.1261
  C  C1523  1  0.778660  0.778660  0.350980  1.0  -0.0517
  C  C1524  1  0.782700  0.782700  0.383100  1.0  0.038
  C  C1525  1  0.804920  0.804920  0.395120  1.0  -0.1458
  C  C1526  1  0.767480  0.767480  0.441280  1.0  0.2752
  C  C1527  1  0.753420  0.753420  0.471970  1.0  -0.054
  C  C1528  1  0.729220  0.729220  0.471540  1.0  0.1731
  C  C1529  1  0.583820  0.416180  0.308310  1.0  0.0264
  C  C1530  1  0.611630  0.388370  0.254340  1.0  0.1533
  C  C1531  1  0.620180  0.379820  0.191810  1.0  0.3155
  C  C1532  1  0.662530  0.337470  0.181170  1.0  -0.1453
  C  C1533  1  0.640930  0.359070  0.170120  1.0  0.0335
  C  C1534  1  0.636570  0.363430  0.136840  1.0  -0.0495
  C  C1535  1  0.654890  0.345110  0.115280  1.0  -0.0968
  C  C1536  1  0.676590  0.323410  0.126820  1.0  0.0378
  C  C1537  1  0.680820  0.319180  0.159510  1.0  0.0408
  C  C1538  1  0.703080  0.296920  0.171510  1.0  -0.1261
  C  C1539  1  0.721340  0.278660  0.149020  1.0  -0.0493
  C  C1540  1  0.717300  0.282700  0.116900  1.0  0.037
  C  C1541  1  0.695080  0.304920  0.104880  1.0  -0.1461
  C  C1542  1  0.732520  0.267480  0.058720  1.0  0.2771
  C  C1543  1  0.746580  0.253420  0.028030  1.0  -0.0543
  C  C1544  1  0.770780  0.229220  0.028460  1.0  0.1706
  C  C1545  1  0.083820  0.916180  0.808310  1.0  0.0264
  C  C1546  1  0.111630  0.888370  0.754340  1.0  0.1533
  C  C1547  1  0.120180  0.879820  0.691810  1.0  0.3155
  C  C1548  1  0.162530  0.837470  0.681170  1.0  -0.1453
  C  C1549  1  0.140930  0.859070  0.670120  1.0  0.0335
  C  C1550  1  0.136570  0.863430  0.636840  1.0  -0.0495
  C  C1551  1  0.154890  0.845110  0.615280  1.0  -0.0968
  C  C1552  1  0.176590  0.823410  0.626820  1.0  0.0378
  C  C1553  1  0.180820  0.819180  0.659510  1.0  0.0408
  C  C1554  1  0.203080  0.796920  0.671510  1.0  -0.1261
  C  C1555  1  0.221340  0.778660  0.649020  1.0  -0.0493
  C  C1556  1  0.217300  0.782700  0.616900  1.0  0.037
  C  C1557  1  0.195080  0.804920  0.604880  1.0  -0.1461
  C  C1558  1  0.232520  0.767480  0.558720  1.0  0.2771
  C  C1559  1  0.246580  0.753420  0.528030  1.0  -0.0543
  C  C1560  1  0.270780  0.729220  0.528460  1.0  0.1706
  C  C1561  1  0.583820  0.583820  0.691690  1.0  0.0265
  C  C1562  1  0.611630  0.611630  0.745660  1.0  0.154
  C  C1563  1  0.620180  0.620180  0.808190  1.0  0.3124
  C  C1564  1  0.662530  0.662530  0.818830  1.0  -0.1469
  C  C1565  1  0.640930  0.640930  0.829880  1.0  0.034
  C  C1566  1  0.636570  0.636570  0.863160  1.0  -0.0481
  C  C1567  1  0.654890  0.654890  0.884720  1.0  -0.098
  C  C1568  1  0.676590  0.676590  0.873180  1.0  0.0391
  C  C1569  1  0.680820  0.680820  0.840490  1.0  0.0405
  C  C1570  1  0.703080  0.703080  0.828490  1.0  -0.1275
  C  C1571  1  0.721340  0.721340  0.850980  1.0  -0.0495
  C  C1572  1  0.717300  0.717300  0.883100  1.0  0.0373
  C  C1573  1  0.695080  0.695080  0.895120  1.0  -0.1461
  C  C1574  1  0.732520  0.732520  0.941280  1.0  0.2772
  C  C1575  1  0.746580  0.746580  0.971970  1.0  -0.0534
  C  C1576  1  0.770780  0.770780  0.971540  1.0  0.1725
  C  C1577  1  0.083820  0.083820  0.191690  1.0  0.0265
  C  C1578  1  0.111630  0.111630  0.245660  1.0  0.154
  C  C1579  1  0.120180  0.120180  0.308190  1.0  0.3124
  C  C1580  1  0.162530  0.162530  0.318830  1.0  -0.1469
  C  C1581  1  0.140930  0.140930  0.329880  1.0  0.034
  C  C1582  1  0.136570  0.136570  0.363160  1.0  -0.0481
  C  C1583  1  0.154890  0.154890  0.384720  1.0  -0.098
  C  C1584  1  0.176590  0.176590  0.373180  1.0  0.0391
  C  C1585  1  0.180820  0.180820  0.340490  1.0  0.0405
  C  C1586  1  0.203080  0.203080  0.328490  1.0  -0.1275
  C  C1587  1  0.221340  0.221340  0.350980  1.0  -0.0495
  C  C1588  1  0.217300  0.217300  0.383100  1.0  0.0373
  C  C1589  1  0.195080  0.195080  0.395120  1.0  -0.1461
  C  C1590  1  0.232520  0.232520  0.441280  1.0  0.2772
  C  C1591  1  0.246580  0.246580  0.471970  1.0  -0.0534
  C  C1592  1  0.270780  0.270780  0.471540  1.0  0.1725
  C  C1593  1  0.416180  0.583820  0.308310  1.0  0.0277
  C  C1594  1  0.388370  0.611630  0.254340  1.0  0.1534
  C  C1595  1  0.379820  0.620180  0.191810  1.0  0.3142
  C  C1596  1  0.337470  0.662530  0.181170  1.0  -0.1459
  C  C1597  1  0.359070  0.640930  0.170120  1.0  0.0326
  C  C1598  1  0.363430  0.636570  0.136840  1.0  -0.0505
  C  C1599  1  0.345110  0.654890  0.115280  1.0  -0.0974
  C  C1600  1  0.323410  0.676590  0.126820  1.0  0.0378
  C  C1601  1  0.319180  0.680820  0.159510  1.0  0.0407
  C  C1602  1  0.296920  0.703080  0.171510  1.0  -0.1271
  C  C1603  1  0.278660  0.721340  0.149020  1.0  -0.0515
  C  C1604  1  0.282700  0.717300  0.116900  1.0  0.0385
  C  C1605  1  0.304920  0.695080  0.104880  1.0  -0.1458
  C  C1606  1  0.267480  0.732520  0.058720  1.0  0.2762
  C  C1607  1  0.253420  0.746580  0.028030  1.0  -0.0556
  C  C1608  1  0.229220  0.770780  0.028460  1.0  0.1705
  C  C1609  1  0.916180  0.083820  0.808310  1.0  0.0277
  C  C1610  1  0.888370  0.111630  0.754340  1.0  0.1534
  C  C1611  1  0.879820  0.120180  0.691810  1.0  0.3142
  C  C1612  1  0.837470  0.162530  0.681170  1.0  -0.1459
  C  C1613  1  0.859070  0.140930  0.670120  1.0  0.0326
  C  C1614  1  0.863430  0.136570  0.636840  1.0  -0.0505
  C  C1615  1  0.845110  0.154890  0.615280  1.0  -0.0974
  C  C1616  1  0.823410  0.176590  0.626820  1.0  0.0378
  C  C1617  1  0.819180  0.180820  0.659510  1.0  0.0407
  C  C1618  1  0.796920  0.203080  0.671510  1.0  -0.1271
  C  C1619  1  0.778660  0.221340  0.649020  1.0  -0.0515
  C  C1620  1  0.782700  0.217300  0.616900  1.0  0.0385
  C  C1621  1  0.804920  0.195080  0.604880  1.0  -0.1458
  C  C1622  1  0.767480  0.232520  0.558720  1.0  0.2762
  C  C1623  1  0.753420  0.246580  0.528030  1.0  -0.0556
  C  C1624  1  0.729220  0.270780  0.528460  1.0  0.1705
  C  C1625  1  0.416180  0.308310  0.583820  1.0  0.0272
  C  C1626  1  0.388370  0.254340  0.611630  1.0  0.1538
  C  C1627  1  0.379820  0.191810  0.620180  1.0  0.3138
  C  C1628  1  0.337470  0.181170  0.662530  1.0  -0.1437
  C  C1629  1  0.359070  0.170120  0.640930  1.0  0.0325
  C  C1630  1  0.363430  0.136840  0.636570  1.0  -0.0508
  C  C1631  1  0.345110  0.115280  0.654890  1.0  -0.1018
  C  C1632  1  0.323410  0.126820  0.676590  1.0  0.0379
  C  C1633  1  0.319180  0.159510  0.680820  1.0  0.0402
  C  C1634  1  0.296920  0.171510  0.703080  1.0  -0.1292
  C  C1635  1  0.278660  0.149020  0.721340  1.0  -0.0489
  C  C1636  1  0.282700  0.116900  0.717300  1.0  0.0386
  C  C1637  1  0.304920  0.104880  0.695080  1.0  -0.146
  C  C1638  1  0.267480  0.058720  0.732520  1.0  0.2747
  C  C1639  1  0.253420  0.028030  0.746580  1.0  -0.0559
  C  C1640  1  0.229220  0.028460  0.770780  1.0  0.1751
  C  C1641  1  0.916180  0.808310  0.083820  1.0  0.0272
  C  C1642  1  0.888370  0.754340  0.111630  1.0  0.1538
  C  C1643  1  0.879820  0.691810  0.120180  1.0  0.3138
  C  C1644  1  0.837470  0.681170  0.162530  1.0  -0.1437
  C  C1645  1  0.859070  0.670120  0.140930  1.0  0.0325
  C  C1646  1  0.863430  0.636840  0.136570  1.0  -0.0508
  C  C1647  1  0.845110  0.615280  0.154890  1.0  -0.1018
  C  C1648  1  0.823410  0.626820  0.176590  1.0  0.0379
  C  C1649  1  0.819180  0.659510  0.180820  1.0  0.0402
  C  C1650  1  0.796920  0.671510  0.203080  1.0  -0.1292
  C  C1651  1  0.778660  0.649020  0.221340  1.0  -0.0489
  C  C1652  1  0.782700  0.616900  0.217300  1.0  0.0386
  C  C1653  1  0.804920  0.604880  0.195080  1.0  -0.146
  C  C1654  1  0.767480  0.558720  0.232520  1.0  0.2747
  C  C1655  1  0.753420  0.528030  0.246580  1.0  -0.0559
  C  C1656  1  0.729220  0.528460  0.270780  1.0  0.1751
  C  C1657  1  0.416180  0.691690  0.416180  1.0  0.0279
  C  C1658  1  0.388370  0.745660  0.388370  1.0  0.1539
  C  C1659  1  0.379820  0.808190  0.379820  1.0  0.3144
  C  C1660  1  0.337470  0.818830  0.337470  1.0  -0.1459
  C  C1661  1  0.359070  0.829880  0.359070  1.0  0.0327
  C  C1662  1  0.363430  0.863160  0.363430  1.0  -0.0487
  C  C1663  1  0.345110  0.884720  0.345110  1.0  -0.099
  C  C1664  1  0.323410  0.873180  0.323410  1.0  0.0384
  C  C1665  1  0.319180  0.840490  0.319180  1.0  0.0399
  C  C1666  1  0.296920  0.828490  0.296920  1.0  -0.1281
  C  C1667  1  0.278660  0.850980  0.278660  1.0  -0.049
  C  C1668  1  0.282700  0.883100  0.282700  1.0  0.0388
  C  C1669  1  0.304920  0.895120  0.304920  1.0  -0.1438
  C  C1670  1  0.267480  0.941280  0.267480  1.0  0.2746
  C  C1671  1  0.253420  0.971970  0.253420  1.0  -0.056
  C  C1672  1  0.229220  0.971540  0.229220  1.0  0.1752
  C  C1673  1  0.916180  0.191690  0.916180  1.0  0.0279
  C  C1674  1  0.888370  0.245660  0.888370  1.0  0.1539
  C  C1675  1  0.879820  0.308190  0.879820  1.0  0.3144
  C  C1676  1  0.837470  0.318830  0.837470  1.0  -0.1459
  C  C1677  1  0.859070  0.329880  0.859070  1.0  0.0327
  C  C1678  1  0.863430  0.363160  0.863430  1.0  -0.0487
  C  C1679  1  0.845110  0.384720  0.845110  1.0  -0.099
  C  C1680  1  0.823410  0.373180  0.823410  1.0  0.0384
  C  C1681  1  0.819180  0.340490  0.819180  1.0  0.0399
  C  C1682  1  0.796920  0.328490  0.796920  1.0  -0.1281
  C  C1683  1  0.778660  0.350980  0.778660  1.0  -0.049
  C  C1684  1  0.782700  0.383100  0.782700  1.0  0.0388
  C  C1685  1  0.804920  0.395120  0.804920  1.0  -0.1438
  C  C1686  1  0.767480  0.441280  0.767480  1.0  0.2746
  C  C1687  1  0.753420  0.471970  0.753420  1.0  -0.056
  C  C1688  1  0.729220  0.471540  0.729220  1.0  0.1752
  C  C1689  1  0.583820  0.308310  0.416180  1.0  0.0276
  C  C1690  1  0.611630  0.254340  0.388370  1.0  0.1539
  C  C1691  1  0.620180  0.191810  0.379820  1.0  0.3138
  C  C1692  1  0.662530  0.181170  0.337470  1.0  -0.143
  C  C1693  1  0.640930  0.170120  0.359070  1.0  0.0334
  C  C1694  1  0.636570  0.136840  0.363430  1.0  -0.0491
  C  C1695  1  0.654890  0.115280  0.345110  1.0  -0.1013
  C  C1696  1  0.676590  0.126820  0.323410  1.0  0.0381
  C  C1697  1  0.680820  0.159510  0.319180  1.0  0.0402
  C  C1698  1  0.703080  0.171510  0.296920  1.0  -0.1287
  C  C1699  1  0.721340  0.149020  0.278660  1.0  -0.0471
  C  C1700  1  0.717300  0.116900  0.282700  1.0  0.0377
  C  C1701  1  0.695080  0.104880  0.304920  1.0  -0.1464
  C  C1702  1  0.732520  0.058720  0.267480  1.0  0.2759
  C  C1703  1  0.746580  0.028030  0.253420  1.0  -0.0546
  C  C1704  1  0.770780  0.028460  0.229220  1.0  0.1756
  C  C1705  1  0.083820  0.808310  0.916180  1.0  0.0276
  C  C1706  1  0.111630  0.754340  0.888370  1.0  0.1539
  C  C1707  1  0.120180  0.691810  0.879820  1.0  0.3138
  C  C1708  1  0.162530  0.681170  0.837470  1.0  -0.143
  C  C1709  1  0.140930  0.670120  0.859070  1.0  0.0334
  C  C1710  1  0.136570  0.636840  0.863430  1.0  -0.0491
  C  C1711  1  0.154890  0.615280  0.845110  1.0  -0.1013
  C  C1712  1  0.176590  0.626820  0.823410  1.0  0.0381
  C  C1713  1  0.180820  0.659510  0.819180  1.0  0.0402
  C  C1714  1  0.203080  0.671510  0.796920  1.0  -0.1287
  C  C1715  1  0.221340  0.649020  0.778660  1.0  -0.0471
  C  C1716  1  0.217300  0.616900  0.782700  1.0  0.0377
  C  C1717  1  0.195080  0.604880  0.804920  1.0  -0.1464
  C  C1718  1  0.232520  0.558720  0.767480  1.0  0.2759
  C  C1719  1  0.246580  0.528030  0.753420  1.0  -0.0546
  C  C1720  1  0.270780  0.528460  0.729220  1.0  0.1756
  C  C1721  1  0.583820  0.691690  0.583820  1.0  0.0267
  C  C1722  1  0.611630  0.745660  0.611630  1.0  0.1544
  C  C1723  1  0.620180  0.808190  0.620180  1.0  0.3148
  C  C1724  1  0.662530  0.818830  0.662530  1.0  -0.146
  C  C1725  1  0.640930  0.829880  0.640930  1.0  0.0334
  C  C1726  1  0.636570  0.863160  0.636570  1.0  -0.0504
  C  C1727  1  0.654890  0.884720  0.654890  1.0  -0.0998
  C  C1728  1  0.676590  0.873180  0.676590  1.0  0.0385
  C  C1729  1  0.680820  0.840490  0.680820  1.0  0.04
  C  C1730  1  0.703080  0.828490  0.703080  1.0  -0.1291
  C  C1731  1  0.721340  0.850980  0.721340  1.0  -0.0462
  C  C1732  1  0.717300  0.883100  0.717300  1.0  0.0369
  C  C1733  1  0.695080  0.895120  0.695080  1.0  -0.1445
  C  C1734  1  0.732520  0.941280  0.732520  1.0  0.2763
  C  C1735  1  0.746580  0.971970  0.746580  1.0  -0.055
  C  C1736  1  0.770780  0.971540  0.770780  1.0  0.1758
  C  C1737  1  0.083820  0.191690  0.083820  1.0  0.0267
  C  C1738  1  0.111630  0.245660  0.111630  1.0  0.1544
  C  C1739  1  0.120180  0.308190  0.120180  1.0  0.3148
  C  C1740  1  0.162530  0.318830  0.162530  1.0  -0.146
  C  C1741  1  0.140930  0.329880  0.140930  1.0  0.0334
  C  C1742  1  0.136570  0.363160  0.136570  1.0  -0.0504
  C  C1743  1  0.154890  0.384720  0.154890  1.0  -0.0998
  C  C1744  1  0.176590  0.373180  0.176590  1.0  0.0385
  C  C1745  1  0.180820  0.340490  0.180820  1.0  0.04
  C  C1746  1  0.203080  0.328490  0.203080  1.0  -0.1291
  C  C1747  1  0.221340  0.350980  0.221340  1.0  -0.0462
  C  C1748  1  0.217300  0.383100  0.217300  1.0  0.0369
  C  C1749  1  0.195080  0.395120  0.195080  1.0  -0.1445
  C  C1750  1  0.232520  0.441280  0.232520  1.0  0.2763
  C  C1751  1  0.246580  0.471970  0.246580  1.0  -0.055
  C  C1752  1  0.270780  0.471540  0.270780  1.0  0.1758
  C  C1753  1  0.265200  0.000000  0.265200  1.0  -0.0681
  C  C1754  1  0.765200  0.500000  0.765200  1.0  -0.0681
  C  C1755  1  0.734800  0.000000  0.265200  1.0  -0.0698
  C  C1756  1  0.234800  0.500000  0.765200  1.0  -0.0698
  C  C1757  1  0.734800  0.000000  0.734800  1.0  -0.0695
  C  C1758  1  0.234800  0.500000  0.234800  1.0  -0.0695
  C  C1759  1  0.265200  0.000000  0.734800  1.0  -0.0681
  C  C1760  1  0.765200  0.500000  0.234800  1.0  -0.0681
  C  C1761  1  0.265200  0.265200  0.000000  1.0  -0.0686
  C  C1762  1  0.765200  0.765200  0.500000  1.0  -0.0686
  C  C1763  1  0.265200  0.734800  0.000000  1.0  -0.0673
  C  C1764  1  0.765200  0.234800  0.500000  1.0  -0.0673
  C  C1765  1  0.734800  0.734800  0.000000  1.0  -0.0688
  C  C1766  1  0.234800  0.234800  0.500000  1.0  -0.0688
  C  C1767  1  0.734800  0.265200  0.000000  1.0  -0.0695
  C  C1768  1  0.234800  0.765200  0.500000  1.0  -0.0695
  C  C1769  1  0.000000  0.265200  0.265200  1.0  -0.0692
  C  C1770  1  0.500000  0.765200  0.765200  1.0  -0.0692
  C  C1771  1  0.000000  0.265200  0.734800  1.0  -0.069
  C  C1772  1  0.500000  0.765200  0.234800  1.0  -0.069
  C  C1773  1  0.000000  0.734800  0.734800  1.0  -0.0682
  C  C1774  1  0.500000  0.234800  0.234800  1.0  -0.0682
  C  C1775  1  0.000000  0.734800  0.265200  1.0  -0.0677
  C  C1776  1  0.500000  0.234800  0.765200  1.0  -0.0677
  N  N1777  1  0.373130  0.224900  0.373130  1.0  -0.5244
  N  N1778  1  0.262400  0.091980  0.262400  1.0  -0.4373
  N  N1779  1  0.873130  0.724900  0.873130  1.0  -0.5244
  N  N1780  1  0.762400  0.591980  0.762400  1.0  -0.4373
  N  N1781  1  0.626870  0.775100  0.373130  1.0  -0.5235
  N  N1782  1  0.737600  0.908020  0.262400  1.0  -0.4364
  N  N1783  1  0.126870  0.275100  0.873130  1.0  -0.5235
  N  N1784  1  0.237600  0.408020  0.762400  1.0  -0.4364
  N  N1785  1  0.626870  0.224900  0.626870  1.0  -0.5206
  N  N1786  1  0.737600  0.091980  0.737600  1.0  -0.4374
  N  N1787  1  0.126870  0.724900  0.126870  1.0  -0.5206
  N  N1788  1  0.237600  0.591980  0.237600  1.0  -0.4374
  N  N1789  1  0.373130  0.775100  0.626870  1.0  -0.5224
  N  N1790  1  0.262400  0.908020  0.737600  1.0  -0.4382
  N  N1791  1  0.873130  0.275100  0.126870  1.0  -0.5224
  N  N1792  1  0.762400  0.408020  0.237600  1.0  -0.4382
  N  N1793  1  0.373130  0.373130  0.224900  1.0  -0.5188
  N  N1794  1  0.262400  0.262400  0.091980  1.0  -0.4362
  N  N1795  1  0.873130  0.873130  0.724900  1.0  -0.5188
  N  N1796  1  0.762400  0.762400  0.591980  1.0  -0.4362
  N  N1797  1  0.373130  0.626870  0.775100  1.0  -0.5176
  N  N1798  1  0.262400  0.737600  0.908020  1.0  -0.4352
  N  N1799  1  0.873130  0.126870  0.275100  1.0  -0.5176
  N  N1800  1  0.762400  0.237600  0.408020  1.0  -0.4352
  N  N1801  1  0.626870  0.626870  0.224900  1.0  -0.5165
  N  N1802  1  0.737600  0.737600  0.091980  1.0  -0.4342
  N  N1803  1  0.126870  0.126870  0.724900  1.0  -0.5165
  N  N1804  1  0.237600  0.237600  0.591980  1.0  -0.4342
  N  N1805  1  0.626870  0.373130  0.775100  1.0  -0.5168
  N  N1806  1  0.737600  0.262400  0.908020  1.0  -0.4356
  N  N1807  1  0.126870  0.873130  0.275100  1.0  -0.5168
  N  N1808  1  0.237600  0.762400  0.408020  1.0  -0.4356
  N  N1809  1  0.224900  0.373130  0.373130  1.0  -0.5246
  N  N1810  1  0.091980  0.262400  0.262400  1.0  -0.435
  N  N1811  1  0.724900  0.873130  0.873130  1.0  -0.5246
  N  N1812  1  0.591980  0.762400  0.762400  1.0  -0.435
  N  N1813  1  0.775100  0.373130  0.626870  1.0  -0.5217
  N  N1814  1  0.908020  0.262400  0.737600  1.0  -0.4366
  N  N1815  1  0.275100  0.873130  0.126870  1.0  -0.5217
  N  N1816  1  0.408020  0.762400  0.237600  1.0  -0.4366
  N  N1817  1  0.224900  0.626870  0.626870  1.0  -0.5213
  N  N1818  1  0.091980  0.737600  0.737600  1.0  -0.4349
  N  N1819  1  0.724900  0.126870  0.126870  1.0  -0.5213
  N  N1820  1  0.591980  0.237600  0.237600  1.0  -0.4349
  N  N1821  1  0.775100  0.626870  0.373130  1.0  -0.5233
  N  N1822  1  0.908020  0.737600  0.262400  1.0  -0.4341
  N  N1823  1  0.275100  0.126870  0.873130  1.0  -0.5233
  N  N1824  1  0.408020  0.237600  0.762400  1.0  -0.4341
  N  N1825  1  0.224900  0.373130  0.626870  1.0  -0.5219
  N  N1826  1  0.091980  0.262400  0.737600  1.0  -0.4361
  N  N1827  1  0.724900  0.873130  0.126870  1.0  -0.5219
  N  N1828  1  0.591980  0.762400  0.237600  1.0  -0.4361
  N  N1829  1  0.775100  0.626870  0.626870  1.0  -0.5212
  N  N1830  1  0.908020  0.737600  0.737600  1.0  -0.4354
  N  N1831  1  0.275100  0.126870  0.126870  1.0  -0.5212
  N  N1832  1  0.408020  0.237600  0.237600  1.0  -0.4354
  N  N1833  1  0.224900  0.626870  0.373130  1.0  -0.5239
  N  N1834  1  0.091980  0.737600  0.262400  1.0  -0.4335
  N  N1835  1  0.724900  0.126870  0.873130  1.0  -0.5239
  N  N1836  1  0.591980  0.237600  0.762400  1.0  -0.4335
  N  N1837  1  0.775100  0.373130  0.373130  1.0  -0.524
  N  N1838  1  0.908020  0.262400  0.262400  1.0  -0.4355
  N  N1839  1  0.275100  0.873130  0.873130  1.0  -0.524
  N  N1840  1  0.408020  0.762400  0.762400  1.0  -0.4355
  N  N1841  1  0.373130  0.373130  0.775100  1.0  -0.5181
  N  N1842  1  0.262400  0.262400  0.908020  1.0  -0.4364
  N  N1843  1  0.873130  0.873130  0.275100  1.0  -0.5181
  N  N1844  1  0.762400  0.762400  0.408020  1.0  -0.4364
  N  N1845  1  0.626870  0.373130  0.224900  1.0  -0.5175
  N  N1846  1  0.737600  0.262400  0.091980  1.0  -0.4354
  N  N1847  1  0.126870  0.873130  0.724900  1.0  -0.5175
  N  N1848  1  0.237600  0.762400  0.591980  1.0  -0.4354
  N  N1849  1  0.626870  0.626870  0.775100  1.0  -0.5161
  N  N1850  1  0.737600  0.737600  0.908020  1.0  -0.4343
  N  N1851  1  0.126870  0.126870  0.275100  1.0  -0.5161
  N  N1852  1  0.237600  0.237600  0.408020  1.0  -0.4343
  N  N1853  1  0.373130  0.626870  0.224900  1.0  -0.5179
  N  N1854  1  0.262400  0.737600  0.091980  1.0  -0.4352
  N  N1855  1  0.873130  0.126870  0.724900  1.0  -0.5179
  N  N1856  1  0.762400  0.237600  0.591980  1.0  -0.4352
  N  N1857  1  0.373130  0.224900  0.626870  1.0  -0.5221
  N  N1858  1  0.262400  0.091980  0.737600  1.0  -0.4384
  N  N1859  1  0.873130  0.724900  0.126870  1.0  -0.5221
  N  N1860  1  0.762400  0.591980  0.237600  1.0  -0.4384
  N  N1861  1  0.373130  0.775100  0.373130  1.0  -0.5245
  N  N1862  1  0.262400  0.908020  0.262400  1.0  -0.4373
  N  N1863  1  0.873130  0.275100  0.873130  1.0  -0.5245
  N  N1864  1  0.762400  0.408020  0.762400  1.0  -0.4373
  N  N1865  1  0.626870  0.224900  0.373130  1.0  -0.5237
  N  N1866  1  0.737600  0.091980  0.262400  1.0  -0.4362
  N  N1867  1  0.126870  0.724900  0.873130  1.0  -0.5237
  N  N1868  1  0.237600  0.591980  0.762400  1.0  -0.4362
  N  N1869  1  0.626870  0.775100  0.626870  1.0  -0.5207
  N  N1870  1  0.737600  0.908020  0.737600  1.0  -0.4375
  N  N1871  1  0.126870  0.275100  0.126870  1.0  -0.5207
  N  N1872  1  0.237600  0.408020  0.237600  1.0  -0.4375
  N  N1873  1  0.218170  0.000000  0.218170  1.0  -0.2744
  N  N1874  1  0.718170  0.500000  0.718170  1.0  -0.2744
  N  N1875  1  0.781830  0.000000  0.218170  1.0  -0.2739
  N  N1876  1  0.281830  0.500000  0.718170  1.0  -0.2739
  N  N1877  1  0.781830  0.000000  0.781830  1.0  -0.2756
  N  N1878  1  0.281830  0.500000  0.281830  1.0  -0.2756
  N  N1879  1  0.218170  0.000000  0.781830  1.0  -0.2761
  N  N1880  1  0.718170  0.500000  0.281830  1.0  -0.2761
  N  N1881  1  0.218170  0.218170  0.000000  1.0  -0.2753
  N  N1882  1  0.718170  0.718170  0.500000  1.0  -0.2753
  N  N1883  1  0.218170  0.781830  0.000000  1.0  -0.2745
  N  N1884  1  0.718170  0.281830  0.500000  1.0  -0.2745
  N  N1885  1  0.781830  0.781830  0.000000  1.0  -0.274
  N  N1886  1  0.281830  0.281830  0.500000  1.0  -0.274
  N  N1887  1  0.781830  0.218170  0.000000  1.0  -0.275
  N  N1888  1  0.281830  0.718170  0.500000  1.0  -0.275
  N  N1889  1  0.000000  0.218170  0.218170  1.0  -0.2766
  N  N1890  1  0.500000  0.718170  0.718170  1.0  -0.2766
  N  N1891  1  0.000000  0.218170  0.781830  1.0  -0.2783
  N  N1892  1  0.500000  0.718170  0.281830  1.0  -0.2783
  N  N1893  1  0.000000  0.781830  0.781830  1.0  -0.2778
  N  N1894  1  0.500000  0.281830  0.281830  1.0  -0.2778
  N  N1895  1  0.000000  0.781830  0.218170  1.0  -0.2756
  N  N1896  1  0.500000  0.281830  0.718170  1.0  -0.2756
  O  O1897  1  0.383520  0.337100  0.466450  1.0  -0.559
  O  O1898  1  0.345690  0.299140  0.466620  1.0  -0.5808
  O  O1899  1  0.883520  0.837100  0.966450  1.0  -0.559
  O  O1900  1  0.845690  0.799140  0.966620  1.0  -0.5808
  O  O1901  1  0.616480  0.662900  0.466450  1.0  -0.5575
  O  O1902  1  0.654310  0.700860  0.466620  1.0  -0.5803
  O  O1903  1  0.116480  0.162900  0.966450  1.0  -0.5575
  O  O1904  1  0.154310  0.200860  0.966620  1.0  -0.5803
  O  O1905  1  0.616480  0.337100  0.533550  1.0  -0.5584
  O  O1906  1  0.654310  0.299140  0.533380  1.0  -0.5803
  O  O1907  1  0.116480  0.837100  0.033550  1.0  -0.5578
  O  O1908  1  0.154310  0.799140  0.033380  1.0  -0.5786
  O  O1909  1  0.383520  0.662900  0.533550  1.0  -0.558
  O  O1910  1  0.345690  0.700860  0.533380  1.0  -0.5803
  O  O1911  1  0.883520  0.162900  0.033550  1.0  -0.558
  O  O1912  1  0.845690  0.200860  0.033380  1.0  -0.5803
  O  O1913  1  0.466450  0.383520  0.337100  1.0  -0.5576
  O  O1914  1  0.466620  0.345690  0.299140  1.0  -0.5805
  O  O1915  1  0.966450  0.883520  0.837100  1.0  -0.5576
  O  O1916  1  0.966620  0.845690  0.799140  1.0  -0.5805
  O  O1917  1  0.466450  0.616480  0.662900  1.0  -0.5562
  O  O1918  1  0.466620  0.654310  0.700860  1.0  -0.5804
  O  O1919  1  0.966450  0.116480  0.162900  1.0  -0.5562
  O  O1920  1  0.966620  0.154310  0.200860  1.0  -0.5804
  O  O1921  1  0.533550  0.616480  0.337100  1.0  -0.5581
  O  O1922  1  0.533380  0.654310  0.299140  1.0  -0.5811
  O  O1923  1  0.033550  0.116480  0.837100  1.0  -0.5572
  O  O1924  1  0.033380  0.154310  0.799140  1.0  -0.5794
  O  O1925  1  0.533550  0.383520  0.662900  1.0  -0.5571
  O  O1926  1  0.533380  0.345690  0.700860  1.0  -0.5797
  O  O1927  1  0.033550  0.883520  0.162900  1.0  -0.5571
  O  O1928  1  0.033380  0.845690  0.200860  1.0  -0.5797
  O  O1929  1  0.337100  0.466450  0.383520  1.0  -0.5577
  O  O1930  1  0.299140  0.466620  0.345690  1.0  -0.5783
  O  O1931  1  0.837100  0.966450  0.883520  1.0  -0.5577
  O  O1932  1  0.799140  0.966620  0.845690  1.0  -0.5783
  O  O1933  1  0.662900  0.466450  0.616480  1.0  -0.5565
  O  O1934  1  0.700860  0.466620  0.654310  1.0  -0.5795
  O  O1935  1  0.162900  0.966450  0.116480  1.0  -0.5558
  O  O1936  1  0.200860  0.966620  0.154310  1.0  -0.5795
  O  O1937  1  0.337100  0.533550  0.616480  1.0  -0.5581
  O  O1938  1  0.299140  0.533380  0.654310  1.0  -0.5781
  O  O1939  1  0.837100  0.033550  0.116480  1.0  -0.5581
  O  O1940  1  0.799140  0.033380  0.154310  1.0  -0.5781
  O  O1941  1  0.662900  0.533550  0.383520  1.0  -0.557
  O  O1942  1  0.700860  0.533380  0.345690  1.0  -0.5799
  O  O1943  1  0.162900  0.033550  0.883520  1.0  -0.557
  O  O1944  1  0.200860  0.033380  0.845690  1.0  -0.5799
  O  O1945  1  0.337100  0.383520  0.533550  1.0  -0.5587
  O  O1946  1  0.299140  0.345690  0.533380  1.0  -0.5776
  O  O1947  1  0.837100  0.883520  0.033550  1.0  -0.5587
  O  O1948  1  0.799140  0.845690  0.033380  1.0  -0.5776
  O  O1949  1  0.662900  0.616480  0.533550  1.0  -0.5579
  O  O1950  1  0.700860  0.654310  0.533380  1.0  -0.5789
  O  O1951  1  0.162900  0.116480  0.033550  1.0  -0.5579
  O  O1952  1  0.200860  0.154310  0.033380  1.0  -0.5789
  O  O1953  1  0.337100  0.616480  0.466450  1.0  -0.5577
  O  O1954  1  0.299140  0.654310  0.466620  1.0  -0.5787
  O  O1955  1  0.837100  0.116480  0.966450  1.0  -0.5577
  O  O1956  1  0.799140  0.154310  0.966620  1.0  -0.5787
  O  O1957  1  0.662900  0.383520  0.466450  1.0  -0.5575
  O  O1958  1  0.700860  0.345690  0.466620  1.0  -0.5788
  O  O1959  1  0.162900  0.883520  0.966450  1.0  -0.5575
  O  O1960  1  0.200860  0.845690  0.966620  1.0  -0.5788
  O  O1961  1  0.383520  0.466450  0.662900  1.0  -0.5555
  O  O1962  1  0.345690  0.466620  0.700860  1.0  -0.578
  O  O1963  1  0.883520  0.966450  0.162900  1.0  -0.5555
  O  O1964  1  0.845690  0.966620  0.200860  1.0  -0.578
  O  O1965  1  0.616480  0.466450  0.337100  1.0  -0.5562
  O  O1966  1  0.654310  0.466620  0.299140  1.0  -0.578
  O  O1967  1  0.116480  0.966450  0.837100  1.0  -0.5562
  O  O1968  1  0.154310  0.966620  0.799140  1.0  -0.578
  O  O1969  1  0.616480  0.533550  0.662900  1.0  -0.5563
  O  O1970  1  0.654310  0.533380  0.700860  1.0  -0.578
  O  O1971  1  0.116480  0.033550  0.162900  1.0  -0.5563
  O  O1972  1  0.154310  0.033380  0.200860  1.0  -0.578
  O  O1973  1  0.383520  0.533550  0.337100  1.0  -0.5567
  O  O1974  1  0.345690  0.533380  0.299140  1.0  -0.5784
  O  O1975  1  0.883520  0.033550  0.837100  1.0  -0.5567
  O  O1976  1  0.845690  0.033380  0.799140  1.0  -0.5784
  O  O1977  1  0.466450  0.337100  0.616480  1.0  -0.5573
  O  O1978  1  0.466620  0.299140  0.654310  1.0  -0.5791
  O  O1979  1  0.966450  0.837100  0.116480  1.0  -0.5573
  O  O1980  1  0.966620  0.799140  0.154310  1.0  -0.5791
  O  O1981  1  0.466450  0.662900  0.383520  1.0  -0.5575
  O  O1982  1  0.466620  0.700860  0.345690  1.0  -0.5791
  O  O1983  1  0.966450  0.162900  0.883520  1.0  -0.5575
  O  O1984  1  0.966620  0.200860  0.845690  1.0  -0.5791
  O  O1985  1  0.533550  0.337100  0.383520  1.0  -0.5573
  O  O1986  1  0.533380  0.299140  0.345690  1.0  -0.5789
  O  O1987  1  0.033550  0.837100  0.883520  1.0  -0.557
  O  O1988  1  0.033380  0.799140  0.845690  1.0  -0.5787
  O  O1989  1  0.533550  0.662900  0.616480  1.0  -0.5572
  O  O1990  1  0.533380  0.700860  0.654310  1.0  -0.5792
  O  O1991  1  0.033550  0.162900  0.116480  1.0  -0.557
  O  O1992  1  0.033380  0.200860  0.154310  1.0  -0.579
  O  O1993  1  0.616480  0.662900  0.533550  1.0  -0.5579
  O  O1994  1  0.654310  0.700860  0.533380  1.0  -0.5791
  O  O1995  1  0.116480  0.162900  0.033550  1.0  -0.5579
  O  O1996  1  0.154310  0.200860  0.033380  1.0  -0.5791
  O  O1997  1  0.383520  0.337100  0.533550  1.0  -0.559
  O  O1998  1  0.345690  0.299140  0.533380  1.0  -0.5794
  O  O1999  1  0.883520  0.837100  0.033550  1.0  -0.559
  O  O2000  1  0.845690  0.799140  0.033380  1.0  -0.5794
  O  O2001  1  0.383520  0.662900  0.466450  1.0  -0.558
  O  O2002  1  0.345690  0.700860  0.466620  1.0  -0.5789
  O  O2003  1  0.883520  0.162900  0.966450  1.0  -0.558
  O  O2004  1  0.845690  0.200860  0.966620  1.0  -0.5789
  O  O2005  1  0.616480  0.337100  0.466450  1.0  -0.5581
  O  O2006  1  0.654310  0.299140  0.466620  1.0  -0.579
  O  O2007  1  0.116480  0.837100  0.966450  1.0  -0.5581
  O  O2008  1  0.154310  0.799140  0.966620  1.0  -0.579
  O  O2009  1  0.533550  0.616480  0.662900  1.0  -0.5567
  O  O2010  1  0.533380  0.654310  0.700860  1.0  -0.5791
  O  O2011  1  0.033550  0.116480  0.162900  1.0  -0.5559
  O  O2012  1  0.033380  0.154310  0.200860  1.0  -0.5788
  O  O2013  1  0.533550  0.383520  0.337100  1.0  -0.5576
  O  O2014  1  0.533380  0.345690  0.299140  1.0  -0.5791
  O  O2015  1  0.033550  0.883520  0.837100  1.0  -0.5576
  O  O2016  1  0.033380  0.845690  0.799140  1.0  -0.5791
  O  O2017  1  0.466450  0.383520  0.662900  1.0  -0.5569
  O  O2018  1  0.466620  0.345690  0.700860  1.0  -0.5785
  O  O2019  1  0.966450  0.883520  0.162900  1.0  -0.5569
  O  O2020  1  0.966620  0.845690  0.200860  1.0  -0.5785
  O  O2021  1  0.466450  0.616480  0.337100  1.0  -0.5579
  O  O2022  1  0.466620  0.654310  0.299140  1.0  -0.5799
  O  O2023  1  0.966450  0.116480  0.837100  1.0  -0.5579
  O  O2024  1  0.966620  0.154310  0.799140  1.0  -0.5799
  O  O2025  1  0.662900  0.533550  0.616480  1.0  -0.5567
  O  O2026  1  0.700860  0.533380  0.654310  1.0  -0.5779
  O  O2027  1  0.162900  0.033550  0.116480  1.0  -0.556
  O  O2028  1  0.200860  0.033380  0.154310  1.0  -0.5777
  O  O2029  1  0.337100  0.533550  0.383520  1.0  -0.5576
  O  O2030  1  0.299140  0.533380  0.345690  1.0  -0.5769
  O  O2031  1  0.837100  0.033550  0.883520  1.0  -0.5576
  O  O2032  1  0.799140  0.033380  0.845690  1.0  -0.5769
  O  O2033  1  0.662900  0.466450  0.383520  1.0  -0.5571
  O  O2034  1  0.700860  0.466620  0.345690  1.0  -0.5779
  O  O2035  1  0.162900  0.966450  0.883520  1.0  -0.5563
  O  O2036  1  0.200860  0.966620  0.845690  1.0  -0.5779
  O  O2037  1  0.337100  0.466450  0.616480  1.0  -0.5579
  O  O2038  1  0.299140  0.466620  0.654310  1.0  -0.5772
  O  O2039  1  0.837100  0.966450  0.116480  1.0  -0.5579
  O  O2040  1  0.799140  0.966620  0.154310  1.0  -0.5772
  O  O2041  1  0.662900  0.616480  0.466450  1.0  -0.5582
  O  O2042  1  0.700860  0.654310  0.466620  1.0  -0.5791
  O  O2043  1  0.162900  0.116480  0.966450  1.0  -0.5582
  O  O2044  1  0.200860  0.154310  0.966620  1.0  -0.5791
  O  O2045  1  0.337100  0.383520  0.466450  1.0  -0.5591
  O  O2046  1  0.299140  0.345690  0.466620  1.0  -0.5774
  O  O2047  1  0.837100  0.883520  0.966450  1.0  -0.5591
  O  O2048  1  0.799140  0.845690  0.966620  1.0  -0.5774
  O  O2049  1  0.662900  0.383520  0.533550  1.0  -0.5583
  O  O2050  1  0.700860  0.345690  0.533380  1.0  -0.579
  O  O2051  1  0.162900  0.883520  0.033550  1.0  -0.5583
  O  O2052  1  0.200860  0.845690  0.033380  1.0  -0.579
  O  O2053  1  0.337100  0.616480  0.533550  1.0  -0.5584
  O  O2054  1  0.299140  0.654310  0.533380  1.0  -0.5786
  O  O2055  1  0.837100  0.116480  0.033550  1.0  -0.5578
  O  O2056  1  0.799140  0.154310  0.033380  1.0  -0.5783
  O  O2057  1  0.616480  0.533550  0.337100  1.0  -0.5566
  O  O2058  1  0.654310  0.533380  0.299140  1.0  -0.5782
  O  O2059  1  0.116480  0.033550  0.837100  1.0  -0.5566
  O  O2060  1  0.154310  0.033380  0.799140  1.0  -0.5782
  O  O2061  1  0.383520  0.533550  0.662900  1.0  -0.5561
  O  O2062  1  0.345690  0.533380  0.700860  1.0  -0.5779
  O  O2063  1  0.883520  0.033550  0.162900  1.0  -0.5561
  O  O2064  1  0.845690  0.033380  0.200860  1.0  -0.5779
  O  O2065  1  0.383520  0.466450  0.337100  1.0  -0.5573
  O  O2066  1  0.345690  0.466620  0.299140  1.0  -0.5783
  O  O2067  1  0.883520  0.966450  0.837100  1.0  -0.5573
  O  O2068  1  0.845690  0.966620  0.799140  1.0  -0.5783
  O  O2069  1  0.616480  0.466450  0.662900  1.0  -0.5564
  O  O2070  1  0.654310  0.466620  0.700860  1.0  -0.578
  O  O2071  1  0.116480  0.966450  0.162900  1.0  -0.5564
  O  O2072  1  0.154310  0.966620  0.200860  1.0  -0.578
  O  O2073  1  0.533550  0.662900  0.383520  1.0  -0.5584
  O  O2074  1  0.533380  0.700860  0.345690  1.0  -0.5789
  O  O2075  1  0.033550  0.162900  0.883520  1.0  -0.5584
  O  O2076  1  0.033380  0.200860  0.845690  1.0  -0.5789
  O  O2077  1  0.533550  0.337100  0.616480  1.0  -0.5578
  O  O2078  1  0.533380  0.299140  0.654310  1.0  -0.5791
  O  O2079  1  0.033550  0.837100  0.116480  1.0  -0.5572
  O  O2080  1  0.033380  0.799140  0.154310  1.0  -0.5789
  O  O2081  1  0.466450  0.662900  0.616480  1.0  -0.5574
  O  O2082  1  0.466620  0.700860  0.654310  1.0  -0.5791
  O  O2083  1  0.966450  0.162900  0.116480  1.0  -0.5574
  O  O2084  1  0.966620  0.200860  0.154310  1.0  -0.5791
  O  O2085  1  0.466450  0.337100  0.383520  1.0  -0.5577
  O  O2086  1  0.466620  0.299140  0.345690  1.0  -0.5792
  O  O2087  1  0.966450  0.837100  0.883520  1.0  -0.5577
  O  O2088  1  0.966620  0.799140  0.845690  1.0  -0.5792
  O  O2089  1  0.398490  0.178310  0.398490  1.0  -0.4116
  O  O2090  1  0.288710  0.052660  0.288710  1.0  -0.5271
  O  O2091  1  0.898490  0.678310  0.898490  1.0  -0.4116
  O  O2092  1  0.788710  0.552660  0.788710  1.0  -0.5271
  O  O2093  1  0.601510  0.821690  0.398490  1.0  -0.411
  O  O2094  1  0.711290  0.947340  0.288710  1.0  -0.5251
  O  O2095  1  0.101510  0.321690  0.898490  1.0  -0.411
  O  O2096  1  0.211290  0.447340  0.788710  1.0  -0.5251
  O  O2097  1  0.601510  0.178310  0.601510  1.0  -0.4086
  O  O2098  1  0.711290  0.052660  0.711290  1.0  -0.5282
  O  O2099  1  0.101510  0.678310  0.101510  1.0  -0.4086
  O  O2100  1  0.211290  0.552660  0.211290  1.0  -0.5282
  O  O2101  1  0.398490  0.821690  0.601510  1.0  -0.4075
  O  O2102  1  0.288710  0.947340  0.711290  1.0  -0.5287
  O  O2103  1  0.898490  0.321690  0.101510  1.0  -0.4075
  O  O2104  1  0.788710  0.447340  0.211290  1.0  -0.5287
  O  O2105  1  0.398490  0.398490  0.178310  1.0  -0.4078
  O  O2106  1  0.288710  0.288710  0.052660  1.0  -0.5275
  O  O2107  1  0.898490  0.898490  0.678310  1.0  -0.4078
  O  O2108  1  0.788710  0.788710  0.552660  1.0  -0.5275
  O  O2109  1  0.398490  0.601510  0.821690  1.0  -0.4109
  O  O2110  1  0.288710  0.711290  0.947340  1.0  -0.5275
  O  O2111  1  0.898490  0.101510  0.321690  1.0  -0.4109
  O  O2112  1  0.788710  0.211290  0.447340  1.0  -0.5275
  O  O2113  1  0.601510  0.601510  0.178310  1.0  -0.4098
  O  O2114  1  0.711290  0.711290  0.052660  1.0  -0.5268
  O  O2115  1  0.101510  0.101510  0.678310  1.0  -0.4098
  O  O2116  1  0.211290  0.211290  0.552660  1.0  -0.5268
  O  O2117  1  0.601510  0.398490  0.821690  1.0  -0.409
  O  O2118  1  0.711290  0.288710  0.947340  1.0  -0.5256
  O  O2119  1  0.101510  0.898490  0.321690  1.0  -0.409
  O  O2120  1  0.211290  0.788710  0.447340  1.0  -0.5256
  O  O2121  1  0.178310  0.398490  0.398490  1.0  -0.4111
  O  O2122  1  0.052660  0.288710  0.288710  1.0  -0.5251
  O  O2123  1  0.678310  0.898490  0.898490  1.0  -0.4111
  O  O2124  1  0.552660  0.788710  0.788710  1.0  -0.5251
  O  O2125  1  0.821690  0.398490  0.601510  1.0  -0.4088
  O  O2126  1  0.947340  0.288710  0.711290  1.0  -0.5263
  O  O2127  1  0.321690  0.898490  0.101510  1.0  -0.4088
  O  O2128  1  0.447340  0.788710  0.211290  1.0  -0.5263
  O  O2129  1  0.178310  0.601510  0.601510  1.0  -0.4104
  O  O2130  1  0.052660  0.711290  0.711290  1.0  -0.5281
  O  O2131  1  0.678310  0.101510  0.101510  1.0  -0.4104
  O  O2132  1  0.552660  0.211290  0.211290  1.0  -0.5281
  O  O2133  1  0.821690  0.601510  0.398490  1.0  -0.4133
  O  O2134  1  0.947340  0.711290  0.288710  1.0  -0.5247
  O  O2135  1  0.321690  0.101510  0.898490  1.0  -0.4133
  O  O2136  1  0.447340  0.211290  0.788710  1.0  -0.5247
  O  O2137  1  0.178310  0.398490  0.601510  1.0  -0.4102
  O  O2138  1  0.052660  0.288710  0.711290  1.0  -0.5267
  O  O2139  1  0.678310  0.898490  0.101510  1.0  -0.4102
  O  O2140  1  0.552660  0.788710  0.211290  1.0  -0.5267
  O  O2141  1  0.821690  0.601510  0.601510  1.0  -0.4085
  O  O2142  1  0.947340  0.711290  0.711290  1.0  -0.5277
  O  O2143  1  0.321690  0.101510  0.101510  1.0  -0.4085
  O  O2144  1  0.447340  0.211290  0.211290  1.0  -0.5277
  O  O2145  1  0.178310  0.601510  0.398490  1.0  -0.4123
  O  O2146  1  0.052660  0.711290  0.288710  1.0  -0.5254
  O  O2147  1  0.678310  0.101510  0.898490  1.0  -0.4123
  O  O2148  1  0.552660  0.211290  0.788710  1.0  -0.5254
  O  O2149  1  0.821690  0.398490  0.398490  1.0  -0.4107
  O  O2150  1  0.947340  0.288710  0.288710  1.0  -0.5243
  O  O2151  1  0.321690  0.898490  0.898490  1.0  -0.4107
  O  O2152  1  0.447340  0.788710  0.788710  1.0  -0.5243
  O  O2153  1  0.398490  0.398490  0.821690  1.0  -0.4086
  O  O2154  1  0.288710  0.288710  0.947340  1.0  -0.5271
  O  O2155  1  0.898490  0.898490  0.321690  1.0  -0.4086
  O  O2156  1  0.788710  0.788710  0.447340  1.0  -0.5271
  O  O2157  1  0.601510  0.398490  0.178310  1.0  -0.4091
  O  O2158  1  0.711290  0.288710  0.052660  1.0  -0.5256
  O  O2159  1  0.101510  0.898490  0.678310  1.0  -0.4091
  O  O2160  1  0.211290  0.788710  0.552660  1.0  -0.5256
  O  O2161  1  0.601510  0.601510  0.821690  1.0  -0.4095
  O  O2162  1  0.711290  0.711290  0.947340  1.0  -0.5259
  O  O2163  1  0.101510  0.101510  0.321690  1.0  -0.4095
  O  O2164  1  0.211290  0.211290  0.447340  1.0  -0.5259
  O  O2165  1  0.398490  0.601510  0.178310  1.0  -0.4095
  O  O2166  1  0.288710  0.711290  0.052660  1.0  -0.5287
  O  O2167  1  0.898490  0.101510  0.678310  1.0  -0.4095
  O  O2168  1  0.788710  0.211290  0.552660  1.0  -0.5287
  O  O2169  1  0.398490  0.178310  0.601510  1.0  -0.4074
  O  O2170  1  0.288710  0.052660  0.711290  1.0  -0.5301
  O  O2171  1  0.898490  0.678310  0.101510  1.0  -0.4074
  O  O2172  1  0.788710  0.552660  0.211290  1.0  -0.5301
  O  O2173  1  0.398490  0.821690  0.398490  1.0  -0.4125
  O  O2174  1  0.288710  0.947340  0.288710  1.0  -0.5265
  O  O2175  1  0.898490  0.321690  0.898490  1.0  -0.4125
  O  O2176  1  0.788710  0.447340  0.788710  1.0  -0.5265
  O  O2177  1  0.601510  0.178310  0.398490  1.0  -0.4091
  O  O2178  1  0.711290  0.052660  0.288710  1.0  -0.5256
  O  O2179  1  0.101510  0.678310  0.898490  1.0  -0.4091
  O  O2180  1  0.211290  0.552660  0.788710  1.0  -0.5256
  O  O2181  1  0.601510  0.821690  0.601510  1.0  -0.4097
  O  O2182  1  0.711290  0.947340  0.711290  1.0  -0.5267
  O  O2183  1  0.101510  0.321690  0.101510  1.0  -0.4097
  O  O2184  1  0.211290  0.447340  0.211290  1.0  -0.5267
