# generated using pymatgen
data_Zn4H14C25(N2O)8
_symmetry_space_group_name_H-M   'P 1'
_cell_length_a   29.04400000
_cell_length_b   29.04400000
_cell_length_c   29.04400000
_cell_angle_alpha   90.00000000
_cell_angle_beta   90.00000000
_cell_angle_gamma   90.00000000
_symmetry_Int_Tables_number   1
_chemical_formula_structural   Zn4H14C25(N2O)8
_chemical_formula_sum   'Zn96 H336 C600 N384 O192'
_cell_volume   24500.18051718
_cell_formula_units_Z   24
loop_
 _symmetry_equiv_pos_site_id
 _symmetry_equiv_pos_as_xyz
  1  'x, y, z'
loop_
 _atom_site_type_symbol
 _atom_site_label
 _atom_site_symmetry_multiplicity
 _atom_site_fract_x
 _atom_site_fract_y
 _atom_site_fract_z
 _atom_site_occupancy
 _atom_site_charge
  Zn  Zn1  1  0.250000  0.396020  0.103980  1.0  0.8261
  Zn  Zn2  1  0.750000  0.603980  0.103980  1.0  0.8265
  Zn  Zn3  1  0.750000  0.396020  0.896020  1.0  0.8263
  Zn  Zn4  1  0.250000  0.603980  0.896020  1.0  0.8267
  Zn  Zn5  1  0.103980  0.250000  0.396020  1.0  0.8255
  Zn  Zn6  1  0.103980  0.750000  0.603980  1.0  0.8252
  Zn  Zn7  1  0.896020  0.750000  0.396020  1.0  0.8252
  Zn  Zn8  1  0.896020  0.250000  0.603980  1.0  0.825
  Zn  Zn9  1  0.396020  0.103980  0.250000  1.0  0.8257
  Zn  Zn10  1  0.603980  0.103980  0.750000  1.0  0.8257
  Zn  Zn11  1  0.396020  0.896020  0.750000  1.0  0.8254
  Zn  Zn12  1  0.603980  0.896020  0.250000  1.0  0.8256
  Zn  Zn13  1  0.396020  0.250000  0.896020  1.0  0.8252
  Zn  Zn14  1  0.603980  0.750000  0.896020  1.0  0.8255
  Zn  Zn15  1  0.396020  0.750000  0.103980  1.0  0.825
  Zn  Zn16  1  0.603980  0.250000  0.103980  1.0  0.8252
  Zn  Zn17  1  0.250000  0.103980  0.603980  1.0  0.8265
  Zn  Zn18  1  0.750000  0.103980  0.396020  1.0  0.8267
  Zn  Zn19  1  0.750000  0.896020  0.603980  1.0  0.8261
  Zn  Zn20  1  0.250000  0.896020  0.396020  1.0  0.8263
  Zn  Zn21  1  0.103980  0.396020  0.750000  1.0  0.8256
  Zn  Zn22  1  0.103980  0.603980  0.250000  1.0  0.8257
  Zn  Zn23  1  0.896020  0.396020  0.250000  1.0  0.8254
  Zn  Zn24  1  0.896020  0.603980  0.750000  1.0  0.8257
  Zn  Zn25  1  0.750000  0.603980  0.896020  1.0  0.8267
  Zn  Zn26  1  0.250000  0.103980  0.396020  1.0  0.8267
  Zn  Zn27  1  0.250000  0.396020  0.896020  1.0  0.8263
  Zn  Zn28  1  0.250000  0.603980  0.103980  1.0  0.8265
  Zn  Zn29  1  0.750000  0.396020  0.103980  1.0  0.8261
  Zn  Zn30  1  0.896020  0.750000  0.603980  1.0  0.825
  Zn  Zn31  1  0.396020  0.250000  0.103980  1.0  0.825
  Zn  Zn32  1  0.896020  0.250000  0.396020  1.0  0.8252
  Zn  Zn33  1  0.103980  0.250000  0.603980  1.0  0.8252
  Zn  Zn34  1  0.103980  0.750000  0.396020  1.0  0.8255
  Zn  Zn35  1  0.603980  0.896020  0.750000  1.0  0.8256
  Zn  Zn36  1  0.103980  0.396020  0.250000  1.0  0.8256
  Zn  Zn37  1  0.396020  0.896020  0.250000  1.0  0.8254
  Zn  Zn38  1  0.603980  0.103980  0.250000  1.0  0.8257
  Zn  Zn39  1  0.396020  0.103980  0.750000  1.0  0.8257
  Zn  Zn40  1  0.603980  0.750000  0.103980  1.0  0.8252
  Zn  Zn41  1  0.603980  0.250000  0.896020  1.0  0.8255
  Zn  Zn42  1  0.396020  0.750000  0.896020  1.0  0.8252
  Zn  Zn43  1  0.750000  0.896020  0.396020  1.0  0.8263
  Zn  Zn44  1  0.250000  0.896020  0.603980  1.0  0.8261
  Zn  Zn45  1  0.750000  0.103980  0.603980  1.0  0.8265
  Zn  Zn46  1  0.896020  0.603980  0.250000  1.0  0.8257
  Zn  Zn47  1  0.896020  0.396020  0.750000  1.0  0.8254
  Zn  Zn48  1  0.103980  0.603980  0.750000  1.0  0.8257
  Zn  Zn49  1  0.311120  0.396280  0.311120  1.0  0.6932
  Zn  Zn50  1  0.811120  0.896280  0.811120  1.0  0.6932
  Zn  Zn51  1  0.688880  0.603720  0.311120  1.0  0.6942
  Zn  Zn52  1  0.188880  0.103720  0.811120  1.0  0.6942
  Zn  Zn53  1  0.688880  0.396280  0.688880  1.0  0.702
  Zn  Zn54  1  0.188880  0.896280  0.188880  1.0  0.702
  Zn  Zn55  1  0.311120  0.603720  0.688880  1.0  0.6998
  Zn  Zn56  1  0.811120  0.103720  0.188880  1.0  0.6998
  Zn  Zn57  1  0.311120  0.311120  0.396280  1.0  0.6914
  Zn  Zn58  1  0.811120  0.811120  0.896280  1.0  0.6914
  Zn  Zn59  1  0.311120  0.688880  0.603720  1.0  0.6939
  Zn  Zn60  1  0.811120  0.188880  0.103720  1.0  0.6939
  Zn  Zn61  1  0.688880  0.688880  0.396280  1.0  0.6929
  Zn  Zn62  1  0.188880  0.188880  0.896280  1.0  0.6929
  Zn  Zn63  1  0.688880  0.311120  0.603720  1.0  0.6932
  Zn  Zn64  1  0.188880  0.811120  0.103720  1.0  0.6932
  Zn  Zn65  1  0.396280  0.311120  0.311120  1.0  0.6811
  Zn  Zn66  1  0.896280  0.811120  0.811120  1.0  0.6811
  Zn  Zn67  1  0.603720  0.311120  0.688880  1.0  0.6937
  Zn  Zn68  1  0.103720  0.811120  0.188880  1.0  0.6937
  Zn  Zn69  1  0.396280  0.688880  0.688880  1.0  0.6886
  Zn  Zn70  1  0.896280  0.188880  0.188880  1.0  0.6886
  Zn  Zn71  1  0.603720  0.688880  0.311120  1.0  0.6875
  Zn  Zn72  1  0.103720  0.188880  0.811120  1.0  0.6875
  Zn  Zn73  1  0.396280  0.311120  0.688880  1.0  0.6888
  Zn  Zn74  1  0.896280  0.811120  0.188880  1.0  0.6888
  Zn  Zn75  1  0.603720  0.688880  0.688880  1.0  0.6927
  Zn  Zn76  1  0.103720  0.188880  0.188880  1.0  0.6927
  Zn  Zn77  1  0.396280  0.688880  0.311120  1.0  0.6838
  Zn  Zn78  1  0.896280  0.188880  0.811120  1.0  0.6838
  Zn  Zn79  1  0.603720  0.311120  0.311120  1.0  0.6861
  Zn  Zn80  1  0.103720  0.811120  0.811120  1.0  0.6861
  Zn  Zn81  1  0.311120  0.311120  0.603720  1.0  0.6924
  Zn  Zn82  1  0.811120  0.811120  0.103720  1.0  0.6924
  Zn  Zn83  1  0.688880  0.311120  0.396280  1.0  0.6923
  Zn  Zn84  1  0.188880  0.811120  0.896280  1.0  0.6923
  Zn  Zn85  1  0.688880  0.688880  0.603720  1.0  0.6941
  Zn  Zn86  1  0.188880  0.188880  0.103720  1.0  0.6941
  Zn  Zn87  1  0.311120  0.688880  0.396280  1.0  0.6932
  Zn  Zn88  1  0.811120  0.188880  0.896280  1.0  0.6932
  Zn  Zn89  1  0.311120  0.396280  0.688880  1.0  0.7005
  Zn  Zn90  1  0.811120  0.896280  0.188880  1.0  0.7005
  Zn  Zn91  1  0.311120  0.603720  0.311120  1.0  0.6936
  Zn  Zn92  1  0.811120  0.103720  0.811120  1.0  0.6936
  Zn  Zn93  1  0.688880  0.396280  0.311120  1.0  0.6941
  Zn  Zn94  1  0.188880  0.896280  0.811120  1.0  0.6941
  Zn  Zn95  1  0.688880  0.603720  0.688880  1.0  0.701
  Zn  Zn96  1  0.188880  0.103720  0.188880  1.0  0.701
  H  H97  1  0.164600  0.361100  0.042300  1.0  0.1266
  H  H98  1  0.285200  0.397700  0.209600  1.0  0.1366
  H  H99  1  0.321400  0.377300  0.274800  1.0  0.1791
  H  H100  1  0.664600  0.861100  0.542300  1.0  0.1266
  H  H101  1  0.785200  0.897700  0.709600  1.0  0.1366
  H  H102  1  0.821400  0.877300  0.774800  1.0  0.1791
  H  H103  1  0.835400  0.638900  0.042300  1.0  0.1269
  H  H104  1  0.714800  0.602300  0.209600  1.0  0.1366
  H  H105  1  0.678600  0.622700  0.274800  1.0  0.183
  H  H106  1  0.335400  0.138900  0.542300  1.0  0.1269
  H  H107  1  0.214800  0.102300  0.709600  1.0  0.1366
  H  H108  1  0.178600  0.122700  0.774800  1.0  0.183
  H  H109  1  0.835400  0.361100  0.957700  1.0  0.127
  H  H110  1  0.714800  0.397700  0.790400  1.0  0.137
  H  H111  1  0.678600  0.377300  0.725200  1.0  0.183
  H  H112  1  0.335400  0.861100  0.457700  1.0  0.127
  H  H113  1  0.214800  0.897700  0.290400  1.0  0.137
  H  H114  1  0.178600  0.877300  0.225200  1.0  0.183
  H  H115  1  0.164600  0.638900  0.957700  1.0  0.1271
  H  H116  1  0.285200  0.602300  0.790400  1.0  0.1365
  H  H117  1  0.321400  0.622700  0.725200  1.0  0.1814
  H  H118  1  0.664600  0.138900  0.457700  1.0  0.1271
  H  H119  1  0.785200  0.102300  0.290400  1.0  0.1365
  H  H120  1  0.821400  0.122700  0.225200  1.0  0.1814
  H  H121  1  0.042300  0.164600  0.361100  1.0  0.1274
  H  H122  1  0.209600  0.285200  0.397700  1.0  0.1372
  H  H123  1  0.274800  0.321400  0.377300  1.0  0.1786
  H  H124  1  0.542300  0.664600  0.861100  1.0  0.1274
  H  H125  1  0.709600  0.785200  0.897700  1.0  0.1372
  H  H126  1  0.774800  0.821400  0.877300  1.0  0.1786
  H  H127  1  0.042300  0.835400  0.638900  1.0  0.1273
  H  H128  1  0.209600  0.714800  0.602300  1.0  0.1374
  H  H129  1  0.274800  0.678600  0.622700  1.0  0.182
  H  H130  1  0.542300  0.335400  0.138900  1.0  0.1273
  H  H131  1  0.709600  0.214800  0.102300  1.0  0.1374
  H  H132  1  0.774800  0.178600  0.122700  1.0  0.182
  H  H133  1  0.957700  0.835400  0.361100  1.0  0.1276
  H  H134  1  0.790400  0.714800  0.397700  1.0  0.137
  H  H135  1  0.725200  0.678600  0.377300  1.0  0.184
  H  H136  1  0.457700  0.335400  0.861100  1.0  0.1276
  H  H137  1  0.290400  0.214800  0.897700  1.0  0.137
  H  H138  1  0.225200  0.178600  0.877300  1.0  0.184
  H  H139  1  0.957700  0.164600  0.638900  1.0  0.1278
  H  H140  1  0.790400  0.285200  0.602300  1.0  0.1367
  H  H141  1  0.725200  0.321400  0.622700  1.0  0.1835
  H  H142  1  0.457700  0.664600  0.138900  1.0  0.1278
  H  H143  1  0.290400  0.785200  0.102300  1.0  0.1367
  H  H144  1  0.225200  0.821400  0.122700  1.0  0.1835
  H  H145  1  0.361100  0.042300  0.164600  1.0  0.1269
  H  H146  1  0.397700  0.209600  0.285200  1.0  0.1385
  H  H147  1  0.377300  0.274800  0.321400  1.0  0.1832
  H  H148  1  0.861100  0.542300  0.664600  1.0  0.1269
  H  H149  1  0.897700  0.709600  0.785200  1.0  0.1385
  H  H150  1  0.877300  0.774800  0.821400  1.0  0.1832
  H  H151  1  0.638900  0.042300  0.835400  1.0  0.1269
  H  H152  1  0.602300  0.209600  0.714800  1.0  0.1375
  H  H153  1  0.622700  0.274800  0.678600  1.0  0.1848
  H  H154  1  0.138900  0.542300  0.335400  1.0  0.1269
  H  H155  1  0.102300  0.709600  0.214800  1.0  0.1375
  H  H156  1  0.122700  0.774800  0.178600  1.0  0.1848
  H  H157  1  0.361100  0.957700  0.835400  1.0  0.1271
  H  H158  1  0.397700  0.790400  0.714800  1.0  0.1381
  H  H159  1  0.377300  0.725200  0.678600  1.0  0.1833
  H  H160  1  0.861100  0.457700  0.335400  1.0  0.1271
  H  H161  1  0.897700  0.290400  0.214800  1.0  0.1381
  H  H162  1  0.877300  0.225200  0.178600  1.0  0.1833
  H  H163  1  0.638900  0.957700  0.164600  1.0  0.1267
  H  H164  1  0.602300  0.790400  0.285200  1.0  0.1382
  H  H165  1  0.622700  0.725200  0.321400  1.0  0.1817
  H  H166  1  0.138900  0.457700  0.664600  1.0  0.1267
  H  H167  1  0.102300  0.290400  0.785200  1.0  0.1382
  H  H168  1  0.122700  0.225200  0.821400  1.0  0.1817
  H  H169  1  0.361100  0.164600  0.957700  1.0  0.128
  H  H170  1  0.397700  0.285200  0.790400  1.0  0.1377
  H  H171  1  0.377300  0.321400  0.725200  1.0  0.1831
  H  H172  1  0.861100  0.664600  0.457700  1.0  0.128
  H  H173  1  0.897700  0.785200  0.290400  1.0  0.1377
  H  H174  1  0.877300  0.821400  0.225200  1.0  0.1831
  H  H175  1  0.638900  0.835400  0.957700  1.0  0.1275
  H  H176  1  0.602300  0.714800  0.790400  1.0  0.1373
  H  H177  1  0.622700  0.678600  0.725200  1.0  0.1838
  H  H178  1  0.138900  0.335400  0.457700  1.0  0.1275
  H  H179  1  0.102300  0.214800  0.290400  1.0  0.1373
  H  H180  1  0.122700  0.178600  0.225200  1.0  0.1838
  H  H181  1  0.361100  0.835400  0.042300  1.0  0.1272
  H  H182  1  0.397700  0.714800  0.209600  1.0  0.1374
  H  H183  1  0.377300  0.678600  0.274800  1.0  0.1841
  H  H184  1  0.861100  0.335400  0.542300  1.0  0.1272
  H  H185  1  0.897700  0.214800  0.709600  1.0  0.1374
  H  H186  1  0.877300  0.178600  0.774800  1.0  0.1841
  H  H187  1  0.638900  0.164600  0.042300  1.0  0.128
  H  H188  1  0.602300  0.285200  0.209600  1.0  0.1366
  H  H189  1  0.622700  0.321400  0.274800  1.0  0.1794
  H  H190  1  0.138900  0.664600  0.542300  1.0  0.128
  H  H191  1  0.102300  0.785200  0.709600  1.0  0.1366
  H  H192  1  0.122700  0.821400  0.774800  1.0  0.1794
  H  H193  1  0.164600  0.042300  0.638900  1.0  0.1269
  H  H194  1  0.285200  0.209600  0.602300  1.0  0.136
  H  H195  1  0.321400  0.274800  0.622700  1.0  0.1794
  H  H196  1  0.664600  0.542300  0.138900  1.0  0.1269
  H  H197  1  0.785200  0.709600  0.102300  1.0  0.136
  H  H198  1  0.821400  0.774800  0.122700  1.0  0.1794
  H  H199  1  0.835400  0.042300  0.361100  1.0  0.1265
  H  H200  1  0.714800  0.209600  0.397700  1.0  0.1369
  H  H201  1  0.678600  0.274800  0.377300  1.0  0.1844
  H  H202  1  0.335400  0.542300  0.861100  1.0  0.1265
  H  H203  1  0.214800  0.709600  0.897700  1.0  0.1369
  H  H204  1  0.178600  0.774800  0.877300  1.0  0.1844
  H  H205  1  0.835400  0.957700  0.638900  1.0  0.1266
  H  H206  1  0.714800  0.790400  0.602300  1.0  0.1368
  H  H207  1  0.678600  0.725200  0.622700  1.0  0.182
  H  H208  1  0.335400  0.457700  0.138900  1.0  0.1266
  H  H209  1  0.214800  0.290400  0.102300  1.0  0.1368
  H  H210  1  0.178600  0.225200  0.122700  1.0  0.182
  H  H211  1  0.164600  0.957700  0.361100  1.0  0.1266
  H  H212  1  0.285200  0.790400  0.397700  1.0  0.136
  H  H213  1  0.321400  0.725200  0.377300  1.0  0.1821
  H  H214  1  0.664600  0.457700  0.861100  1.0  0.1266
  H  H215  1  0.785200  0.290400  0.897700  1.0  0.136
  H  H216  1  0.821400  0.225200  0.877300  1.0  0.1821
  H  H217  1  0.042300  0.361100  0.835400  1.0  0.1267
  H  H218  1  0.209600  0.397700  0.714800  1.0  0.1375
  H  H219  1  0.274800  0.377300  0.678600  1.0  0.1826
  H  H220  1  0.542300  0.861100  0.335400  1.0  0.1267
  H  H221  1  0.709600  0.897700  0.214800  1.0  0.1375
  H  H222  1  0.774800  0.877300  0.178600  1.0  0.1826
  H  H223  1  0.042300  0.638900  0.164600  1.0  0.1266
  H  H224  1  0.209600  0.602300  0.285200  1.0  0.1383
  H  H225  1  0.274800  0.622700  0.321400  1.0  0.1807
  H  H226  1  0.542300  0.138900  0.664600  1.0  0.1266
  H  H227  1  0.709600  0.102300  0.785200  1.0  0.1383
  H  H228  1  0.774800  0.122700  0.821400  1.0  0.1807
  H  H229  1  0.957700  0.361100  0.164600  1.0  0.1268
  H  H230  1  0.790400  0.397700  0.285200  1.0  0.1386
  H  H231  1  0.725200  0.377300  0.321400  1.0  0.1828
  H  H232  1  0.457700  0.861100  0.664600  1.0  0.1268
  H  H233  1  0.290400  0.897700  0.785200  1.0  0.1386
  H  H234  1  0.225200  0.877300  0.821400  1.0  0.1828
  H  H235  1  0.957700  0.638900  0.835400  1.0  0.1271
  H  H236  1  0.790400  0.602300  0.714800  1.0  0.1382
  H  H237  1  0.725200  0.622700  0.678600  1.0  0.1839
  H  H238  1  0.457700  0.138900  0.335400  1.0  0.1271
  H  H239  1  0.290400  0.102300  0.214800  1.0  0.1382
  H  H240  1  0.225200  0.122700  0.178600  1.0  0.1839
  H  H241  1  0.835400  0.638900  0.957700  1.0  0.127
  H  H242  1  0.714800  0.602300  0.790400  1.0  0.1373
  H  H243  1  0.678600  0.622700  0.725200  1.0  0.1827
  H  H244  1  0.335400  0.138900  0.457700  1.0  0.127
  H  H245  1  0.214800  0.102300  0.290400  1.0  0.1373
  H  H246  1  0.178600  0.122700  0.225200  1.0  0.1827
  H  H247  1  0.164600  0.361100  0.957700  1.0  0.1273
  H  H248  1  0.285200  0.397700  0.790400  1.0  0.1365
  H  H249  1  0.321400  0.377300  0.725200  1.0  0.1793
  H  H250  1  0.664600  0.861100  0.457700  1.0  0.1273
  H  H251  1  0.785200  0.897700  0.290400  1.0  0.1365
  H  H252  1  0.821400  0.877300  0.225200  1.0  0.1793
  H  H253  1  0.164600  0.638900  0.042300  1.0  0.1269
  H  H254  1  0.285200  0.602300  0.209600  1.0  0.136
  H  H255  1  0.321400  0.622700  0.274800  1.0  0.179
  H  H256  1  0.664600  0.138900  0.542300  1.0  0.1269
  H  H257  1  0.785200  0.102300  0.709600  1.0  0.136
  H  H258  1  0.821400  0.122700  0.774800  1.0  0.179
  H  H259  1  0.835400  0.361100  0.042300  1.0  0.1265
  H  H260  1  0.714800  0.397700  0.209600  1.0  0.1369
  H  H261  1  0.678600  0.377300  0.274800  1.0  0.1833
  H  H262  1  0.335400  0.861100  0.542300  1.0  0.1265
  H  H263  1  0.214800  0.897700  0.709600  1.0  0.1369
  H  H264  1  0.178600  0.877300  0.774800  1.0  0.1833
  H  H265  1  0.957700  0.835400  0.638900  1.0  0.1275
  H  H266  1  0.790400  0.714800  0.602300  1.0  0.1372
  H  H267  1  0.725200  0.678600  0.622700  1.0  0.1835
  H  H268  1  0.457700  0.335400  0.138900  1.0  0.1275
  H  H269  1  0.290400  0.214800  0.102300  1.0  0.1372
  H  H270  1  0.225200  0.178600  0.122700  1.0  0.1835
  H  H271  1  0.957700  0.164600  0.361100  1.0  0.1276
  H  H272  1  0.790400  0.285200  0.397700  1.0  0.1373
  H  H273  1  0.725200  0.321400  0.377300  1.0  0.1803
  H  H274  1  0.457700  0.664600  0.861100  1.0  0.1276
  H  H275  1  0.290400  0.785200  0.897700  1.0  0.1373
  H  H276  1  0.225200  0.821400  0.877300  1.0  0.1803
  H  H277  1  0.042300  0.164600  0.638900  1.0  0.1277
  H  H278  1  0.209600  0.285200  0.602300  1.0  0.1369
  H  H279  1  0.274800  0.321400  0.622700  1.0  0.1816
  H  H280  1  0.542300  0.664600  0.138900  1.0  0.1277
  H  H281  1  0.709600  0.785200  0.102300  1.0  0.1369
  H  H282  1  0.774800  0.821400  0.122700  1.0  0.1816
  H  H283  1  0.042300  0.835400  0.361100  1.0  0.1272
  H  H284  1  0.209600  0.714800  0.397700  1.0  0.1371
  H  H285  1  0.274800  0.678600  0.377300  1.0  0.1826
  H  H286  1  0.542300  0.335400  0.861100  1.0  0.1272
  H  H287  1  0.709600  0.214800  0.897700  1.0  0.1371
  H  H288  1  0.774800  0.178600  0.877300  1.0  0.1826
  H  H289  1  0.638900  0.957700  0.835400  1.0  0.1274
  H  H290  1  0.602300  0.790400  0.714800  1.0  0.1377
  H  H291  1  0.622700  0.725200  0.678600  1.0  0.1833
  H  H292  1  0.138900  0.457700  0.335400  1.0  0.1274
  H  H293  1  0.102300  0.290400  0.214800  1.0  0.1377
  H  H294  1  0.122700  0.225200  0.178600  1.0  0.1833
  H  H295  1  0.361100  0.957700  0.164600  1.0  0.1271
  H  H296  1  0.397700  0.790400  0.285200  1.0  0.1388
  H  H297  1  0.377300  0.725200  0.321400  1.0  0.1816
  H  H298  1  0.861100  0.457700  0.664600  1.0  0.1271
  H  H299  1  0.897700  0.290400  0.785200  1.0  0.1388
  H  H300  1  0.877300  0.225200  0.821400  1.0  0.1816
  H  H301  1  0.638900  0.042300  0.164600  1.0  0.1266
  H  H302  1  0.602300  0.209600  0.285200  1.0  0.1377
  H  H303  1  0.622700  0.274800  0.321400  1.0  0.1804
  H  H304  1  0.138900  0.542300  0.664600  1.0  0.1266
  H  H305  1  0.102300  0.709600  0.785200  1.0  0.1377
  H  H306  1  0.122700  0.774800  0.821400  1.0  0.1804
  H  H307  1  0.361100  0.042300  0.835400  1.0  0.1265
  H  H308  1  0.397700  0.209600  0.714800  1.0  0.1381
  H  H309  1  0.377300  0.274800  0.678600  1.0  0.185
  H  H310  1  0.861100  0.542300  0.335400  1.0  0.1265
  H  H311  1  0.897700  0.709600  0.214800  1.0  0.1381
  H  H312  1  0.877300  0.774800  0.178600  1.0  0.185
  H  H313  1  0.638900  0.835400  0.042300  1.0  0.1273
  H  H314  1  0.602300  0.714800  0.209600  1.0  0.1373
  H  H315  1  0.622700  0.678600  0.274800  1.0  0.1837
  H  H316  1  0.138900  0.335400  0.542300  1.0  0.1273
  H  H317  1  0.102300  0.214800  0.709600  1.0  0.1373
  H  H318  1  0.122700  0.178600  0.774800  1.0  0.1837
  H  H319  1  0.361100  0.164600  0.042300  1.0  0.1276
  H  H320  1  0.397700  0.285200  0.209600  1.0  0.1371
  H  H321  1  0.377300  0.321400  0.274800  1.0  0.1806
  H  H322  1  0.861100  0.664600  0.542300  1.0  0.1276
  H  H323  1  0.897700  0.785200  0.709600  1.0  0.1371
  H  H324  1  0.877300  0.821400  0.774800  1.0  0.1806
  H  H325  1  0.638900  0.164600  0.957700  1.0  0.1281
  H  H326  1  0.602300  0.285200  0.790400  1.0  0.1371
  H  H327  1  0.622700  0.321400  0.725200  1.0  0.1833
  H  H328  1  0.138900  0.664600  0.457700  1.0  0.1281
  H  H329  1  0.102300  0.785200  0.290400  1.0  0.1371
  H  H330  1  0.122700  0.821400  0.225200  1.0  0.1833
  H  H331  1  0.361100  0.835400  0.957700  1.0  0.1275
  H  H332  1  0.397700  0.714800  0.790400  1.0  0.1374
  H  H333  1  0.377300  0.678600  0.725200  1.0  0.1834
  H  H334  1  0.861100  0.335400  0.457700  1.0  0.1275
  H  H335  1  0.897700  0.214800  0.290400  1.0  0.1374
  H  H336  1  0.877300  0.178600  0.225200  1.0  0.1834
  H  H337  1  0.835400  0.957700  0.361100  1.0  0.1268
  H  H338  1  0.714800  0.790400  0.397700  1.0  0.1367
  H  H339  1  0.678600  0.725200  0.377300  1.0  0.1829
  H  H340  1  0.335400  0.457700  0.861100  1.0  0.1268
  H  H341  1  0.214800  0.290400  0.897700  1.0  0.1367
  H  H342  1  0.178600  0.225200  0.877300  1.0  0.1829
  H  H343  1  0.164600  0.957700  0.638900  1.0  0.1268
  H  H344  1  0.285200  0.790400  0.602300  1.0  0.1364
  H  H345  1  0.321400  0.725200  0.622700  1.0  0.1812
  H  H346  1  0.664600  0.457700  0.138900  1.0  0.1268
  H  H347  1  0.785200  0.290400  0.102300  1.0  0.1364
  H  H348  1  0.821400  0.225200  0.122700  1.0  0.1812
  H  H349  1  0.164600  0.042300  0.361100  1.0  0.1268
  H  H350  1  0.285200  0.209600  0.397700  1.0  0.136
  H  H351  1  0.321400  0.274800  0.377300  1.0  0.1813
  H  H352  1  0.664600  0.542300  0.861100  1.0  0.1268
  H  H353  1  0.785200  0.709600  0.897700  1.0  0.136
  H  H354  1  0.821400  0.774800  0.877300  1.0  0.1813
  H  H355  1  0.835400  0.042300  0.638900  1.0  0.1263
  H  H356  1  0.714800  0.209600  0.602300  1.0  0.1365
  H  H357  1  0.678600  0.274800  0.622700  1.0  0.1836
  H  H358  1  0.335400  0.542300  0.138900  1.0  0.1263
  H  H359  1  0.214800  0.709600  0.102300  1.0  0.1365
  H  H360  1  0.178600  0.774800  0.122700  1.0  0.1836
  H  H361  1  0.957700  0.638900  0.164600  1.0  0.1268
  H  H362  1  0.790400  0.602300  0.285200  1.0  0.1383
  H  H363  1  0.725200  0.622700  0.321400  1.0  0.1824
  H  H364  1  0.457700  0.138900  0.664600  1.0  0.1268
  H  H365  1  0.290400  0.102300  0.785200  1.0  0.1383
  H  H366  1  0.225200  0.122700  0.821400  1.0  0.1824
  H  H367  1  0.957700  0.361100  0.835400  1.0  0.1269
  H  H368  1  0.790400  0.397700  0.714800  1.0  0.1375
  H  H369  1  0.725200  0.377300  0.678600  1.0  0.1844
  H  H370  1  0.457700  0.861100  0.335400  1.0  0.1269
  H  H371  1  0.290400  0.897700  0.214800  1.0  0.1375
  H  H372  1  0.225200  0.877300  0.178600  1.0  0.1844
  H  H373  1  0.042300  0.638900  0.835400  1.0  0.127
  H  H374  1  0.209600  0.602300  0.714800  1.0  0.1381
  H  H375  1  0.274800  0.622700  0.678600  1.0  0.1823
  H  H376  1  0.542300  0.138900  0.335400  1.0  0.127
  H  H377  1  0.709600  0.102300  0.214800  1.0  0.1381
  H  H378  1  0.774800  0.122700  0.178600  1.0  0.1823
  H  H379  1  0.042300  0.361100  0.164600  1.0  0.1265
  H  H380  1  0.209600  0.397700  0.285200  1.0  0.1386
  H  H381  1  0.274800  0.377300  0.321400  1.0  0.1779
  H  H382  1  0.542300  0.861100  0.664600  1.0  0.1265
  H  H383  1  0.709600  0.897700  0.785200  1.0  0.1386
  H  H384  1  0.774800  0.877300  0.821400  1.0  0.1779
  H  H385  1  0.325900  0.325900  0.070400  1.0  0.1295
  H  H386  1  0.825900  0.825900  0.570400  1.0  0.1295
  H  H387  1  0.674100  0.674100  0.070400  1.0  0.1299
  H  H388  1  0.174100  0.174100  0.570400  1.0  0.1299
  H  H389  1  0.674100  0.325900  0.929600  1.0  0.1293
  H  H390  1  0.174100  0.825900  0.429600  1.0  0.1293
  H  H391  1  0.325900  0.674100  0.929600  1.0  0.1291
  H  H392  1  0.825900  0.174100  0.429600  1.0  0.1291
  H  H393  1  0.070400  0.325900  0.325900  1.0  0.131
  H  H394  1  0.570400  0.825900  0.825900  1.0  0.131
  H  H395  1  0.070400  0.674100  0.674100  1.0  0.1307
  H  H396  1  0.570400  0.174100  0.174100  1.0  0.1307
  H  H397  1  0.929600  0.674100  0.325900  1.0  0.1318
  H  H398  1  0.429600  0.174100  0.825900  1.0  0.1318
  H  H399  1  0.929600  0.325900  0.674100  1.0  0.1315
  H  H400  1  0.429600  0.825900  0.174100  1.0  0.1315
  H  H401  1  0.325900  0.070400  0.325900  1.0  0.1301
  H  H402  1  0.825900  0.570400  0.825900  1.0  0.1301
  H  H403  1  0.674100  0.070400  0.674100  1.0  0.1306
  H  H404  1  0.174100  0.570400  0.174100  1.0  0.1306
  H  H405  1  0.325900  0.929600  0.674100  1.0  0.1312
  H  H406  1  0.825900  0.429600  0.174100  1.0  0.1312
  H  H407  1  0.674100  0.929600  0.325900  1.0  0.1315
  H  H408  1  0.174100  0.429600  0.825900  1.0  0.1315
  H  H409  1  0.325900  0.325900  0.929600  1.0  0.1291
  H  H410  1  0.825900  0.825900  0.429600  1.0  0.1291
  H  H411  1  0.674100  0.674100  0.929600  1.0  0.1297
  H  H412  1  0.174100  0.174100  0.429600  1.0  0.1297
  H  H413  1  0.325900  0.674100  0.070400  1.0  0.1295
  H  H414  1  0.825900  0.174100  0.570400  1.0  0.1295
  H  H415  1  0.674100  0.325900  0.070400  1.0  0.1296
  H  H416  1  0.174100  0.825900  0.570400  1.0  0.1296
  H  H417  1  0.325900  0.070400  0.674100  1.0  0.1302
  H  H418  1  0.825900  0.570400  0.174100  1.0  0.1302
  H  H419  1  0.674100  0.070400  0.325900  1.0  0.1304
  H  H420  1  0.174100  0.570400  0.825900  1.0  0.1304
  H  H421  1  0.674100  0.929600  0.674100  1.0  0.1315
  H  H422  1  0.174100  0.429600  0.174100  1.0  0.1315
  H  H423  1  0.325900  0.929600  0.325900  1.0  0.1312
  H  H424  1  0.825900  0.429600  0.825900  1.0  0.1312
  H  H425  1  0.070400  0.325900  0.674100  1.0  0.1312
  H  H426  1  0.570400  0.825900  0.174100  1.0  0.1312
  H  H427  1  0.070400  0.674100  0.325900  1.0  0.1308
  H  H428  1  0.570400  0.174100  0.825900  1.0  0.1308
  H  H429  1  0.929600  0.325900  0.325900  1.0  0.1318
  H  H430  1  0.429600  0.825900  0.825900  1.0  0.1318
  H  H431  1  0.929600  0.674100  0.674100  1.0  0.1315
  H  H432  1  0.429600  0.174100  0.174100  1.0  0.1315
  C  C433  1  0.189400  0.369200  0.023700  1.0  0.0114
  C  C434  1  0.319600  0.353200  0.170400  1.0  0.2665
  C  C435  1  0.307700  0.374900  0.209500  1.0  -0.0887
  C  C436  1  0.329100  0.362900  0.247200  1.0  -0.0308
  C  C437  1  0.151000  0.245700  0.024100  1.0  0.0436
  C  C438  1  0.689400  0.869200  0.523700  1.0  0.0114
  C  C439  1  0.819600  0.853200  0.670400  1.0  0.2665
  C  C440  1  0.807700  0.874900  0.709500  1.0  -0.0887
  C  C441  1  0.829100  0.862900  0.747200  1.0  -0.0308
  C  C442  1  0.651000  0.745700  0.524100  1.0  0.0436
  C  C443  1  0.810600  0.630800  0.023700  1.0  0.0115
  C  C444  1  0.680400  0.646800  0.170400  1.0  0.2669
  C  C445  1  0.692300  0.625100  0.209500  1.0  -0.0865
  C  C446  1  0.670900  0.637100  0.247200  1.0  -0.0332
  C  C447  1  0.849000  0.754300  0.024100  1.0  0.0385
  C  C448  1  0.310600  0.130800  0.523700  1.0  0.0115
  C  C449  1  0.180400  0.146800  0.670400  1.0  0.2669
  C  C450  1  0.192300  0.125100  0.709500  1.0  -0.0865
  C  C451  1  0.170900  0.137100  0.747200  1.0  -0.0332
  C  C452  1  0.349000  0.254300  0.524100  1.0  0.0385
  C  C453  1  0.810600  0.369200  0.976300  1.0  0.0105
  C  C454  1  0.680400  0.353200  0.829600  1.0  0.2676
  C  C455  1  0.692300  0.374900  0.790500  1.0  -0.0862
  C  C456  1  0.670900  0.362900  0.752800  1.0  -0.035
  C  C457  1  0.849000  0.245700  0.975900  1.0  0.0461
  C  C458  1  0.310600  0.869200  0.476300  1.0  0.0105
  C  C459  1  0.180400  0.853200  0.329600  1.0  0.2676
  C  C460  1  0.192300  0.874900  0.290500  1.0  -0.0862
  C  C461  1  0.170900  0.862900  0.252800  1.0  -0.035
  C  C462  1  0.349000  0.745700  0.475900  1.0  0.0461
  C  C463  1  0.189400  0.630800  0.976300  1.0  0.0104
  C  C464  1  0.319600  0.646800  0.829600  1.0  0.2688
  C  C465  1  0.307700  0.625100  0.790500  1.0  -0.0896
  C  C466  1  0.329100  0.637100  0.752800  1.0  -0.0317
  C  C467  1  0.151000  0.754300  0.975900  1.0  0.0397
  C  C468  1  0.689400  0.130800  0.476300  1.0  0.0104
  C  C469  1  0.819600  0.146800  0.329600  1.0  0.2688
  C  C470  1  0.807700  0.125100  0.290500  1.0  -0.0896
  C  C471  1  0.829100  0.137100  0.252800  1.0  -0.0317
  C  C472  1  0.651000  0.254300  0.475900  1.0  0.0397
  C  C473  1  0.023700  0.189400  0.369200  1.0  0.0091
  C  C474  1  0.170400  0.319600  0.353200  1.0  0.2659
  C  C475  1  0.209500  0.307700  0.374900  1.0  -0.0907
  C  C476  1  0.247200  0.329100  0.362900  1.0  -0.0366
  C  C477  1  0.024100  0.151000  0.245700  1.0  0.0492
  C  C478  1  0.523700  0.689400  0.869200  1.0  0.0091
  C  C479  1  0.670400  0.819600  0.853200  1.0  0.2659
  C  C480  1  0.709500  0.807700  0.874900  1.0  -0.0907
  C  C481  1  0.747200  0.829100  0.862900  1.0  -0.0366
  C  C482  1  0.524100  0.651000  0.745700  1.0  0.0492
  C  C483  1  0.023700  0.810600  0.630800  1.0  0.0091
  C  C484  1  0.170400  0.680400  0.646800  1.0  0.2657
  C  C485  1  0.209500  0.692300  0.625100  1.0  -0.0893
  C  C486  1  0.247200  0.670900  0.637100  1.0  -0.0374
  C  C487  1  0.024100  0.849000  0.754300  1.0  0.0439
  C  C488  1  0.523700  0.310600  0.130800  1.0  0.0091
  C  C489  1  0.670400  0.180400  0.146800  1.0  0.2657
  C  C490  1  0.709500  0.192300  0.125100  1.0  -0.0893
  C  C491  1  0.747200  0.170900  0.137100  1.0  -0.0374
  C  C492  1  0.524100  0.349000  0.254300  1.0  0.0439
  C  C493  1  0.976300  0.810600  0.369200  1.0  0.0078
  C  C494  1  0.829600  0.680400  0.353200  1.0  0.267
  C  C495  1  0.790500  0.692300  0.374900  1.0  -0.0905
  C  C496  1  0.752800  0.670900  0.362900  1.0  -0.0336
  C  C497  1  0.975900  0.849000  0.245700  1.0  0.0468
  C  C498  1  0.476300  0.310600  0.869200  1.0  0.0078
  C  C499  1  0.329600  0.180400  0.853200  1.0  0.267
  C  C500  1  0.290500  0.192300  0.874900  1.0  -0.0905
  C  C501  1  0.252800  0.170900  0.862900  1.0  -0.0336
  C  C502  1  0.475900  0.349000  0.745700  1.0  0.0468
  C  C503  1  0.976300  0.189400  0.630800  1.0  0.0077
  C  C504  1  0.829600  0.319600  0.646800  1.0  0.267
  C  C505  1  0.790500  0.307700  0.625100  1.0  -0.089
  C  C506  1  0.752800  0.329100  0.637100  1.0  -0.0346
  C  C507  1  0.975900  0.151000  0.754300  1.0  0.0495
  C  C508  1  0.476300  0.689400  0.130800  1.0  0.0077
  C  C509  1  0.329600  0.819600  0.146800  1.0  0.267
  C  C510  1  0.290500  0.807700  0.125100  1.0  -0.089
  C  C511  1  0.252800  0.829100  0.137100  1.0  -0.0346
  C  C512  1  0.475900  0.651000  0.254300  1.0  0.0495
  C  C513  1  0.369200  0.023700  0.189400  1.0  0.0094
  C  C514  1  0.353200  0.170400  0.319600  1.0  0.2667
  C  C515  1  0.374900  0.209500  0.307700  1.0  -0.0863
  C  C516  1  0.362900  0.247200  0.329100  1.0  -0.0329
  C  C517  1  0.245700  0.024100  0.151000  1.0  0.0353
  C  C518  1  0.869200  0.523700  0.689400  1.0  0.0094
  C  C519  1  0.853200  0.670400  0.819600  1.0  0.2667
  C  C520  1  0.874900  0.709500  0.807700  1.0  -0.0863
  C  C521  1  0.862900  0.747200  0.829100  1.0  -0.0329
  C  C522  1  0.745700  0.524100  0.651000  1.0  0.0353
  C  C523  1  0.630800  0.023700  0.810600  1.0  0.0107
  C  C524  1  0.646800  0.170400  0.680400  1.0  0.268
  C  C525  1  0.625100  0.209500  0.692300  1.0  -0.0863
  C  C526  1  0.637100  0.247200  0.670900  1.0  -0.0301
  C  C527  1  0.754300  0.024100  0.849000  1.0  0.0387
  C  C528  1  0.130800  0.523700  0.310600  1.0  0.0108
  C  C529  1  0.146800  0.670400  0.180400  1.0  0.268
  C  C530  1  0.125100  0.709500  0.192300  1.0  -0.0863
  C  C531  1  0.137100  0.747200  0.170900  1.0  -0.0301
  C  C532  1  0.254300  0.524100  0.349000  1.0  0.0387
  C  C533  1  0.369200  0.976300  0.810600  1.0  0.0099
  C  C534  1  0.353200  0.829600  0.680400  1.0  0.2668
  C  C535  1  0.374900  0.790500  0.692300  1.0  -0.0853
  C  C536  1  0.362900  0.752800  0.670900  1.0  -0.0345
  C  C537  1  0.245700  0.975900  0.849000  1.0  0.0388
  C  C538  1  0.869200  0.476300  0.310600  1.0  0.0099
  C  C539  1  0.853200  0.329600  0.180400  1.0  0.2668
  C  C540  1  0.874900  0.290500  0.192300  1.0  -0.0853
  C  C541  1  0.862900  0.252800  0.170900  1.0  -0.0345
  C  C542  1  0.745700  0.475900  0.349000  1.0  0.0388
  C  C543  1  0.630800  0.976300  0.189400  1.0  0.0098
  C  C544  1  0.646800  0.829600  0.319600  1.0  0.2702
  C  C545  1  0.625100  0.790500  0.307700  1.0  -0.0873
  C  C546  1  0.637100  0.752800  0.329100  1.0  -0.0311
  C  C547  1  0.754300  0.975900  0.151000  1.0  0.0376
  C  C548  1  0.130800  0.476300  0.689400  1.0  0.0098
  C  C549  1  0.146800  0.329600  0.819600  1.0  0.2702
  C  C550  1  0.125100  0.290500  0.807700  1.0  -0.0873
  C  C551  1  0.137100  0.252800  0.829100  1.0  -0.0311
  C  C552  1  0.254300  0.475900  0.651000  1.0  0.0376
  C  C553  1  0.369200  0.189400  0.976300  1.0  0.0086
  C  C554  1  0.353200  0.319600  0.829600  1.0  0.2668
  C  C555  1  0.374900  0.307700  0.790500  1.0  -0.0873
  C  C556  1  0.362900  0.329100  0.752800  1.0  -0.036
  C  C557  1  0.245700  0.151000  0.975900  1.0  0.0388
  C  C558  1  0.869200  0.689400  0.476300  1.0  0.0086
  C  C559  1  0.853200  0.819600  0.329600  1.0  0.2668
  C  C560  1  0.874900  0.807700  0.290500  1.0  -0.0873
  C  C561  1  0.862900  0.829100  0.252800  1.0  -0.036
  C  C562  1  0.745700  0.651000  0.475900  1.0  0.0388
  C  C563  1  0.630800  0.810600  0.976300  1.0  0.0106
  C  C564  1  0.646800  0.680400  0.829600  1.0  0.2692
  C  C565  1  0.625100  0.692300  0.790500  1.0  -0.0892
  C  C566  1  0.637100  0.670900  0.752800  1.0  -0.0315
  C  C567  1  0.754300  0.849000  0.975900  1.0  0.0398
  C  C568  1  0.130800  0.310600  0.476300  1.0  0.0106
  C  C569  1  0.146800  0.180400  0.329600  1.0  0.2692
  C  C570  1  0.125100  0.192300  0.290500  1.0  -0.0892
  C  C571  1  0.137100  0.170900  0.252800  1.0  -0.0315
  C  C572  1  0.254300  0.349000  0.475900  1.0  0.0398
  C  C573  1  0.369200  0.810600  0.023700  1.0  0.01
  C  C574  1  0.353200  0.680400  0.170400  1.0  0.2653
  C  C575  1  0.374900  0.692300  0.209500  1.0  -0.0878
  C  C576  1  0.362900  0.670900  0.247200  1.0  -0.0338
  C  C577  1  0.245700  0.849000  0.024100  1.0  0.034
  C  C578  1  0.869200  0.310600  0.523700  1.0  0.01
  C  C579  1  0.853200  0.180400  0.670400  1.0  0.2653
  C  C580  1  0.874900  0.192300  0.709500  1.0  -0.0878
  C  C581  1  0.862900  0.170900  0.747200  1.0  -0.0338
  C  C582  1  0.745700  0.349000  0.524100  1.0  0.0357
  C  C583  1  0.630800  0.189400  0.023700  1.0  0.0105
  C  C584  1  0.646800  0.319600  0.170400  1.0  0.2678
  C  C585  1  0.625100  0.307700  0.209500  1.0  -0.0882
  C  C586  1  0.637100  0.329100  0.247200  1.0  -0.0307
  C  C587  1  0.754300  0.151000  0.024100  1.0  0.0398
  C  C588  1  0.130800  0.689400  0.523700  1.0  0.0105
  C  C589  1  0.146800  0.819600  0.670400  1.0  0.2678
  C  C590  1  0.125100  0.807700  0.709500  1.0  -0.0882
  C  C591  1  0.137100  0.829100  0.747200  1.0  -0.0307
  C  C592  1  0.254300  0.651000  0.524100  1.0  0.0398
  C  C593  1  0.189400  0.023700  0.630800  1.0  0.0097
  C  C594  1  0.319600  0.170400  0.646800  1.0  0.2668
  C  C595  1  0.307700  0.209500  0.625100  1.0  -0.0875
  C  C596  1  0.329100  0.247200  0.637100  1.0  -0.031
  C  C597  1  0.151000  0.024100  0.754300  1.0  0.0415
  C  C598  1  0.689400  0.523700  0.130800  1.0  0.0097
  C  C599  1  0.819600  0.670400  0.146800  1.0  0.2668
  C  C600  1  0.807700  0.709500  0.125100  1.0  -0.0875
  C  C601  1  0.829100  0.747200  0.137100  1.0  -0.031
  C  C602  1  0.651000  0.524100  0.254300  1.0  0.0415
  C  C603  1  0.810600  0.023700  0.369200  1.0  0.0096
  C  C604  1  0.680400  0.170400  0.353200  1.0  0.2665
  C  C605  1  0.692300  0.209500  0.374900  1.0  -0.0861
  C  C606  1  0.670900  0.247200  0.362900  1.0  -0.0326
  C  C607  1  0.849000  0.024100  0.245700  1.0  0.0447
  C  C608  1  0.310600  0.523700  0.869200  1.0  0.0096
  C  C609  1  0.180400  0.670400  0.853200  1.0  0.2665
  C  C610  1  0.192300  0.709500  0.874900  1.0  -0.0861
  C  C611  1  0.170900  0.747200  0.862900  1.0  -0.0326
  C  C612  1  0.349000  0.524100  0.745700  1.0  0.0447
  C  C613  1  0.810600  0.976300  0.630800  1.0  0.0098
  C  C614  1  0.680400  0.829600  0.646800  1.0  0.2671
  C  C615  1  0.692300  0.790500  0.625100  1.0  -0.0861
  C  C616  1  0.670900  0.752800  0.637100  1.0  -0.0347
  C  C617  1  0.849000  0.975900  0.754300  1.0  0.042
  C  C618  1  0.310600  0.476300  0.130800  1.0  0.0098
  C  C619  1  0.180400  0.329600  0.146800  1.0  0.2671
  C  C620  1  0.192300  0.290500  0.125100  1.0  -0.0861
  C  C621  1  0.170900  0.252800  0.137100  1.0  -0.0347
  C  C622  1  0.349000  0.475900  0.254300  1.0  0.042
  C  C623  1  0.189400  0.976300  0.369200  1.0  0.0095
  C  C624  1  0.319600  0.829600  0.353200  1.0  0.2689
  C  C625  1  0.307700  0.790500  0.374900  1.0  -0.0883
  C  C626  1  0.329100  0.752800  0.362900  1.0  -0.0313
  C  C627  1  0.151000  0.975900  0.245700  1.0  0.0437
  C  C628  1  0.689400  0.476300  0.869200  1.0  0.0095
  C  C629  1  0.819600  0.329600  0.853200  1.0  0.2689
  C  C630  1  0.807700  0.290500  0.874900  1.0  -0.0883
  C  C631  1  0.829100  0.252800  0.862900  1.0  -0.0313
  C  C632  1  0.651000  0.475900  0.745700  1.0  0.0437
  C  C633  1  0.023700  0.369200  0.810600  1.0  0.0113
  C  C634  1  0.170400  0.353200  0.680400  1.0  0.266
  C  C635  1  0.209500  0.374900  0.692300  1.0  -0.089
  C  C636  1  0.247200  0.362900  0.670900  1.0  -0.0365
  C  C637  1  0.024100  0.245700  0.849000  1.0  0.0492
  C  C638  1  0.523700  0.869200  0.310600  1.0  0.0113
  C  C639  1  0.670400  0.853200  0.180400  1.0  0.266
  C  C640  1  0.709500  0.874900  0.192300  1.0  -0.089
  C  C641  1  0.747200  0.862900  0.170900  1.0  -0.0365
  C  C642  1  0.524100  0.745700  0.349000  1.0  0.0492
  C  C643  1  0.023700  0.630800  0.189400  1.0  0.0109
  C  C644  1  0.170400  0.646800  0.319600  1.0  0.2668
  C  C645  1  0.209500  0.625100  0.307700  1.0  -0.0885
  C  C646  1  0.247200  0.637100  0.329100  1.0  -0.0366
  C  C647  1  0.024100  0.754300  0.151000  1.0  0.0414
  C  C648  1  0.523700  0.130800  0.689400  1.0  0.0109
  C  C649  1  0.670400  0.146800  0.819600  1.0  0.2668
  C  C650  1  0.709500  0.125100  0.807700  1.0  -0.0885
  C  C651  1  0.747200  0.137100  0.829100  1.0  -0.0366
  C  C652  1  0.524100  0.254300  0.651000  1.0  0.0414
  C  C653  1  0.976300  0.369200  0.189400  1.0  0.0104
  C  C654  1  0.829600  0.353200  0.319600  1.0  0.2683
  C  C655  1  0.790500  0.374900  0.307700  1.0  -0.0889
  C  C656  1  0.752800  0.362900  0.329100  1.0  -0.0334
  C  C657  1  0.975900  0.245700  0.151000  1.0  0.0486
  C  C658  1  0.476300  0.869200  0.689400  1.0  0.0104
  C  C659  1  0.329600  0.853200  0.819600  1.0  0.2683
  C  C660  1  0.290500  0.874900  0.807700  1.0  -0.0889
  C  C661  1  0.252800  0.862900  0.829100  1.0  -0.0334
  C  C662  1  0.475900  0.745700  0.651000  1.0  0.0486
  C  C663  1  0.976300  0.630800  0.810600  1.0  0.0095
  C  C664  1  0.829600  0.646800  0.680400  1.0  0.2656
  C  C665  1  0.790500  0.625100  0.692300  1.0  -0.0884
  C  C666  1  0.752800  0.637100  0.670900  1.0  -0.0329
  C  C667  1  0.975900  0.754300  0.849000  1.0  0.0458
  C  C668  1  0.476300  0.130800  0.310600  1.0  0.0095
  C  C669  1  0.329600  0.146800  0.180400  1.0  0.2656
  C  C670  1  0.290500  0.125100  0.192300  1.0  -0.0884
  C  C671  1  0.252800  0.137100  0.170900  1.0  -0.0329
  C  C672  1  0.475900  0.254300  0.349000  1.0  0.0458
  C  C673  1  0.810600  0.630800  0.976300  1.0  0.0103
  C  C674  1  0.680400  0.646800  0.829600  1.0  0.2674
  C  C675  1  0.692300  0.625100  0.790500  1.0  -0.0859
  C  C676  1  0.670900  0.637100  0.752800  1.0  -0.0354
  C  C677  1  0.849000  0.754300  0.975900  1.0  0.0427
  C  C678  1  0.310600  0.130800  0.476300  1.0  0.0103
  C  C679  1  0.180400  0.146800  0.329600  1.0  0.2674
  C  C680  1  0.192300  0.125100  0.290500  1.0  -0.0859
  C  C681  1  0.170900  0.137100  0.252800  1.0  -0.0354
  C  C682  1  0.349000  0.254300  0.475900  1.0  0.0427
  C  C683  1  0.189400  0.369200  0.976300  1.0  0.0107
  C  C684  1  0.319600  0.353200  0.829600  1.0  0.2687
  C  C685  1  0.307700  0.374900  0.790500  1.0  -0.0887
  C  C686  1  0.329100  0.362900  0.752800  1.0  -0.0319
  C  C687  1  0.151000  0.245700  0.975900  1.0  0.0443
  C  C688  1  0.689400  0.869200  0.476300  1.0  0.0107
  C  C689  1  0.819600  0.853200  0.329600  1.0  0.2687
  C  C690  1  0.807700  0.874900  0.290500  1.0  -0.0887
  C  C691  1  0.829100  0.862900  0.252800  1.0  -0.0319
  C  C692  1  0.651000  0.745700  0.475900  1.0  0.0443
  C  C693  1  0.189400  0.630800  0.023700  1.0  0.0112
  C  C694  1  0.319600  0.646800  0.170400  1.0  0.2669
  C  C695  1  0.307700  0.625100  0.209500  1.0  -0.089
  C  C696  1  0.329100  0.637100  0.247200  1.0  -0.0309
  C  C697  1  0.151000  0.754300  0.024100  1.0  0.0389
  C  C698  1  0.689400  0.130800  0.523700  1.0  0.0112
  C  C699  1  0.819600  0.146800  0.670400  1.0  0.2669
  C  C700  1  0.807700  0.125100  0.709500  1.0  -0.089
  C  C701  1  0.829100  0.137100  0.747200  1.0  -0.0309
  C  C702  1  0.651000  0.254300  0.524100  1.0  0.0389
  C  C703  1  0.810600  0.369200  0.023700  1.0  0.0118
  C  C704  1  0.680400  0.353200  0.170400  1.0  0.2661
  C  C705  1  0.692300  0.374900  0.209500  1.0  -0.0869
  C  C706  1  0.670900  0.362900  0.247200  1.0  -0.033
  C  C707  1  0.849000  0.245700  0.024100  1.0  0.0438
  C  C708  1  0.310600  0.869200  0.523700  1.0  0.0118
  C  C709  1  0.180400  0.853200  0.670400  1.0  0.2661
  C  C710  1  0.192300  0.874900  0.709500  1.0  -0.0869
  C  C711  1  0.170900  0.862900  0.747200  1.0  -0.033
  C  C712  1  0.349000  0.745700  0.524100  1.0  0.0446
  C  C713  1  0.976300  0.810600  0.630800  1.0  0.0079
  C  C714  1  0.829600  0.680400  0.646800  1.0  0.267
  C  C715  1  0.790500  0.692300  0.625100  1.0  -0.0898
  C  C716  1  0.752800  0.670900  0.637100  1.0  -0.034
  C  C717  1  0.975900  0.849000  0.754300  1.0  0.0471
  C  C718  1  0.476300  0.310600  0.130800  1.0  0.0079
  C  C719  1  0.329600  0.180400  0.146800  1.0  0.267
  C  C720  1  0.290500  0.192300  0.125100  1.0  -0.0898
  C  C721  1  0.252800  0.170900  0.137100  1.0  -0.034
  C  C722  1  0.475900  0.349000  0.254300  1.0  0.0471
  C  C723  1  0.976300  0.189400  0.369200  1.0  0.0081
  C  C724  1  0.829600  0.319600  0.353200  1.0  0.266
  C  C725  1  0.790500  0.307700  0.374900  1.0  -0.0898
  C  C726  1  0.752800  0.329100  0.362900  1.0  -0.0342
  C  C727  1  0.975900  0.151000  0.245700  1.0  0.0478
  C  C728  1  0.476300  0.689400  0.869200  1.0  0.0081
  C  C729  1  0.329600  0.819600  0.853200  1.0  0.266
  C  C730  1  0.290500  0.807700  0.874900  1.0  -0.0898
  C  C731  1  0.252800  0.829100  0.862900  1.0  -0.0342
  C  C732  1  0.475900  0.651000  0.745700  1.0  0.0478
  C  C733  1  0.023700  0.189400  0.630800  1.0  0.009
  C  C734  1  0.170400  0.319600  0.646800  1.0  0.2664
  C  C735  1  0.209500  0.307700  0.625100  1.0  -0.0908
  C  C736  1  0.247200  0.329100  0.637100  1.0  -0.0376
  C  C737  1  0.024100  0.151000  0.754300  1.0  0.0484
  C  C738  1  0.523700  0.689400  0.130800  1.0  0.009
  C  C739  1  0.670400  0.819600  0.146800  1.0  0.2664
  C  C740  1  0.709500  0.807700  0.125100  1.0  -0.0908
  C  C741  1  0.747200  0.829100  0.137100  1.0  -0.0376
  C  C742  1  0.524100  0.651000  0.254300  1.0  0.0484
  C  C743  1  0.023700  0.810600  0.369200  1.0  0.0092
  C  C744  1  0.170400  0.680400  0.353200  1.0  0.266
  C  C745  1  0.209500  0.692300  0.374900  1.0  -0.091
  C  C746  1  0.247200  0.670900  0.362900  1.0  -0.0365
  C  C747  1  0.024100  0.849000  0.245700  1.0  0.0463
  C  C748  1  0.523700  0.310600  0.869200  1.0  0.0092
  C  C749  1  0.670400  0.180400  0.853200  1.0  0.266
  C  C750  1  0.709500  0.192300  0.874900  1.0  -0.091
  C  C751  1  0.747200  0.170900  0.862900  1.0  -0.0365
  C  C752  1  0.524100  0.349000  0.745700  1.0  0.0463
  C  C753  1  0.630800  0.976300  0.810600  1.0  0.0102
  C  C754  1  0.646800  0.829600  0.680400  1.0  0.2692
  C  C755  1  0.625100  0.790500  0.692300  1.0  -0.0866
  C  C756  1  0.637100  0.752800  0.670900  1.0  -0.0305
  C  C757  1  0.754300  0.975900  0.849000  1.0  0.0402
  C  C758  1  0.130800  0.476300  0.310600  1.0  0.0102
  C  C759  1  0.146800  0.329600  0.180400  1.0  0.2692
  C  C760  1  0.125100  0.290500  0.192300  1.0  -0.0866
  C  C761  1  0.137100  0.252800  0.170900  1.0  -0.0305
  C  C762  1  0.254300  0.475900  0.349000  1.0  0.0402
  C  C763  1  0.369200  0.976300  0.189400  1.0  0.0095
  C  C764  1  0.353200  0.829600  0.319600  1.0  0.2672
  C  C765  1  0.374900  0.790500  0.307700  1.0  -0.0851
  C  C766  1  0.362900  0.752800  0.329100  1.0  -0.0344
  C  C767  1  0.245700  0.975900  0.151000  1.0  0.0357
  C  C768  1  0.869200  0.476300  0.689400  1.0  0.0095
  C  C769  1  0.853200  0.329600  0.819600  1.0  0.2672
  C  C770  1  0.874900  0.290500  0.807700  1.0  -0.0851
  C  C771  1  0.862900  0.252800  0.829100  1.0  -0.0344
  C  C772  1  0.745700  0.475900  0.651000  1.0  0.0357
  C  C773  1  0.630800  0.023700  0.189400  1.0  0.01
  C  C774  1  0.646800  0.170400  0.319600  1.0  0.2685
  C  C775  1  0.625100  0.209500  0.307700  1.0  -0.0876
  C  C776  1  0.637100  0.247200  0.329100  1.0  -0.0296
  C  C777  1  0.754300  0.024100  0.151000  1.0  0.0391
  C  C778  1  0.130800  0.523700  0.689400  1.0  0.01
  C  C779  1  0.146800  0.670400  0.819600  1.0  0.2685
  C  C780  1  0.125100  0.709500  0.807700  1.0  -0.0876
  C  C781  1  0.137100  0.747200  0.829100  1.0  -0.0296
  C  C782  1  0.254300  0.524100  0.651000  1.0  0.0391
  C  C783  1  0.369200  0.023700  0.810600  1.0  0.0097
  C  C784  1  0.353200  0.170400  0.680400  1.0  0.2663
  C  C785  1  0.374900  0.209500  0.692300  1.0  -0.085
  C  C786  1  0.362900  0.247200  0.670900  1.0  -0.0332
  C  C787  1  0.245700  0.024100  0.849000  1.0  0.0365
  C  C788  1  0.869200  0.523700  0.310600  1.0  0.0097
  C  C789  1  0.853200  0.670400  0.180400  1.0  0.2663
  C  C790  1  0.874900  0.709500  0.192300  1.0  -0.085
  C  C791  1  0.862900  0.747200  0.170900  1.0  -0.0332
  C  C792  1  0.745700  0.524100  0.349000  1.0  0.0365
  C  C793  1  0.630800  0.810600  0.023700  1.0  0.011
  C  C794  1  0.646800  0.680400  0.170400  1.0  0.2671
  C  C795  1  0.625100  0.692300  0.209500  1.0  -0.089
  C  C796  1  0.637100  0.670900  0.247200  1.0  -0.0305
  C  C797  1  0.754300  0.849000  0.024100  1.0  0.0379
  C  C798  1  0.130800  0.310600  0.523700  1.0  0.0111
  C  C799  1  0.146800  0.180400  0.670400  1.0  0.2671
  C  C800  1  0.125100  0.192300  0.709500  1.0  -0.089
  C  C801  1  0.137100  0.170900  0.747200  1.0  -0.0305
  C  C802  1  0.254300  0.349000  0.524100  1.0  0.0379
  C  C803  1  0.369200  0.189400  0.023700  1.0  0.0099
  C  C804  1  0.353200  0.319600  0.170400  1.0  0.266
  C  C805  1  0.374900  0.307700  0.209500  1.0  -0.0878
  C  C806  1  0.362900  0.329100  0.247200  1.0  -0.0339
  C  C807  1  0.245700  0.151000  0.024100  1.0  0.0381
  C  C808  1  0.869200  0.689400  0.523700  1.0  0.0099
  C  C809  1  0.853200  0.819600  0.670400  1.0  0.266
  C  C810  1  0.874900  0.807700  0.709500  1.0  -0.0878
  C  C811  1  0.862900  0.829100  0.747200  1.0  -0.0339
  C  C812  1  0.745700  0.651000  0.524100  1.0  0.0381
  C  C813  1  0.630800  0.189400  0.976300  1.0  0.0096
  C  C814  1  0.646800  0.319600  0.829600  1.0  0.2695
  C  C815  1  0.625100  0.307700  0.790500  1.0  -0.0885
  C  C816  1  0.637100  0.329100  0.752800  1.0  -0.0312
  C  C817  1  0.754300  0.151000  0.975900  1.0  0.0407
  C  C818  1  0.130800  0.689400  0.476300  1.0  0.0096
  C  C819  1  0.146800  0.819600  0.329600  1.0  0.2695
  C  C820  1  0.125100  0.807700  0.290500  1.0  -0.0885
  C  C821  1  0.137100  0.829100  0.252800  1.0  -0.0312
  C  C822  1  0.254300  0.651000  0.475900  1.0  0.0407
  C  C823  1  0.369200  0.810600  0.976300  1.0  0.0089
  C  C824  1  0.353200  0.680400  0.829600  1.0  0.2669
  C  C825  1  0.374900  0.692300  0.790500  1.0  -0.0866
  C  C826  1  0.362900  0.670900  0.752800  1.0  -0.0356
  C  C827  1  0.245700  0.849000  0.975900  1.0  0.0379
  C  C828  1  0.869200  0.310600  0.476300  1.0  0.0089
  C  C829  1  0.853200  0.180400  0.329600  1.0  0.2669
  C  C830  1  0.874900  0.192300  0.290500  1.0  -0.0866
  C  C831  1  0.862900  0.170900  0.252800  1.0  -0.0356
  C  C832  1  0.745700  0.349000  0.475900  1.0  0.0379
  C  C833  1  0.810600  0.976300  0.369200  1.0  0.0096
  C  C834  1  0.680400  0.829600  0.353200  1.0  0.2673
  C  C835  1  0.692300  0.790500  0.374900  1.0  -0.0861
  C  C836  1  0.670900  0.752800  0.362900  1.0  -0.0338
  C  C837  1  0.849000  0.975900  0.245700  1.0  0.0456
  C  C838  1  0.310600  0.476300  0.869200  1.0  0.0096
  C  C839  1  0.180400  0.329600  0.853200  1.0  0.2673
  C  C840  1  0.192300  0.290500  0.874900  1.0  -0.0861
  C  C841  1  0.170900  0.252800  0.862900  1.0  -0.0338
  C  C842  1  0.349000  0.475900  0.745700  1.0  0.0456
  C  C843  1  0.189400  0.976300  0.630800  1.0  0.0093
  C  C844  1  0.319600  0.829600  0.646800  1.0  0.2686
  C  C845  1  0.307700  0.790500  0.625100  1.0  -0.0879
  C  C846  1  0.329100  0.752800  0.637100  1.0  -0.0309
  C  C847  1  0.151000  0.975900  0.754300  1.0  0.0426
  C  C848  1  0.689400  0.476300  0.130800  1.0  0.0093
  C  C849  1  0.819600  0.329600  0.146800  1.0  0.2686
  C  C850  1  0.807700  0.290500  0.125100  1.0  -0.0879
  C  C851  1  0.829100  0.252800  0.137100  1.0  -0.0309
  C  C852  1  0.651000  0.475900  0.254300  1.0  0.0426
  C  C853  1  0.189400  0.023700  0.369200  1.0  0.0098
  C  C854  1  0.319600  0.170400  0.353200  1.0  0.2669
  C  C855  1  0.307700  0.209500  0.374900  1.0  -0.0883
  C  C856  1  0.329100  0.247200  0.362900  1.0  -0.0308
  C  C857  1  0.151000  0.024100  0.245700  1.0  0.0425
  C  C858  1  0.689400  0.523700  0.869200  1.0  0.0098
  C  C859  1  0.819600  0.670400  0.853200  1.0  0.2669
  C  C860  1  0.807700  0.709500  0.874900  1.0  -0.0883
  C  C861  1  0.829100  0.747200  0.862900  1.0  -0.0308
  C  C862  1  0.651000  0.524100  0.745700  1.0  0.0425
  C  C863  1  0.810600  0.023700  0.630800  1.0  0.01
  C  C864  1  0.680400  0.170400  0.646800  1.0  0.2671
  C  C865  1  0.692300  0.209500  0.625100  1.0  -0.0845
  C  C866  1  0.670900  0.247200  0.637100  1.0  -0.0334
  C  C867  1  0.849000  0.024100  0.754300  1.0  0.0413
  C  C868  1  0.310600  0.523700  0.130800  1.0  0.01
  C  C869  1  0.180400  0.670400  0.146800  1.0  0.2671
  C  C870  1  0.192300  0.709500  0.125100  1.0  -0.0845
  C  C871  1  0.170900  0.747200  0.137100  1.0  -0.0334
  C  C872  1  0.349000  0.524100  0.254300  1.0  0.0413
  C  C873  1  0.976300  0.630800  0.189400  1.0  0.0093
  C  C874  1  0.829600  0.646800  0.319600  1.0  0.2675
  C  C875  1  0.790500  0.625100  0.307700  1.0  -0.0877
  C  C876  1  0.752800  0.637100  0.329100  1.0  -0.0335
  C  C877  1  0.975900  0.754300  0.151000  1.0  0.0434
  C  C878  1  0.476300  0.130800  0.689400  1.0  0.0093
  C  C879  1  0.329600  0.146800  0.819600  1.0  0.2675
  C  C880  1  0.290500  0.125100  0.807700  1.0  -0.0877
  C  C881  1  0.252800  0.137100  0.829100  1.0  -0.0335
  C  C882  1  0.475900  0.254300  0.651000  1.0  0.0434
  C  C883  1  0.976300  0.369200  0.810600  1.0  0.0101
  C  C884  1  0.829600  0.353200  0.680400  1.0  0.267
  C  C885  1  0.790500  0.374900  0.692300  1.0  -0.0879
  C  C886  1  0.752800  0.362900  0.670900  1.0  -0.0333
  C  C887  1  0.975900  0.245700  0.849000  1.0  0.051
  C  C888  1  0.476300  0.869200  0.310600  1.0  0.0101
  C  C889  1  0.329600  0.853200  0.180400  1.0  0.267
  C  C890  1  0.290500  0.874900  0.192300  1.0  -0.0879
  C  C891  1  0.252800  0.862900  0.170900  1.0  -0.0333
  C  C892  1  0.475900  0.745700  0.349000  1.0  0.051
  C  C893  1  0.023700  0.630800  0.810600  1.0  0.0112
  C  C894  1  0.170400  0.646800  0.680400  1.0  0.2659
  C  C895  1  0.209500  0.625100  0.692300  1.0  -0.0881
  C  C896  1  0.247200  0.637100  0.670900  1.0  -0.0366
  C  C897  1  0.024100  0.754300  0.849000  1.0  0.0433
  C  C898  1  0.523700  0.130800  0.310600  1.0  0.0112
  C  C899  1  0.670400  0.146800  0.180400  1.0  0.2659
  C  C900  1  0.709500  0.125100  0.192300  1.0  -0.0881
  C  C901  1  0.747200  0.137100  0.170900  1.0  -0.0366
  C  C902  1  0.524100  0.254300  0.349000  1.0  0.0433
  C  C903  1  0.023700  0.369200  0.189400  1.0  0.0112
  C  C904  1  0.170400  0.353200  0.319600  1.0  0.2664
  C  C905  1  0.209500  0.374900  0.307700  1.0  -0.0903
  C  C906  1  0.247200  0.362900  0.329100  1.0  -0.0365
  C  C907  1  0.024100  0.245700  0.151000  1.0  0.0487
  C  C908  1  0.523700  0.869200  0.689400  1.0  0.0112
  C  C909  1  0.670400  0.853200  0.819600  1.0  0.2664
  C  C910  1  0.709500  0.874900  0.807700  1.0  -0.0903
  C  C911  1  0.747200  0.862900  0.829100  1.0  -0.0365
  C  C912  1  0.524100  0.745700  0.651000  1.0  0.0487
  C  C913  1  0.255100  0.391900  0.000000  1.0  0.2275
  C  C914  1  0.755100  0.891900  0.500000  1.0  0.2275
  C  C915  1  0.744900  0.608100  0.000000  1.0  0.2277
  C  C916  1  0.244900  0.108100  0.500000  1.0  0.2277
  C  C917  1  0.744900  0.391900  0.000000  1.0  0.2274
  C  C918  1  0.244900  0.891900  0.500000  1.0  0.2274
  C  C919  1  0.255100  0.608100  0.000000  1.0  0.2281
  C  C920  1  0.755100  0.108100  0.500000  1.0  0.2281
  C  C921  1  0.000000  0.255100  0.391900  1.0  0.2271
  C  C922  1  0.500000  0.755100  0.891900  1.0  0.2271
  C  C923  1  0.000000  0.744900  0.608100  1.0  0.2268
  C  C924  1  0.500000  0.244900  0.108100  1.0  0.2268
  C  C925  1  0.000000  0.744900  0.391900  1.0  0.2272
  C  C926  1  0.500000  0.244900  0.891900  1.0  0.2272
  C  C927  1  0.000000  0.255100  0.608100  1.0  0.2271
  C  C928  1  0.500000  0.755100  0.108100  1.0  0.2271
  C  C929  1  0.391900  0.000000  0.255100  1.0  0.2301
  C  C930  1  0.891900  0.500000  0.755100  1.0  0.2301
  C  C931  1  0.608100  0.000000  0.744900  1.0  0.2295
  C  C932  1  0.108100  0.500000  0.244900  1.0  0.2295
  C  C933  1  0.391900  0.000000  0.744900  1.0  0.2291
  C  C934  1  0.891900  0.500000  0.244900  1.0  0.2291
  C  C935  1  0.608100  0.000000  0.255100  1.0  0.2304
  C  C936  1  0.108100  0.500000  0.755100  1.0  0.2304
  C  C937  1  0.391900  0.255100  0.000000  1.0  0.2272
  C  C938  1  0.891900  0.755100  0.500000  1.0  0.2272
  C  C939  1  0.608100  0.744900  0.000000  1.0  0.2276
  C  C940  1  0.108100  0.244900  0.500000  1.0  0.2276
  C  C941  1  0.391900  0.744900  0.000000  1.0  0.2274
  C  C942  1  0.891900  0.244900  0.500000  1.0  0.2274
  C  C943  1  0.608100  0.255100  0.000000  1.0  0.2275
  C  C944  1  0.108100  0.755100  0.500000  1.0  0.2275
  C  C945  1  0.255100  0.000000  0.608100  1.0  0.2295
  C  C946  1  0.755100  0.500000  0.108100  1.0  0.2295
  C  C947  1  0.744900  0.000000  0.391900  1.0  0.2296
  C  C948  1  0.244900  0.500000  0.891900  1.0  0.2296
  C  C949  1  0.744900  0.000000  0.608100  1.0  0.229
  C  C950  1  0.244900  0.500000  0.108100  1.0  0.229
  C  C951  1  0.255100  0.000000  0.391900  1.0  0.2296
  C  C952  1  0.755100  0.500000  0.891900  1.0  0.2296
  C  C953  1  0.000000  0.391900  0.744900  1.0  0.2273
  C  C954  1  0.500000  0.891900  0.244900  1.0  0.2273
  C  C955  1  0.000000  0.608100  0.255100  1.0  0.229
  C  C956  1  0.500000  0.108100  0.755100  1.0  0.229
  C  C957  1  0.000000  0.391900  0.255100  1.0  0.2278
  C  C958  1  0.500000  0.891900  0.755100  1.0  0.2278
  C  C959  1  0.000000  0.608100  0.744900  1.0  0.2268
  C  C960  1  0.500000  0.108100  0.244900  1.0  0.2268
  C  C961  1  0.328100  0.328100  0.102300  1.0  0.3169
  C  C962  1  0.828100  0.828100  0.602300  1.0  0.3169
  C  C963  1  0.671900  0.671900  0.102300  1.0  0.3172
  C  C964  1  0.171900  0.171900  0.602300  1.0  0.3172
  C  C965  1  0.671900  0.328100  0.897700  1.0  0.3172
  C  C966  1  0.171900  0.828100  0.397700  1.0  0.3172
  C  C967  1  0.328100  0.671900  0.897700  1.0  0.3181
  C  C968  1  0.828100  0.171900  0.397700  1.0  0.3181
  C  C969  1  0.102300  0.328100  0.328100  1.0  0.316
  C  C970  1  0.602300  0.828100  0.828100  1.0  0.316
  C  C971  1  0.102300  0.671900  0.671900  1.0  0.3159
  C  C972  1  0.602300  0.171900  0.171900  1.0  0.3159
  C  C973  1  0.897700  0.671900  0.328100  1.0  0.3177
  C  C974  1  0.397700  0.171900  0.828100  1.0  0.3177
  C  C975  1  0.897700  0.328100  0.671900  1.0  0.3173
  C  C976  1  0.397700  0.828100  0.171900  1.0  0.3173
  C  C977  1  0.328100  0.102300  0.328100  1.0  0.316
  C  C978  1  0.828100  0.602300  0.828100  1.0  0.316
  C  C979  1  0.671900  0.102300  0.671900  1.0  0.3154
  C  C980  1  0.171900  0.602300  0.171900  1.0  0.3154
  C  C981  1  0.328100  0.897700  0.671900  1.0  0.3162
  C  C982  1  0.828100  0.397700  0.171900  1.0  0.3162
  C  C983  1  0.671900  0.897700  0.328100  1.0  0.3158
  C  C984  1  0.171900  0.397700  0.828100  1.0  0.3158
  C  C985  1  0.328100  0.328100  0.897700  1.0  0.3178
  C  C986  1  0.828100  0.828100  0.397700  1.0  0.3178
  C  C987  1  0.671900  0.671900  0.897700  1.0  0.3174
  C  C988  1  0.171900  0.171900  0.397700  1.0  0.3174
  C  C989  1  0.328100  0.671900  0.102300  1.0  0.3176
  C  C990  1  0.828100  0.171900  0.602300  1.0  0.3176
  C  C991  1  0.671900  0.328100  0.102300  1.0  0.3165
  C  C992  1  0.171900  0.828100  0.602300  1.0  0.3165
  C  C993  1  0.328100  0.102300  0.671900  1.0  0.3156
  C  C994  1  0.828100  0.602300  0.171900  1.0  0.3156
  C  C995  1  0.671900  0.102300  0.328100  1.0  0.3156
  C  C996  1  0.171900  0.602300  0.828100  1.0  0.3156
  C  C997  1  0.671900  0.897700  0.671900  1.0  0.3157
  C  C998  1  0.171900  0.397700  0.171900  1.0  0.3157
  C  C999  1  0.328100  0.897700  0.328100  1.0  0.3165
  C  C1000  1  0.828100  0.397700  0.828100  1.0  0.3165
  C  C1001  1  0.102300  0.328100  0.671900  1.0  0.316
  C  C1002  1  0.602300  0.828100  0.171900  1.0  0.316
  C  C1003  1  0.102300  0.671900  0.328100  1.0  0.3161
  C  C1004  1  0.602300  0.171900  0.828100  1.0  0.3161
  C  C1005  1  0.897700  0.328100  0.328100  1.0  0.3173
  C  C1006  1  0.397700  0.828100  0.828100  1.0  0.3173
  C  C1007  1  0.897700  0.671900  0.671900  1.0  0.3175
  C  C1008  1  0.397700  0.171900  0.171900  1.0  0.3175
  C  C1009  1  0.189100  0.189100  0.000000  1.0  -0.0256
  C  C1010  1  0.689100  0.689100  0.500000  1.0  -0.0256
  C  C1011  1  0.810900  0.810900  0.000000  1.0  -0.0269
  C  C1012  1  0.310900  0.310900  0.500000  1.0  -0.0269
  C  C1013  1  0.810900  0.189100  0.000000  1.0  -0.0254
  C  C1014  1  0.310900  0.689100  0.500000  1.0  -0.0254
  C  C1015  1  0.189100  0.810900  0.000000  1.0  -0.0272
  C  C1016  1  0.689100  0.310900  0.500000  1.0  -0.0272
  C  C1017  1  0.000000  0.189100  0.189100  1.0  -0.0289
  C  C1018  1  0.500000  0.689100  0.689100  1.0  -0.0289
  C  C1019  1  0.000000  0.810900  0.810900  1.0  -0.0277
  C  C1020  1  0.500000  0.310900  0.310900  1.0  -0.0277
  C  C1021  1  0.000000  0.810900  0.189100  1.0  -0.0292
  C  C1022  1  0.500000  0.310900  0.689100  1.0  -0.0292
  C  C1023  1  0.000000  0.189100  0.810900  1.0  -0.0272
  C  C1024  1  0.500000  0.689100  0.310900  1.0  -0.0272
  C  C1025  1  0.189100  0.000000  0.189100  1.0  -0.0286
  C  C1026  1  0.689100  0.500000  0.689100  1.0  -0.0286
  C  C1027  1  0.810900  0.000000  0.810900  1.0  -0.0256
  C  C1028  1  0.310900  0.500000  0.310900  1.0  -0.0256
  C  C1029  1  0.189100  0.000000  0.810900  1.0  -0.0264
  C  C1030  1  0.689100  0.500000  0.310900  1.0  -0.0264
  C  C1031  1  0.810900  0.000000  0.189100  1.0  -0.0271
  C  C1032  1  0.310900  0.500000  0.689100  1.0  -0.0271
  N  N1033  1  0.232120  0.383290  0.039010  1.0  -0.4476
  N  N1034  1  0.301930  0.357620  0.126890  1.0  -0.4667
  N  N1035  1  0.324500  0.462300  0.294400  1.0  -0.0284
  N  N1036  1  0.732120  0.883290  0.539010  1.0  -0.4474
  N  N1037  1  0.801930  0.857620  0.626890  1.0  -0.4667
  N  N1038  1  0.824500  0.962300  0.794400  1.0  -0.0281
  N  N1039  1  0.767880  0.616710  0.039010  1.0  -0.4506
  N  N1040  1  0.698070  0.642380  0.126890  1.0  -0.4683
  N  N1041  1  0.675500  0.537700  0.294400  1.0  -0.02
  N  N1042  1  0.267880  0.116710  0.539010  1.0  -0.4536
  N  N1043  1  0.198070  0.142380  0.626890  1.0  -0.4683
  N  N1044  1  0.175500  0.037700  0.794400  1.0  -0.0203
  N  N1045  1  0.767880  0.383290  0.960990  1.0  -0.4504
  N  N1046  1  0.698070  0.357620  0.873110  1.0  -0.4711
  N  N1047  1  0.675500  0.462300  0.705600  1.0  -0.022
  N  N1048  1  0.267880  0.883290  0.460990  1.0  -0.4483
  N  N1049  1  0.198070  0.857620  0.373110  1.0  -0.4711
  N  N1050  1  0.175500  0.962300  0.205600  1.0  -0.0216
  N  N1051  1  0.232120  0.616710  0.960990  1.0  -0.4474
  N  N1052  1  0.301930  0.642380  0.873110  1.0  -0.4697
  N  N1053  1  0.324500  0.537700  0.705600  1.0  -0.0221
  N  N1054  1  0.732120  0.116710  0.460990  1.0  -0.4475
  N  N1055  1  0.801930  0.142380  0.373110  1.0  -0.4697
  N  N1056  1  0.824500  0.037700  0.205600  1.0  -0.0228
  N  N1057  1  0.039010  0.232120  0.383290  1.0  -0.4482
  N  N1058  1  0.126890  0.301930  0.357620  1.0  -0.4648
  N  N1059  1  0.294400  0.324500  0.462300  1.0  -0.0135
  N  N1060  1  0.539010  0.732120  0.883290  1.0  -0.4508
  N  N1061  1  0.626890  0.801930  0.857620  1.0  -0.4648
  N  N1062  1  0.794400  0.824500  0.962300  1.0  -0.0131
  N  N1063  1  0.039010  0.767880  0.616710  1.0  -0.4485
  N  N1064  1  0.126890  0.698070  0.642380  1.0  -0.4667
  N  N1065  1  0.294400  0.675500  0.537700  1.0  -0.0189
  N  N1066  1  0.539010  0.267880  0.116710  1.0  -0.4502
  N  N1067  1  0.626890  0.198070  0.142380  1.0  -0.4667
  N  N1068  1  0.794400  0.175500  0.037700  1.0  -0.0187
  N  N1069  1  0.960990  0.767880  0.383290  1.0  -0.4499
  N  N1070  1  0.873110  0.698070  0.357620  1.0  -0.4693
  N  N1071  1  0.705600  0.675500  0.462300  1.0  -0.0192
  N  N1072  1  0.460990  0.267880  0.883290  1.0  -0.4496
  N  N1073  1  0.373110  0.198070  0.857620  1.0  -0.4693
  N  N1074  1  0.205600  0.175500  0.962300  1.0  -0.0191
  N  N1075  1  0.960990  0.232120  0.616710  1.0  -0.4502
  N  N1076  1  0.873110  0.301930  0.642380  1.0  -0.4712
  N  N1077  1  0.705600  0.324500  0.537700  1.0  -0.0174
  N  N1078  1  0.460990  0.732120  0.116710  1.0  -0.4498
  N  N1079  1  0.373110  0.801930  0.142380  1.0  -0.4712
  N  N1080  1  0.205600  0.824500  0.037700  1.0  -0.0182
  N  N1081  1  0.383290  0.039010  0.232120  1.0  -0.4483
  N  N1082  1  0.357620  0.126890  0.301930  1.0  -0.4685
  N  N1083  1  0.462300  0.294400  0.324500  1.0  -0.0252
  N  N1084  1  0.883290  0.539010  0.732120  1.0  -0.4481
  N  N1085  1  0.857620  0.626890  0.801930  1.0  -0.4685
  N  N1086  1  0.962300  0.794400  0.824500  1.0  -0.0253
  N  N1087  1  0.616710  0.039010  0.767880  1.0  -0.4509
  N  N1088  1  0.642380  0.126890  0.698070  1.0  -0.467
  N  N1089  1  0.537700  0.294400  0.675500  1.0  -0.0193
  N  N1090  1  0.116710  0.539010  0.267880  1.0  -0.4539
  N  N1091  1  0.142380  0.626890  0.198070  1.0  -0.467
  N  N1092  1  0.037700  0.794400  0.175500  1.0  -0.0192
  N  N1093  1  0.383290  0.960990  0.767880  1.0  -0.4473
  N  N1094  1  0.357620  0.873110  0.698070  1.0  -0.4706
  N  N1095  1  0.462300  0.705600  0.675500  1.0  -0.0254
  N  N1096  1  0.883290  0.460990  0.267880  1.0  -0.4472
  N  N1097  1  0.857620  0.373110  0.198070  1.0  -0.4706
  N  N1098  1  0.962300  0.205600  0.175500  1.0  -0.025
  N  N1099  1  0.616710  0.960990  0.232120  1.0  -0.4503
  N  N1100  1  0.642380  0.873110  0.301930  1.0  -0.4703
  N  N1101  1  0.537700  0.705600  0.324500  1.0  -0.0214
  N  N1102  1  0.116710  0.460990  0.732120  1.0  -0.4481
  N  N1103  1  0.142380  0.373110  0.801930  1.0  -0.4703
  N  N1104  1  0.037700  0.205600  0.824500  1.0  -0.0214
  N  N1105  1  0.383290  0.232120  0.960990  1.0  -0.4474
  N  N1106  1  0.357620  0.301930  0.873110  1.0  -0.4712
  N  N1107  1  0.462300  0.324500  0.705600  1.0  -0.0171
  N  N1108  1  0.883290  0.732120  0.460990  1.0  -0.4468
  N  N1109  1  0.857620  0.801930  0.373110  1.0  -0.4712
  N  N1110  1  0.962300  0.824500  0.205600  1.0  -0.0172
  N  N1111  1  0.616710  0.767880  0.960990  1.0  -0.4499
  N  N1112  1  0.642380  0.698070  0.873110  1.0  -0.4709
  N  N1113  1  0.537700  0.675500  0.705600  1.0  -0.016
  N  N1114  1  0.116710  0.267880  0.460990  1.0  -0.4476
  N  N1115  1  0.142380  0.198070  0.373110  1.0  -0.4709
  N  N1116  1  0.037700  0.175500  0.205600  1.0  -0.016
  N  N1117  1  0.383290  0.767880  0.039010  1.0  -0.447
  N  N1118  1  0.357620  0.698070  0.126890  1.0  -0.4705
  N  N1119  1  0.462300  0.675500  0.294400  1.0  -0.0231
  N  N1120  1  0.883290  0.267880  0.539010  1.0  -0.4467
  N  N1121  1  0.857620  0.198070  0.626890  1.0  -0.4705
  N  N1122  1  0.962300  0.175500  0.794400  1.0  -0.0226
  N  N1123  1  0.616710  0.232120  0.039010  1.0  -0.4474
  N  N1124  1  0.642380  0.301930  0.126890  1.0  -0.4671
  N  N1125  1  0.537700  0.324500  0.294400  1.0  -0.0147
  N  N1126  1  0.116710  0.732120  0.539010  1.0  -0.4478
  N  N1127  1  0.142380  0.801930  0.626890  1.0  -0.4671
  N  N1128  1  0.037700  0.824500  0.794400  1.0  -0.0147
  N  N1129  1  0.232120  0.039010  0.616710  1.0  -0.448
  N  N1130  1  0.301930  0.126890  0.642380  1.0  -0.4679
  N  N1131  1  0.324500  0.294400  0.537700  1.0  -0.0244
  N  N1132  1  0.732120  0.539010  0.116710  1.0  -0.4475
  N  N1133  1  0.801930  0.626890  0.142380  1.0  -0.4679
  N  N1134  1  0.824500  0.794400  0.037700  1.0  -0.0255
  N  N1135  1  0.767880  0.039010  0.383290  1.0  -0.451
  N  N1136  1  0.698070  0.126890  0.357620  1.0  -0.4696
  N  N1137  1  0.675500  0.294400  0.462300  1.0  -0.0159
  N  N1138  1  0.267880  0.539010  0.883290  1.0  -0.4514
  N  N1139  1  0.198070  0.626890  0.857620  1.0  -0.4696
  N  N1140  1  0.175500  0.794400  0.962300  1.0  -0.0151
  N  N1141  1  0.767880  0.960990  0.616710  1.0  -0.4507
  N  N1142  1  0.698070  0.873110  0.642380  1.0  -0.4711
  N  N1143  1  0.675500  0.705600  0.537700  1.0  -0.0207
  N  N1144  1  0.267880  0.460990  0.116710  1.0  -0.4484
  N  N1145  1  0.198070  0.373110  0.142380  1.0  -0.4711
  N  N1146  1  0.175500  0.205600  0.037700  1.0  -0.0205
  N  N1147  1  0.232120  0.960990  0.383290  1.0  -0.4485
  N  N1148  1  0.301930  0.873110  0.357620  1.0  -0.468
  N  N1149  1  0.324500  0.705600  0.462300  1.0  -0.0221
  N  N1150  1  0.732120  0.460990  0.883290  1.0  -0.4477
  N  N1151  1  0.801930  0.373110  0.857620  1.0  -0.468
  N  N1152  1  0.824500  0.205600  0.962300  1.0  -0.0219
  N  N1153  1  0.039010  0.383290  0.767880  1.0  -0.4484
  N  N1154  1  0.126890  0.357620  0.698070  1.0  -0.4668
  N  N1155  1  0.294400  0.462300  0.675500  1.0  -0.0235
  N  N1156  1  0.539010  0.883290  0.267880  1.0  -0.4489
  N  N1157  1  0.626890  0.857620  0.198070  1.0  -0.4668
  N  N1158  1  0.794400  0.962300  0.175500  1.0  -0.0232
  N  N1159  1  0.039010  0.616710  0.232120  1.0  -0.4482
  N  N1160  1  0.126890  0.642380  0.301930  1.0  -0.4656
  N  N1161  1  0.294400  0.537700  0.324500  1.0  -0.0208
  N  N1162  1  0.539010  0.116710  0.732120  1.0  -0.4487
  N  N1163  1  0.626890  0.142380  0.801930  1.0  -0.4656
  N  N1164  1  0.794400  0.037700  0.824500  1.0  -0.0208
  N  N1165  1  0.960990  0.383290  0.232120  1.0  -0.4523
  N  N1166  1  0.873110  0.357620  0.301930  1.0  -0.4698
  N  N1167  1  0.705600  0.462300  0.324500  1.0  -0.0263
  N  N1168  1  0.460990  0.883290  0.732120  1.0  -0.4497
  N  N1169  1  0.373110  0.857620  0.801930  1.0  -0.4698
  N  N1170  1  0.205600  0.962300  0.824500  1.0  -0.0264
  N  N1171  1  0.960990  0.616710  0.767880  1.0  -0.4504
  N  N1172  1  0.873110  0.642380  0.698070  1.0  -0.4702
  N  N1173  1  0.705600  0.537700  0.675500  1.0  -0.02
  N  N1174  1  0.460990  0.116710  0.267880  1.0  -0.4503
  N  N1175  1  0.373110  0.142380  0.198070  1.0  -0.4702
  N  N1176  1  0.205600  0.037700  0.175500  1.0  -0.0211
  N  N1177  1  0.767880  0.616710  0.960990  1.0  -0.4512
  N  N1178  1  0.698070  0.642380  0.873110  1.0  -0.4706
  N  N1179  1  0.675500  0.537700  0.705600  1.0  -0.0184
  N  N1180  1  0.267880  0.116710  0.460990  1.0  -0.4488
  N  N1181  1  0.198070  0.142380  0.373110  1.0  -0.4706
  N  N1182  1  0.175500  0.037700  0.205600  1.0  -0.0184
  N  N1183  1  0.232120  0.383290  0.960990  1.0  -0.4478
  N  N1184  1  0.301930  0.357620  0.873110  1.0  -0.472
  N  N1185  1  0.324500  0.462300  0.705600  1.0  -0.0255
  N  N1186  1  0.732120  0.883290  0.460990  1.0  -0.4477
  N  N1187  1  0.801930  0.857620  0.373110  1.0  -0.472
  N  N1188  1  0.824500  0.962300  0.205600  1.0  -0.026
  N  N1189  1  0.232120  0.616710  0.039010  1.0  -0.4475
  N  N1190  1  0.301930  0.642380  0.126890  1.0  -0.4686
  N  N1191  1  0.324500  0.537700  0.294400  1.0  -0.0253
  N  N1192  1  0.732120  0.116710  0.539010  1.0  -0.4475
  N  N1193  1  0.801930  0.142380  0.626890  1.0  -0.4686
  N  N1194  1  0.824500  0.037700  0.794400  1.0  -0.0253
  N  N1195  1  0.767880  0.383290  0.039010  1.0  -0.4479
  N  N1196  1  0.698070  0.357620  0.126890  1.0  -0.4683
  N  N1197  1  0.675500  0.462300  0.294400  1.0  -0.0231
  N  N1198  1  0.267880  0.883290  0.539010  1.0  -0.4479
  N  N1199  1  0.198070  0.857620  0.626890  1.0  -0.4683
  N  N1200  1  0.175500  0.962300  0.794400  1.0  -0.0224
  N  N1201  1  0.960990  0.767880  0.616710  1.0  -0.45
  N  N1202  1  0.873110  0.698070  0.642380  1.0  -0.4704
  N  N1203  1  0.705600  0.675500  0.537700  1.0  -0.0218
  N  N1204  1  0.460990  0.267880  0.116710  1.0  -0.4498
  N  N1205  1  0.373110  0.198070  0.142380  1.0  -0.4704
  N  N1206  1  0.205600  0.175500  0.037700  1.0  -0.0218
  N  N1207  1  0.960990  0.232120  0.383290  1.0  -0.4528
  N  N1208  1  0.873110  0.301930  0.357620  1.0  -0.4677
  N  N1209  1  0.705600  0.324500  0.462300  1.0  -0.014
  N  N1210  1  0.460990  0.732120  0.883290  1.0  -0.4502
  N  N1211  1  0.373110  0.801930  0.857620  1.0  -0.4677
  N  N1212  1  0.205600  0.824500  0.962300  1.0  -0.0141
  N  N1213  1  0.039010  0.232120  0.616710  1.0  -0.4479
  N  N1214  1  0.126890  0.301930  0.642380  1.0  -0.4664
  N  N1215  1  0.294400  0.324500  0.537700  1.0  -0.0138
  N  N1216  1  0.539010  0.732120  0.116710  1.0  -0.4479
  N  N1217  1  0.626890  0.801930  0.142380  1.0  -0.4664
  N  N1218  1  0.794400  0.824500  0.037700  1.0  -0.0138
  N  N1219  1  0.039010  0.767880  0.383290  1.0  -0.4482
  N  N1220  1  0.126890  0.698070  0.357620  1.0  -0.4657
  N  N1221  1  0.294400  0.675500  0.462300  1.0  -0.0184
  N  N1222  1  0.539010  0.267880  0.883290  1.0  -0.4482
  N  N1223  1  0.626890  0.198070  0.857620  1.0  -0.4657
  N  N1224  1  0.794400  0.175500  0.962300  1.0  -0.0169
  N  N1225  1  0.616710  0.960990  0.767880  1.0  -0.4506
  N  N1226  1  0.642380  0.873110  0.698070  1.0  -0.4687
  N  N1227  1  0.537700  0.705600  0.675500  1.0  -0.0199
  N  N1228  1  0.116710  0.460990  0.267880  1.0  -0.4482
  N  N1229  1  0.142380  0.373110  0.198070  1.0  -0.4687
  N  N1230  1  0.037700  0.205600  0.175500  1.0  -0.0199
  N  N1231  1  0.383290  0.960990  0.232120  1.0  -0.448
  N  N1232  1  0.357620  0.873110  0.301930  1.0  -0.4708
  N  N1233  1  0.462300  0.705600  0.324500  1.0  -0.0256
  N  N1234  1  0.883290  0.460990  0.732120  1.0  -0.4475
  N  N1235  1  0.857620  0.373110  0.801930  1.0  -0.4708
  N  N1236  1  0.962300  0.205600  0.824500  1.0  -0.0261
  N  N1237  1  0.616710  0.039010  0.232120  1.0  -0.4506
  N  N1238  1  0.642380  0.126890  0.301930  1.0  -0.4675
  N  N1239  1  0.537700  0.294400  0.324500  1.0  -0.0211
  N  N1240  1  0.116710  0.539010  0.732120  1.0  -0.4506
  N  N1241  1  0.142380  0.626890  0.801930  1.0  -0.4675
  N  N1242  1  0.037700  0.794400  0.824500  1.0  -0.0211
  N  N1243  1  0.383290  0.039010  0.767880  1.0  -0.4483
  N  N1244  1  0.357620  0.126890  0.698070  1.0  -0.4668
  N  N1245  1  0.462300  0.294400  0.675500  1.0  -0.0241
  N  N1246  1  0.883290  0.539010  0.267880  1.0  -0.4483
  N  N1247  1  0.857620  0.626890  0.198070  1.0  -0.4668
  N  N1248  1  0.962300  0.794400  0.175500  1.0  -0.0237
  N  N1249  1  0.616710  0.767880  0.039010  1.0  -0.4495
  N  N1250  1  0.642380  0.698070  0.126890  1.0  -0.4663
  N  N1251  1  0.537700  0.675500  0.294400  1.0  -0.0182
  N  N1252  1  0.116710  0.267880  0.539010  1.0  -0.4492
  N  N1253  1  0.142380  0.198070  0.626890  1.0  -0.4663
  N  N1254  1  0.037700  0.175500  0.794400  1.0  -0.0181
  N  N1255  1  0.383290  0.232120  0.039010  1.0  -0.4472
  N  N1256  1  0.357620  0.301930  0.126890  1.0  -0.469
  N  N1257  1  0.462300  0.324500  0.294400  1.0  -0.0186
  N  N1258  1  0.883290  0.732120  0.539010  1.0  -0.4473
  N  N1259  1  0.857620  0.801930  0.626890  1.0  -0.469
  N  N1260  1  0.962300  0.824500  0.794400  1.0  -0.0186
  N  N1261  1  0.616710  0.232120  0.960990  1.0  -0.4495
  N  N1262  1  0.642380  0.301930  0.873110  1.0  -0.4687
  N  N1263  1  0.537700  0.324500  0.705600  1.0  -0.0116
  N  N1264  1  0.116710  0.732120  0.460990  1.0  -0.4471
  N  N1265  1  0.142380  0.801930  0.373110  1.0  -0.4687
  N  N1266  1  0.037700  0.824500  0.205600  1.0  -0.0119
  N  N1267  1  0.383290  0.767880  0.960990  1.0  -0.4471
  N  N1268  1  0.357620  0.698070  0.873110  1.0  -0.4712
  N  N1269  1  0.462300  0.675500  0.705600  1.0  -0.0213
  N  N1270  1  0.883290  0.267880  0.460990  1.0  -0.4468
  N  N1271  1  0.857620  0.198070  0.373110  1.0  -0.4712
  N  N1272  1  0.962300  0.175500  0.205600  1.0  -0.0215
  N  N1273  1  0.767880  0.960990  0.383290  1.0  -0.4506
  N  N1274  1  0.698070  0.873110  0.357620  1.0  -0.47
  N  N1275  1  0.675500  0.705600  0.462300  1.0  -0.0179
  N  N1276  1  0.267880  0.460990  0.883290  1.0  -0.4481
  N  N1277  1  0.198070  0.373110  0.857620  1.0  -0.47
  N  N1278  1  0.175500  0.205600  0.962300  1.0  -0.0169
  N  N1279  1  0.232120  0.960990  0.616710  1.0  -0.4475
  N  N1280  1  0.301930  0.873110  0.642380  1.0  -0.4695
  N  N1281  1  0.324500  0.705600  0.537700  1.0  -0.0256
  N  N1282  1  0.732120  0.460990  0.116710  1.0  -0.4472
  N  N1283  1  0.801930  0.373110  0.142380  1.0  -0.4695
  N  N1284  1  0.824500  0.205600  0.037700  1.0  -0.0256
  N  N1285  1  0.232120  0.039010  0.383290  1.0  -0.4482
  N  N1286  1  0.301930  0.126890  0.357620  1.0  -0.4661
  N  N1287  1  0.324500  0.294400  0.462300  1.0  -0.0219
  N  N1288  1  0.732120  0.539010  0.883290  1.0  -0.4482
  N  N1289  1  0.801930  0.626890  0.857620  1.0  -0.4661
  N  N1290  1  0.824500  0.794400  0.962300  1.0  -0.022
  N  N1291  1  0.767880  0.039010  0.616710  1.0  -0.4511
  N  N1292  1  0.698070  0.126890  0.642380  1.0  -0.4685
  N  N1293  1  0.675500  0.294400  0.537700  1.0  -0.021
  N  N1294  1  0.267880  0.539010  0.116710  1.0  -0.4509
  N  N1295  1  0.198070  0.626890  0.142380  1.0  -0.4685
  N  N1296  1  0.175500  0.794400  0.037700  1.0  -0.0209
  N  N1297  1  0.960990  0.616710  0.232120  1.0  -0.4503
  N  N1298  1  0.873110  0.642380  0.301930  1.0  -0.4699
  N  N1299  1  0.705600  0.537700  0.324500  1.0  -0.0239
  N  N1300  1  0.460990  0.116710  0.732120  1.0  -0.4504
  N  N1301  1  0.373110  0.142380  0.801930  1.0  -0.4699
  N  N1302  1  0.205600  0.037700  0.824500  1.0  -0.0238
  N  N1303  1  0.960990  0.383290  0.767880  1.0  -0.45
  N  N1304  1  0.873110  0.357620  0.698070  1.0  -0.4699
  N  N1305  1  0.705600  0.462300  0.675500  1.0  -0.0264
  N  N1306  1  0.460990  0.883290  0.267880  1.0  -0.4499
  N  N1307  1  0.373110  0.857620  0.198070  1.0  -0.4699
  N  N1308  1  0.205600  0.962300  0.175500  1.0  -0.0264
  N  N1309  1  0.039010  0.616710  0.767880  1.0  -0.4488
  N  N1310  1  0.126890  0.642380  0.698070  1.0  -0.4665
  N  N1311  1  0.294400  0.537700  0.675500  1.0  -0.0187
  N  N1312  1  0.539010  0.116710  0.267880  1.0  -0.4484
  N  N1313  1  0.626890  0.142380  0.198070  1.0  -0.4665
  N  N1314  1  0.794400  0.037700  0.175500  1.0  -0.0186
  N  N1315  1  0.039010  0.383290  0.232120  1.0  -0.4483
  N  N1316  1  0.126890  0.357620  0.301930  1.0  -0.4662
  N  N1317  1  0.294400  0.462300  0.324500  1.0  -0.0244
  N  N1318  1  0.539010  0.883290  0.732120  1.0  -0.4504
  N  N1319  1  0.626890  0.857620  0.801930  1.0  -0.4662
  N  N1320  1  0.794400  0.962300  0.824500  1.0  -0.0234
  N  N1321  1  0.301000  0.407100  0.000000  1.0  0.6293
  N  N1322  1  0.801000  0.907100  0.500000  1.0  0.6293
  N  N1323  1  0.699000  0.592900  0.000000  1.0  0.6299
  N  N1324  1  0.199000  0.092900  0.500000  1.0  0.6299
  N  N1325  1  0.699000  0.407100  0.000000  1.0  0.6303
  N  N1326  1  0.199000  0.907100  0.500000  1.0  0.6303
  N  N1327  1  0.301000  0.592900  0.000000  1.0  0.6297
  N  N1328  1  0.801000  0.092900  0.500000  1.0  0.6297
  N  N1329  1  0.000000  0.301000  0.407100  1.0  0.6279
  N  N1330  1  0.500000  0.801000  0.907100  1.0  0.6279
  N  N1331  1  0.000000  0.699000  0.592900  1.0  0.6291
  N  N1332  1  0.500000  0.199000  0.092900  1.0  0.6291
  N  N1333  1  0.000000  0.699000  0.407100  1.0  0.6289
  N  N1334  1  0.500000  0.199000  0.907100  1.0  0.6289
  N  N1335  1  0.000000  0.301000  0.592900  1.0  0.63
  N  N1336  1  0.500000  0.801000  0.092900  1.0  0.63
  N  N1337  1  0.407100  0.000000  0.301000  1.0  0.6375
  N  N1338  1  0.907100  0.500000  0.801000  1.0  0.6375
  N  N1339  1  0.592900  0.000000  0.699000  1.0  0.6377
  N  N1340  1  0.092900  0.500000  0.199000  1.0  0.6377
  N  N1341  1  0.407100  0.000000  0.699000  1.0  0.6362
  N  N1342  1  0.907100  0.500000  0.199000  1.0  0.6362
  N  N1343  1  0.592900  0.000000  0.301000  1.0  0.6363
  N  N1344  1  0.092900  0.500000  0.801000  1.0  0.6363
  N  N1345  1  0.407100  0.301000  0.000000  1.0  0.6303
  N  N1346  1  0.907100  0.801000  0.500000  1.0  0.6303
  N  N1347  1  0.592900  0.699000  0.000000  1.0  0.63
  N  N1348  1  0.092900  0.199000  0.500000  1.0  0.63
  N  N1349  1  0.407100  0.699000  0.000000  1.0  0.6307
  N  N1350  1  0.907100  0.199000  0.500000  1.0  0.6307
  N  N1351  1  0.592900  0.301000  0.000000  1.0  0.6312
  N  N1352  1  0.092900  0.801000  0.500000  1.0  0.6312
  N  N1353  1  0.301000  0.000000  0.592900  1.0  0.6308
  N  N1354  1  0.801000  0.500000  0.092900  1.0  0.6308
  N  N1355  1  0.699000  0.000000  0.407100  1.0  0.6311
  N  N1356  1  0.199000  0.500000  0.907100  1.0  0.6311
  N  N1357  1  0.699000  0.000000  0.592900  1.0  0.6317
  N  N1358  1  0.199000  0.500000  0.092900  1.0  0.6317
  N  N1359  1  0.301000  0.000000  0.407100  1.0  0.6305
  N  N1360  1  0.801000  0.500000  0.907100  1.0  0.6305
  N  N1361  1  0.000000  0.407100  0.699000  1.0  0.6347
  N  N1362  1  0.500000  0.907100  0.199000  1.0  0.6347
  N  N1363  1  0.000000  0.592900  0.301000  1.0  0.634
  N  N1364  1  0.500000  0.092900  0.801000  1.0  0.634
  N  N1365  1  0.000000  0.407100  0.301000  1.0  0.6348
  N  N1366  1  0.500000  0.907100  0.801000  1.0  0.6348
  N  N1367  1  0.000000  0.592900  0.699000  1.0  0.6351
  N  N1368  1  0.500000  0.092900  0.199000  1.0  0.6351
  N  N1369  1  0.339400  0.500000  0.271500  1.0  0.0018
  N  N1370  1  0.839400  0.000000  0.771500  1.0  0.0018
  N  N1371  1  0.660600  0.500000  0.271500  1.0  -0.0032
  N  N1372  1  0.160600  0.000000  0.771500  1.0  -0.0032
  N  N1373  1  0.660600  0.500000  0.728500  1.0  -0.0022
  N  N1374  1  0.160600  0.000000  0.228500  1.0  -0.0022
  N  N1375  1  0.339400  0.500000  0.728500  1.0  0.0006
  N  N1376  1  0.839400  0.000000  0.228500  1.0  0.0006
  N  N1377  1  0.271500  0.339400  0.500000  1.0  -0.004
  N  N1378  1  0.771500  0.839400  0.000000  1.0  -0.004
  N  N1379  1  0.271500  0.660600  0.500000  1.0  0.0025
  N  N1380  1  0.771500  0.160600  0.000000  1.0  0.0025
  N  N1381  1  0.728500  0.660600  0.500000  1.0  0.0064
  N  N1382  1  0.228500  0.160600  0.000000  1.0  0.0064
  N  N1383  1  0.728500  0.339400  0.500000  1.0  0.0002
  N  N1384  1  0.228500  0.839400  0.000000  1.0  0.0002
  N  N1385  1  0.500000  0.271500  0.339400  1.0  -0.0012
  N  N1386  1  0.000000  0.771500  0.839400  1.0  -0.0012
  N  N1387  1  0.500000  0.271500  0.660600  1.0  0.0006
  N  N1388  1  0.000000  0.771500  0.160600  1.0  0.0006
  N  N1389  1  0.500000  0.728500  0.660600  1.0  -0.0022
  N  N1390  1  0.000000  0.228500  0.160600  1.0  -0.0022
  N  N1391  1  0.500000  0.728500  0.339400  1.0  -0.0054
  N  N1392  1  0.000000  0.228500  0.839400  1.0  -0.0054
  N  N1393  1  0.500000  0.339400  0.728500  1.0  -0.0005
  N  N1394  1  0.000000  0.839400  0.228500  1.0  -0.0005
  N  N1395  1  0.500000  0.660600  0.728500  1.0  0.0043
  N  N1396  1  0.000000  0.160600  0.228500  1.0  0.0043
  N  N1397  1  0.500000  0.660600  0.271500  1.0  0.0053
  N  N1398  1  0.000000  0.160600  0.771500  1.0  0.0053
  N  N1399  1  0.500000  0.339400  0.271500  1.0  -0.0012
  N  N1400  1  0.000000  0.839400  0.771500  1.0  -0.0012
  N  N1401  1  0.339400  0.271500  0.500000  1.0  0.0005
  N  N1402  1  0.839400  0.771500  0.000000  1.0  0.0005
  N  N1403  1  0.660600  0.271500  0.500000  1.0  -0.0027
  N  N1404  1  0.160600  0.771500  0.000000  1.0  -0.0027
  N  N1405  1  0.660600  0.728500  0.500000  1.0  -0.0061
  N  N1406  1  0.160600  0.228500  0.000000  1.0  -0.0061
  N  N1407  1  0.339400  0.728500  0.500000  1.0  -0.0029
  N  N1408  1  0.839400  0.228500  0.000000  1.0  -0.0029
  N  N1409  1  0.271500  0.500000  0.660600  1.0  -0.0026
  N  N1410  1  0.771500  0.000000  0.160600  1.0  -0.0026
  N  N1411  1  0.271500  0.500000  0.339400  1.0  -0.0043
  N  N1412  1  0.771500  0.000000  0.839400  1.0  -0.0043
  N  N1413  1  0.728500  0.500000  0.339400  1.0  0.0
  N  N1414  1  0.228500  0.000000  0.839400  1.0  0.0
  N  N1415  1  0.728500  0.500000  0.660600  1.0  0.0021
  N  N1416  1  0.228500  0.000000  0.160600  1.0  0.0021
  O  O1417  1  0.320290  0.413700  0.037830  1.0  -0.4959
  O  O1418  1  0.139000  0.237000  0.037300  1.0  -0.6109
  O  O1419  1  0.820290  0.913700  0.537830  1.0  -0.4959
  O  O1420  1  0.639000  0.737000  0.537300  1.0  -0.612
  O  O1421  1  0.679710  0.586300  0.037830  1.0  -0.4981
  O  O1422  1  0.861000  0.763000  0.037300  1.0  -0.6138
  O  O1423  1  0.179710  0.086300  0.537830  1.0  -0.4981
  O  O1424  1  0.361000  0.263000  0.537300  1.0  -0.614
  O  O1425  1  0.679710  0.413700  0.962170  1.0  -0.4963
  O  O1426  1  0.861000  0.237000  0.962700  1.0  -0.6133
  O  O1427  1  0.179710  0.913700  0.462170  1.0  -0.4963
  O  O1428  1  0.361000  0.737000  0.462700  1.0  -0.6133
  O  O1429  1  0.320290  0.586300  0.962170  1.0  -0.4955
  O  O1430  1  0.139000  0.763000  0.962700  1.0  -0.6183
  O  O1431  1  0.820290  0.086300  0.462170  1.0  -0.4955
  O  O1432  1  0.639000  0.263000  0.462700  1.0  -0.6183
  O  O1433  1  0.037830  0.320290  0.413700  1.0  -0.4957
  O  O1434  1  0.037300  0.139000  0.237000  1.0  -0.6213
  O  O1435  1  0.537830  0.820290  0.913700  1.0  -0.4957
  O  O1436  1  0.537300  0.639000  0.737000  1.0  -0.6217
  O  O1437  1  0.037830  0.679710  0.586300  1.0  -0.4966
  O  O1438  1  0.037300  0.861000  0.763000  1.0  -0.6178
  O  O1439  1  0.537830  0.179710  0.086300  1.0  -0.4966
  O  O1440  1  0.537300  0.361000  0.263000  1.0  -0.6178
  O  O1441  1  0.962170  0.679710  0.413700  1.0  -0.4952
  O  O1442  1  0.962700  0.861000  0.237000  1.0  -0.6189
  O  O1443  1  0.462170  0.179710  0.913700  1.0  -0.4952
  O  O1444  1  0.462700  0.361000  0.737000  1.0  -0.6189
  O  O1445  1  0.962170  0.320290  0.586300  1.0  -0.4945
  O  O1446  1  0.962700  0.139000  0.763000  1.0  -0.6187
  O  O1447  1  0.462170  0.820290  0.086300  1.0  -0.4945
  O  O1448  1  0.462700  0.639000  0.263000  1.0  -0.6187
  O  O1449  1  0.413700  0.037830  0.320290  1.0  -0.4979
  O  O1450  1  0.237000  0.037300  0.139000  1.0  -0.6057
  O  O1451  1  0.913700  0.537830  0.820290  1.0  -0.4979
  O  O1452  1  0.737000  0.537300  0.639000  1.0  -0.6069
  O  O1453  1  0.586300  0.037830  0.679710  1.0  -0.4995
  O  O1454  1  0.763000  0.037300  0.861000  1.0  -0.6101
  O  O1455  1  0.086300  0.537830  0.179710  1.0  -0.4995
  O  O1456  1  0.263000  0.537300  0.361000  1.0  -0.6101
  O  O1457  1  0.413700  0.962170  0.679710  1.0  -0.4999
  O  O1458  1  0.237000  0.962700  0.861000  1.0  -0.6121
  O  O1459  1  0.913700  0.462170  0.179710  1.0  -0.4999
  O  O1460  1  0.737000  0.462700  0.361000  1.0  -0.6121
  O  O1461  1  0.586300  0.962170  0.320290  1.0  -0.4999
  O  O1462  1  0.763000  0.962700  0.139000  1.0  -0.6162
  O  O1463  1  0.086300  0.462170  0.820290  1.0  -0.4999
  O  O1464  1  0.263000  0.462700  0.639000  1.0  -0.6162
  O  O1465  1  0.413700  0.320290  0.962170  1.0  -0.4948
  O  O1466  1  0.237000  0.139000  0.962700  1.0  -0.6126
  O  O1467  1  0.913700  0.820290  0.462170  1.0  -0.4948
  O  O1468  1  0.737000  0.639000  0.462700  1.0  -0.6126
  O  O1469  1  0.586300  0.679710  0.962170  1.0  -0.4963
  O  O1470  1  0.763000  0.861000  0.962700  1.0  -0.613
  O  O1471  1  0.086300  0.179710  0.462170  1.0  -0.4963
  O  O1472  1  0.263000  0.361000  0.462700  1.0  -0.613
  O  O1473  1  0.413700  0.679710  0.037830  1.0  -0.4963
  O  O1474  1  0.237000  0.861000  0.037300  1.0  -0.6125
  O  O1475  1  0.913700  0.179710  0.537830  1.0  -0.4963
  O  O1476  1  0.737000  0.361000  0.537300  1.0  -0.6126
  O  O1477  1  0.586300  0.320290  0.037830  1.0  -0.4967
  O  O1478  1  0.763000  0.139000  0.037300  1.0  -0.6159
  O  O1479  1  0.086300  0.820290  0.537830  1.0  -0.4967
  O  O1480  1  0.263000  0.639000  0.537300  1.0  -0.616
  O  O1481  1  0.320290  0.037830  0.586300  1.0  -0.496
  O  O1482  1  0.139000  0.037300  0.763000  1.0  -0.6087
  O  O1483  1  0.820290  0.537830  0.086300  1.0  -0.496
  O  O1484  1  0.639000  0.537300  0.263000  1.0  -0.6084
  O  O1485  1  0.679710  0.037830  0.413700  1.0  -0.4971
  O  O1486  1  0.861000  0.037300  0.237000  1.0  -0.6078
  O  O1487  1  0.179710  0.537830  0.913700  1.0  -0.4971
  O  O1488  1  0.361000  0.537300  0.737000  1.0  -0.6078
  O  O1489  1  0.679710  0.962170  0.586300  1.0  -0.498
  O  O1490  1  0.861000  0.962700  0.763000  1.0  -0.6148
  O  O1491  1  0.179710  0.462170  0.086300  1.0  -0.498
  O  O1492  1  0.361000  0.462700  0.263000  1.0  -0.6148
  O  O1493  1  0.320290  0.962170  0.413700  1.0  -0.4966
  O  O1494  1  0.139000  0.962700  0.237000  1.0  -0.6144
  O  O1495  1  0.820290  0.462170  0.913700  1.0  -0.4966
  O  O1496  1  0.639000  0.462700  0.737000  1.0  -0.6144
  O  O1497  1  0.037830  0.413700  0.679710  1.0  -0.5
  O  O1498  1  0.037300  0.237000  0.861000  1.0  -0.619
  O  O1499  1  0.537830  0.913700  0.179710  1.0  -0.5
  O  O1500  1  0.537300  0.737000  0.361000  1.0  -0.6193
  O  O1501  1  0.037830  0.586300  0.320290  1.0  -0.4993
  O  O1502  1  0.037300  0.763000  0.139000  1.0  -0.6217
  O  O1503  1  0.537830  0.086300  0.820290  1.0  -0.4993
  O  O1504  1  0.537300  0.263000  0.639000  1.0  -0.6217
  O  O1505  1  0.962170  0.413700  0.320290  1.0  -0.4976
  O  O1506  1  0.962700  0.237000  0.139000  1.0  -0.6212
  O  O1507  1  0.462170  0.913700  0.820290  1.0  -0.4976
  O  O1508  1  0.462700  0.737000  0.639000  1.0  -0.6212
  O  O1509  1  0.962170  0.586300  0.679710  1.0  -0.4986
  O  O1510  1  0.962700  0.763000  0.861000  1.0  -0.6152
  O  O1511  1  0.462170  0.086300  0.179710  1.0  -0.4986
  O  O1512  1  0.462700  0.263000  0.361000  1.0  -0.6152
  O  O1513  1  0.679710  0.586300  0.962170  1.0  -0.4964
  O  O1514  1  0.861000  0.763000  0.962700  1.0  -0.6163
  O  O1515  1  0.179710  0.086300  0.462170  1.0  -0.4964
  O  O1516  1  0.361000  0.263000  0.462700  1.0  -0.6163
  O  O1517  1  0.320290  0.413700  0.962170  1.0  -0.4949
  O  O1518  1  0.139000  0.237000  0.962700  1.0  -0.6158
  O  O1519  1  0.820290  0.913700  0.462170  1.0  -0.4949
  O  O1520  1  0.639000  0.737000  0.462700  1.0  -0.6158
  O  O1521  1  0.320290  0.586300  0.037830  1.0  -0.4962
  O  O1522  1  0.139000  0.763000  0.037300  1.0  -0.6135
  O  O1523  1  0.820290  0.086300  0.537830  1.0  -0.4962
  O  O1524  1  0.639000  0.263000  0.537300  1.0  -0.614
  O  O1525  1  0.679710  0.413700  0.037830  1.0  -0.4975
  O  O1526  1  0.861000  0.237000  0.037300  1.0  -0.6134
  O  O1527  1  0.179710  0.913700  0.537830  1.0  -0.4975
  O  O1528  1  0.361000  0.737000  0.537300  1.0  -0.6132
  O  O1529  1  0.962170  0.679710  0.586300  1.0  -0.4959
  O  O1530  1  0.962700  0.861000  0.763000  1.0  -0.6162
  O  O1531  1  0.462170  0.179710  0.086300  1.0  -0.4959
  O  O1532  1  0.462700  0.361000  0.263000  1.0  -0.6164
  O  O1533  1  0.962170  0.320290  0.413700  1.0  -0.4941
  O  O1534  1  0.962700  0.139000  0.237000  1.0  -0.621
  O  O1535  1  0.462170  0.820290  0.913700  1.0  -0.4941
  O  O1536  1  0.462700  0.639000  0.737000  1.0  -0.621
  O  O1537  1  0.037830  0.320290  0.586300  1.0  -0.496
  O  O1538  1  0.037300  0.139000  0.763000  1.0  -0.6217
  O  O1539  1  0.537830  0.820290  0.086300  1.0  -0.496
  O  O1540  1  0.537300  0.639000  0.263000  1.0  -0.6225
  O  O1541  1  0.037830  0.679710  0.413700  1.0  -0.4965
  O  O1542  1  0.037300  0.861000  0.237000  1.0  -0.6188
  O  O1543  1  0.537830  0.179710  0.913700  1.0  -0.4965
  O  O1544  1  0.537300  0.361000  0.737000  1.0  -0.6196
  O  O1545  1  0.586300  0.962170  0.679710  1.0  -0.5003
  O  O1546  1  0.763000  0.962700  0.861000  1.0  -0.6143
  O  O1547  1  0.086300  0.462170  0.179710  1.0  -0.5003
  O  O1548  1  0.263000  0.462700  0.361000  1.0  -0.6143
  O  O1549  1  0.413700  0.962170  0.320290  1.0  -0.4986
  O  O1550  1  0.237000  0.962700  0.139000  1.0  -0.6131
  O  O1551  1  0.913700  0.462170  0.820290  1.0  -0.4986
  O  O1552  1  0.737000  0.462700  0.639000  1.0  -0.6131
  O  O1553  1  0.586300  0.037830  0.320290  1.0  -0.4995
  O  O1554  1  0.763000  0.037300  0.139000  1.0  -0.6111
  O  O1555  1  0.086300  0.537830  0.820290  1.0  -0.4995
  O  O1556  1  0.263000  0.537300  0.639000  1.0  -0.6117
  O  O1557  1  0.413700  0.037830  0.679710  1.0  -0.4995
  O  O1558  1  0.237000  0.037300  0.861000  1.0  -0.6079
  O  O1559  1  0.913700  0.537830  0.179710  1.0  -0.4995
  O  O1560  1  0.737000  0.537300  0.361000  1.0  -0.6079
  O  O1561  1  0.586300  0.679710  0.037830  1.0  -0.4974
  O  O1562  1  0.763000  0.861000  0.037300  1.0  -0.6149
  O  O1563  1  0.086300  0.179710  0.537830  1.0  -0.4974
  O  O1564  1  0.263000  0.361000  0.537300  1.0  -0.6157
  O  O1565  1  0.413700  0.320290  0.037830  1.0  -0.4953
  O  O1566  1  0.237000  0.139000  0.037300  1.0  -0.613
  O  O1567  1  0.913700  0.820290  0.537830  1.0  -0.4953
  O  O1568  1  0.737000  0.639000  0.537300  1.0  -0.6129
  O  O1569  1  0.586300  0.320290  0.962170  1.0  -0.4959
  O  O1570  1  0.763000  0.139000  0.962700  1.0  -0.6169
  O  O1571  1  0.086300  0.820290  0.462170  1.0  -0.4959
  O  O1572  1  0.263000  0.639000  0.462700  1.0  -0.6169
  O  O1573  1  0.413700  0.679710  0.962170  1.0  -0.4959
  O  O1574  1  0.237000  0.861000  0.962700  1.0  -0.6105
  O  O1575  1  0.913700  0.179710  0.462170  1.0  -0.4959
  O  O1576  1  0.737000  0.361000  0.462700  1.0  -0.6105
  O  O1577  1  0.679710  0.962170  0.413700  1.0  -0.4978
  O  O1578  1  0.861000  0.962700  0.237000  1.0  -0.6159
  O  O1579  1  0.179710  0.462170  0.913700  1.0  -0.4978
  O  O1580  1  0.361000  0.462700  0.737000  1.0  -0.6159
  O  O1581  1  0.320290  0.962170  0.586300  1.0  -0.496
  O  O1582  1  0.139000  0.962700  0.763000  1.0  -0.614
  O  O1583  1  0.820290  0.462170  0.086300  1.0  -0.496
  O  O1584  1  0.639000  0.462700  0.263000  1.0  -0.614
  O  O1585  1  0.320290  0.037830  0.413700  1.0  -0.4965
  O  O1586  1  0.139000  0.037300  0.237000  1.0  -0.6093
  O  O1587  1  0.820290  0.537830  0.913700  1.0  -0.4965
  O  O1588  1  0.639000  0.537300  0.737000  1.0  -0.6094
  O  O1589  1  0.679710  0.037830  0.586300  1.0  -0.4978
  O  O1590  1  0.861000  0.037300  0.763000  1.0  -0.6065
  O  O1591  1  0.179710  0.537830  0.086300  1.0  -0.4978
  O  O1592  1  0.361000  0.537300  0.263000  1.0  -0.6075
  O  O1593  1  0.962170  0.586300  0.320290  1.0  -0.4982
  O  O1594  1  0.962700  0.763000  0.139000  1.0  -0.6236
  O  O1595  1  0.462170  0.086300  0.820290  1.0  -0.4982
  O  O1596  1  0.462700  0.263000  0.639000  1.0  -0.6235
  O  O1597  1  0.962170  0.413700  0.679710  1.0  -0.4979
  O  O1598  1  0.962700  0.237000  0.861000  1.0  -0.6152
  O  O1599  1  0.462170  0.913700  0.179710  1.0  -0.4979
  O  O1600  1  0.462700  0.737000  0.361000  1.0  -0.6152
  O  O1601  1  0.037830  0.586300  0.679710  1.0  -0.4998
  O  O1602  1  0.037300  0.763000  0.861000  1.0  -0.6198
  O  O1603  1  0.537830  0.086300  0.179710  1.0  -0.4998
  O  O1604  1  0.537300  0.263000  0.361000  1.0  -0.6198
  O  O1605  1  0.037830  0.413700  0.320290  1.0  -0.4993
  O  O1606  1  0.037300  0.237000  0.139000  1.0  -0.6195
  O  O1607  1  0.537830  0.913700  0.820290  1.0  -0.4993
  O  O1608  1  0.537300  0.737000  0.639000  1.0  -0.6195
