# generated using pymatgen
data_Zr15H20C80(S7O33)2
_symmetry_space_group_name_H-M   'P 1'
_cell_length_a   53.68000000
_cell_length_b   53.68000000
_cell_length_c   53.68000000
_cell_angle_alpha   90.00000000
_cell_angle_beta   90.00000000
_cell_angle_gamma   90.00000000
_symmetry_Int_Tables_number   1
_chemical_formula_structural   Zr15H20C80(S7O33)2
_chemical_formula_sum   'Zr360 H480 C1920 S336 O1584'
_cell_volume   154681.19603200
_cell_formula_units_Z   24
loop_
 _symmetry_equiv_pos_site_id
 _symmetry_equiv_pos_as_xyz
  1  'x, y, z'
loop_
 _atom_site_type_symbol
 _atom_site_label
 _atom_site_symmetry_multiplicity
 _atom_site_fract_x
 _atom_site_fract_y
 _atom_site_fract_z
 _atom_site_occupancy
 _atom_site_charge
  Zr  Zr1  1  0.362170  0.408710  0.212440  1.0  1.9671
  Zr  Zr2  1  0.332790  0.379570  0.161220  1.0  2.0343
  Zr  Zr3  1  0.862170  0.908710  0.712440  1.0  1.9671
  Zr  Zr4  1  0.832790  0.879570  0.661220  1.0  2.0343
  Zr  Zr5  1  0.637830  0.591290  0.212440  1.0  1.9668
  Zr  Zr6  1  0.667210  0.620430  0.161220  1.0  2.0327
  Zr  Zr7  1  0.137830  0.091290  0.712440  1.0  1.9668
  Zr  Zr8  1  0.167210  0.120430  0.661220  1.0  2.0327
  Zr  Zr9  1  0.637830  0.408710  0.787560  1.0  1.9663
  Zr  Zr10  1  0.667210  0.379570  0.838780  1.0  2.0322
  Zr  Zr11  1  0.137830  0.908710  0.287560  1.0  1.9663
  Zr  Zr12  1  0.167210  0.879570  0.338780  1.0  2.0322
  Zr  Zr13  1  0.362170  0.591290  0.787560  1.0  1.9675
  Zr  Zr14  1  0.332790  0.620430  0.838780  1.0  2.0336
  Zr  Zr15  1  0.862170  0.091290  0.287560  1.0  1.9675
  Zr  Zr16  1  0.832790  0.120430  0.338780  1.0  2.0336
  Zr  Zr17  1  0.212440  0.362170  0.408710  1.0  1.968
  Zr  Zr18  1  0.161220  0.332790  0.379570  1.0  2.0313
  Zr  Zr19  1  0.712440  0.862170  0.908710  1.0  1.968
  Zr  Zr20  1  0.661220  0.832790  0.879570  1.0  2.0313
  Zr  Zr21  1  0.212440  0.637830  0.591290  1.0  1.9659
  Zr  Zr22  1  0.161220  0.667210  0.620430  1.0  2.0324
  Zr  Zr23  1  0.712440  0.137830  0.091290  1.0  1.9659
  Zr  Zr24  1  0.661220  0.167210  0.120430  1.0  2.0324
  Zr  Zr25  1  0.787560  0.637830  0.408710  1.0  1.9716
  Zr  Zr26  1  0.838780  0.667210  0.379570  1.0  2.0307
  Zr  Zr27  1  0.287560  0.137830  0.908710  1.0  1.9716
  Zr  Zr28  1  0.338780  0.167210  0.879570  1.0  2.0307
  Zr  Zr29  1  0.787560  0.362170  0.591290  1.0  1.9702
  Zr  Zr30  1  0.838780  0.332790  0.620430  1.0  2.0327
  Zr  Zr31  1  0.287560  0.862170  0.091290  1.0  1.9702
  Zr  Zr32  1  0.338780  0.832790  0.120430  1.0  2.0327
  Zr  Zr33  1  0.408710  0.212440  0.362170  1.0  1.9685
  Zr  Zr34  1  0.379570  0.161220  0.332790  1.0  2.0329
  Zr  Zr35  1  0.908710  0.712440  0.862170  1.0  1.9685
  Zr  Zr36  1  0.879570  0.661220  0.832790  1.0  2.0329
  Zr  Zr37  1  0.591290  0.212440  0.637830  1.0  1.9719
  Zr  Zr38  1  0.620430  0.161220  0.667210  1.0  2.0335
  Zr  Zr39  1  0.091290  0.712440  0.137830  1.0  1.9719
  Zr  Zr40  1  0.120430  0.661220  0.167210  1.0  2.0335
  Zr  Zr41  1  0.408710  0.787560  0.637830  1.0  1.9679
  Zr  Zr42  1  0.379570  0.838780  0.667210  1.0  2.0326
  Zr  Zr43  1  0.908710  0.287560  0.137830  1.0  1.9679
  Zr  Zr44  1  0.879570  0.338780  0.167210  1.0  2.0326
  Zr  Zr45  1  0.591290  0.787560  0.362170  1.0  1.9735
  Zr  Zr46  1  0.620430  0.838780  0.332790  1.0  2.034
  Zr  Zr47  1  0.091290  0.287560  0.862170  1.0  1.9735
  Zr  Zr48  1  0.120430  0.338780  0.832790  1.0  2.034
  Zr  Zr49  1  0.408710  0.362170  0.787560  1.0  1.9637
  Zr  Zr50  1  0.379570  0.332790  0.838780  1.0  2.0327
  Zr  Zr51  1  0.908710  0.862170  0.287560  1.0  1.9637
  Zr  Zr52  1  0.879570  0.832790  0.338780  1.0  2.0327
  Zr  Zr53  1  0.591290  0.637830  0.787560  1.0  1.9689
  Zr  Zr54  1  0.620430  0.667210  0.838780  1.0  2.0331
  Zr  Zr55  1  0.091290  0.137830  0.287560  1.0  1.9689
  Zr  Zr56  1  0.120430  0.167210  0.338780  1.0  2.0331
  Zr  Zr57  1  0.408710  0.637830  0.212440  1.0  1.9644
  Zr  Zr58  1  0.379570  0.667210  0.161220  1.0  2.0334
  Zr  Zr59  1  0.908710  0.137830  0.712440  1.0  1.9644
  Zr  Zr60  1  0.879570  0.167210  0.661220  1.0  2.0334
  Zr  Zr61  1  0.591290  0.362170  0.212440  1.0  1.9694
  Zr  Zr62  1  0.620430  0.332790  0.161220  1.0  2.0349
  Zr  Zr63  1  0.091290  0.862170  0.712440  1.0  1.9694
  Zr  Zr64  1  0.120430  0.832790  0.661220  1.0  2.0349
  Zr  Zr65  1  0.362170  0.212440  0.591290  1.0  1.9668
  Zr  Zr66  1  0.332790  0.161220  0.620430  1.0  2.0334
  Zr  Zr67  1  0.862170  0.712440  0.091290  1.0  1.9668
  Zr  Zr68  1  0.832790  0.661220  0.120430  1.0  2.0334
  Zr  Zr69  1  0.637830  0.212440  0.408710  1.0  1.9698
  Zr  Zr70  1  0.667210  0.161220  0.379570  1.0  2.0296
  Zr  Zr71  1  0.137830  0.712440  0.908710  1.0  1.9698
  Zr  Zr72  1  0.167210  0.661220  0.879570  1.0  2.0296
  Zr  Zr73  1  0.637830  0.787560  0.591290  1.0  1.9684
  Zr  Zr74  1  0.667210  0.838780  0.620430  1.0  2.0312
  Zr  Zr75  1  0.137830  0.287560  0.091290  1.0  1.9684
  Zr  Zr76  1  0.167210  0.338780  0.120430  1.0  2.0312
  Zr  Zr77  1  0.362170  0.787560  0.408710  1.0  1.9688
  Zr  Zr78  1  0.332790  0.838780  0.379570  1.0  2.0314
  Zr  Zr79  1  0.862170  0.287560  0.908710  1.0  1.9688
  Zr  Zr80  1  0.832790  0.338780  0.879570  1.0  2.0314
  Zr  Zr81  1  0.212440  0.408710  0.637830  1.0  1.9707
  Zr  Zr82  1  0.161220  0.379570  0.667210  1.0  2.0325
  Zr  Zr83  1  0.712440  0.908710  0.137830  1.0  1.9707
  Zr  Zr84  1  0.661220  0.879570  0.167210  1.0  2.0325
  Zr  Zr85  1  0.212440  0.591290  0.362170  1.0  1.9708
  Zr  Zr86  1  0.161220  0.620430  0.332790  1.0  2.0332
  Zr  Zr87  1  0.712440  0.091290  0.862170  1.0  1.9708
  Zr  Zr88  1  0.661220  0.120430  0.832790  1.0  2.0332
  Zr  Zr89  1  0.787560  0.408710  0.362170  1.0  1.973
  Zr  Zr90  1  0.838780  0.379570  0.332790  1.0  2.0331
  Zr  Zr91  1  0.287560  0.908710  0.862170  1.0  1.973
  Zr  Zr92  1  0.338780  0.879570  0.832790  1.0  2.0331
  Zr  Zr93  1  0.787560  0.591290  0.637830  1.0  1.9736
  Zr  Zr94  1  0.838780  0.620430  0.667210  1.0  2.0331
  Zr  Zr95  1  0.287560  0.091290  0.137830  1.0  1.9736
  Zr  Zr96  1  0.338780  0.120430  0.167210  1.0  2.0331
  Zr  Zr97  1  0.637830  0.591290  0.787560  1.0  1.9672
  Zr  Zr98  1  0.667210  0.620430  0.838780  1.0  2.0319
  Zr  Zr99  1  0.137830  0.091290  0.287560  1.0  1.9672
  Zr  Zr100  1  0.167210  0.120430  0.338780  1.0  2.0319
  Zr  Zr101  1  0.362170  0.408710  0.787560  1.0  1.9663
  Zr  Zr102  1  0.332790  0.379570  0.838780  1.0  2.0334
  Zr  Zr103  1  0.862170  0.908710  0.287560  1.0  1.9663
  Zr  Zr104  1  0.832790  0.879570  0.338780  1.0  2.0334
  Zr  Zr105  1  0.362170  0.591290  0.212440  1.0  1.9666
  Zr  Zr106  1  0.332790  0.620430  0.161220  1.0  2.0345
  Zr  Zr107  1  0.862170  0.091290  0.712440  1.0  1.9666
  Zr  Zr108  1  0.832790  0.120430  0.661220  1.0  2.0345
  Zr  Zr109  1  0.637830  0.408710  0.212440  1.0  1.9674
  Zr  Zr110  1  0.667210  0.379570  0.161220  1.0  2.0332
  Zr  Zr111  1  0.137830  0.908710  0.712440  1.0  1.9674
  Zr  Zr112  1  0.167210  0.879570  0.661220  1.0  2.0332
  Zr  Zr113  1  0.787560  0.637830  0.591290  1.0  1.97
  Zr  Zr114  1  0.838780  0.667210  0.620430  1.0  2.032
  Zr  Zr115  1  0.287560  0.137830  0.091290  1.0  1.97
  Zr  Zr116  1  0.338780  0.167210  0.120430  1.0  2.032
  Zr  Zr117  1  0.787560  0.362170  0.408710  1.0  1.9706
  Zr  Zr118  1  0.838780  0.332790  0.379570  1.0  2.0315
  Zr  Zr119  1  0.287560  0.862170  0.908710  1.0  1.9706
  Zr  Zr120  1  0.338780  0.832790  0.879570  1.0  2.0315
  Zr  Zr121  1  0.212440  0.362170  0.591290  1.0  1.9662
  Zr  Zr122  1  0.161220  0.332790  0.620430  1.0  2.0331
  Zr  Zr123  1  0.712440  0.862170  0.091290  1.0  1.9662
  Zr  Zr124  1  0.661220  0.832790  0.120430  1.0  2.0331
  Zr  Zr125  1  0.212440  0.637830  0.408710  1.0  1.9693
  Zr  Zr126  1  0.161220  0.667210  0.379570  1.0  2.0304
  Zr  Zr127  1  0.712440  0.137830  0.908710  1.0  1.9693
  Zr  Zr128  1  0.661220  0.167210  0.879570  1.0  2.0304
  Zr  Zr129  1  0.591290  0.787560  0.637830  1.0  1.9734
  Zr  Zr130  1  0.620430  0.838780  0.667210  1.0  2.0343
  Zr  Zr131  1  0.091290  0.287560  0.137830  1.0  1.9734
  Zr  Zr132  1  0.120430  0.338780  0.167210  1.0  2.0343
  Zr  Zr133  1  0.408710  0.787560  0.362170  1.0  1.9683
  Zr  Zr134  1  0.379570  0.838780  0.332790  1.0  2.0327
  Zr  Zr135  1  0.908710  0.287560  0.862170  1.0  1.9683
  Zr  Zr136  1  0.879570  0.338780  0.832790  1.0  2.0327
  Zr  Zr137  1  0.591290  0.212440  0.362170  1.0  1.9722
  Zr  Zr138  1  0.620430  0.161220  0.332790  1.0  2.0337
  Zr  Zr139  1  0.091290  0.712440  0.862170  1.0  1.9722
  Zr  Zr140  1  0.120430  0.661220  0.832790  1.0  2.0337
  Zr  Zr141  1  0.408710  0.212440  0.637830  1.0  1.968
  Zr  Zr142  1  0.379570  0.161220  0.667210  1.0  2.0322
  Zr  Zr143  1  0.908710  0.712440  0.137830  1.0  1.968
  Zr  Zr144  1  0.879570  0.661220  0.167210  1.0  2.0322
  Zr  Zr145  1  0.591290  0.637830  0.212440  1.0  1.9698
  Zr  Zr146  1  0.620430  0.667210  0.161220  1.0  2.0342
  Zr  Zr147  1  0.091290  0.137830  0.712440  1.0  1.9698
  Zr  Zr148  1  0.120430  0.167210  0.661220  1.0  2.0342
  Zr  Zr149  1  0.408710  0.362170  0.212440  1.0  1.9638
  Zr  Zr150  1  0.379570  0.332790  0.161220  1.0  2.0337
  Zr  Zr151  1  0.908710  0.862170  0.712440  1.0  1.9638
  Zr  Zr152  1  0.879570  0.832790  0.661220  1.0  2.0337
  Zr  Zr153  1  0.591290  0.362170  0.787560  1.0  1.9686
  Zr  Zr154  1  0.620430  0.332790  0.838780  1.0  2.0339
  Zr  Zr155  1  0.091290  0.862170  0.287560  1.0  1.9686
  Zr  Zr156  1  0.120430  0.832790  0.338780  1.0  2.0339
  Zr  Zr157  1  0.408710  0.637830  0.787560  1.0  1.9641
  Zr  Zr158  1  0.379570  0.667210  0.838780  1.0  2.0324
  Zr  Zr159  1  0.908710  0.137830  0.287560  1.0  1.9641
  Zr  Zr160  1  0.879570  0.167210  0.338780  1.0  2.0324
  Zr  Zr161  1  0.637830  0.787560  0.408710  1.0  1.9691
  Zr  Zr162  1  0.667210  0.838780  0.379570  1.0  2.0303
  Zr  Zr163  1  0.137830  0.287560  0.908710  1.0  1.9691
  Zr  Zr164  1  0.167210  0.338780  0.879570  1.0  2.0303
  Zr  Zr165  1  0.362170  0.787560  0.591290  1.0  1.9689
  Zr  Zr166  1  0.332790  0.838780  0.620430  1.0  2.0335
  Zr  Zr167  1  0.862170  0.287560  0.091290  1.0  1.9689
  Zr  Zr168  1  0.832790  0.338780  0.120430  1.0  2.0335
  Zr  Zr169  1  0.362170  0.212440  0.408710  1.0  1.9687
  Zr  Zr170  1  0.332790  0.161220  0.379570  1.0  2.0308
  Zr  Zr171  1  0.862170  0.712440  0.908710  1.0  1.9687
  Zr  Zr172  1  0.832790  0.661220  0.879570  1.0  2.0308
  Zr  Zr173  1  0.637830  0.212440  0.591290  1.0  1.9666
  Zr  Zr174  1  0.667210  0.161220  0.620430  1.0  2.0312
  Zr  Zr175  1  0.137830  0.712440  0.091290  1.0  1.9666
  Zr  Zr176  1  0.167210  0.661220  0.120430  1.0  2.0312
  Zr  Zr177  1  0.787560  0.591290  0.362170  1.0  1.9735
  Zr  Zr178  1  0.838780  0.620430  0.332790  1.0  2.0333
  Zr  Zr179  1  0.287560  0.091290  0.862170  1.0  1.9735
  Zr  Zr180  1  0.338780  0.120430  0.832790  1.0  2.0333
  Zr  Zr181  1  0.787560  0.408710  0.637830  1.0  1.973
  Zr  Zr182  1  0.838780  0.379570  0.667210  1.0  2.0327
  Zr  Zr183  1  0.287560  0.908710  0.137830  1.0  1.973
  Zr  Zr184  1  0.338780  0.879570  0.167210  1.0  2.0327
  Zr  Zr185  1  0.212440  0.591290  0.637830  1.0  1.9708
  Zr  Zr186  1  0.161220  0.620430  0.667210  1.0  2.0329
  Zr  Zr187  1  0.712440  0.091290  0.137830  1.0  1.9708
  Zr  Zr188  1  0.661220  0.120430  0.167210  1.0  2.0329
  Zr  Zr189  1  0.212440  0.408710  0.362170  1.0  1.9708
  Zr  Zr190  1  0.161220  0.379570  0.332790  1.0  2.033
  Zr  Zr191  1  0.712440  0.908710  0.862170  1.0  1.9708
  Zr  Zr192  1  0.661220  0.879570  0.832790  1.0  2.033
  Zr  Zr193  1  0.345680  0.345680  0.216070  1.0  2.079
  Zr  Zr194  1  0.395670  0.395670  0.157420  1.0  2.0957
  Zr  Zr195  1  0.845680  0.845680  0.716070  1.0  2.079
  Zr  Zr196  1  0.895670  0.895670  0.657420  1.0  2.0957
  Zr  Zr197  1  0.654320  0.654320  0.216070  1.0  2.0802
  Zr  Zr198  1  0.604330  0.604330  0.157420  1.0  2.0922
  Zr  Zr199  1  0.154320  0.154320  0.716070  1.0  2.0802
  Zr  Zr200  1  0.104330  0.104330  0.657420  1.0  2.0922
  Zr  Zr201  1  0.654320  0.345680  0.783930  1.0  2.0799
  Zr  Zr202  1  0.604330  0.395670  0.842580  1.0  2.0934
  Zr  Zr203  1  0.154320  0.845680  0.283930  1.0  2.0799
  Zr  Zr204  1  0.104330  0.895670  0.342580  1.0  2.0934
  Zr  Zr205  1  0.345680  0.654320  0.783930  1.0  2.0791
  Zr  Zr206  1  0.395670  0.604330  0.842580  1.0  2.0951
  Zr  Zr207  1  0.845680  0.154320  0.283930  1.0  2.0791
  Zr  Zr208  1  0.895670  0.104330  0.342580  1.0  2.0951
  Zr  Zr209  1  0.216070  0.345680  0.345680  1.0  2.0787
  Zr  Zr210  1  0.157420  0.395670  0.395670  1.0  2.097
  Zr  Zr211  1  0.716070  0.845680  0.845680  1.0  2.0787
  Zr  Zr212  1  0.657420  0.895670  0.895670  1.0  2.097
  Zr  Zr213  1  0.216070  0.654320  0.654320  1.0  2.0787
  Zr  Zr214  1  0.157420  0.604330  0.604330  1.0  2.0961
  Zr  Zr215  1  0.716070  0.154320  0.154320  1.0  2.0787
  Zr  Zr216  1  0.657420  0.104330  0.104330  1.0  2.0961
  Zr  Zr217  1  0.783930  0.654320  0.345680  1.0  2.0798
  Zr  Zr218  1  0.842580  0.604330  0.395670  1.0  2.0956
  Zr  Zr219  1  0.283930  0.154320  0.845680  1.0  2.0798
  Zr  Zr220  1  0.342580  0.104330  0.895670  1.0  2.0956
  Zr  Zr221  1  0.783930  0.345680  0.654320  1.0  2.0815
  Zr  Zr222  1  0.842580  0.395670  0.604330  1.0  2.0941
  Zr  Zr223  1  0.283930  0.845680  0.154320  1.0  2.0815
  Zr  Zr224  1  0.342580  0.895670  0.104330  1.0  2.0941
  Zr  Zr225  1  0.345680  0.216070  0.345680  1.0  2.0785
  Zr  Zr226  1  0.395670  0.157420  0.395670  1.0  2.0967
  Zr  Zr227  1  0.845680  0.716070  0.845680  1.0  2.0785
  Zr  Zr228  1  0.895670  0.657420  0.895670  1.0  2.0967
  Zr  Zr229  1  0.654320  0.216070  0.654320  1.0  2.0795
  Zr  Zr230  1  0.604330  0.157420  0.604330  1.0  2.0936
  Zr  Zr231  1  0.154320  0.716070  0.154320  1.0  2.0795
  Zr  Zr232  1  0.104330  0.657420  0.104330  1.0  2.0936
  Zr  Zr233  1  0.345680  0.783930  0.654320  1.0  2.0824
  Zr  Zr234  1  0.395670  0.842580  0.604330  1.0  2.0939
  Zr  Zr235  1  0.845680  0.283930  0.154320  1.0  2.0824
  Zr  Zr236  1  0.895670  0.342580  0.104330  1.0  2.0939
  Zr  Zr237  1  0.654320  0.783930  0.345680  1.0  2.0832
  Zr  Zr238  1  0.604330  0.842580  0.395670  1.0  2.0934
  Zr  Zr239  1  0.154320  0.283930  0.845680  1.0  2.0832
  Zr  Zr240  1  0.104330  0.342580  0.895670  1.0  2.0934
  Zr  Zr241  1  0.345680  0.345680  0.783930  1.0  2.0784
  Zr  Zr242  1  0.395670  0.395670  0.842580  1.0  2.0956
  Zr  Zr243  1  0.845680  0.845680  0.283930  1.0  2.0784
  Zr  Zr244  1  0.895670  0.895670  0.342580  1.0  2.0956
  Zr  Zr245  1  0.654320  0.654320  0.783930  1.0  2.0796
  Zr  Zr246  1  0.604330  0.604330  0.842580  1.0  2.0923
  Zr  Zr247  1  0.154320  0.154320  0.283930  1.0  2.0796
  Zr  Zr248  1  0.104330  0.104330  0.342580  1.0  2.0923
  Zr  Zr249  1  0.345680  0.654320  0.216070  1.0  2.0796
  Zr  Zr250  1  0.395670  0.604330  0.157420  1.0  2.0952
  Zr  Zr251  1  0.845680  0.154320  0.716070  1.0  2.0796
  Zr  Zr252  1  0.895670  0.104330  0.657420  1.0  2.0952
  Zr  Zr253  1  0.654320  0.345680  0.216070  1.0  2.0803
  Zr  Zr254  1  0.604330  0.395670  0.157420  1.0  2.0931
  Zr  Zr255  1  0.154320  0.845680  0.716070  1.0  2.0803
  Zr  Zr256  1  0.104330  0.895670  0.657420  1.0  2.0931
  Zr  Zr257  1  0.345680  0.216070  0.654320  1.0  2.0791
  Zr  Zr258  1  0.395670  0.157420  0.604330  1.0  2.0951
  Zr  Zr259  1  0.845680  0.716070  0.154320  1.0  2.0791
  Zr  Zr260  1  0.895670  0.657420  0.104330  1.0  2.0951
  Zr  Zr261  1  0.654320  0.216070  0.345680  1.0  2.079
  Zr  Zr262  1  0.604330  0.157420  0.395670  1.0  2.0955
  Zr  Zr263  1  0.154320  0.716070  0.845680  1.0  2.079
  Zr  Zr264  1  0.104330  0.657420  0.895670  1.0  2.0955
  Zr  Zr265  1  0.654320  0.783930  0.654320  1.0  2.0838
  Zr  Zr266  1  0.604330  0.842580  0.604330  1.0  2.09
  Zr  Zr267  1  0.154320  0.283930  0.154320  1.0  2.0838
  Zr  Zr268  1  0.104330  0.342580  0.104330  1.0  2.09
  Zr  Zr269  1  0.345680  0.783930  0.345680  1.0  2.0816
  Zr  Zr270  1  0.395670  0.842580  0.395670  1.0  2.0953
  Zr  Zr271  1  0.845680  0.283930  0.845680  1.0  2.0816
  Zr  Zr272  1  0.895670  0.342580  0.895670  1.0  2.0953
  Zr  Zr273  1  0.216070  0.345680  0.654320  1.0  2.0791
  Zr  Zr274  1  0.157420  0.395670  0.604330  1.0  2.0949
  Zr  Zr275  1  0.716070  0.845680  0.154320  1.0  2.0791
  Zr  Zr276  1  0.657420  0.895670  0.104330  1.0  2.0949
  Zr  Zr277  1  0.216070  0.654320  0.345680  1.0  2.0782
  Zr  Zr278  1  0.157420  0.604330  0.395670  1.0  2.0969
  Zr  Zr279  1  0.716070  0.154320  0.845680  1.0  2.0782
  Zr  Zr280  1  0.657420  0.104330  0.895670  1.0  2.0969
  Zr  Zr281  1  0.783930  0.345680  0.345680  1.0  2.0806
  Zr  Zr282  1  0.842580  0.395670  0.395670  1.0  2.0951
  Zr  Zr283  1  0.283930  0.845680  0.845680  1.0  2.0806
  Zr  Zr284  1  0.342580  0.895670  0.895670  1.0  2.0951
  Zr  Zr285  1  0.783930  0.654320  0.654320  1.0  2.0808
  Zr  Zr286  1  0.842580  0.604330  0.604330  1.0  2.0926
  Zr  Zr287  1  0.283930  0.154320  0.154320  1.0  2.0808
  Zr  Zr288  1  0.342580  0.104330  0.104330  1.0  2.0926
  Zr  Zr289  1  0.250000  0.467030  0.032970  1.0  1.9984
  Zr  Zr290  1  0.750000  0.532970  0.032970  1.0  2.0
  Zr  Zr291  1  0.750000  0.467030  0.967030  1.0  2.0001
  Zr  Zr292  1  0.250000  0.532970  0.967030  1.0  1.999
  Zr  Zr293  1  0.032970  0.250000  0.467030  1.0  1.9982
  Zr  Zr294  1  0.032970  0.750000  0.532970  1.0  1.9982
  Zr  Zr295  1  0.967030  0.750000  0.467030  1.0  1.9994
  Zr  Zr296  1  0.967030  0.250000  0.532970  1.0  1.9985
  Zr  Zr297  1  0.467030  0.032970  0.250000  1.0  2.0039
  Zr  Zr298  1  0.532970  0.032970  0.750000  1.0  2.0036
  Zr  Zr299  1  0.467030  0.967030  0.750000  1.0  2.0043
  Zr  Zr300  1  0.532970  0.967030  0.250000  1.0  2.0043
  Zr  Zr301  1  0.467030  0.250000  0.967030  1.0  1.9994
  Zr  Zr302  1  0.532970  0.750000  0.967030  1.0  1.9982
  Zr  Zr303  1  0.467030  0.750000  0.032970  1.0  1.9985
  Zr  Zr304  1  0.532970  0.250000  0.032970  1.0  1.9982
  Zr  Zr305  1  0.250000  0.032970  0.532970  1.0  2.0
  Zr  Zr306  1  0.750000  0.032970  0.467030  1.0  1.999
  Zr  Zr307  1  0.750000  0.967030  0.532970  1.0  1.9984
  Zr  Zr308  1  0.250000  0.967030  0.467030  1.0  2.0001
  Zr  Zr309  1  0.032970  0.467030  0.750000  1.0  2.0043
  Zr  Zr310  1  0.032970  0.532970  0.250000  1.0  2.0036
  Zr  Zr311  1  0.967030  0.467030  0.250000  1.0  2.0043
  Zr  Zr312  1  0.967030  0.532970  0.750000  1.0  2.0039
  Zr  Zr313  1  0.750000  0.532970  0.967030  1.0  1.999
  Zr  Zr314  1  0.250000  0.032970  0.467030  1.0  1.999
  Zr  Zr315  1  0.250000  0.467030  0.967030  1.0  2.0001
  Zr  Zr316  1  0.250000  0.532970  0.032970  1.0  2.0
  Zr  Zr317  1  0.750000  0.467030  0.032970  1.0  1.9984
  Zr  Zr318  1  0.967030  0.750000  0.532970  1.0  1.9985
  Zr  Zr319  1  0.467030  0.250000  0.032970  1.0  1.9985
  Zr  Zr320  1  0.967030  0.250000  0.467030  1.0  1.9994
  Zr  Zr321  1  0.032970  0.250000  0.532970  1.0  1.9982
  Zr  Zr322  1  0.032970  0.750000  0.467030  1.0  1.9982
  Zr  Zr323  1  0.532970  0.967030  0.750000  1.0  2.0043
  Zr  Zr324  1  0.032970  0.467030  0.250000  1.0  2.0043
  Zr  Zr325  1  0.467030  0.967030  0.250000  1.0  2.0043
  Zr  Zr326  1  0.532970  0.032970  0.250000  1.0  2.0036
  Zr  Zr327  1  0.467030  0.032970  0.750000  1.0  2.0039
  Zr  Zr328  1  0.532970  0.750000  0.032970  1.0  1.9982
  Zr  Zr329  1  0.532970  0.250000  0.967030  1.0  1.9982
  Zr  Zr330  1  0.467030  0.750000  0.967030  1.0  1.9994
  Zr  Zr331  1  0.750000  0.967030  0.467030  1.0  2.0001
  Zr  Zr332  1  0.250000  0.967030  0.532970  1.0  1.9984
  Zr  Zr333  1  0.750000  0.032970  0.532970  1.0  2.0
  Zr  Zr334  1  0.967030  0.532970  0.250000  1.0  2.0039
  Zr  Zr335  1  0.967030  0.467030  0.750000  1.0  2.0043
  Zr  Zr336  1  0.032970  0.532970  0.750000  1.0  2.0036
  Zr  Zr337  1  0.295960  0.500000  0.000000  1.0  2.0757
  Zr  Zr338  1  0.795960  0.000000  0.500000  1.0  2.0757
  Zr  Zr339  1  0.704040  0.500000  0.000000  1.0  2.0717
  Zr  Zr340  1  0.204040  0.000000  0.500000  1.0  2.0717
  Zr  Zr341  1  0.000000  0.295960  0.500000  1.0  2.0743
  Zr  Zr342  1  0.500000  0.795960  0.000000  1.0  2.0743
  Zr  Zr343  1  0.000000  0.704040  0.500000  1.0  2.0793
  Zr  Zr344  1  0.500000  0.204040  0.000000  1.0  2.0793
  Zr  Zr345  1  0.500000  0.000000  0.295960  1.0  2.0788
  Zr  Zr346  1  0.000000  0.500000  0.795960  1.0  2.0788
  Zr  Zr347  1  0.500000  0.000000  0.704040  1.0  2.0769
  Zr  Zr348  1  0.000000  0.500000  0.204040  1.0  2.0769
  Zr  Zr349  1  0.500000  0.295960  0.000000  1.0  2.0744
  Zr  Zr350  1  0.000000  0.795960  0.500000  1.0  2.0744
  Zr  Zr351  1  0.500000  0.704040  0.000000  1.0  2.0755
  Zr  Zr352  1  0.000000  0.204040  0.500000  1.0  2.0755
  Zr  Zr353  1  0.295960  0.000000  0.500000  1.0  2.0756
  Zr  Zr354  1  0.795960  0.500000  0.000000  1.0  2.0756
  Zr  Zr355  1  0.704040  0.000000  0.500000  1.0  2.072
  Zr  Zr356  1  0.204040  0.500000  0.000000  1.0  2.072
  Zr  Zr357  1  0.000000  0.500000  0.704040  1.0  2.0775
  Zr  Zr358  1  0.500000  0.000000  0.204040  1.0  2.0775
  Zr  Zr359  1  0.000000  0.500000  0.295960  1.0  2.0793
  Zr  Zr360  1  0.500000  0.000000  0.795960  1.0  2.0793
  H  H361  1  0.383700  0.446600  0.084900  1.0  0.1147
  H  H362  1  0.361700  0.469000  0.051100  1.0  0.1173
  H  H363  1  0.269500  0.302700  0.213500  1.0  0.1069
  H  H364  1  0.315900  0.427600  0.284000  1.0  0.1324
  H  H365  1  0.414400  0.477100  0.140500  1.0  0.1121
  H  H366  1  0.883700  0.946600  0.584900  1.0  0.1147
  H  H367  1  0.861700  0.969000  0.551100  1.0  0.1173
  H  H368  1  0.769500  0.802700  0.713500  1.0  0.1069
  H  H369  1  0.815900  0.927600  0.784000  1.0  0.1324
  H  H370  1  0.914400  0.977100  0.640500  1.0  0.1121
  H  H371  1  0.616300  0.553400  0.084900  1.0  0.116
  H  H372  1  0.638300  0.531000  0.051100  1.0  0.1165
  H  H373  1  0.730500  0.697300  0.213500  1.0  0.1066
  H  H374  1  0.684100  0.572400  0.284000  1.0  0.1339
  H  H375  1  0.585600  0.522900  0.140500  1.0  0.1115
  H  H376  1  0.116300  0.053400  0.584900  1.0  0.116
  H  H377  1  0.138300  0.031000  0.551100  1.0  0.1165
  H  H378  1  0.230500  0.197300  0.713500  1.0  0.1066
  H  H379  1  0.184100  0.072400  0.784000  1.0  0.1339
  H  H380  1  0.085600  0.022900  0.640500  1.0  0.1115
  H  H381  1  0.616300  0.446600  0.915100  1.0  0.1158
  H  H382  1  0.638300  0.469000  0.948900  1.0  0.1165
  H  H383  1  0.730500  0.302700  0.786500  1.0  0.1063
  H  H384  1  0.684100  0.427600  0.716000  1.0  0.1323
  H  H385  1  0.585600  0.477100  0.859500  1.0  0.1118
  H  H386  1  0.116300  0.946600  0.415100  1.0  0.1158
  H  H387  1  0.138300  0.969000  0.448900  1.0  0.1165
  H  H388  1  0.230500  0.802700  0.286500  1.0  0.1063
  H  H389  1  0.184100  0.927600  0.216000  1.0  0.1323
  H  H390  1  0.085600  0.977100  0.359500  1.0  0.1118
  H  H391  1  0.383700  0.553400  0.915100  1.0  0.1148
  H  H392  1  0.361700  0.531000  0.948900  1.0  0.1165
  H  H393  1  0.269500  0.697300  0.786500  1.0  0.1066
  H  H394  1  0.315900  0.572400  0.716000  1.0  0.1323
  H  H395  1  0.414400  0.522900  0.859500  1.0  0.111
  H  H396  1  0.883700  0.053400  0.415100  1.0  0.1148
  H  H397  1  0.861700  0.031000  0.448900  1.0  0.1165
  H  H398  1  0.769500  0.197300  0.286500  1.0  0.1066
  H  H399  1  0.815900  0.072400  0.216000  1.0  0.1323
  H  H400  1  0.914400  0.022900  0.359500  1.0  0.111
  H  H401  1  0.084900  0.383700  0.446600  1.0  0.1153
  H  H402  1  0.051100  0.361700  0.469000  1.0  0.1157
  H  H403  1  0.213500  0.269500  0.302700  1.0  0.1055
  H  H404  1  0.284000  0.315900  0.427600  1.0  0.1319
  H  H405  1  0.140500  0.414400  0.477100  1.0  0.1107
  H  H406  1  0.584900  0.883700  0.946600  1.0  0.1153
  H  H407  1  0.551100  0.861700  0.969000  1.0  0.1157
  H  H408  1  0.713500  0.769500  0.802700  1.0  0.1055
  H  H409  1  0.784000  0.815900  0.927600  1.0  0.1319
  H  H410  1  0.640500  0.914400  0.977100  1.0  0.1107
  H  H411  1  0.084900  0.616300  0.553400  1.0  0.1152
  H  H412  1  0.051100  0.638300  0.531000  1.0  0.1162
  H  H413  1  0.213500  0.730500  0.697300  1.0  0.1058
  H  H414  1  0.284000  0.684100  0.572400  1.0  0.1305
  H  H415  1  0.140500  0.585600  0.522900  1.0  0.1108
  H  H416  1  0.584900  0.116300  0.053400  1.0  0.1152
  H  H417  1  0.551100  0.138300  0.031000  1.0  0.1162
  H  H418  1  0.713500  0.230500  0.197300  1.0  0.1058
  H  H419  1  0.784000  0.184100  0.072400  1.0  0.1305
  H  H420  1  0.640500  0.085600  0.022900  1.0  0.1108
  H  H421  1  0.915100  0.616300  0.446600  1.0  0.1155
  H  H422  1  0.948900  0.638300  0.469000  1.0  0.1162
  H  H423  1  0.786500  0.730500  0.302700  1.0  0.1056
  H  H424  1  0.716000  0.684100  0.427600  1.0  0.1318
  H  H425  1  0.859500  0.585600  0.477100  1.0  0.1108
  H  H426  1  0.415100  0.116300  0.946600  1.0  0.1155
  H  H427  1  0.448900  0.138300  0.969000  1.0  0.1162
  H  H428  1  0.286500  0.230500  0.802700  1.0  0.1056
  H  H429  1  0.216000  0.184100  0.927600  1.0  0.1318
  H  H430  1  0.359500  0.085600  0.977100  1.0  0.1108
  H  H431  1  0.915100  0.383700  0.553400  1.0  0.1154
  H  H432  1  0.948900  0.361700  0.531000  1.0  0.117
  H  H433  1  0.786500  0.269500  0.697300  1.0  0.1056
  H  H434  1  0.716000  0.315900  0.572400  1.0  0.1305
  H  H435  1  0.859500  0.414400  0.522900  1.0  0.1108
  H  H436  1  0.415100  0.883700  0.053400  1.0  0.1154
  H  H437  1  0.448900  0.861700  0.031000  1.0  0.117
  H  H438  1  0.286500  0.769500  0.197300  1.0  0.1056
  H  H439  1  0.216000  0.815900  0.072400  1.0  0.1305
  H  H440  1  0.359500  0.914400  0.022900  1.0  0.1108
  H  H441  1  0.446600  0.084900  0.383700  1.0  0.1137
  H  H442  1  0.469000  0.051100  0.361700  1.0  0.117
  H  H443  1  0.302700  0.213500  0.269500  1.0  0.1077
  H  H444  1  0.427600  0.284000  0.315900  1.0  0.133
  H  H445  1  0.477100  0.140500  0.414400  1.0  0.1117
  H  H446  1  0.946600  0.584900  0.883700  1.0  0.1137
  H  H447  1  0.969000  0.551100  0.861700  1.0  0.117
  H  H448  1  0.802700  0.713500  0.769500  1.0  0.1077
  H  H449  1  0.927600  0.784000  0.815900  1.0  0.133
  H  H450  1  0.977100  0.640500  0.914400  1.0  0.1117
  H  H451  1  0.553400  0.084900  0.616300  1.0  0.1136
  H  H452  1  0.531000  0.051100  0.638300  1.0  0.1166
  H  H453  1  0.697300  0.213500  0.730500  1.0  0.107
  H  H454  1  0.572400  0.284000  0.684100  1.0  0.1321
  H  H455  1  0.522900  0.140500  0.585600  1.0  0.112
  H  H456  1  0.053400  0.584900  0.116300  1.0  0.1136
  H  H457  1  0.031000  0.551100  0.138300  1.0  0.1166
  H  H458  1  0.197300  0.713500  0.230500  1.0  0.107
  H  H459  1  0.072400  0.784000  0.184100  1.0  0.1321
  H  H460  1  0.022900  0.640500  0.085600  1.0  0.112
  H  H461  1  0.446600  0.915100  0.616300  1.0  0.1138
  H  H462  1  0.469000  0.948900  0.638300  1.0  0.1167
  H  H463  1  0.302700  0.786500  0.730500  1.0  0.1065
  H  H464  1  0.427600  0.716000  0.684100  1.0  0.1328
  H  H465  1  0.477100  0.859500  0.585600  1.0  0.1123
  H  H466  1  0.946600  0.415100  0.116300  1.0  0.1138
  H  H467  1  0.969000  0.448900  0.138300  1.0  0.1167
  H  H468  1  0.802700  0.286500  0.230500  1.0  0.1065
  H  H469  1  0.927600  0.216000  0.184100  1.0  0.1328
  H  H470  1  0.977100  0.359500  0.085600  1.0  0.1123
  H  H471  1  0.553400  0.915100  0.383700  1.0  0.1128
  H  H472  1  0.531000  0.948900  0.361700  1.0  0.1165
  H  H473  1  0.697300  0.786500  0.269500  1.0  0.1068
  H  H474  1  0.572400  0.716000  0.315900  1.0  0.1334
  H  H475  1  0.522900  0.859500  0.414400  1.0  0.112
  H  H476  1  0.053400  0.415100  0.883700  1.0  0.1128
  H  H477  1  0.031000  0.448900  0.861700  1.0  0.1165
  H  H478  1  0.197300  0.286500  0.769500  1.0  0.1068
  H  H479  1  0.072400  0.216000  0.815900  1.0  0.1334
  H  H480  1  0.022900  0.359500  0.914400  1.0  0.112
  H  H481  1  0.446600  0.383700  0.915100  1.0  0.1162
  H  H482  1  0.469000  0.361700  0.948900  1.0  0.1173
  H  H483  1  0.302700  0.269500  0.786500  1.0  0.1062
  H  H484  1  0.427600  0.315900  0.716000  1.0  0.1317
  H  H485  1  0.477100  0.414400  0.859500  1.0  0.1119
  H  H486  1  0.946600  0.883700  0.415100  1.0  0.1162
  H  H487  1  0.969000  0.861700  0.448900  1.0  0.1173
  H  H488  1  0.802700  0.769500  0.286500  1.0  0.1062
  H  H489  1  0.927600  0.815900  0.216000  1.0  0.1317
  H  H490  1  0.977100  0.914400  0.359500  1.0  0.1119
  H  H491  1  0.553400  0.616300  0.915100  1.0  0.1162
  H  H492  1  0.531000  0.638300  0.948900  1.0  0.1171
  H  H493  1  0.697300  0.730500  0.786500  1.0  0.1063
  H  H494  1  0.572400  0.684100  0.716000  1.0  0.1317
  H  H495  1  0.522900  0.585600  0.859500  1.0  0.1124
  H  H496  1  0.053400  0.116300  0.415100  1.0  0.1162
  H  H497  1  0.031000  0.138300  0.448900  1.0  0.1171
  H  H498  1  0.197300  0.230500  0.286500  1.0  0.1063
  H  H499  1  0.072400  0.184100  0.216000  1.0  0.1317
  H  H500  1  0.022900  0.085600  0.359500  1.0  0.1124
  H  H501  1  0.446600  0.616300  0.084900  1.0  0.1164
  H  H502  1  0.469000  0.638300  0.051100  1.0  0.1173
  H  H503  1  0.302700  0.730500  0.213500  1.0  0.1068
  H  H504  1  0.427600  0.684100  0.284000  1.0  0.1319
  H  H505  1  0.477100  0.585600  0.140500  1.0  0.1122
  H  H506  1  0.946600  0.116300  0.584900  1.0  0.1164
  H  H507  1  0.969000  0.138300  0.551100  1.0  0.1173
  H  H508  1  0.802700  0.230500  0.713500  1.0  0.1068
  H  H509  1  0.927600  0.184100  0.784000  1.0  0.1319
  H  H510  1  0.977100  0.085600  0.640500  1.0  0.1122
  H  H511  1  0.553400  0.383700  0.084900  1.0  0.1161
  H  H512  1  0.531000  0.361700  0.051100  1.0  0.1172
  H  H513  1  0.697300  0.269500  0.213500  1.0  0.1062
  H  H514  1  0.572400  0.315900  0.284000  1.0  0.132
  H  H515  1  0.522900  0.414400  0.140500  1.0  0.1124
  H  H516  1  0.053400  0.883700  0.584900  1.0  0.1161
  H  H517  1  0.031000  0.861700  0.551100  1.0  0.1172
  H  H518  1  0.197300  0.769500  0.713500  1.0  0.1062
  H  H519  1  0.072400  0.815900  0.784000  1.0  0.132
  H  H520  1  0.022900  0.914400  0.640500  1.0  0.1124
  H  H521  1  0.383700  0.084900  0.553400  1.0  0.1147
  H  H522  1  0.361700  0.051100  0.531000  1.0  0.1161
  H  H523  1  0.269500  0.213500  0.697300  1.0  0.1071
  H  H524  1  0.315900  0.284000  0.572400  1.0  0.1313
  H  H525  1  0.414400  0.140500  0.522900  1.0  0.1113
  H  H526  1  0.883700  0.584900  0.053400  1.0  0.1147
  H  H527  1  0.861700  0.551100  0.031000  1.0  0.1161
  H  H528  1  0.769500  0.713500  0.197300  1.0  0.1071
  H  H529  1  0.815900  0.784000  0.072400  1.0  0.1313
  H  H530  1  0.914400  0.640500  0.022900  1.0  0.1113
  H  H531  1  0.616300  0.084900  0.446600  1.0  0.1153
  H  H532  1  0.638300  0.051100  0.469000  1.0  0.1158
  H  H533  1  0.730500  0.213500  0.302700  1.0  0.1073
  H  H534  1  0.684100  0.284000  0.427600  1.0  0.1329
  H  H535  1  0.585600  0.140500  0.477100  1.0  0.1107
  H  H536  1  0.116300  0.584900  0.946600  1.0  0.1153
  H  H537  1  0.138300  0.551100  0.969000  1.0  0.1158
  H  H538  1  0.230500  0.713500  0.802700  1.0  0.1073
  H  H539  1  0.184100  0.784000  0.927600  1.0  0.1329
  H  H540  1  0.085600  0.640500  0.977100  1.0  0.1107
  H  H541  1  0.616300  0.915100  0.553400  1.0  0.1155
  H  H542  1  0.638300  0.948900  0.531000  1.0  0.1161
  H  H543  1  0.730500  0.786500  0.697300  1.0  0.1066
  H  H544  1  0.684100  0.716000  0.572400  1.0  0.1318
  H  H545  1  0.585600  0.859500  0.522900  1.0  0.1114
  H  H546  1  0.116300  0.415100  0.053400  1.0  0.1155
  H  H547  1  0.138300  0.448900  0.031000  1.0  0.1161
  H  H548  1  0.230500  0.286500  0.197300  1.0  0.1066
  H  H549  1  0.184100  0.216000  0.072400  1.0  0.1318
  H  H550  1  0.085600  0.359500  0.022900  1.0  0.1114
  H  H551  1  0.383700  0.915100  0.446600  1.0  0.1143
  H  H552  1  0.361700  0.948900  0.469000  1.0  0.1155
  H  H553  1  0.269500  0.786500  0.302700  1.0  0.1063
  H  H554  1  0.315900  0.716000  0.427600  1.0  0.1328
  H  H555  1  0.414400  0.859500  0.477100  1.0  0.1118
  H  H556  1  0.883700  0.415100  0.946600  1.0  0.1143
  H  H557  1  0.861700  0.448900  0.969000  1.0  0.1155
  H  H558  1  0.769500  0.286500  0.802700  1.0  0.1063
  H  H559  1  0.815900  0.216000  0.927600  1.0  0.1328
  H  H560  1  0.914400  0.359500  0.977100  1.0  0.1118
  H  H561  1  0.084900  0.446600  0.616300  1.0  0.1131
  H  H562  1  0.051100  0.469000  0.638300  1.0  0.1165
  H  H563  1  0.213500  0.302700  0.730500  1.0  0.1057
  H  H564  1  0.284000  0.427600  0.684100  1.0  0.1324
  H  H565  1  0.140500  0.477100  0.585600  1.0  0.1105
  H  H566  1  0.584900  0.946600  0.116300  1.0  0.1131
  H  H567  1  0.551100  0.969000  0.138300  1.0  0.1165
  H  H568  1  0.713500  0.802700  0.230500  1.0  0.1057
  H  H569  1  0.784000  0.927600  0.184100  1.0  0.1324
  H  H570  1  0.640500  0.977100  0.085600  1.0  0.1105
  H  H571  1  0.084900  0.553400  0.383700  1.0  0.1127
  H  H572  1  0.051100  0.531000  0.361700  1.0  0.1161
  H  H573  1  0.213500  0.697300  0.269500  1.0  0.1062
  H  H574  1  0.284000  0.572400  0.315900  1.0  0.1342
  H  H575  1  0.140500  0.522900  0.414400  1.0  0.1106
  H  H576  1  0.584900  0.053400  0.883700  1.0  0.1127
  H  H577  1  0.551100  0.031000  0.861700  1.0  0.1161
  H  H578  1  0.713500  0.197300  0.769500  1.0  0.1062
  H  H579  1  0.784000  0.072400  0.815900  1.0  0.1342
  H  H580  1  0.640500  0.022900  0.914400  1.0  0.1106
  H  H581  1  0.915100  0.446600  0.383700  1.0  0.1125
  H  H582  1  0.948900  0.469000  0.361700  1.0  0.1167
  H  H583  1  0.786500  0.302700  0.269500  1.0  0.1061
  H  H584  1  0.716000  0.427600  0.315900  1.0  0.1334
  H  H585  1  0.859500  0.477100  0.414400  1.0  0.1108
  H  H586  1  0.415100  0.946600  0.883700  1.0  0.1125
  H  H587  1  0.448900  0.969000  0.861700  1.0  0.1167
  H  H588  1  0.286500  0.802700  0.769500  1.0  0.1061
  H  H589  1  0.216000  0.927600  0.815900  1.0  0.1334
  H  H590  1  0.359500  0.977100  0.914400  1.0  0.1108
  H  H591  1  0.915100  0.553400  0.616300  1.0  0.1133
  H  H592  1  0.948900  0.531000  0.638300  1.0  0.1167
  H  H593  1  0.786500  0.697300  0.730500  1.0  0.1059
  H  H594  1  0.716000  0.572400  0.684100  1.0  0.1326
  H  H595  1  0.859500  0.522900  0.585600  1.0  0.111
  H  H596  1  0.415100  0.053400  0.116300  1.0  0.1133
  H  H597  1  0.448900  0.031000  0.138300  1.0  0.1167
  H  H598  1  0.286500  0.197300  0.230500  1.0  0.1059
  H  H599  1  0.216000  0.072400  0.184100  1.0  0.1326
  H  H600  1  0.359500  0.022900  0.085600  1.0  0.111
  H  H601  1  0.616300  0.553400  0.915100  1.0  0.1158
  H  H602  1  0.638300  0.531000  0.948900  1.0  0.1167
  H  H603  1  0.730500  0.697300  0.786500  1.0  0.1067
  H  H604  1  0.684100  0.572400  0.716000  1.0  0.1334
  H  H605  1  0.585600  0.522900  0.859500  1.0  0.1114
  H  H606  1  0.116300  0.053400  0.415100  1.0  0.1158
  H  H607  1  0.138300  0.031000  0.448900  1.0  0.1167
  H  H608  1  0.230500  0.197300  0.286500  1.0  0.1067
  H  H609  1  0.184100  0.072400  0.216000  1.0  0.1334
  H  H610  1  0.085600  0.022900  0.359500  1.0  0.1114
  H  H611  1  0.383700  0.446600  0.915100  1.0  0.1146
  H  H612  1  0.361700  0.469000  0.948900  1.0  0.1164
  H  H613  1  0.269500  0.302700  0.786500  1.0  0.1064
  H  H614  1  0.315900  0.427600  0.716000  1.0  0.132
  H  H615  1  0.414400  0.477100  0.859500  1.0  0.1113
  H  H616  1  0.883700  0.946600  0.415100  1.0  0.1146
  H  H617  1  0.861700  0.969000  0.448900  1.0  0.1164
  H  H618  1  0.769500  0.802700  0.286500  1.0  0.1064
  H  H619  1  0.815900  0.927600  0.216000  1.0  0.132
  H  H620  1  0.914400  0.977100  0.359500  1.0  0.1113
  H  H621  1  0.383700  0.553400  0.084900  1.0  0.1148
  H  H622  1  0.361700  0.531000  0.051100  1.0  0.1169
  H  H623  1  0.269500  0.697300  0.213500  1.0  0.1067
  H  H624  1  0.315900  0.572400  0.284000  1.0  0.1329
  H  H625  1  0.414400  0.522900  0.140500  1.0  0.1121
  H  H626  1  0.883700  0.053400  0.584900  1.0  0.1148
  H  H627  1  0.861700  0.031000  0.551100  1.0  0.1169
  H  H628  1  0.769500  0.197300  0.713500  1.0  0.1067
  H  H629  1  0.815900  0.072400  0.784000  1.0  0.1329
  H  H630  1  0.914400  0.022900  0.640500  1.0  0.1121
  H  H631  1  0.616300  0.446600  0.084900  1.0  0.1162
  H  H632  1  0.638300  0.469000  0.051100  1.0  0.1169
  H  H633  1  0.730500  0.302700  0.213500  1.0  0.1066
  H  H634  1  0.684100  0.427600  0.284000  1.0  0.1328
  H  H635  1  0.585600  0.477100  0.140500  1.0  0.1114
  H  H636  1  0.116300  0.946600  0.584900  1.0  0.1162
  H  H637  1  0.138300  0.969000  0.551100  1.0  0.1169
  H  H638  1  0.230500  0.802700  0.713500  1.0  0.1066
  H  H639  1  0.184100  0.927600  0.784000  1.0  0.1328
  H  H640  1  0.085600  0.977100  0.640500  1.0  0.1114
  H  H641  1  0.915100  0.616300  0.553400  1.0  0.1155
  H  H642  1  0.948900  0.638300  0.531000  1.0  0.1167
  H  H643  1  0.786500  0.730500  0.697300  1.0  0.1059
  H  H644  1  0.716000  0.684100  0.572400  1.0  0.1306
  H  H645  1  0.859500  0.585600  0.522900  1.0  0.1109
  H  H646  1  0.415100  0.116300  0.053400  1.0  0.1155
  H  H647  1  0.448900  0.138300  0.031000  1.0  0.1167
  H  H648  1  0.286500  0.230500  0.197300  1.0  0.1059
  H  H649  1  0.216000  0.184100  0.072400  1.0  0.1306
  H  H650  1  0.359500  0.085600  0.022900  1.0  0.1109
  H  H651  1  0.915100  0.383700  0.446600  1.0  0.1157
  H  H652  1  0.948900  0.361700  0.469000  1.0  0.1163
  H  H653  1  0.786500  0.269500  0.302700  1.0  0.1056
  H  H654  1  0.716000  0.315900  0.427600  1.0  0.1319
  H  H655  1  0.859500  0.414400  0.477100  1.0  0.111
  H  H656  1  0.415100  0.883700  0.946600  1.0  0.1157
  H  H657  1  0.448900  0.861700  0.969000  1.0  0.1163
  H  H658  1  0.286500  0.769500  0.802700  1.0  0.1056
  H  H659  1  0.216000  0.815900  0.927600  1.0  0.1319
  H  H660  1  0.359500  0.914400  0.977100  1.0  0.111
  H  H661  1  0.084900  0.383700  0.553400  1.0  0.1151
  H  H662  1  0.051100  0.361700  0.531000  1.0  0.1162
  H  H663  1  0.213500  0.269500  0.697300  1.0  0.1057
  H  H664  1  0.284000  0.315900  0.572400  1.0  0.1304
  H  H665  1  0.140500  0.414400  0.522900  1.0  0.1109
  H  H666  1  0.584900  0.883700  0.053400  1.0  0.1151
  H  H667  1  0.551100  0.861700  0.031000  1.0  0.1162
  H  H668  1  0.713500  0.769500  0.197300  1.0  0.1057
  H  H669  1  0.784000  0.815900  0.072400  1.0  0.1304
  H  H670  1  0.640500  0.914400  0.022900  1.0  0.1109
  H  H671  1  0.084900  0.616300  0.446600  1.0  0.1154
  H  H672  1  0.051100  0.638300  0.469000  1.0  0.1157
  H  H673  1  0.213500  0.730500  0.302700  1.0  0.1055
  H  H674  1  0.284000  0.684100  0.427600  1.0  0.1319
  H  H675  1  0.140500  0.585600  0.477100  1.0  0.1105
  H  H676  1  0.584900  0.116300  0.946600  1.0  0.1154
  H  H677  1  0.551100  0.138300  0.969000  1.0  0.1157
  H  H678  1  0.713500  0.230500  0.802700  1.0  0.1055
  H  H679  1  0.784000  0.184100  0.927600  1.0  0.1319
  H  H680  1  0.640500  0.085600  0.977100  1.0  0.1105
  H  H681  1  0.553400  0.915100  0.616300  1.0  0.1135
  H  H682  1  0.531000  0.948900  0.638300  1.0  0.1168
  H  H683  1  0.697300  0.786500  0.730500  1.0  0.1063
  H  H684  1  0.572400  0.716000  0.684100  1.0  0.1324
  H  H685  1  0.522900  0.859500  0.585600  1.0  0.1123
  H  H686  1  0.053400  0.415100  0.116300  1.0  0.1135
  H  H687  1  0.031000  0.448900  0.138300  1.0  0.1168
  H  H688  1  0.197300  0.286500  0.230500  1.0  0.1063
  H  H689  1  0.072400  0.216000  0.184100  1.0  0.1324
  H  H690  1  0.022900  0.359500  0.085600  1.0  0.1123
  H  H691  1  0.446600  0.915100  0.383700  1.0  0.1131
  H  H692  1  0.469000  0.948900  0.361700  1.0  0.1166
  H  H693  1  0.302700  0.786500  0.269500  1.0  0.107
  H  H694  1  0.427600  0.716000  0.315900  1.0  0.1333
  H  H695  1  0.477100  0.859500  0.414400  1.0  0.1119
  H  H696  1  0.946600  0.415100  0.883700  1.0  0.1131
  H  H697  1  0.969000  0.448900  0.861700  1.0  0.1166
  H  H698  1  0.802700  0.286500  0.769500  1.0  0.107
  H  H699  1  0.927600  0.216000  0.815900  1.0  0.1333
  H  H700  1  0.977100  0.359500  0.914400  1.0  0.1119
  H  H701  1  0.553400  0.084900  0.383700  1.0  0.1134
  H  H702  1  0.531000  0.051100  0.361700  1.0  0.1167
  H  H703  1  0.697300  0.213500  0.269500  1.0  0.1074
  H  H704  1  0.572400  0.284000  0.315900  1.0  0.1333
  H  H705  1  0.522900  0.140500  0.414400  1.0  0.112
  H  H706  1  0.053400  0.584900  0.883700  1.0  0.1134
  H  H707  1  0.031000  0.551100  0.861700  1.0  0.1167
  H  H708  1  0.197300  0.713500  0.769500  1.0  0.1074
  H  H709  1  0.072400  0.784000  0.815900  1.0  0.1333
  H  H710  1  0.022900  0.640500  0.914400  1.0  0.112
  H  H711  1  0.446600  0.084900  0.616300  1.0  0.1139
  H  H712  1  0.469000  0.051100  0.638300  1.0  0.1166
  H  H713  1  0.302700  0.213500  0.730500  1.0  0.1073
  H  H714  1  0.427600  0.284000  0.684100  1.0  0.1322
  H  H715  1  0.477100  0.140500  0.585600  1.0  0.1119
  H  H716  1  0.946600  0.584900  0.116300  1.0  0.1139
  H  H717  1  0.969000  0.551100  0.138300  1.0  0.1166
  H  H718  1  0.802700  0.713500  0.230500  1.0  0.1073
  H  H719  1  0.927600  0.784000  0.184100  1.0  0.1322
  H  H720  1  0.977100  0.640500  0.085600  1.0  0.1119
  H  H721  1  0.553400  0.616300  0.084900  1.0  0.1162
  H  H722  1  0.531000  0.638300  0.051100  1.0  0.1172
  H  H723  1  0.697300  0.730500  0.213500  1.0  0.1064
  H  H724  1  0.572400  0.684100  0.284000  1.0  0.1323
  H  H725  1  0.522900  0.585600  0.140500  1.0  0.1127
  H  H726  1  0.053400  0.116300  0.584900  1.0  0.1162
  H  H727  1  0.031000  0.138300  0.551100  1.0  0.1172
  H  H728  1  0.197300  0.230500  0.713500  1.0  0.1064
  H  H729  1  0.072400  0.184100  0.784000  1.0  0.1323
  H  H730  1  0.022900  0.085600  0.640500  1.0  0.1127
  H  H731  1  0.446600  0.383700  0.084900  1.0  0.1166
  H  H732  1  0.469000  0.361700  0.051100  1.0  0.1174
  H  H733  1  0.302700  0.269500  0.213500  1.0  0.1065
  H  H734  1  0.427600  0.315900  0.284000  1.0  0.1323
  H  H735  1  0.477100  0.414400  0.140500  1.0  0.1122
  H  H736  1  0.946600  0.883700  0.584900  1.0  0.1166
  H  H737  1  0.969000  0.861700  0.551100  1.0  0.1174
  H  H738  1  0.802700  0.769500  0.713500  1.0  0.1065
  H  H739  1  0.927600  0.815900  0.784000  1.0  0.1323
  H  H740  1  0.977100  0.914400  0.640500  1.0  0.1122
  H  H741  1  0.553400  0.383700  0.915100  1.0  0.1161
  H  H742  1  0.531000  0.361700  0.948900  1.0  0.1171
  H  H743  1  0.697300  0.269500  0.786500  1.0  0.1062
  H  H744  1  0.572400  0.315900  0.716000  1.0  0.1312
  H  H745  1  0.522900  0.414400  0.859500  1.0  0.1119
  H  H746  1  0.053400  0.883700  0.415100  1.0  0.1161
  H  H747  1  0.031000  0.861700  0.448900  1.0  0.1171
  H  H748  1  0.197300  0.769500  0.286500  1.0  0.1062
  H  H749  1  0.072400  0.815900  0.216000  1.0  0.1312
  H  H750  1  0.022900  0.914400  0.359500  1.0  0.1119
  H  H751  1  0.446600  0.616300  0.915100  1.0  0.116
  H  H752  1  0.469000  0.638300  0.948900  1.0  0.1173
  H  H753  1  0.302700  0.730500  0.786500  1.0  0.1063
  H  H754  1  0.427600  0.684100  0.716000  1.0  0.1315
  H  H755  1  0.477100  0.585600  0.859500  1.0  0.1121
  H  H756  1  0.946600  0.116300  0.415100  1.0  0.116
  H  H757  1  0.969000  0.138300  0.448900  1.0  0.1173
  H  H758  1  0.802700  0.230500  0.286500  1.0  0.1063
  H  H759  1  0.927600  0.184100  0.216000  1.0  0.1315
  H  H760  1  0.977100  0.085600  0.359500  1.0  0.1121
  H  H761  1  0.616300  0.915100  0.446600  1.0  0.1155
  H  H762  1  0.638300  0.948900  0.469000  1.0  0.1155
  H  H763  1  0.730500  0.786500  0.302700  1.0  0.1063
  H  H764  1  0.684100  0.716000  0.427600  1.0  0.1332
  H  H765  1  0.585600  0.859500  0.477100  1.0  0.1112
  H  H766  1  0.116300  0.415100  0.946600  1.0  0.1155
  H  H767  1  0.138300  0.448900  0.969000  1.0  0.1155
  H  H768  1  0.230500  0.286500  0.802700  1.0  0.1063
  H  H769  1  0.184100  0.216000  0.927600  1.0  0.1332
  H  H770  1  0.085600  0.359500  0.977100  1.0  0.1112
  H  H771  1  0.383700  0.915100  0.553400  1.0  0.1143
  H  H772  1  0.361700  0.948900  0.531000  1.0  0.1166
  H  H773  1  0.269500  0.786500  0.697300  1.0  0.1067
  H  H774  1  0.315900  0.716000  0.572400  1.0  0.1316
  H  H775  1  0.414400  0.859500  0.522900  1.0  0.1115
  H  H776  1  0.883700  0.415100  0.053400  1.0  0.1143
  H  H777  1  0.861700  0.448900  0.031000  1.0  0.1166
  H  H778  1  0.769500  0.286500  0.197300  1.0  0.1067
  H  H779  1  0.815900  0.216000  0.072400  1.0  0.1316
  H  H780  1  0.914400  0.359500  0.022900  1.0  0.1115
  H  H781  1  0.383700  0.084900  0.446600  1.0  0.1146
  H  H782  1  0.361700  0.051100  0.469000  1.0  0.1155
  H  H783  1  0.269500  0.213500  0.302700  1.0  0.1071
  H  H784  1  0.315900  0.284000  0.427600  1.0  0.1324
  H  H785  1  0.414400  0.140500  0.477100  1.0  0.1112
  H  H786  1  0.883700  0.584900  0.946600  1.0  0.1146
  H  H787  1  0.861700  0.551100  0.969000  1.0  0.1155
  H  H788  1  0.769500  0.713500  0.802700  1.0  0.1071
  H  H789  1  0.815900  0.784000  0.927600  1.0  0.1324
  H  H790  1  0.914400  0.640500  0.977100  1.0  0.1112
  H  H791  1  0.616300  0.084900  0.553400  1.0  0.1152
  H  H792  1  0.638300  0.051100  0.531000  1.0  0.1159
  H  H793  1  0.730500  0.213500  0.697300  1.0  0.1073
  H  H794  1  0.684100  0.284000  0.572400  1.0  0.1315
  H  H795  1  0.585600  0.140500  0.522900  1.0  0.1112
  H  H796  1  0.116300  0.584900  0.053400  1.0  0.1152
  H  H797  1  0.138300  0.551100  0.031000  1.0  0.1159
  H  H798  1  0.230500  0.713500  0.197300  1.0  0.1073
  H  H799  1  0.184100  0.784000  0.072400  1.0  0.1315
  H  H800  1  0.085600  0.640500  0.022900  1.0  0.1112
  H  H801  1  0.915100  0.553400  0.383700  1.0  0.1127
  H  H802  1  0.948900  0.531000  0.361700  1.0  0.1167
  H  H803  1  0.786500  0.697300  0.269500  1.0  0.1061
  H  H804  1  0.716000  0.572400  0.315900  1.0  0.1335
  H  H805  1  0.859500  0.522900  0.414400  1.0  0.1106
  H  H806  1  0.415100  0.053400  0.883700  1.0  0.1127
  H  H807  1  0.448900  0.031000  0.861700  1.0  0.1167
  H  H808  1  0.286500  0.197300  0.769500  1.0  0.1061
  H  H809  1  0.216000  0.072400  0.815900  1.0  0.1335
  H  H810  1  0.359500  0.022900  0.914400  1.0  0.1106
  H  H811  1  0.915100  0.446600  0.616300  1.0  0.1132
  H  H812  1  0.948900  0.469000  0.638300  1.0  0.117
  H  H813  1  0.786500  0.302700  0.730500  1.0  0.1056
  H  H814  1  0.716000  0.427600  0.684100  1.0  0.1326
  H  H815  1  0.859500  0.477100  0.585600  1.0  0.1109
  H  H816  1  0.415100  0.946600  0.116300  1.0  0.1132
  H  H817  1  0.448900  0.969000  0.138300  1.0  0.117
  H  H818  1  0.286500  0.802700  0.230500  1.0  0.1056
  H  H819  1  0.216000  0.927600  0.184100  1.0  0.1326
  H  H820  1  0.359500  0.977100  0.085600  1.0  0.1109
  H  H821  1  0.084900  0.553400  0.616300  1.0  0.1132
  H  H822  1  0.051100  0.531000  0.638300  1.0  0.116
  H  H823  1  0.213500  0.697300  0.730500  1.0  0.1059
  H  H824  1  0.284000  0.572400  0.684100  1.0  0.1332
  H  H825  1  0.140500  0.522900  0.585600  1.0  0.1107
  H  H826  1  0.584900  0.053400  0.116300  1.0  0.1132
  H  H827  1  0.551100  0.031000  0.138300  1.0  0.116
  H  H828  1  0.713500  0.197300  0.230500  1.0  0.1059
  H  H829  1  0.784000  0.072400  0.184100  1.0  0.1332
  H  H830  1  0.640500  0.022900  0.085600  1.0  0.1107
  H  H831  1  0.084900  0.446600  0.383700  1.0  0.1125
  H  H832  1  0.051100  0.469000  0.361700  1.0  0.1162
  H  H833  1  0.213500  0.302700  0.269500  1.0  0.1062
  H  H834  1  0.284000  0.427600  0.315900  1.0  0.133
  H  H835  1  0.140500  0.477100  0.414400  1.0  0.1107
  H  H836  1  0.584900  0.946600  0.883700  1.0  0.1125
  H  H837  1  0.551100  0.969000  0.861700  1.0  0.1162
  H  H838  1  0.713500  0.802700  0.769500  1.0  0.1062
  H  H839  1  0.784000  0.927600  0.815900  1.0  0.133
  H  H840  1  0.640500  0.977100  0.914400  1.0  0.1107
  C  C841  1  0.356250  0.416570  0.118150  1.0  0.7624
  C  C842  1  0.350560  0.432010  0.096190  1.0  -0.202
  C  C843  1  0.366600  0.445670  0.082080  1.0  -0.0775
  C  C844  1  0.353840  0.458430  0.062350  1.0  -0.0614
  C  C845  1  0.329300  0.453540  0.061790  1.0  -0.1967
  C  C846  1  0.310030  0.463300  0.044290  1.0  0.7467
  C  C847  1  0.292840  0.343910  0.189930  1.0  0.7156
  C  C848  1  0.269460  0.329450  0.186730  1.0  -0.2073
  C  C849  1  0.261200  0.309440  0.199870  1.0  -0.0645
  C  C850  1  0.327050  0.384680  0.256550  1.0  0.7316
  C  C851  1  0.310550  0.391010  0.278220  1.0  -0.1675
  C  C852  1  0.307040  0.413520  0.288570  1.0  -0.0426
  C  C853  1  0.390470  0.450640  0.178160  1.0  0.7446
  C  C854  1  0.394710  0.477270  0.172790  1.0  -0.1901
  C  C855  1  0.406900  0.486800  0.152800  1.0  -0.0775
  C  C856  1  0.243700  0.364200  0.103300  1.0  0.1387
  C  C857  1  0.282700  0.346100  0.109300  1.0  -0.0524
  C  C858  1  0.308900  0.340300  0.122100  1.0  0.5661
  C  C859  1  0.266200  0.367900  0.109700  1.0  0.1732
  C  C860  1  0.239400  0.338500  0.094800  1.0  -0.0555
  C  C861  1  0.856250  0.916570  0.618150  1.0  0.7624
  C  C862  1  0.850560  0.932010  0.596190  1.0  -0.202
  C  C863  1  0.866600  0.945670  0.582080  1.0  -0.0775
  C  C864  1  0.853840  0.958430  0.562350  1.0  -0.0614
  C  C865  1  0.829300  0.953540  0.561790  1.0  -0.1967
  C  C866  1  0.810030  0.963300  0.544290  1.0  0.7467
  C  C867  1  0.792840  0.843910  0.689930  1.0  0.7156
  C  C868  1  0.769460  0.829450  0.686730  1.0  -0.2073
  C  C869  1  0.761200  0.809440  0.699870  1.0  -0.0645
  C  C870  1  0.827050  0.884680  0.756550  1.0  0.7316
  C  C871  1  0.810550  0.891010  0.778220  1.0  -0.1675
  C  C872  1  0.807040  0.913520  0.788570  1.0  -0.0426
  C  C873  1  0.890470  0.950640  0.678160  1.0  0.7446
  C  C874  1  0.894710  0.977270  0.672790  1.0  -0.1901
  C  C875  1  0.906900  0.986800  0.652800  1.0  -0.0775
  C  C876  1  0.743700  0.864200  0.603300  1.0  0.1387
  C  C877  1  0.782700  0.846100  0.609300  1.0  -0.0524
  C  C878  1  0.808900  0.840300  0.622100  1.0  0.5661
  C  C879  1  0.766200  0.867900  0.609700  1.0  0.1732
  C  C880  1  0.739400  0.838500  0.594800  1.0  -0.0555
  C  C881  1  0.643750  0.583430  0.118150  1.0  0.7637
  C  C882  1  0.649440  0.567990  0.096190  1.0  -0.2007
  C  C883  1  0.633400  0.554330  0.082080  1.0  -0.0801
  C  C884  1  0.646160  0.541570  0.062350  1.0  -0.0624
  C  C885  1  0.670700  0.546460  0.061790  1.0  -0.1957
  C  C886  1  0.689970  0.536700  0.044290  1.0  0.7454
  C  C887  1  0.707160  0.656090  0.189930  1.0  0.7176
  C  C888  1  0.730540  0.670550  0.186730  1.0  -0.2067
  C  C889  1  0.738800  0.690560  0.199870  1.0  -0.0642
  C  C890  1  0.672950  0.615320  0.256550  1.0  0.7309
  C  C891  1  0.689450  0.608990  0.278220  1.0  -0.1656
  C  C892  1  0.692960  0.586480  0.288570  1.0  -0.0437
  C  C893  1  0.609530  0.549360  0.178160  1.0  0.7402
  C  C894  1  0.605290  0.522730  0.172790  1.0  -0.1899
  C  C895  1  0.593100  0.513200  0.152800  1.0  -0.0786
  C  C896  1  0.756300  0.635800  0.103300  1.0  0.1374
  C  C897  1  0.717300  0.653900  0.109300  1.0  -0.0518
  C  C898  1  0.691100  0.659700  0.122100  1.0  0.5617
  C  C899  1  0.733800  0.632100  0.109700  1.0  0.1751
  C  C900  1  0.760600  0.661500  0.094800  1.0  -0.0557
  C  C901  1  0.143750  0.083430  0.618150  1.0  0.7637
  C  C902  1  0.149440  0.067990  0.596190  1.0  -0.2007
  C  C903  1  0.133400  0.054330  0.582080  1.0  -0.0801
  C  C904  1  0.146160  0.041570  0.562350  1.0  -0.0624
  C  C905  1  0.170700  0.046460  0.561790  1.0  -0.1957
  C  C906  1  0.189970  0.036700  0.544290  1.0  0.7454
  C  C907  1  0.207160  0.156090  0.689930  1.0  0.7176
  C  C908  1  0.230540  0.170550  0.686730  1.0  -0.2067
  C  C909  1  0.238800  0.190560  0.699870  1.0  -0.0642
  C  C910  1  0.172950  0.115320  0.756550  1.0  0.7309
  C  C911  1  0.189450  0.108990  0.778220  1.0  -0.1656
  C  C912  1  0.192960  0.086480  0.788570  1.0  -0.0437
  C  C913  1  0.109530  0.049360  0.678160  1.0  0.7402
  C  C914  1  0.105290  0.022730  0.672790  1.0  -0.1855
  C  C915  1  0.093100  0.013200  0.652800  1.0  -0.0786
  C  C916  1  0.256300  0.135800  0.603300  1.0  0.1374
  C  C917  1  0.217300  0.153900  0.609300  1.0  -0.0518
  C  C918  1  0.191100  0.159700  0.622100  1.0  0.5617
  C  C919  1  0.233800  0.132100  0.609700  1.0  0.1751
  C  C920  1  0.260600  0.161500  0.594800  1.0  -0.0557
  C  C921  1  0.643750  0.416570  0.881850  1.0  0.7628
  C  C922  1  0.649440  0.432010  0.903810  1.0  -0.2005
  C  C923  1  0.633400  0.445670  0.917920  1.0  -0.0791
  C  C924  1  0.646160  0.458430  0.937650  1.0  -0.0618
  C  C925  1  0.670700  0.453540  0.938210  1.0  -0.1957
  C  C926  1  0.689970  0.463300  0.955710  1.0  0.7451
  C  C927  1  0.707160  0.343910  0.810070  1.0  0.7178
  C  C928  1  0.730540  0.329450  0.813270  1.0  -0.208
  C  C929  1  0.738800  0.309440  0.800130  1.0  -0.0639
  C  C930  1  0.672950  0.384680  0.743450  1.0  0.7308
  C  C931  1  0.689450  0.391010  0.721780  1.0  -0.1666
  C  C932  1  0.692960  0.413520  0.711430  1.0  -0.0441
  C  C933  1  0.609530  0.450640  0.821840  1.0  0.7451
  C  C934  1  0.605290  0.477270  0.827210  1.0  -0.1889
  C  C935  1  0.593100  0.486800  0.847200  1.0  -0.0785
  C  C936  1  0.756300  0.364200  0.896700  1.0  0.1375
  C  C937  1  0.717300  0.346100  0.890700  1.0  -0.0501
  C  C938  1  0.691100  0.340300  0.877900  1.0  0.5616
  C  C939  1  0.733800  0.367900  0.890300  1.0  0.1753
  C  C940  1  0.760600  0.338500  0.905200  1.0  -0.056
  C  C941  1  0.143750  0.916570  0.381850  1.0  0.7628
  C  C942  1  0.149440  0.932010  0.403810  1.0  -0.2005
  C  C943  1  0.133400  0.945670  0.417920  1.0  -0.0791
  C  C944  1  0.146160  0.958430  0.437650  1.0  -0.0618
  C  C945  1  0.170700  0.953540  0.438210  1.0  -0.1957
  C  C946  1  0.189970  0.963300  0.455710  1.0  0.7451
  C  C947  1  0.207160  0.843910  0.310070  1.0  0.7178
  C  C948  1  0.230540  0.829450  0.313270  1.0  -0.208
  C  C949  1  0.238800  0.809440  0.300130  1.0  -0.0639
  C  C950  1  0.172950  0.884680  0.243450  1.0  0.7308
  C  C951  1  0.189450  0.891010  0.221780  1.0  -0.1666
  C  C952  1  0.192960  0.913520  0.211430  1.0  -0.0441
  C  C953  1  0.109530  0.950640  0.321840  1.0  0.7451
  C  C954  1  0.105290  0.977270  0.327210  1.0  -0.1889
  C  C955  1  0.093100  0.986800  0.347200  1.0  -0.0785
  C  C956  1  0.256300  0.864200  0.396700  1.0  0.1375
  C  C957  1  0.217300  0.846100  0.390700  1.0  -0.0538
  C  C958  1  0.191100  0.840300  0.377900  1.0  0.5616
  C  C959  1  0.233800  0.867900  0.390300  1.0  0.1753
  C  C960  1  0.260600  0.838500  0.405200  1.0  -0.056
  C  C961  1  0.356250  0.583430  0.881850  1.0  0.7623
  C  C962  1  0.350560  0.567990  0.903810  1.0  -0.2015
  C  C963  1  0.366600  0.554330  0.917920  1.0  -0.078
  C  C964  1  0.353840  0.541570  0.937650  1.0  -0.0605
  C  C965  1  0.329300  0.546460  0.938210  1.0  -0.1959
  C  C966  1  0.310030  0.536700  0.955710  1.0  0.7464
  C  C967  1  0.292840  0.656090  0.810070  1.0  0.7163
  C  C968  1  0.269460  0.670550  0.813270  1.0  -0.2078
  C  C969  1  0.261200  0.690560  0.800130  1.0  -0.0636
  C  C970  1  0.327050  0.615320  0.743450  1.0  0.7317
  C  C971  1  0.310550  0.608990  0.721780  1.0  -0.1657
  C  C972  1  0.307040  0.586480  0.711430  1.0  -0.0399
  C  C973  1  0.390470  0.549360  0.821840  1.0  0.7441
  C  C974  1  0.394710  0.522730  0.827210  1.0  -0.1904
  C  C975  1  0.406900  0.513200  0.847200  1.0  -0.0775
  C  C976  1  0.243700  0.635800  0.896700  1.0  0.1359
  C  C977  1  0.282700  0.653900  0.890700  1.0  -0.0487
  C  C978  1  0.308900  0.659700  0.877900  1.0  0.5642
  C  C979  1  0.266200  0.632100  0.890300  1.0  0.176
  C  C980  1  0.239400  0.661500  0.905200  1.0  -0.0566
  C  C981  1  0.856250  0.083430  0.381850  1.0  0.7623
  C  C982  1  0.850560  0.067990  0.403810  1.0  -0.2015
  C  C983  1  0.866600  0.054330  0.417920  1.0  -0.078
  C  C984  1  0.853840  0.041570  0.437650  1.0  -0.0605
  C  C985  1  0.829300  0.046460  0.438210  1.0  -0.1959
  C  C986  1  0.810030  0.036700  0.455710  1.0  0.7464
  C  C987  1  0.792840  0.156090  0.310070  1.0  0.7163
  C  C988  1  0.769460  0.170550  0.313270  1.0  -0.2078
  C  C989  1  0.761200  0.190560  0.300130  1.0  -0.0636
  C  C990  1  0.827050  0.115320  0.243450  1.0  0.7317
  C  C991  1  0.810550  0.108990  0.221780  1.0  -0.1657
  C  C992  1  0.807040  0.086480  0.211430  1.0  -0.0399
  C  C993  1  0.890470  0.049360  0.321840  1.0  0.7441
  C  C994  1  0.894710  0.022730  0.327210  1.0  -0.1896
  C  C995  1  0.906900  0.013200  0.347200  1.0  -0.0775
  C  C996  1  0.743700  0.135800  0.396700  1.0  0.1359
  C  C997  1  0.782700  0.153900  0.390700  1.0  -0.0525
  C  C998  1  0.808900  0.159700  0.377900  1.0  0.5642
  C  C999  1  0.766200  0.132100  0.390300  1.0  0.176
  C  C1000  1  0.739400  0.161500  0.405200  1.0  -0.0566
  C  C1001  1  0.118150  0.356250  0.416570  1.0  0.7626
  C  C1002  1  0.096190  0.350560  0.432010  1.0  -0.2024
  C  C1003  1  0.082080  0.366600  0.445670  1.0  -0.0785
  C  C1004  1  0.062350  0.353840  0.458430  1.0  -0.0591
  C  C1005  1  0.061790  0.329300  0.453540  1.0  -0.1959
  C  C1006  1  0.044290  0.310030  0.463300  1.0  0.7465
  C  C1007  1  0.189930  0.292840  0.343910  1.0  0.7179
  C  C1008  1  0.186730  0.269460  0.329450  1.0  -0.2053
  C  C1009  1  0.199870  0.261200  0.309440  1.0  -0.0627
  C  C1010  1  0.256550  0.327050  0.384680  1.0  0.731
  C  C1011  1  0.278220  0.310550  0.391010  1.0  -0.1635
  C  C1012  1  0.288570  0.307040  0.413520  1.0  -0.046
  C  C1013  1  0.178160  0.390470  0.450640  1.0  0.7446
  C  C1014  1  0.172790  0.394710  0.477270  1.0  -0.1869
  C  C1015  1  0.152800  0.406900  0.486800  1.0  -0.0774
  C  C1016  1  0.103300  0.243700  0.364200  1.0  0.134
  C  C1017  1  0.109300  0.282700  0.346100  1.0  -0.0543
  C  C1018  1  0.122100  0.308900  0.340300  1.0  0.567
  C  C1019  1  0.109700  0.266200  0.367900  1.0  0.1726
  C  C1020  1  0.094800  0.239400  0.338500  1.0  -0.0605
  C  C1021  1  0.618150  0.856250  0.916570  1.0  0.7626
  C  C1022  1  0.596190  0.850560  0.932010  1.0  -0.2024
  C  C1023  1  0.582080  0.866600  0.945670  1.0  -0.0785
  C  C1024  1  0.562350  0.853840  0.958430  1.0  -0.0591
  C  C1025  1  0.561790  0.829300  0.953540  1.0  -0.1959
  C  C1026  1  0.544290  0.810030  0.963300  1.0  0.7465
  C  C1027  1  0.689930  0.792840  0.843910  1.0  0.7179
  C  C1028  1  0.686730  0.769460  0.829450  1.0  -0.2053
  C  C1029  1  0.699870  0.761200  0.809440  1.0  -0.0627
  C  C1030  1  0.756550  0.827050  0.884680  1.0  0.731
  C  C1031  1  0.778220  0.810550  0.891010  1.0  -0.1635
  C  C1032  1  0.788570  0.807040  0.913520  1.0  -0.046
  C  C1033  1  0.678160  0.890470  0.950640  1.0  0.7446
  C  C1034  1  0.672790  0.894710  0.977270  1.0  -0.1869
  C  C1035  1  0.652800  0.906900  0.986800  1.0  -0.0774
  C  C1036  1  0.603300  0.743700  0.864200  1.0  0.134
  C  C1037  1  0.609300  0.782700  0.846100  1.0  -0.0543
  C  C1038  1  0.622100  0.808900  0.840300  1.0  0.567
  C  C1039  1  0.609700  0.766200  0.867900  1.0  0.1726
  C  C1040  1  0.594800  0.739400  0.838500  1.0  -0.0605
  C  C1041  1  0.118150  0.643750  0.583430  1.0  0.7617
  C  C1042  1  0.096190  0.649440  0.567990  1.0  -0.2028
  C  C1043  1  0.082080  0.633400  0.554330  1.0  -0.078
  C  C1044  1  0.062350  0.646160  0.541570  1.0  -0.0599
  C  C1045  1  0.061790  0.670700  0.546460  1.0  -0.1964
  C  C1046  1  0.044290  0.689970  0.536700  1.0  0.7469
  C  C1047  1  0.189930  0.707160  0.656090  1.0  0.7184
  C  C1048  1  0.186730  0.730540  0.670550  1.0  -0.2052
  C  C1049  1  0.199870  0.738800  0.690560  1.0  -0.0626
  C  C1050  1  0.256550  0.672950  0.615320  1.0  0.7308
  C  C1051  1  0.278220  0.689450  0.608990  1.0  -0.1665
  C  C1052  1  0.288570  0.692960  0.586480  1.0  -0.0459
  C  C1053  1  0.178160  0.609530  0.549360  1.0  0.7446
  C  C1054  1  0.172790  0.605290  0.522730  1.0  -0.1885
  C  C1055  1  0.152800  0.593100  0.513200  1.0  -0.0769
  C  C1056  1  0.103300  0.756300  0.635800  1.0  0.1335
  C  C1057  1  0.109300  0.717300  0.653900  1.0  -0.0557
  C  C1058  1  0.122100  0.691100  0.659700  1.0  0.5679
  C  C1059  1  0.109700  0.733800  0.632100  1.0  0.1729
  C  C1060  1  0.094800  0.760600  0.661500  1.0  -0.0608
  C  C1061  1  0.618150  0.143750  0.083430  1.0  0.7617
  C  C1062  1  0.596190  0.149440  0.067990  1.0  -0.2028
  C  C1063  1  0.582080  0.133400  0.054330  1.0  -0.078
  C  C1064  1  0.562350  0.146160  0.041570  1.0  -0.0599
  C  C1065  1  0.561790  0.170700  0.046460  1.0  -0.1964
  C  C1066  1  0.544290  0.189970  0.036700  1.0  0.7469
  C  C1067  1  0.689930  0.207160  0.156090  1.0  0.7184
  C  C1068  1  0.686730  0.230540  0.170550  1.0  -0.2052
  C  C1069  1  0.699870  0.238800  0.190560  1.0  -0.0626
  C  C1070  1  0.756550  0.172950  0.115320  1.0  0.7308
  C  C1071  1  0.778220  0.189450  0.108990  1.0  -0.1665
  C  C1072  1  0.788570  0.192960  0.086480  1.0  -0.0459
  C  C1073  1  0.678160  0.109530  0.049360  1.0  0.7446
  C  C1074  1  0.672790  0.105290  0.022730  1.0  -0.1843
  C  C1075  1  0.652800  0.093100  0.013200  1.0  -0.0769
  C  C1076  1  0.603300  0.256300  0.135800  1.0  0.1335
  C  C1077  1  0.609300  0.217300  0.153900  1.0  -0.0557
  C  C1078  1  0.622100  0.191100  0.159700  1.0  0.5679
  C  C1079  1  0.609700  0.233800  0.132100  1.0  0.1729
  C  C1080  1  0.594800  0.260600  0.161500  1.0  -0.0608
  C  C1081  1  0.881850  0.643750  0.416570  1.0  0.7644
  C  C1082  1  0.903810  0.649440  0.432010  1.0  -0.2018
  C  C1083  1  0.917920  0.633400  0.445670  1.0  -0.0777
  C  C1084  1  0.937650  0.646160  0.458430  1.0  -0.0593
  C  C1085  1  0.938210  0.670700  0.453540  1.0  -0.1968
  C  C1086  1  0.955710  0.689970  0.463300  1.0  0.7457
  C  C1087  1  0.810070  0.707160  0.343910  1.0  0.7169
  C  C1088  1  0.813270  0.730540  0.329450  1.0  -0.2063
  C  C1089  1  0.800130  0.738800  0.309440  1.0  -0.064
  C  C1090  1  0.743450  0.672950  0.384680  1.0  0.7284
  C  C1091  1  0.721780  0.689450  0.391010  1.0  -0.1638
  C  C1092  1  0.711430  0.692960  0.413520  1.0  -0.0429
  C  C1093  1  0.821840  0.609530  0.450640  1.0  0.7435
  C  C1094  1  0.827210  0.605290  0.477270  1.0  -0.1891
  C  C1095  1  0.847200  0.593100  0.486800  1.0  -0.0778
  C  C1096  1  0.896700  0.756300  0.364200  1.0  0.1355
  C  C1097  1  0.890700  0.717300  0.346100  1.0  -0.0469
  C  C1098  1  0.877900  0.691100  0.340300  1.0  0.5679
  C  C1099  1  0.890300  0.733800  0.367900  1.0  0.1692
  C  C1100  1  0.905200  0.760600  0.338500  1.0  -0.0586
  C  C1101  1  0.381850  0.143750  0.916570  1.0  0.7644
  C  C1102  1  0.403810  0.149440  0.932010  1.0  -0.2018
  C  C1103  1  0.417920  0.133400  0.945670  1.0  -0.0777
  C  C1104  1  0.437650  0.146160  0.958430  1.0  -0.0593
  C  C1105  1  0.438210  0.170700  0.953540  1.0  -0.1968
  C  C1106  1  0.455710  0.189970  0.963300  1.0  0.7457
  C  C1107  1  0.310070  0.207160  0.843910  1.0  0.7169
  C  C1108  1  0.313270  0.230540  0.829450  1.0  -0.2063
  C  C1109  1  0.300130  0.238800  0.809440  1.0  -0.064
  C  C1110  1  0.243450  0.172950  0.884680  1.0  0.7284
  C  C1111  1  0.221780  0.189450  0.891010  1.0  -0.1638
  C  C1112  1  0.211430  0.192960  0.913520  1.0  -0.0429
  C  C1113  1  0.321840  0.109530  0.950640  1.0  0.7435
  C  C1114  1  0.327210  0.105290  0.977270  1.0  -0.1891
  C  C1115  1  0.347200  0.093100  0.986800  1.0  -0.0778
  C  C1116  1  0.396700  0.256300  0.864200  1.0  0.1355
  C  C1117  1  0.390700  0.217300  0.846100  1.0  -0.0512
  C  C1118  1  0.377900  0.191100  0.840300  1.0  0.5679
  C  C1119  1  0.390300  0.233800  0.867900  1.0  0.1692
  C  C1120  1  0.405200  0.260600  0.838500  1.0  -0.0586
  C  C1121  1  0.881850  0.356250  0.583430  1.0  0.7644
  C  C1122  1  0.903810  0.350560  0.567990  1.0  -0.203
  C  C1123  1  0.917920  0.366600  0.554330  1.0  -0.0784
  C  C1124  1  0.937650  0.353840  0.541570  1.0  -0.0604
  C  C1125  1  0.938210  0.329300  0.546460  1.0  -0.1958
  C  C1126  1  0.955710  0.310030  0.536700  1.0  0.7454
  C  C1127  1  0.810070  0.292840  0.656090  1.0  0.7173
  C  C1128  1  0.813270  0.269460  0.670550  1.0  -0.2066
  C  C1129  1  0.800130  0.261200  0.690560  1.0  -0.0636
  C  C1130  1  0.743450  0.327050  0.615320  1.0  0.729
  C  C1131  1  0.721780  0.310550  0.608990  1.0  -0.1655
  C  C1132  1  0.711430  0.307040  0.586480  1.0  -0.0417
  C  C1133  1  0.821840  0.390470  0.549360  1.0  0.7436
  C  C1134  1  0.827210  0.394710  0.522730  1.0  -0.1899
  C  C1135  1  0.847200  0.406900  0.513200  1.0  -0.077
  C  C1136  1  0.896700  0.243700  0.635800  1.0  0.137
  C  C1137  1  0.890700  0.282700  0.653900  1.0  -0.048
  C  C1138  1  0.877900  0.308900  0.659700  1.0  0.569
  C  C1139  1  0.890300  0.266200  0.632100  1.0  0.1706
  C  C1140  1  0.905200  0.239400  0.661500  1.0  -0.0593
  C  C1141  1  0.381850  0.856250  0.083430  1.0  0.7644
  C  C1142  1  0.403810  0.850560  0.067990  1.0  -0.203
  C  C1143  1  0.417920  0.866600  0.054330  1.0  -0.0784
  C  C1144  1  0.437650  0.853840  0.041570  1.0  -0.0604
  C  C1145  1  0.438210  0.829300  0.046460  1.0  -0.1958
  C  C1146  1  0.455710  0.810030  0.036700  1.0  0.7454
  C  C1147  1  0.310070  0.792840  0.156090  1.0  0.7173
  C  C1148  1  0.313270  0.769460  0.170550  1.0  -0.2066
  C  C1149  1  0.300130  0.761200  0.190560  1.0  -0.0636
  C  C1150  1  0.243450  0.827050  0.115320  1.0  0.729
  C  C1151  1  0.221780  0.810550  0.108990  1.0  -0.1655
  C  C1152  1  0.211430  0.807040  0.086480  1.0  -0.0417
  C  C1153  1  0.321840  0.890470  0.049360  1.0  0.7436
  C  C1154  1  0.327210  0.894710  0.022730  1.0  -0.1892
  C  C1155  1  0.347200  0.906900  0.013200  1.0  -0.077
  C  C1156  1  0.396700  0.743700  0.135800  1.0  0.137
  C  C1157  1  0.390700  0.782700  0.153900  1.0  -0.0523
  C  C1158  1  0.377900  0.808900  0.159700  1.0  0.569
  C  C1159  1  0.390300  0.766200  0.132100  1.0  0.1706
  C  C1160  1  0.405200  0.739400  0.161500  1.0  -0.0593
  C  C1161  1  0.416570  0.118150  0.356250  1.0  0.7642
  C  C1162  1  0.432010  0.096190  0.350560  1.0  -0.2052
  C  C1163  1  0.445670  0.082080  0.366600  1.0  -0.076
  C  C1164  1  0.458430  0.062350  0.353840  1.0  -0.0604
  C  C1165  1  0.453540  0.061790  0.329300  1.0  -0.1978
  C  C1166  1  0.463300  0.044290  0.310030  1.0  0.747
  C  C1167  1  0.343910  0.189930  0.292840  1.0  0.7173
  C  C1168  1  0.329450  0.186730  0.269460  1.0  -0.2075
  C  C1169  1  0.309440  0.199870  0.261200  1.0  -0.0643
  C  C1170  1  0.384680  0.256550  0.327050  1.0  0.7312
  C  C1171  1  0.391010  0.278220  0.310550  1.0  -0.1657
  C  C1172  1  0.413520  0.288570  0.307040  1.0  -0.0431
  C  C1173  1  0.450640  0.178160  0.390470  1.0  0.7426
  C  C1174  1  0.477270  0.172790  0.394710  1.0  -0.1872
  C  C1175  1  0.486800  0.152800  0.406900  1.0  -0.0781
  C  C1176  1  0.364200  0.103300  0.243700  1.0  0.1328
  C  C1177  1  0.346100  0.109300  0.282700  1.0  -0.0554
  C  C1178  1  0.340300  0.122100  0.308900  1.0  0.5639
  C  C1179  1  0.367900  0.109700  0.266200  1.0  0.1706
  C  C1180  1  0.338500  0.094800  0.239400  1.0  -0.0615
  C  C1181  1  0.916570  0.618150  0.856250  1.0  0.7642
  C  C1182  1  0.932010  0.596190  0.850560  1.0  -0.2052
  C  C1183  1  0.945670  0.582080  0.866600  1.0  -0.076
  C  C1184  1  0.958430  0.562350  0.853840  1.0  -0.0604
  C  C1185  1  0.953540  0.561790  0.829300  1.0  -0.1978
  C  C1186  1  0.963300  0.544290  0.810030  1.0  0.747
  C  C1187  1  0.843910  0.689930  0.792840  1.0  0.7173
  C  C1188  1  0.829450  0.686730  0.769460  1.0  -0.2075
  C  C1189  1  0.809440  0.699870  0.761200  1.0  -0.0643
  C  C1190  1  0.884680  0.756550  0.827050  1.0  0.7312
  C  C1191  1  0.891010  0.778220  0.810550  1.0  -0.1657
  C  C1192  1  0.913520  0.788570  0.807040  1.0  -0.0431
  C  C1193  1  0.950640  0.678160  0.890470  1.0  0.7426
  C  C1194  1  0.977270  0.672790  0.894710  1.0  -0.1872
  C  C1195  1  0.986800  0.652800  0.906900  1.0  -0.0781
  C  C1196  1  0.864200  0.603300  0.743700  1.0  0.1328
  C  C1197  1  0.846100  0.609300  0.782700  1.0  -0.0554
  C  C1198  1  0.840300  0.622100  0.808900  1.0  0.5639
  C  C1199  1  0.867900  0.609700  0.766200  1.0  0.1706
  C  C1200  1  0.838500  0.594800  0.739400  1.0  -0.0615
  C  C1201  1  0.583430  0.118150  0.643750  1.0  0.763
  C  C1202  1  0.567990  0.096190  0.649440  1.0  -0.2063
  C  C1203  1  0.554330  0.082080  0.633400  1.0  -0.0783
  C  C1204  1  0.541570  0.062350  0.646160  1.0  -0.0625
  C  C1205  1  0.546460  0.061790  0.670700  1.0  -0.1988
  C  C1206  1  0.536700  0.044290  0.689970  1.0  0.7491
  C  C1207  1  0.656090  0.189930  0.707160  1.0  0.7171
  C  C1208  1  0.670550  0.186730  0.730540  1.0  -0.2062
  C  C1209  1  0.690560  0.199870  0.738800  1.0  -0.0626
  C  C1210  1  0.615320  0.256550  0.672950  1.0  0.7295
  C  C1211  1  0.608990  0.278220  0.689450  1.0  -0.1648
  C  C1212  1  0.586480  0.288570  0.692960  1.0  -0.0442
  C  C1213  1  0.549360  0.178160  0.609530  1.0  0.7354
  C  C1214  1  0.522730  0.172790  0.605290  1.0  -0.1878
  C  C1215  1  0.513200  0.152800  0.593100  1.0  -0.0763
  C  C1216  1  0.635800  0.103300  0.756300  1.0  0.1302
  C  C1217  1  0.653900  0.109300  0.717300  1.0  -0.0533
  C  C1218  1  0.659700  0.122100  0.691100  1.0  0.5664
  C  C1219  1  0.632100  0.109700  0.733800  1.0  0.1697
  C  C1220  1  0.661500  0.094800  0.760600  1.0  -0.064
  C  C1221  1  0.083430  0.618150  0.143750  1.0  0.763
  C  C1222  1  0.067990  0.596190  0.149440  1.0  -0.2063
  C  C1223  1  0.054330  0.582080  0.133400  1.0  -0.0783
  C  C1224  1  0.041570  0.562350  0.146160  1.0  -0.0625
  C  C1225  1  0.046460  0.561790  0.170700  1.0  -0.1988
  C  C1226  1  0.036700  0.544290  0.189970  1.0  0.7491
  C  C1227  1  0.156090  0.689930  0.207160  1.0  0.7171
  C  C1228  1  0.170550  0.686730  0.230540  1.0  -0.2062
  C  C1229  1  0.190560  0.699870  0.238800  1.0  -0.0626
  C  C1230  1  0.115320  0.756550  0.172950  1.0  0.7295
  C  C1231  1  0.108990  0.778220  0.189450  1.0  -0.1648
  C  C1232  1  0.086480  0.788570  0.192960  1.0  -0.0442
  C  C1233  1  0.049360  0.678160  0.109530  1.0  0.7354
  C  C1234  1  0.022730  0.672790  0.105290  1.0  -0.1847
  C  C1235  1  0.013200  0.652800  0.093100  1.0  -0.0763
  C  C1236  1  0.135800  0.603300  0.256300  1.0  0.1302
  C  C1237  1  0.153900  0.609300  0.217300  1.0  -0.0533
  C  C1238  1  0.159700  0.622100  0.191100  1.0  0.5664
  C  C1239  1  0.132100  0.609700  0.233800  1.0  0.1697
  C  C1240  1  0.161500  0.594800  0.260600  1.0  -0.064
  C  C1241  1  0.416570  0.881850  0.643750  1.0  0.764
  C  C1242  1  0.432010  0.903810  0.649440  1.0  -0.2053
  C  C1243  1  0.445670  0.917920  0.633400  1.0  -0.0766
  C  C1244  1  0.458430  0.937650  0.646160  1.0  -0.0618
  C  C1245  1  0.453540  0.938210  0.670700  1.0  -0.1984
  C  C1246  1  0.463300  0.955710  0.689970  1.0  0.7471
  C  C1247  1  0.343910  0.810070  0.707160  1.0  0.7161
  C  C1248  1  0.329450  0.813270  0.730540  1.0  -0.2061
  C  C1249  1  0.309440  0.800130  0.738800  1.0  -0.0631
  C  C1250  1  0.384680  0.743450  0.672950  1.0  0.7307
  C  C1251  1  0.391010  0.721780  0.689450  1.0  -0.1652
  C  C1252  1  0.413520  0.711430  0.692960  1.0  -0.0441
  C  C1253  1  0.450640  0.821840  0.609530  1.0  0.7432
  C  C1254  1  0.477270  0.827210  0.605290  1.0  -0.1858
  C  C1255  1  0.486800  0.847200  0.593100  1.0  -0.0792
  C  C1256  1  0.364200  0.896700  0.756300  1.0  0.1314
  C  C1257  1  0.346100  0.890700  0.717300  1.0  -0.0489
  C  C1258  1  0.340300  0.877900  0.691100  1.0  0.5669
  C  C1259  1  0.367900  0.890300  0.733800  1.0  0.172
  C  C1260  1  0.338500  0.905200  0.760600  1.0  -0.0617
  C  C1261  1  0.916570  0.381850  0.143750  1.0  0.764
  C  C1262  1  0.932010  0.403810  0.149440  1.0  -0.2053
  C  C1263  1  0.945670  0.417920  0.133400  1.0  -0.0766
  C  C1264  1  0.958430  0.437650  0.146160  1.0  -0.0618
  C  C1265  1  0.953540  0.438210  0.170700  1.0  -0.1984
  C  C1266  1  0.963300  0.455710  0.189970  1.0  0.7471
  C  C1267  1  0.843910  0.310070  0.207160  1.0  0.7161
  C  C1268  1  0.829450  0.313270  0.230540  1.0  -0.2061
  C  C1269  1  0.809440  0.300130  0.238800  1.0  -0.0631
  C  C1270  1  0.884680  0.243450  0.172950  1.0  0.7307
  C  C1271  1  0.891010  0.221780  0.189450  1.0  -0.1652
  C  C1272  1  0.913520  0.211430  0.192960  1.0  -0.0441
  C  C1273  1  0.950640  0.321840  0.109530  1.0  0.7432
  C  C1274  1  0.977270  0.327210  0.105290  1.0  -0.1858
  C  C1275  1  0.986800  0.347200  0.093100  1.0  -0.0792
  C  C1276  1  0.864200  0.396700  0.256300  1.0  0.1314
  C  C1277  1  0.846100  0.390700  0.217300  1.0  -0.0525
  C  C1278  1  0.840300  0.377900  0.191100  1.0  0.5669
  C  C1279  1  0.867900  0.390300  0.233800  1.0  0.172
  C  C1280  1  0.838500  0.405200  0.260600  1.0  -0.0617
  C  C1281  1  0.583430  0.881850  0.356250  1.0  0.7631
  C  C1282  1  0.567990  0.903810  0.350560  1.0  -0.2053
  C  C1283  1  0.554330  0.917920  0.366600  1.0  -0.0764
  C  C1284  1  0.541570  0.937650  0.353840  1.0  -0.0601
  C  C1285  1  0.546460  0.938210  0.329300  1.0  -0.1984
  C  C1286  1  0.536700  0.955710  0.310030  1.0  0.7479
  C  C1287  1  0.656090  0.810070  0.292840  1.0  0.7176
  C  C1288  1  0.670550  0.813270  0.269460  1.0  -0.2073
  C  C1289  1  0.690560  0.800130  0.261200  1.0  -0.0617
  C  C1290  1  0.615320  0.743450  0.327050  1.0  0.7296
  C  C1291  1  0.608990  0.721780  0.310550  1.0  -0.1646
  C  C1292  1  0.586480  0.711430  0.307040  1.0  -0.044
  C  C1293  1  0.549360  0.821840  0.390470  1.0  0.7379
  C  C1294  1  0.522730  0.827210  0.394710  1.0  -0.1874
  C  C1295  1  0.513200  0.847200  0.406900  1.0  -0.0792
  C  C1296  1  0.635800  0.896700  0.243700  1.0  0.1317
  C  C1297  1  0.653900  0.890700  0.282700  1.0  -0.0494
  C  C1298  1  0.659700  0.877900  0.308900  1.0  0.5684
  C  C1299  1  0.632100  0.890300  0.266200  1.0  0.1718
  C  C1300  1  0.661500  0.905200  0.239400  1.0  -0.0589
  C  C1301  1  0.083430  0.381850  0.856250  1.0  0.7631
  C  C1302  1  0.067990  0.403810  0.850560  1.0  -0.2053
  C  C1303  1  0.054330  0.417920  0.866600  1.0  -0.0764
  C  C1304  1  0.041570  0.437650  0.853840  1.0  -0.0601
  C  C1305  1  0.046460  0.438210  0.829300  1.0  -0.1984
  C  C1306  1  0.036700  0.455710  0.810030  1.0  0.7479
  C  C1307  1  0.156090  0.310070  0.792840  1.0  0.7176
  C  C1308  1  0.170550  0.313270  0.769460  1.0  -0.2073
  C  C1309  1  0.190560  0.300130  0.761200  1.0  -0.0617
  C  C1310  1  0.115320  0.243450  0.827050  1.0  0.7296
  C  C1311  1  0.108990  0.221780  0.810550  1.0  -0.1646
  C  C1312  1  0.086480  0.211430  0.807040  1.0  -0.044
  C  C1313  1  0.049360  0.321840  0.890470  1.0  0.7379
  C  C1314  1  0.022730  0.327210  0.894710  1.0  -0.1868
  C  C1315  1  0.013200  0.347200  0.906900  1.0  -0.0792
  C  C1316  1  0.135800  0.396700  0.743700  1.0  0.1317
  C  C1317  1  0.153900  0.390700  0.782700  1.0  -0.0531
  C  C1318  1  0.159700  0.377900  0.808900  1.0  0.5684
  C  C1319  1  0.132100  0.390300  0.766200  1.0  0.1718
  C  C1320  1  0.161500  0.405200  0.739400  1.0  -0.0589
  C  C1321  1  0.416570  0.356250  0.881850  1.0  0.7637
  C  C1322  1  0.432010  0.350560  0.903810  1.0  -0.2043
  C  C1323  1  0.445670  0.366600  0.917920  1.0  -0.0794
  C  C1324  1  0.458430  0.353840  0.937650  1.0  -0.0616
  C  C1325  1  0.453540  0.329300  0.938210  1.0  -0.1956
  C  C1326  1  0.463300  0.310030  0.955710  1.0  0.7455
  C  C1327  1  0.343910  0.292840  0.810070  1.0  0.7174
  C  C1328  1  0.329450  0.269460  0.813270  1.0  -0.2056
  C  C1329  1  0.309440  0.261200  0.800130  1.0  -0.0648
  C  C1330  1  0.384680  0.327050  0.743450  1.0  0.7313
  C  C1331  1  0.391010  0.310550  0.721780  1.0  -0.1666
  C  C1332  1  0.413520  0.307040  0.711430  1.0  -0.0425
  C  C1333  1  0.450640  0.390470  0.821840  1.0  0.7447
  C  C1334  1  0.477270  0.394710  0.827210  1.0  -0.1896
  C  C1335  1  0.486800  0.406900  0.847200  1.0  -0.0791
  C  C1336  1  0.364200  0.243700  0.896700  1.0  0.1369
  C  C1337  1  0.346100  0.282700  0.890700  1.0  -0.0496
  C  C1338  1  0.340300  0.308900  0.877900  1.0  0.5651
  C  C1339  1  0.367900  0.266200  0.890300  1.0  0.1731
  C  C1340  1  0.338500  0.239400  0.905200  1.0  -0.0613
  C  C1341  1  0.916570  0.856250  0.381850  1.0  0.7637
  C  C1342  1  0.932010  0.850560  0.403810  1.0  -0.2043
  C  C1343  1  0.945670  0.866600  0.417920  1.0  -0.0794
  C  C1344  1  0.958430  0.853840  0.437650  1.0  -0.0616
  C  C1345  1  0.953540  0.829300  0.438210  1.0  -0.1956
  C  C1346  1  0.963300  0.810030  0.455710  1.0  0.7455
  C  C1347  1  0.843910  0.792840  0.310070  1.0  0.7174
  C  C1348  1  0.829450  0.769460  0.313270  1.0  -0.2056
  C  C1349  1  0.809440  0.761200  0.300130  1.0  -0.0648
  C  C1350  1  0.884680  0.827050  0.243450  1.0  0.7313
  C  C1351  1  0.891010  0.810550  0.221780  1.0  -0.1666
  C  C1352  1  0.913520  0.807040  0.211430  1.0  -0.0425
  C  C1353  1  0.950640  0.890470  0.321840  1.0  0.7447
  C  C1354  1  0.977270  0.894710  0.327210  1.0  -0.1896
  C  C1355  1  0.986800  0.906900  0.347200  1.0  -0.0791
  C  C1356  1  0.864200  0.743700  0.396700  1.0  0.1369
  C  C1357  1  0.846100  0.782700  0.390700  1.0  -0.0534
  C  C1358  1  0.840300  0.808900  0.377900  1.0  0.5651
  C  C1359  1  0.867900  0.766200  0.390300  1.0  0.1731
  C  C1360  1  0.838500  0.739400  0.405200  1.0  -0.0613
  C  C1361  1  0.583430  0.643750  0.881850  1.0  0.762
  C  C1362  1  0.567990  0.649440  0.903810  1.0  -0.2033
  C  C1363  1  0.554330  0.633400  0.917920  1.0  -0.0785
  C  C1364  1  0.541570  0.646160  0.937650  1.0  -0.0621
  C  C1365  1  0.546460  0.670700  0.938210  1.0  -0.1956
  C  C1366  1  0.536700  0.689970  0.955710  1.0  0.7472
  C  C1367  1  0.656090  0.707160  0.810070  1.0  0.717
  C  C1368  1  0.670550  0.730540  0.813270  1.0  -0.2056
  C  C1369  1  0.690560  0.738800  0.800130  1.0  -0.0638
  C  C1370  1  0.615320  0.672950  0.743450  1.0  0.7299
  C  C1371  1  0.608990  0.689450  0.721780  1.0  -0.1649
  C  C1372  1  0.586480  0.692960  0.711430  1.0  -0.0423
  C  C1373  1  0.549360  0.609530  0.821840  1.0  0.7367
  C  C1374  1  0.522730  0.605290  0.827210  1.0  -0.1894
  C  C1375  1  0.513200  0.593100  0.847200  1.0  -0.0771
  C  C1376  1  0.635800  0.756300  0.896700  1.0  0.1361
  C  C1377  1  0.653900  0.717300  0.890700  1.0  -0.0488
  C  C1378  1  0.659700  0.691100  0.877900  1.0  0.564
  C  C1379  1  0.632100  0.733800  0.890300  1.0  0.1723
  C  C1380  1  0.661500  0.760600  0.905200  1.0  -0.0562
  C  C1381  1  0.083430  0.143750  0.381850  1.0  0.762
  C  C1382  1  0.067990  0.149440  0.403810  1.0  -0.2033
  C  C1383  1  0.054330  0.133400  0.417920  1.0  -0.0785
  C  C1384  1  0.041570  0.146160  0.437650  1.0  -0.0621
  C  C1385  1  0.046460  0.170700  0.438210  1.0  -0.1956
  C  C1386  1  0.036700  0.189970  0.455710  1.0  0.7472
  C  C1387  1  0.156090  0.207160  0.310070  1.0  0.717
  C  C1388  1  0.170550  0.230540  0.313270  1.0  -0.2056
  C  C1389  1  0.190560  0.238800  0.300130  1.0  -0.0638
  C  C1390  1  0.115320  0.172950  0.243450  1.0  0.7299
  C  C1391  1  0.108990  0.189450  0.221780  1.0  -0.1649
  C  C1392  1  0.086480  0.192960  0.211430  1.0  -0.0423
  C  C1393  1  0.049360  0.109530  0.321840  1.0  0.7367
  C  C1394  1  0.022730  0.105290  0.327210  1.0  -0.1862
  C  C1395  1  0.013200  0.093100  0.347200  1.0  -0.0771
  C  C1396  1  0.135800  0.256300  0.396700  1.0  0.1361
  C  C1397  1  0.153900  0.217300  0.390700  1.0  -0.0526
  C  C1398  1  0.159700  0.191100  0.377900  1.0  0.564
  C  C1399  1  0.132100  0.233800  0.390300  1.0  0.1723
  C  C1400  1  0.161500  0.260600  0.405200  1.0  -0.0562
  C  C1401  1  0.416570  0.643750  0.118150  1.0  0.7635
  C  C1402  1  0.432010  0.649440  0.096190  1.0  -0.2033
  C  C1403  1  0.445670  0.633400  0.082080  1.0  -0.0774
  C  C1404  1  0.458430  0.646160  0.062350  1.0  -0.0624
  C  C1405  1  0.453540  0.670700  0.061790  1.0  -0.1962
  C  C1406  1  0.463300  0.689970  0.044290  1.0  0.7461
  C  C1407  1  0.343910  0.707160  0.189930  1.0  0.7156
  C  C1408  1  0.329450  0.730540  0.186730  1.0  -0.2062
  C  C1409  1  0.309440  0.738800  0.199870  1.0  -0.0646
  C  C1410  1  0.384680  0.672950  0.256550  1.0  0.731
  C  C1411  1  0.391010  0.689450  0.278220  1.0  -0.1663
  C  C1412  1  0.413520  0.692960  0.288570  1.0  -0.0427
  C  C1413  1  0.450640  0.609530  0.178160  1.0  0.7446
  C  C1414  1  0.477270  0.605290  0.172790  1.0  -0.1887
  C  C1415  1  0.486800  0.593100  0.152800  1.0  -0.0792
  C  C1416  1  0.364200  0.756300  0.103300  1.0  0.1369
  C  C1417  1  0.346100  0.717300  0.109300  1.0  -0.0532
  C  C1418  1  0.340300  0.691100  0.122100  1.0  0.5626
  C  C1419  1  0.367900  0.733800  0.109700  1.0  0.1718
  C  C1420  1  0.338500  0.760600  0.094800  1.0  -0.0591
  C  C1421  1  0.916570  0.143750  0.618150  1.0  0.7635
  C  C1422  1  0.932010  0.149440  0.596190  1.0  -0.2033
  C  C1423  1  0.945670  0.133400  0.582080  1.0  -0.0774
  C  C1424  1  0.958430  0.146160  0.562350  1.0  -0.0624
  C  C1425  1  0.953540  0.170700  0.561790  1.0  -0.1962
  C  C1426  1  0.963300  0.189970  0.544290  1.0  0.7461
  C  C1427  1  0.843910  0.207160  0.689930  1.0  0.7156
  C  C1428  1  0.829450  0.230540  0.686730  1.0  -0.2062
  C  C1429  1  0.809440  0.238800  0.699870  1.0  -0.0646
  C  C1430  1  0.884680  0.172950  0.756550  1.0  0.731
  C  C1431  1  0.891010  0.189450  0.778220  1.0  -0.1663
  C  C1432  1  0.913520  0.192960  0.788570  1.0  -0.0427
  C  C1433  1  0.950640  0.109530  0.678160  1.0  0.7446
  C  C1434  1  0.977270  0.105290  0.672790  1.0  -0.1887
  C  C1435  1  0.986800  0.093100  0.652800  1.0  -0.0792
  C  C1436  1  0.864200  0.256300  0.603300  1.0  0.1369
  C  C1437  1  0.846100  0.217300  0.609300  1.0  -0.0532
  C  C1438  1  0.840300  0.191100  0.622100  1.0  0.5626
  C  C1439  1  0.867900  0.233800  0.609700  1.0  0.1718
  C  C1440  1  0.838500  0.260600  0.594800  1.0  -0.0591
  C  C1441  1  0.583430  0.356250  0.118150  1.0  0.763
  C  C1442  1  0.567990  0.350560  0.096190  1.0  -0.2035
  C  C1443  1  0.554330  0.366600  0.082080  1.0  -0.0808
  C  C1444  1  0.541570  0.353840  0.062350  1.0  -0.0611
  C  C1445  1  0.546460  0.329300  0.061790  1.0  -0.1958
  C  C1446  1  0.536700  0.310030  0.044290  1.0  0.7472
  C  C1447  1  0.656090  0.292840  0.189930  1.0  0.7169
  C  C1448  1  0.670550  0.269460  0.186730  1.0  -0.206
  C  C1449  1  0.690560  0.261200  0.199870  1.0  -0.0633
  C  C1450  1  0.615320  0.327050  0.256550  1.0  0.7297
  C  C1451  1  0.608990  0.310550  0.278220  1.0  -0.1645
  C  C1452  1  0.586480  0.307040  0.288570  1.0  -0.0428
  C  C1453  1  0.549360  0.390470  0.178160  1.0  0.7408
  C  C1454  1  0.522730  0.394710  0.172790  1.0  -0.1902
  C  C1455  1  0.513200  0.406900  0.152800  1.0  -0.0785
  C  C1456  1  0.635800  0.243700  0.103300  1.0  0.1394
  C  C1457  1  0.653900  0.282700  0.109300  1.0  -0.0519
  C  C1458  1  0.659700  0.308900  0.122100  1.0  0.5662
  C  C1459  1  0.632100  0.266200  0.109700  1.0  0.1717
  C  C1460  1  0.661500  0.239400  0.094800  1.0  -0.0576
  C  C1461  1  0.083430  0.856250  0.618150  1.0  0.763
  C  C1462  1  0.067990  0.850560  0.596190  1.0  -0.2035
  C  C1463  1  0.054330  0.866600  0.582080  1.0  -0.0808
  C  C1464  1  0.041570  0.853840  0.562350  1.0  -0.0611
  C  C1465  1  0.046460  0.829300  0.561790  1.0  -0.1958
  C  C1466  1  0.036700  0.810030  0.544290  1.0  0.7472
  C  C1467  1  0.156090  0.792840  0.689930  1.0  0.7169
  C  C1468  1  0.170550  0.769460  0.686730  1.0  -0.206
  C  C1469  1  0.190560  0.761200  0.699870  1.0  -0.0633
  C  C1470  1  0.115320  0.827050  0.756550  1.0  0.7297
  C  C1471  1  0.108990  0.810550  0.778220  1.0  -0.1645
  C  C1472  1  0.086480  0.807040  0.788570  1.0  -0.0428
  C  C1473  1  0.049360  0.890470  0.678160  1.0  0.7408
  C  C1474  1  0.022730  0.894710  0.672790  1.0  -0.1898
  C  C1475  1  0.013200  0.906900  0.652800  1.0  -0.0785
  C  C1476  1  0.135800  0.743700  0.603300  1.0  0.1394
  C  C1477  1  0.153900  0.782700  0.609300  1.0  -0.0519
  C  C1478  1  0.159700  0.808900  0.622100  1.0  0.5662
  C  C1479  1  0.132100  0.766200  0.609700  1.0  0.1717
  C  C1480  1  0.161500  0.739400  0.594800  1.0  -0.0576
  C  C1481  1  0.356250  0.118150  0.583430  1.0  0.7625
  C  C1482  1  0.350560  0.096190  0.567990  1.0  -0.2017
  C  C1483  1  0.366600  0.082080  0.554330  1.0  -0.0771
  C  C1484  1  0.353840  0.062350  0.541570  1.0  -0.0597
  C  C1485  1  0.329300  0.061790  0.546460  1.0  -0.1958
  C  C1486  1  0.310030  0.044290  0.536700  1.0  0.7468
  C  C1487  1  0.292840  0.189930  0.656090  1.0  0.7174
  C  C1488  1  0.269460  0.186730  0.670550  1.0  -0.2074
  C  C1489  1  0.261200  0.199870  0.690560  1.0  -0.0634
  C  C1490  1  0.327050  0.256550  0.615320  1.0  0.7306
  C  C1491  1  0.310550  0.278220  0.608990  1.0  -0.167
  C  C1492  1  0.307040  0.288570  0.586480  1.0  -0.0433
  C  C1493  1  0.390470  0.178160  0.549360  1.0  0.7442
  C  C1494  1  0.394710  0.172790  0.522730  1.0  -0.1896
  C  C1495  1  0.406900  0.152800  0.513200  1.0  -0.076
  C  C1496  1  0.243700  0.103300  0.635800  1.0  0.1346
  C  C1497  1  0.282700  0.109300  0.653900  1.0  -0.0544
  C  C1498  1  0.308900  0.122100  0.659700  1.0  0.5639
  C  C1499  1  0.266200  0.109700  0.632100  1.0  0.1727
  C  C1500  1  0.239400  0.094800  0.661500  1.0  -0.0608
  C  C1501  1  0.856250  0.618150  0.083430  1.0  0.7625
  C  C1502  1  0.850560  0.596190  0.067990  1.0  -0.2017
  C  C1503  1  0.866600  0.582080  0.054330  1.0  -0.0771
  C  C1504  1  0.853840  0.562350  0.041570  1.0  -0.0597
  C  C1505  1  0.829300  0.561790  0.046460  1.0  -0.1958
  C  C1506  1  0.810030  0.544290  0.036700  1.0  0.7468
  C  C1507  1  0.792840  0.689930  0.156090  1.0  0.7174
  C  C1508  1  0.769460  0.686730  0.170550  1.0  -0.2074
  C  C1509  1  0.761200  0.699870  0.190560  1.0  -0.0634
  C  C1510  1  0.827050  0.756550  0.115320  1.0  0.7306
  C  C1511  1  0.810550  0.778220  0.108990  1.0  -0.167
  C  C1512  1  0.807040  0.788570  0.086480  1.0  -0.0433
  C  C1513  1  0.890470  0.678160  0.049360  1.0  0.7442
  C  C1514  1  0.894710  0.672790  0.022730  1.0  -0.1891
  C  C1515  1  0.906900  0.652800  0.013200  1.0  -0.076
  C  C1516  1  0.743700  0.603300  0.135800  1.0  0.1346
  C  C1517  1  0.782700  0.609300  0.153900  1.0  -0.0544
  C  C1518  1  0.808900  0.622100  0.159700  1.0  0.5639
  C  C1519  1  0.766200  0.609700  0.132100  1.0  0.1727
  C  C1520  1  0.739400  0.594800  0.161500  1.0  -0.0608
  C  C1521  1  0.643750  0.118150  0.416570  1.0  0.7641
  C  C1522  1  0.649440  0.096190  0.432010  1.0  -0.2001
  C  C1523  1  0.633400  0.082080  0.445670  1.0  -0.0799
  C  C1524  1  0.646160  0.062350  0.458430  1.0  -0.06
  C  C1525  1  0.670700  0.061790  0.453540  1.0  -0.1959
  C  C1526  1  0.689970  0.044290  0.463300  1.0  0.7453
  C  C1527  1  0.707160  0.189930  0.343910  1.0  0.7174
  C  C1528  1  0.730540  0.186730  0.329450  1.0  -0.2065
  C  C1529  1  0.738800  0.199870  0.309440  1.0  -0.0641
  C  C1530  1  0.672950  0.256550  0.384680  1.0  0.73
  C  C1531  1  0.689450  0.278220  0.391010  1.0  -0.1653
  C  C1532  1  0.692960  0.288570  0.413520  1.0  -0.0469
  C  C1533  1  0.609530  0.178160  0.450640  1.0  0.7449
  C  C1534  1  0.605290  0.172790  0.477270  1.0  -0.1875
  C  C1535  1  0.593100  0.152800  0.486800  1.0  -0.0777
  C  C1536  1  0.756300  0.103300  0.364200  1.0  0.1357
  C  C1537  1  0.717300  0.109300  0.346100  1.0  -0.0538
  C  C1538  1  0.691100  0.122100  0.340300  1.0  0.561
  C  C1539  1  0.733800  0.109700  0.367900  1.0  0.1741
  C  C1540  1  0.760600  0.094800  0.338500  1.0  -0.0565
  C  C1541  1  0.143750  0.618150  0.916570  1.0  0.7641
  C  C1542  1  0.149440  0.596190  0.932010  1.0  -0.2001
  C  C1543  1  0.133400  0.582080  0.945670  1.0  -0.0799
  C  C1544  1  0.146160  0.562350  0.958430  1.0  -0.06
  C  C1545  1  0.170700  0.561790  0.953540  1.0  -0.1959
  C  C1546  1  0.189970  0.544290  0.963300  1.0  0.7453
  C  C1547  1  0.207160  0.689930  0.843910  1.0  0.7174
  C  C1548  1  0.230540  0.686730  0.829450  1.0  -0.2065
  C  C1549  1  0.238800  0.699870  0.809440  1.0  -0.0641
  C  C1550  1  0.172950  0.756550  0.884680  1.0  0.73
  C  C1551  1  0.189450  0.778220  0.891010  1.0  -0.1653
  C  C1552  1  0.192960  0.788570  0.913520  1.0  -0.0469
  C  C1553  1  0.109530  0.678160  0.950640  1.0  0.7449
  C  C1554  1  0.105290  0.672790  0.977270  1.0  -0.1875
  C  C1555  1  0.093100  0.652800  0.986800  1.0  -0.0777
  C  C1556  1  0.256300  0.603300  0.864200  1.0  0.1357
  C  C1557  1  0.217300  0.609300  0.846100  1.0  -0.0538
  C  C1558  1  0.191100  0.622100  0.840300  1.0  0.561
  C  C1559  1  0.233800  0.609700  0.867900  1.0  0.1741
  C  C1560  1  0.260600  0.594800  0.838500  1.0  -0.0565
  C  C1561  1  0.643750  0.881850  0.583430  1.0  0.7632
  C  C1562  1  0.649440  0.903810  0.567990  1.0  -0.2013
  C  C1563  1  0.633400  0.917920  0.554330  1.0  -0.078
  C  C1564  1  0.646160  0.937650  0.541570  1.0  -0.056
  C  C1565  1  0.670700  0.938210  0.546460  1.0  -0.196
  C  C1566  1  0.689970  0.955710  0.536700  1.0  0.7414
  C  C1567  1  0.707160  0.810070  0.656090  1.0  0.7179
  C  C1568  1  0.730540  0.813270  0.670550  1.0  -0.2066
  C  C1569  1  0.738800  0.800130  0.690560  1.0  -0.063
  C  C1570  1  0.672950  0.743450  0.615320  1.0  0.7298
  C  C1571  1  0.689450  0.721780  0.608990  1.0  -0.1656
  C  C1572  1  0.692960  0.711430  0.586480  1.0  -0.0465
  C  C1573  1  0.609530  0.821840  0.549360  1.0  0.7444
  C  C1574  1  0.605290  0.827210  0.522730  1.0  -0.1878
  C  C1575  1  0.593100  0.847200  0.513200  1.0  -0.0782
  C  C1576  1  0.756300  0.896700  0.635800  1.0  0.1352
  C  C1577  1  0.717300  0.890700  0.653900  1.0  -0.0502
  C  C1578  1  0.691100  0.877900  0.659700  1.0  0.5667
  C  C1579  1  0.733800  0.890300  0.632100  1.0  0.1737
  C  C1580  1  0.760600  0.905200  0.661500  1.0  -0.0568
  C  C1581  1  0.143750  0.381850  0.083430  1.0  0.7632
  C  C1582  1  0.149440  0.403810  0.067990  1.0  -0.2013
  C  C1583  1  0.133400  0.417920  0.054330  1.0  -0.078
  C  C1584  1  0.146160  0.437650  0.041570  1.0  -0.056
  C  C1585  1  0.170700  0.438210  0.046460  1.0  -0.196
  C  C1586  1  0.189970  0.455710  0.036700  1.0  0.7414
  C  C1587  1  0.207160  0.310070  0.156090  1.0  0.7179
  C  C1588  1  0.230540  0.313270  0.170550  1.0  -0.2066
  C  C1589  1  0.238800  0.300130  0.190560  1.0  -0.063
  C  C1590  1  0.172950  0.243450  0.115320  1.0  0.7298
  C  C1591  1  0.189450  0.221780  0.108990  1.0  -0.1656
  C  C1592  1  0.192960  0.211430  0.086480  1.0  -0.0465
  C  C1593  1  0.109530  0.321840  0.049360  1.0  0.7444
  C  C1594  1  0.105290  0.327210  0.022730  1.0  -0.1835
  C  C1595  1  0.093100  0.347200  0.013200  1.0  -0.0782
  C  C1596  1  0.256300  0.396700  0.135800  1.0  0.1352
  C  C1597  1  0.217300  0.390700  0.153900  1.0  -0.0537
  C  C1598  1  0.191100  0.377900  0.159700  1.0  0.5667
  C  C1599  1  0.233800  0.390300  0.132100  1.0  0.1737
  C  C1600  1  0.260600  0.405200  0.161500  1.0  -0.0568
  C  C1601  1  0.356250  0.881850  0.416570  1.0  0.7629
  C  C1602  1  0.350560  0.903810  0.432010  1.0  -0.2019
  C  C1603  1  0.366600  0.917920  0.445670  1.0  -0.0766
  C  C1604  1  0.353840  0.937650  0.458430  1.0  -0.059
  C  C1605  1  0.329300  0.938210  0.453540  1.0  -0.1969
  C  C1606  1  0.310030  0.955710  0.463300  1.0  0.7469
  C  C1607  1  0.292840  0.810070  0.343910  1.0  0.7166
  C  C1608  1  0.269460  0.813270  0.329450  1.0  -0.2063
  C  C1609  1  0.261200  0.800130  0.309440  1.0  -0.0647
  C  C1610  1  0.327050  0.743450  0.384680  1.0  0.7304
  C  C1611  1  0.310550  0.721780  0.391010  1.0  -0.1655
  C  C1612  1  0.307040  0.711430  0.413520  1.0  -0.0444
  C  C1613  1  0.390470  0.821840  0.450640  1.0  0.7446
  C  C1614  1  0.394710  0.827210  0.477270  1.0  -0.1879
  C  C1615  1  0.406900  0.847200  0.486800  1.0  -0.0771
  C  C1616  1  0.243700  0.896700  0.364200  1.0  0.1345
  C  C1617  1  0.282700  0.890700  0.346100  1.0  -0.0489
  C  C1618  1  0.308900  0.877900  0.340300  1.0  0.5681
  C  C1619  1  0.266200  0.890300  0.367900  1.0  0.1739
  C  C1620  1  0.239400  0.905200  0.338500  1.0  -0.0568
  C  C1621  1  0.856250  0.381850  0.916570  1.0  0.7629
  C  C1622  1  0.850560  0.403810  0.932010  1.0  -0.2019
  C  C1623  1  0.866600  0.417920  0.945670  1.0  -0.0766
  C  C1624  1  0.853840  0.437650  0.958430  1.0  -0.059
  C  C1625  1  0.829300  0.438210  0.953540  1.0  -0.1969
  C  C1626  1  0.810030  0.455710  0.963300  1.0  0.7469
  C  C1627  1  0.792840  0.310070  0.843910  1.0  0.7166
  C  C1628  1  0.769460  0.313270  0.829450  1.0  -0.2063
  C  C1629  1  0.761200  0.300130  0.809440  1.0  -0.0647
  C  C1630  1  0.827050  0.243450  0.884680  1.0  0.7304
  C  C1631  1  0.810550  0.221780  0.891010  1.0  -0.1655
  C  C1632  1  0.807040  0.211430  0.913520  1.0  -0.0444
  C  C1633  1  0.890470  0.321840  0.950640  1.0  0.7446
  C  C1634  1  0.894710  0.327210  0.977270  1.0  -0.1879
  C  C1635  1  0.906900  0.347200  0.986800  1.0  -0.0771
  C  C1636  1  0.743700  0.396700  0.864200  1.0  0.1345
  C  C1637  1  0.782700  0.390700  0.846100  1.0  -0.0523
  C  C1638  1  0.808900  0.377900  0.840300  1.0  0.5681
  C  C1639  1  0.766200  0.390300  0.867900  1.0  0.1739
  C  C1640  1  0.739400  0.405200  0.838500  1.0  -0.0568
  C  C1641  1  0.118150  0.416570  0.643750  1.0  0.7622
  C  C1642  1  0.096190  0.432010  0.649440  1.0  -0.2053
  C  C1643  1  0.082080  0.445670  0.633400  1.0  -0.0772
  C  C1644  1  0.062350  0.458430  0.646160  1.0  -0.0611
  C  C1645  1  0.061790  0.453540  0.670700  1.0  -0.1979
  C  C1646  1  0.044290  0.463300  0.689970  1.0  0.748
  C  C1647  1  0.189930  0.343910  0.707160  1.0  0.7182
  C  C1648  1  0.186730  0.329450  0.730540  1.0  -0.2063
  C  C1649  1  0.199870  0.309440  0.738800  1.0  -0.063
  C  C1650  1  0.256550  0.384680  0.672950  1.0  0.7314
  C  C1651  1  0.278220  0.391010  0.689450  1.0  -0.1664
  C  C1652  1  0.288570  0.413520  0.692960  1.0  -0.0444
  C  C1653  1  0.178160  0.450640  0.609530  1.0  0.7437
  C  C1654  1  0.172790  0.477270  0.605290  1.0  -0.1865
  C  C1655  1  0.152800  0.486800  0.593100  1.0  -0.0779
  C  C1656  1  0.103300  0.364200  0.756300  1.0  0.1305
  C  C1657  1  0.109300  0.346100  0.717300  1.0  -0.0556
  C  C1658  1  0.122100  0.340300  0.691100  1.0  0.5674
  C  C1659  1  0.109700  0.367900  0.733800  1.0  0.1714
  C  C1660  1  0.094800  0.338500  0.760600  1.0  -0.0632
  C  C1661  1  0.618150  0.916570  0.143750  1.0  0.7622
  C  C1662  1  0.596190  0.932010  0.149440  1.0  -0.2053
  C  C1663  1  0.582080  0.945670  0.133400  1.0  -0.0772
  C  C1664  1  0.562350  0.958430  0.146160  1.0  -0.0611
  C  C1665  1  0.561790  0.953540  0.170700  1.0  -0.1979
  C  C1666  1  0.544290  0.963300  0.189970  1.0  0.748
  C  C1667  1  0.689930  0.843910  0.207160  1.0  0.7182
  C  C1668  1  0.686730  0.829450  0.230540  1.0  -0.2063
  C  C1669  1  0.699870  0.809440  0.238800  1.0  -0.063
  C  C1670  1  0.756550  0.884680  0.172950  1.0  0.7314
  C  C1671  1  0.778220  0.891010  0.189450  1.0  -0.1664
  C  C1672  1  0.788570  0.913520  0.192960  1.0  -0.0444
  C  C1673  1  0.678160  0.950640  0.109530  1.0  0.7437
  C  C1674  1  0.672790  0.977270  0.105290  1.0  -0.1865
  C  C1675  1  0.652800  0.986800  0.093100  1.0  -0.0779
  C  C1676  1  0.603300  0.864200  0.256300  1.0  0.1305
  C  C1677  1  0.609300  0.846100  0.217300  1.0  -0.0556
  C  C1678  1  0.622100  0.840300  0.191100  1.0  0.5674
  C  C1679  1  0.609700  0.867900  0.233800  1.0  0.1714
  C  C1680  1  0.594800  0.838500  0.260600  1.0  -0.0632
  C  C1681  1  0.118150  0.583430  0.356250  1.0  0.7624
  C  C1682  1  0.096190  0.567990  0.350560  1.0  -0.2034
  C  C1683  1  0.082080  0.554330  0.366600  1.0  -0.0776
  C  C1684  1  0.062350  0.541570  0.353840  1.0  -0.0596
  C  C1685  1  0.061790  0.546460  0.329300  1.0  -0.1983
  C  C1686  1  0.044290  0.536700  0.310030  1.0  0.7473
  C  C1687  1  0.189930  0.656090  0.292840  1.0  0.7189
  C  C1688  1  0.186730  0.670550  0.269460  1.0  -0.2067
  C  C1689  1  0.199870  0.690560  0.261200  1.0  -0.0616
  C  C1690  1  0.256550  0.615320  0.327050  1.0  0.732
  C  C1691  1  0.278220  0.608990  0.310550  1.0  -0.1657
  C  C1692  1  0.288570  0.586480  0.307040  1.0  -0.0447
  C  C1693  1  0.178160  0.549360  0.390470  1.0  0.739
  C  C1694  1  0.172790  0.522730  0.394710  1.0  -0.187
  C  C1695  1  0.152800  0.513200  0.406900  1.0  -0.0785
  C  C1696  1  0.103300  0.635800  0.243700  1.0  0.1315
  C  C1697  1  0.109300  0.653900  0.282700  1.0  -0.0555
  C  C1698  1  0.122100  0.659700  0.308900  1.0  0.5672
  C  C1699  1  0.109700  0.632100  0.266200  1.0  0.1728
  C  C1700  1  0.094800  0.661500  0.239400  1.0  -0.0591
  C  C1701  1  0.618150  0.083430  0.856250  1.0  0.7624
  C  C1702  1  0.596190  0.067990  0.850560  1.0  -0.2034
  C  C1703  1  0.582080  0.054330  0.866600  1.0  -0.0776
  C  C1704  1  0.562350  0.041570  0.853840  1.0  -0.0596
  C  C1705  1  0.561790  0.046460  0.829300  1.0  -0.1983
  C  C1706  1  0.544290  0.036700  0.810030  1.0  0.7473
  C  C1707  1  0.689930  0.156090  0.792840  1.0  0.7189
  C  C1708  1  0.686730  0.170550  0.769460  1.0  -0.2067
  C  C1709  1  0.699870  0.190560  0.761200  1.0  -0.0616
  C  C1710  1  0.756550  0.115320  0.827050  1.0  0.732
  C  C1711  1  0.778220  0.108990  0.810550  1.0  -0.1657
  C  C1712  1  0.788570  0.086480  0.807040  1.0  -0.0447
  C  C1713  1  0.678160  0.049360  0.890470  1.0  0.739
  C  C1714  1  0.672790  0.022730  0.894710  1.0  -0.1828
  C  C1715  1  0.652800  0.013200  0.906900  1.0  -0.0785
  C  C1716  1  0.603300  0.135800  0.743700  1.0  0.1315
  C  C1717  1  0.609300  0.153900  0.782700  1.0  -0.0555
  C  C1718  1  0.622100  0.159700  0.808900  1.0  0.5672
  C  C1719  1  0.609700  0.132100  0.766200  1.0  0.1728
  C  C1720  1  0.594800  0.161500  0.739400  1.0  -0.0591
  C  C1721  1  0.881850  0.416570  0.356250  1.0  0.7643
  C  C1722  1  0.903810  0.432010  0.350560  1.0  -0.2046
  C  C1723  1  0.917920  0.445670  0.366600  1.0  -0.0762
  C  C1724  1  0.937650  0.458430  0.353840  1.0  -0.0602
  C  C1725  1  0.938210  0.453540  0.329300  1.0  -0.1995
  C  C1726  1  0.955710  0.463300  0.310030  1.0  0.7462
  C  C1727  1  0.810070  0.343910  0.292840  1.0  0.718
  C  C1728  1  0.813270  0.329450  0.269460  1.0  -0.2068
  C  C1729  1  0.800130  0.309440  0.261200  1.0  -0.0633
  C  C1730  1  0.743450  0.384680  0.327050  1.0  0.7299
  C  C1731  1  0.721780  0.391010  0.310550  1.0  -0.167
  C  C1732  1  0.711430  0.413520  0.307040  1.0  -0.0423
  C  C1733  1  0.821840  0.450640  0.390470  1.0  0.7427
  C  C1734  1  0.827210  0.477270  0.394710  1.0  -0.1884
  C  C1735  1  0.847200  0.486800  0.406900  1.0  -0.0775
  C  C1736  1  0.896700  0.364200  0.243700  1.0  0.134
  C  C1737  1  0.890700  0.346100  0.282700  1.0  -0.0487
  C  C1738  1  0.877900  0.340300  0.308900  1.0  0.5695
  C  C1739  1  0.890300  0.367900  0.266200  1.0  0.1702
  C  C1740  1  0.905200  0.338500  0.239400  1.0  -0.0585
  C  C1741  1  0.381850  0.916570  0.856250  1.0  0.7643
  C  C1742  1  0.403810  0.932010  0.850560  1.0  -0.2046
  C  C1743  1  0.417920  0.945670  0.866600  1.0  -0.0762
  C  C1744  1  0.437650  0.958430  0.853840  1.0  -0.0602
  C  C1745  1  0.438210  0.953540  0.829300  1.0  -0.1995
  C  C1746  1  0.455710  0.963300  0.810030  1.0  0.7462
  C  C1747  1  0.310070  0.843910  0.792840  1.0  0.718
  C  C1748  1  0.313270  0.829450  0.769460  1.0  -0.2068
  C  C1749  1  0.300130  0.809440  0.761200  1.0  -0.0633
  C  C1750  1  0.243450  0.884680  0.827050  1.0  0.7299
  C  C1751  1  0.221780  0.891010  0.810550  1.0  -0.167
  C  C1752  1  0.211430  0.913520  0.807040  1.0  -0.0423
  C  C1753  1  0.321840  0.950640  0.890470  1.0  0.7427
  C  C1754  1  0.327210  0.977270  0.894710  1.0  -0.1884
  C  C1755  1  0.347200  0.986800  0.906900  1.0  -0.0775
  C  C1756  1  0.396700  0.864200  0.743700  1.0  0.134
  C  C1757  1  0.390700  0.846100  0.782700  1.0  -0.053
  C  C1758  1  0.377900  0.840300  0.808900  1.0  0.5695
  C  C1759  1  0.390300  0.867900  0.766200  1.0  0.1702
  C  C1760  1  0.405200  0.838500  0.739400  1.0  -0.0585
  C  C1761  1  0.881850  0.583430  0.643750  1.0  0.7647
  C  C1762  1  0.903810  0.567990  0.649440  1.0  -0.2043
  C  C1763  1  0.917920  0.554330  0.633400  1.0  -0.0771
  C  C1764  1  0.937650  0.541570  0.646160  1.0  -0.057
  C  C1765  1  0.938210  0.546460  0.670700  1.0  -0.1987
  C  C1766  1  0.955710  0.536700  0.689970  1.0  0.7423
  C  C1767  1  0.810070  0.656090  0.707160  1.0  0.7169
  C  C1768  1  0.813270  0.670550  0.730540  1.0  -0.2054
  C  C1769  1  0.800130  0.690560  0.738800  1.0  -0.0625
  C  C1770  1  0.743450  0.615320  0.672950  1.0  0.7295
  C  C1771  1  0.721780  0.608990  0.689450  1.0  -0.1631
  C  C1772  1  0.711430  0.586480  0.692960  1.0  -0.0398
  C  C1773  1  0.821840  0.549360  0.609530  1.0  0.7418
  C  C1774  1  0.827210  0.522730  0.605290  1.0  -0.1885
  C  C1775  1  0.847200  0.513200  0.593100  1.0  -0.0783
  C  C1776  1  0.896700  0.635800  0.756300  1.0  0.1325
  C  C1777  1  0.890700  0.653900  0.717300  1.0  -0.0471
  C  C1778  1  0.877900  0.659700  0.691100  1.0  0.5694
  C  C1779  1  0.890300  0.632100  0.733800  1.0  0.1703
  C  C1780  1  0.905200  0.661500  0.760600  1.0  -0.0613
  C  C1781  1  0.381850  0.083430  0.143750  1.0  0.7647
  C  C1782  1  0.403810  0.067990  0.149440  1.0  -0.2043
  C  C1783  1  0.417920  0.054330  0.133400  1.0  -0.0771
  C  C1784  1  0.437650  0.041570  0.146160  1.0  -0.057
  C  C1785  1  0.438210  0.046460  0.170700  1.0  -0.1987
  C  C1786  1  0.455710  0.036700  0.189970  1.0  0.7423
  C  C1787  1  0.310070  0.156090  0.207160  1.0  0.7169
  C  C1788  1  0.313270  0.170550  0.230540  1.0  -0.2054
  C  C1789  1  0.300130  0.190560  0.238800  1.0  -0.0625
  C  C1790  1  0.243450  0.115320  0.172950  1.0  0.7295
  C  C1791  1  0.221780  0.108990  0.189450  1.0  -0.1631
  C  C1792  1  0.211430  0.086480  0.192960  1.0  -0.0398
  C  C1793  1  0.321840  0.049360  0.109530  1.0  0.7418
  C  C1794  1  0.327210  0.022730  0.105290  1.0  -0.1878
  C  C1795  1  0.347200  0.013200  0.093100  1.0  -0.0783
  C  C1796  1  0.396700  0.135800  0.256300  1.0  0.1325
  C  C1797  1  0.390700  0.153900  0.217300  1.0  -0.0513
  C  C1798  1  0.377900  0.159700  0.191100  1.0  0.5694
  C  C1799  1  0.390300  0.132100  0.233800  1.0  0.1703
  C  C1800  1  0.405200  0.161500  0.260600  1.0  -0.0613
  C  C1801  1  0.643750  0.583430  0.881850  1.0  0.7632
  C  C1802  1  0.649440  0.567990  0.903810  1.0  -0.2002
  C  C1803  1  0.633400  0.554330  0.917920  1.0  -0.0803
  C  C1804  1  0.646160  0.541570  0.937650  1.0  -0.0615
  C  C1805  1  0.670700  0.546460  0.938210  1.0  -0.1956
  C  C1806  1  0.689970  0.536700  0.955710  1.0  0.7453
  C  C1807  1  0.707160  0.656090  0.810070  1.0  0.7176
  C  C1808  1  0.730540  0.670550  0.813270  1.0  -0.2073
  C  C1809  1  0.738800  0.690560  0.800130  1.0  -0.063
  C  C1810  1  0.672950  0.615320  0.743450  1.0  0.7308
  C  C1811  1  0.689450  0.608990  0.721780  1.0  -0.1654
  C  C1812  1  0.692960  0.586480  0.711430  1.0  -0.0436
  C  C1813  1  0.609530  0.549360  0.821840  1.0  0.7399
  C  C1814  1  0.605290  0.522730  0.827210  1.0  -0.1857
  C  C1815  1  0.593100  0.513200  0.847200  1.0  -0.0792
  C  C1816  1  0.756300  0.635800  0.896700  1.0  0.1376
  C  C1817  1  0.717300  0.653900  0.890700  1.0  -0.0497
  C  C1818  1  0.691100  0.659700  0.877900  1.0  0.5642
  C  C1819  1  0.733800  0.632100  0.890300  1.0  0.1767
  C  C1820  1  0.760600  0.661500  0.905200  1.0  -0.0553
  C  C1821  1  0.143750  0.083430  0.381850  1.0  0.7632
  C  C1822  1  0.149440  0.067990  0.403810  1.0  -0.2002
  C  C1823  1  0.133400  0.054330  0.417920  1.0  -0.0803
  C  C1824  1  0.146160  0.041570  0.437650  1.0  -0.0615
  C  C1825  1  0.170700  0.046460  0.438210  1.0  -0.1956
  C  C1826  1  0.189970  0.036700  0.455710  1.0  0.7453
  C  C1827  1  0.207160  0.156090  0.310070  1.0  0.7176
  C  C1828  1  0.230540  0.170550  0.313270  1.0  -0.2073
  C  C1829  1  0.238800  0.190560  0.300130  1.0  -0.063
  C  C1830  1  0.172950  0.115320  0.243450  1.0  0.7308
  C  C1831  1  0.189450  0.108990  0.221780  1.0  -0.1654
  C  C1832  1  0.192960  0.086480  0.211430  1.0  -0.0436
  C  C1833  1  0.109530  0.049360  0.321840  1.0  0.7399
  C  C1834  1  0.105290  0.022730  0.327210  1.0  -0.1857
  C  C1835  1  0.093100  0.013200  0.347200  1.0  -0.0792
  C  C1836  1  0.256300  0.135800  0.396700  1.0  0.1376
  C  C1837  1  0.217300  0.153900  0.390700  1.0  -0.0533
  C  C1838  1  0.191100  0.159700  0.377900  1.0  0.5642
  C  C1839  1  0.233800  0.132100  0.390300  1.0  0.1767
  C  C1840  1  0.260600  0.161500  0.405200  1.0  -0.0553
  C  C1841  1  0.356250  0.416570  0.881850  1.0  0.7621
  C  C1842  1  0.350560  0.432010  0.903810  1.0  -0.2017
  C  C1843  1  0.366600  0.445670  0.917920  1.0  -0.0775
  C  C1844  1  0.353840  0.458430  0.937650  1.0  -0.0608
  C  C1845  1  0.329300  0.453540  0.938210  1.0  -0.197
  C  C1846  1  0.310030  0.463300  0.955710  1.0  0.7463
  C  C1847  1  0.292840  0.343910  0.810070  1.0  0.7169
  C  C1848  1  0.269460  0.329450  0.813270  1.0  -0.2078
  C  C1849  1  0.261200  0.309440  0.800130  1.0  -0.0651
  C  C1850  1  0.327050  0.384680  0.743450  1.0  0.7316
  C  C1851  1  0.310550  0.391010  0.721780  1.0  -0.167
  C  C1852  1  0.307040  0.413520  0.711430  1.0  -0.0425
  C  C1853  1  0.390470  0.450640  0.821840  1.0  0.745
  C  C1854  1  0.394710  0.477270  0.827210  1.0  -0.1903
  C  C1855  1  0.406900  0.486800  0.847200  1.0  -0.0775
  C  C1856  1  0.243700  0.364200  0.896700  1.0  0.1365
  C  C1857  1  0.282700  0.346100  0.890700  1.0  -0.0492
  C  C1858  1  0.308900  0.340300  0.877900  1.0  0.5653
  C  C1859  1  0.266200  0.367900  0.890300  1.0  0.1742
  C  C1860  1  0.239400  0.338500  0.905200  1.0  -0.058
  C  C1861  1  0.856250  0.916570  0.381850  1.0  0.7621
  C  C1862  1  0.850560  0.932010  0.403810  1.0  -0.2017
  C  C1863  1  0.866600  0.945670  0.417920  1.0  -0.0775
  C  C1864  1  0.853840  0.958430  0.437650  1.0  -0.0608
  C  C1865  1  0.829300  0.953540  0.438210  1.0  -0.197
  C  C1866  1  0.810030  0.963300  0.455710  1.0  0.7463
  C  C1867  1  0.792840  0.843910  0.310070  1.0  0.7169
  C  C1868  1  0.769460  0.829450  0.313270  1.0  -0.2078
  C  C1869  1  0.761200  0.809440  0.300130  1.0  -0.0651
  C  C1870  1  0.827050  0.884680  0.243450  1.0  0.7316
  C  C1871  1  0.810550  0.891010  0.221780  1.0  -0.167
  C  C1872  1  0.807040  0.913520  0.211430  1.0  -0.0425
  C  C1873  1  0.890470  0.950640  0.321840  1.0  0.745
  C  C1874  1  0.894710  0.977270  0.327210  1.0  -0.1901
  C  C1875  1  0.906900  0.986800  0.347200  1.0  -0.0775
  C  C1876  1  0.743700  0.864200  0.396700  1.0  0.1365
  C  C1877  1  0.782700  0.846100  0.390700  1.0  -0.0529
  C  C1878  1  0.808900  0.840300  0.377900  1.0  0.5653
  C  C1879  1  0.766200  0.867900  0.390300  1.0  0.1742
  C  C1880  1  0.739400  0.838500  0.405200  1.0  -0.058
  C  C1881  1  0.356250  0.583430  0.118150  1.0  0.7626
  C  C1882  1  0.350560  0.567990  0.096190  1.0  -0.2019
  C  C1883  1  0.366600  0.554330  0.082080  1.0  -0.078
  C  C1884  1  0.353840  0.541570  0.062350  1.0  -0.0605
  C  C1885  1  0.329300  0.546460  0.061790  1.0  -0.1961
  C  C1886  1  0.310030  0.536700  0.044290  1.0  0.7466
  C  C1887  1  0.292840  0.656090  0.189930  1.0  0.7161
  C  C1888  1  0.269460  0.670550  0.186730  1.0  -0.2073
  C  C1889  1  0.261200  0.690560  0.199870  1.0  -0.0626
  C  C1890  1  0.327050  0.615320  0.256550  1.0  0.7316
  C  C1891  1  0.310550  0.608990  0.278220  1.0  -0.1655
  C  C1892  1  0.307040  0.586480  0.288570  1.0  -0.04
  C  C1893  1  0.390470  0.549360  0.178160  1.0  0.7441
  C  C1894  1  0.394710  0.522730  0.172790  1.0  -0.1895
  C  C1895  1  0.406900  0.513200  0.152800  1.0  -0.0776
  C  C1896  1  0.243700  0.635800  0.103300  1.0  0.138
  C  C1897  1  0.282700  0.653900  0.109300  1.0  -0.0517
  C  C1898  1  0.308900  0.659700  0.122100  1.0  0.5639
  C  C1899  1  0.266200  0.632100  0.109700  1.0  0.1725
  C  C1900  1  0.239400  0.661500  0.094800  1.0  -0.0559
  C  C1901  1  0.856250  0.083430  0.618150  1.0  0.7626
  C  C1902  1  0.850560  0.067990  0.596190  1.0  -0.2019
  C  C1903  1  0.866600  0.054330  0.582080  1.0  -0.078
  C  C1904  1  0.853840  0.041570  0.562350  1.0  -0.0605
  C  C1905  1  0.829300  0.046460  0.561790  1.0  -0.1961
  C  C1906  1  0.810030  0.036700  0.544290  1.0  0.7466
  C  C1907  1  0.792840  0.156090  0.689930  1.0  0.7161
  C  C1908  1  0.769460  0.170550  0.686730  1.0  -0.2073
  C  C1909  1  0.761200  0.190560  0.699870  1.0  -0.0626
  C  C1910  1  0.827050  0.115320  0.756550  1.0  0.7316
  C  C1911  1  0.810550  0.108990  0.778220  1.0  -0.1655
  C  C1912  1  0.807040  0.086480  0.788570  1.0  -0.04
  C  C1913  1  0.890470  0.049360  0.678160  1.0  0.7441
  C  C1914  1  0.894710  0.022730  0.672790  1.0  -0.1895
  C  C1915  1  0.906900  0.013200  0.652800  1.0  -0.0776
  C  C1916  1  0.743700  0.135800  0.603300  1.0  0.138
  C  C1917  1  0.782700  0.153900  0.609300  1.0  -0.0517
  C  C1918  1  0.808900  0.159700  0.622100  1.0  0.5639
  C  C1919  1  0.766200  0.132100  0.609700  1.0  0.1725
  C  C1920  1  0.739400  0.161500  0.594800  1.0  -0.0559
  C  C1921  1  0.643750  0.416570  0.118150  1.0  0.7633
  C  C1922  1  0.649440  0.432010  0.096190  1.0  -0.2011
  C  C1923  1  0.633400  0.445670  0.082080  1.0  -0.0789
  C  C1924  1  0.646160  0.458430  0.062350  1.0  -0.0622
  C  C1925  1  0.670700  0.453540  0.061790  1.0  -0.1957
  C  C1926  1  0.689970  0.463300  0.044290  1.0  0.7455
  C  C1927  1  0.707160  0.343910  0.189930  1.0  0.7178
  C  C1928  1  0.730540  0.329450  0.186730  1.0  -0.2069
  C  C1929  1  0.738800  0.309440  0.199870  1.0  -0.0628
  C  C1930  1  0.672950  0.384680  0.256550  1.0  0.7309
  C  C1931  1  0.689450  0.391010  0.278220  1.0  -0.1658
  C  C1932  1  0.692960  0.413520  0.288570  1.0  -0.0443
  C  C1933  1  0.609530  0.450640  0.178160  1.0  0.7447
  C  C1934  1  0.605290  0.477270  0.172790  1.0  -0.1858
  C  C1935  1  0.593100  0.486800  0.152800  1.0  -0.0783
  C  C1936  1  0.756300  0.364200  0.103300  1.0  0.1378
  C  C1937  1  0.717300  0.346100  0.109300  1.0  -0.0527
  C  C1938  1  0.691100  0.340300  0.122100  1.0  0.5617
  C  C1939  1  0.733800  0.367900  0.109700  1.0  0.175
  C  C1940  1  0.760600  0.338500  0.094800  1.0  -0.0549
  C  C1941  1  0.143750  0.916570  0.618150  1.0  0.7633
  C  C1942  1  0.149440  0.932010  0.596190  1.0  -0.2011
  C  C1943  1  0.133400  0.945670  0.582080  1.0  -0.0789
  C  C1944  1  0.146160  0.958430  0.562350  1.0  -0.0622
  C  C1945  1  0.170700  0.953540  0.561790  1.0  -0.1957
  C  C1946  1  0.189970  0.963300  0.544290  1.0  0.7455
  C  C1947  1  0.207160  0.843910  0.689930  1.0  0.7178
  C  C1948  1  0.230540  0.829450  0.686730  1.0  -0.2069
  C  C1949  1  0.238800  0.809440  0.699870  1.0  -0.0628
  C  C1950  1  0.172950  0.884680  0.756550  1.0  0.7309
  C  C1951  1  0.189450  0.891010  0.778220  1.0  -0.1658
  C  C1952  1  0.192960  0.913520  0.788570  1.0  -0.0443
  C  C1953  1  0.109530  0.950640  0.678160  1.0  0.7447
  C  C1954  1  0.105290  0.977270  0.672790  1.0  -0.1888
  C  C1955  1  0.093100  0.986800  0.652800  1.0  -0.0783
  C  C1956  1  0.256300  0.864200  0.603300  1.0  0.1378
  C  C1957  1  0.217300  0.846100  0.609300  1.0  -0.0527
  C  C1958  1  0.191100  0.840300  0.622100  1.0  0.5617
  C  C1959  1  0.233800  0.867900  0.609700  1.0  0.175
  C  C1960  1  0.260600  0.838500  0.594800  1.0  -0.0549
  C  C1961  1  0.881850  0.643750  0.583430  1.0  0.7638
  C  C1962  1  0.903810  0.649440  0.567990  1.0  -0.2022
  C  C1963  1  0.917920  0.633400  0.554330  1.0  -0.0771
  C  C1964  1  0.937650  0.646160  0.541570  1.0  -0.0558
  C  C1965  1  0.938210  0.670700  0.546460  1.0  -0.1958
  C  C1966  1  0.955710  0.689970  0.536700  1.0  0.741
  C  C1967  1  0.810070  0.707160  0.656090  1.0  0.7177
  C  C1968  1  0.813270  0.730540  0.670550  1.0  -0.2062
  C  C1969  1  0.800130  0.738800  0.690560  1.0  -0.0631
  C  C1970  1  0.743450  0.672950  0.615320  1.0  0.7286
  C  C1971  1  0.721780  0.689450  0.608990  1.0  -0.1653
  C  C1972  1  0.711430  0.692960  0.586480  1.0  -0.0415
  C  C1973  1  0.821840  0.609530  0.549360  1.0  0.7438
  C  C1974  1  0.827210  0.605290  0.522730  1.0  -0.1891
  C  C1975  1  0.847200  0.593100  0.513200  1.0  -0.0771
  C  C1976  1  0.896700  0.756300  0.635800  1.0  0.136
  C  C1977  1  0.890700  0.717300  0.653900  1.0  -0.0481
  C  C1978  1  0.877900  0.691100  0.659700  1.0  0.57
  C  C1979  1  0.890300  0.733800  0.632100  1.0  0.1691
  C  C1980  1  0.905200  0.760600  0.661500  1.0  -0.0591
  C  C1981  1  0.381850  0.143750  0.083430  1.0  0.7638
  C  C1982  1  0.403810  0.149440  0.067990  1.0  -0.2022
  C  C1983  1  0.417920  0.133400  0.054330  1.0  -0.0771
  C  C1984  1  0.437650  0.146160  0.041570  1.0  -0.0558
  C  C1985  1  0.438210  0.170700  0.046460  1.0  -0.1958
  C  C1986  1  0.455710  0.189970  0.036700  1.0  0.741
  C  C1987  1  0.310070  0.207160  0.156090  1.0  0.7177
  C  C1988  1  0.313270  0.230540  0.170550  1.0  -0.2062
  C  C1989  1  0.300130  0.238800  0.190560  1.0  -0.0631
  C  C1990  1  0.243450  0.172950  0.115320  1.0  0.7286
  C  C1991  1  0.221780  0.189450  0.108990  1.0  -0.1653
  C  C1992  1  0.211430  0.192960  0.086480  1.0  -0.0415
  C  C1993  1  0.321840  0.109530  0.049360  1.0  0.7438
  C  C1994  1  0.327210  0.105290  0.022730  1.0  -0.1891
  C  C1995  1  0.347200  0.093100  0.013200  1.0  -0.0771
  C  C1996  1  0.396700  0.256300  0.135800  1.0  0.136
  C  C1997  1  0.390700  0.217300  0.153900  1.0  -0.0524
  C  C1998  1  0.377900  0.191100  0.159700  1.0  0.57
  C  C1999  1  0.390300  0.233800  0.132100  1.0  0.1691
  C  C2000  1  0.405200  0.260600  0.161500  1.0  -0.0591
  C  C2001  1  0.881850  0.356250  0.416570  1.0  0.7648
  C  C2002  1  0.903810  0.350560  0.432010  1.0  -0.2028
  C  C2003  1  0.917920  0.366600  0.445670  1.0  -0.0786
  C  C2004  1  0.937650  0.353840  0.458430  1.0  -0.0596
  C  C2005  1  0.938210  0.329300  0.453540  1.0  -0.1966
  C  C2006  1  0.955710  0.310030  0.463300  1.0  0.7456
  C  C2007  1  0.810070  0.292840  0.343910  1.0  0.7168
  C  C2008  1  0.813270  0.269460  0.329450  1.0  -0.2058
  C  C2009  1  0.800130  0.261200  0.309440  1.0  -0.0644
  C  C2010  1  0.743450  0.327050  0.384680  1.0  0.7287
  C  C2011  1  0.721780  0.310550  0.391010  1.0  -0.1637
  C  C2012  1  0.711430  0.307040  0.413520  1.0  -0.0431
  C  C2013  1  0.821840  0.390470  0.450640  1.0  0.7434
  C  C2014  1  0.827210  0.394710  0.477270  1.0  -0.1895
  C  C2015  1  0.847200  0.406900  0.486800  1.0  -0.0773
  C  C2016  1  0.896700  0.243700  0.364200  1.0  0.1361
  C  C2017  1  0.890700  0.282700  0.346100  1.0  -0.0466
  C  C2018  1  0.877900  0.308900  0.340300  1.0  0.5691
  C  C2019  1  0.890300  0.266200  0.367900  1.0  0.171
  C  C2020  1  0.905200  0.239400  0.338500  1.0  -0.0587
  C  C2021  1  0.381850  0.856250  0.916570  1.0  0.7648
  C  C2022  1  0.403810  0.850560  0.932010  1.0  -0.2028
  C  C2023  1  0.417920  0.866600  0.945670  1.0  -0.0786
  C  C2024  1  0.437650  0.853840  0.958430  1.0  -0.0596
  C  C2025  1  0.438210  0.829300  0.953540  1.0  -0.1966
  C  C2026  1  0.455710  0.810030  0.963300  1.0  0.7456
  C  C2027  1  0.310070  0.792840  0.843910  1.0  0.7168
  C  C2028  1  0.313270  0.769460  0.829450  1.0  -0.2058
  C  C2029  1  0.300130  0.761200  0.809440  1.0  -0.0644
  C  C2030  1  0.243450  0.827050  0.884680  1.0  0.7287
  C  C2031  1  0.221780  0.810550  0.891010  1.0  -0.1637
  C  C2032  1  0.211430  0.807040  0.913520  1.0  -0.0431
  C  C2033  1  0.321840  0.890470  0.950640  1.0  0.7434
  C  C2034  1  0.327210  0.894710  0.977270  1.0  -0.1893
  C  C2035  1  0.347200  0.906900  0.986800  1.0  -0.0773
  C  C2036  1  0.396700  0.743700  0.864200  1.0  0.1361
  C  C2037  1  0.390700  0.782700  0.846100  1.0  -0.0509
  C  C2038  1  0.377900  0.808900  0.840300  1.0  0.5691
  C  C2039  1  0.390300  0.766200  0.867900  1.0  0.171
  C  C2040  1  0.405200  0.739400  0.838500  1.0  -0.0587
  C  C2041  1  0.118150  0.356250  0.583430  1.0  0.762
  C  C2042  1  0.096190  0.350560  0.567990  1.0  -0.2026
  C  C2043  1  0.082080  0.366600  0.554330  1.0  -0.0781
  C  C2044  1  0.062350  0.353840  0.541570  1.0  -0.0597
  C  C2045  1  0.061790  0.329300  0.546460  1.0  -0.1951
  C  C2046  1  0.044290  0.310030  0.536700  1.0  0.7471
  C  C2047  1  0.189930  0.292840  0.656090  1.0  0.7181
  C  C2048  1  0.186730  0.269460  0.670550  1.0  -0.206
  C  C2049  1  0.199870  0.261200  0.690560  1.0  -0.0621
  C  C2050  1  0.256550  0.327050  0.615320  1.0  0.7312
  C  C2051  1  0.278220  0.310550  0.608990  1.0  -0.1666
  C  C2052  1  0.288570  0.307040  0.586480  1.0  -0.0457
  C  C2053  1  0.178160  0.390470  0.549360  1.0  0.7446
  C  C2054  1  0.172790  0.394710  0.522730  1.0  -0.1842
  C  C2055  1  0.152800  0.406900  0.513200  1.0  -0.0773
  C  C2056  1  0.103300  0.243700  0.635800  1.0  0.1347
  C  C2057  1  0.109300  0.282700  0.653900  1.0  -0.0552
  C  C2058  1  0.122100  0.308900  0.659700  1.0  0.5674
  C  C2059  1  0.109700  0.266200  0.632100  1.0  0.1714
  C  C2060  1  0.094800  0.239400  0.661500  1.0  -0.0613
  C  C2061  1  0.618150  0.856250  0.083430  1.0  0.762
  C  C2062  1  0.596190  0.850560  0.067990  1.0  -0.2026
  C  C2063  1  0.582080  0.866600  0.054330  1.0  -0.0781
  C  C2064  1  0.562350  0.853840  0.041570  1.0  -0.0597
  C  C2065  1  0.561790  0.829300  0.046460  1.0  -0.1951
  C  C2066  1  0.544290  0.810030  0.036700  1.0  0.7471
  C  C2067  1  0.689930  0.792840  0.156090  1.0  0.7181
  C  C2068  1  0.686730  0.769460  0.170550  1.0  -0.206
  C  C2069  1  0.699870  0.761200  0.190560  1.0  -0.0621
  C  C2070  1  0.756550  0.827050  0.115320  1.0  0.7312
  C  C2071  1  0.778220  0.810550  0.108990  1.0  -0.1666
  C  C2072  1  0.788570  0.807040  0.086480  1.0  -0.0457
  C  C2073  1  0.678160  0.890470  0.049360  1.0  0.7446
  C  C2074  1  0.672790  0.894710  0.022730  1.0  -0.1842
  C  C2075  1  0.652800  0.906900  0.013200  1.0  -0.0773
  C  C2076  1  0.603300  0.743700  0.135800  1.0  0.1347
  C  C2077  1  0.609300  0.782700  0.153900  1.0  -0.0552
  C  C2078  1  0.622100  0.808900  0.159700  1.0  0.5674
  C  C2079  1  0.609700  0.766200  0.132100  1.0  0.1714
  C  C2080  1  0.594800  0.739400  0.161500  1.0  -0.0613
  C  C2081  1  0.118150  0.643750  0.416570  1.0  0.7624
  C  C2082  1  0.096190  0.649440  0.432010  1.0  -0.2025
  C  C2083  1  0.082080  0.633400  0.445670  1.0  -0.0777
  C  C2084  1  0.062350  0.646160  0.458430  1.0  -0.0586
  C  C2085  1  0.061790  0.670700  0.453540  1.0  -0.1967
  C  C2086  1  0.044290  0.689970  0.463300  1.0  0.7464
  C  C2087  1  0.189930  0.707160  0.343910  1.0  0.7178
  C  C2088  1  0.186730  0.730540  0.329450  1.0  -0.2054
  C  C2089  1  0.199870  0.738800  0.309440  1.0  -0.0627
  C  C2090  1  0.256550  0.672950  0.384680  1.0  0.7308
  C  C2091  1  0.278220  0.689450  0.391010  1.0  -0.1635
  C  C2092  1  0.288570  0.692960  0.413520  1.0  -0.0461
  C  C2093  1  0.178160  0.609530  0.450640  1.0  0.7447
  C  C2094  1  0.172790  0.605290  0.477270  1.0  -0.1839
  C  C2095  1  0.152800  0.593100  0.486800  1.0  -0.0774
  C  C2096  1  0.103300  0.756300  0.364200  1.0  0.1329
  C  C2097  1  0.109300  0.717300  0.346100  1.0  -0.0551
  C  C2098  1  0.122100  0.691100  0.340300  1.0  0.5657
  C  C2099  1  0.109700  0.733800  0.367900  1.0  0.1734
  C  C2100  1  0.094800  0.760600  0.338500  1.0  -0.06
  C  C2101  1  0.618150  0.143750  0.916570  1.0  0.7624
  C  C2102  1  0.596190  0.149440  0.932010  1.0  -0.2025
  C  C2103  1  0.582080  0.133400  0.945670  1.0  -0.0777
  C  C2104  1  0.562350  0.146160  0.958430  1.0  -0.0586
  C  C2105  1  0.561790  0.170700  0.953540  1.0  -0.1967
  C  C2106  1  0.544290  0.189970  0.963300  1.0  0.7464
  C  C2107  1  0.689930  0.207160  0.843910  1.0  0.7178
  C  C2108  1  0.686730  0.230540  0.829450  1.0  -0.2054
  C  C2109  1  0.699870  0.238800  0.809440  1.0  -0.0627
  C  C2110  1  0.756550  0.172950  0.884680  1.0  0.7308
  C  C2111  1  0.778220  0.189450  0.891010  1.0  -0.1635
  C  C2112  1  0.788570  0.192960  0.913520  1.0  -0.0461
  C  C2113  1  0.678160  0.109530  0.950640  1.0  0.7447
  C  C2114  1  0.672790  0.105290  0.977270  1.0  -0.1869
  C  C2115  1  0.652800  0.093100  0.986800  1.0  -0.0774
  C  C2116  1  0.603300  0.256300  0.864200  1.0  0.1329
  C  C2117  1  0.609300  0.217300  0.846100  1.0  -0.0551
  C  C2118  1  0.622100  0.191100  0.840300  1.0  0.5657
  C  C2119  1  0.609700  0.233800  0.867900  1.0  0.1734
  C  C2120  1  0.594800  0.260600  0.838500  1.0  -0.06
  C  C2121  1  0.583430  0.881850  0.643750  1.0  0.7628
  C  C2122  1  0.567990  0.903810  0.649440  1.0  -0.2061
  C  C2123  1  0.554330  0.917920  0.633400  1.0  -0.0775
  C  C2124  1  0.541570  0.937650  0.646160  1.0  -0.0621
  C  C2125  1  0.546460  0.938210  0.670700  1.0  -0.198
  C  C2126  1  0.536700  0.955710  0.689970  1.0  0.749
  C  C2127  1  0.656090  0.810070  0.707160  1.0  0.7169
  C  C2128  1  0.670550  0.813270  0.730540  1.0  -0.2065
  C  C2129  1  0.690560  0.800130  0.738800  1.0  -0.0621
  C  C2130  1  0.615320  0.743450  0.672950  1.0  0.7294
  C  C2131  1  0.608990  0.721780  0.689450  1.0  -0.1643
  C  C2132  1  0.586480  0.711430  0.692960  1.0  -0.0439
  C  C2133  1  0.549360  0.821840  0.609530  1.0  0.7381
  C  C2134  1  0.522730  0.827210  0.605290  1.0  -0.1867
  C  C2135  1  0.513200  0.847200  0.593100  1.0  -0.0793
  C  C2136  1  0.635800  0.896700  0.756300  1.0  0.1307
  C  C2137  1  0.653900  0.890700  0.717300  1.0  -0.0482
  C  C2138  1  0.659700  0.877900  0.691100  1.0  0.5679
  C  C2139  1  0.632100  0.890300  0.733800  1.0  0.1703
  C  C2140  1  0.661500  0.905200  0.760600  1.0  -0.0603
  C  C2141  1  0.083430  0.381850  0.143750  1.0  0.7628
  C  C2142  1  0.067990  0.403810  0.149440  1.0  -0.2061
  C  C2143  1  0.054330  0.417920  0.133400  1.0  -0.0775
  C  C2144  1  0.041570  0.437650  0.146160  1.0  -0.0621
  C  C2145  1  0.046460  0.438210  0.170700  1.0  -0.198
  C  C2146  1  0.036700  0.455710  0.189970  1.0  0.749
  C  C2147  1  0.156090  0.310070  0.207160  1.0  0.7169
  C  C2148  1  0.170550  0.313270  0.230540  1.0  -0.2065
  C  C2149  1  0.190560  0.300130  0.238800  1.0  -0.0621
  C  C2150  1  0.115320  0.243450  0.172950  1.0  0.7294
  C  C2151  1  0.108990  0.221780  0.189450  1.0  -0.1643
  C  C2152  1  0.086480  0.211430  0.192960  1.0  -0.0439
  C  C2153  1  0.049360  0.321840  0.109530  1.0  0.7381
  C  C2154  1  0.022730  0.327210  0.105290  1.0  -0.1867
  C  C2155  1  0.013200  0.347200  0.093100  1.0  -0.0793
  C  C2156  1  0.135800  0.396700  0.256300  1.0  0.1307
  C  C2157  1  0.153900  0.390700  0.217300  1.0  -0.0519
  C  C2158  1  0.159700  0.377900  0.191100  1.0  0.5679
  C  C2159  1  0.132100  0.390300  0.233800  1.0  0.1703
  C  C2160  1  0.161500  0.405200  0.260600  1.0  -0.0603
  C  C2161  1  0.416570  0.881850  0.356250  1.0  0.7641
  C  C2162  1  0.432010  0.903810  0.350560  1.0  -0.2059
  C  C2163  1  0.445670  0.917920  0.366600  1.0  -0.0754
  C  C2164  1  0.458430  0.937650  0.353840  1.0  -0.0599
  C  C2165  1  0.453540  0.938210  0.329300  1.0  -0.1986
  C  C2166  1  0.463300  0.955710  0.310030  1.0  0.7469
  C  C2167  1  0.343910  0.810070  0.292840  1.0  0.7185
  C  C2168  1  0.329450  0.813270  0.269460  1.0  -0.2067
  C  C2169  1  0.309440  0.800130  0.261200  1.0  -0.0627
  C  C2170  1  0.384680  0.743450  0.327050  1.0  0.7309
  C  C2171  1  0.391010  0.721780  0.310550  1.0  -0.1666
  C  C2172  1  0.413520  0.711430  0.307040  1.0  -0.0435
  C  C2173  1  0.450640  0.821840  0.390470  1.0  0.7428
  C  C2174  1  0.477270  0.827210  0.394710  1.0  -0.1858
  C  C2175  1  0.486800  0.847200  0.406900  1.0  -0.079
  C  C2176  1  0.364200  0.896700  0.243700  1.0  0.1315
  C  C2177  1  0.346100  0.890700  0.282700  1.0  -0.0499
  C  C2178  1  0.340300  0.877900  0.308900  1.0  0.5676
  C  C2179  1  0.367900  0.890300  0.266200  1.0  0.1719
  C  C2180  1  0.338500  0.905200  0.239400  1.0  -0.0599
  C  C2181  1  0.916570  0.381850  0.856250  1.0  0.7641
  C  C2182  1  0.932010  0.403810  0.850560  1.0  -0.2059
  C  C2183  1  0.945670  0.417920  0.866600  1.0  -0.0754
  C  C2184  1  0.958430  0.437650  0.853840  1.0  -0.0599
  C  C2185  1  0.953540  0.438210  0.829300  1.0  -0.1986
  C  C2186  1  0.963300  0.455710  0.810030  1.0  0.7469
  C  C2187  1  0.843910  0.310070  0.792840  1.0  0.7185
  C  C2188  1  0.829450  0.313270  0.769460  1.0  -0.2067
  C  C2189  1  0.809440  0.300130  0.761200  1.0  -0.0627
  C  C2190  1  0.884680  0.243450  0.827050  1.0  0.7309
  C  C2191  1  0.891010  0.221780  0.810550  1.0  -0.1666
  C  C2192  1  0.913520  0.211430  0.807040  1.0  -0.0435
  C  C2193  1  0.950640  0.321840  0.890470  1.0  0.7428
  C  C2194  1  0.977270  0.327210  0.894710  1.0  -0.1858
  C  C2195  1  0.986800  0.347200  0.906900  1.0  -0.079
  C  C2196  1  0.864200  0.396700  0.743700  1.0  0.1315
  C  C2197  1  0.846100  0.390700  0.782700  1.0  -0.0535
  C  C2198  1  0.840300  0.377900  0.808900  1.0  0.5676
  C  C2199  1  0.867900  0.390300  0.766200  1.0  0.1719
  C  C2200  1  0.838500  0.405200  0.739400  1.0  -0.0599
  C  C2201  1  0.583430  0.118150  0.356250  1.0  0.7632
  C  C2202  1  0.567990  0.096190  0.350560  1.0  -0.2045
  C  C2203  1  0.554330  0.082080  0.366600  1.0  -0.0777
  C  C2204  1  0.541570  0.062350  0.353840  1.0  -0.0601
  C  C2205  1  0.546460  0.061790  0.329300  1.0  -0.1982
  C  C2206  1  0.536700  0.044290  0.310030  1.0  0.7478
  C  C2207  1  0.656090  0.189930  0.292840  1.0  0.7177
  C  C2208  1  0.670550  0.186730  0.269460  1.0  -0.208
  C  C2209  1  0.690560  0.199870  0.261200  1.0  -0.0626
  C  C2210  1  0.615320  0.256550  0.327050  1.0  0.7298
  C  C2211  1  0.608990  0.278220  0.310550  1.0  -0.1654
  C  C2212  1  0.586480  0.288570  0.307040  1.0  -0.0443
  C  C2213  1  0.549360  0.178160  0.390470  1.0  0.7352
  C  C2214  1  0.522730  0.172790  0.394710  1.0  -0.1845
  C  C2215  1  0.513200  0.152800  0.406900  1.0  -0.0763
  C  C2216  1  0.635800  0.103300  0.243700  1.0  0.1325
  C  C2217  1  0.653900  0.109300  0.282700  1.0  -0.0549
  C  C2218  1  0.659700  0.122100  0.308900  1.0  0.5663
  C  C2219  1  0.632100  0.109700  0.266200  1.0  0.1696
  C  C2220  1  0.661500  0.094800  0.239400  1.0  -0.0593
  C  C2221  1  0.083430  0.618150  0.856250  1.0  0.7632
  C  C2222  1  0.067990  0.596190  0.850560  1.0  -0.2045
  C  C2223  1  0.054330  0.582080  0.866600  1.0  -0.0777
  C  C2224  1  0.041570  0.562350  0.853840  1.0  -0.0601
  C  C2225  1  0.046460  0.561790  0.829300  1.0  -0.1982
  C  C2226  1  0.036700  0.544290  0.810030  1.0  0.7478
  C  C2227  1  0.156090  0.689930  0.792840  1.0  0.7177
  C  C2228  1  0.170550  0.686730  0.769460  1.0  -0.208
  C  C2229  1  0.190560  0.699870  0.761200  1.0  -0.0626
  C  C2230  1  0.115320  0.756550  0.827050  1.0  0.7298
  C  C2231  1  0.108990  0.778220  0.810550  1.0  -0.1654
  C  C2232  1  0.086480  0.788570  0.807040  1.0  -0.0443
  C  C2233  1  0.049360  0.678160  0.890470  1.0  0.7352
  C  C2234  1  0.022730  0.672790  0.894710  1.0  -0.1845
  C  C2235  1  0.013200  0.652800  0.906900  1.0  -0.0763
  C  C2236  1  0.135800  0.603300  0.743700  1.0  0.1325
  C  C2237  1  0.153900  0.609300  0.782700  1.0  -0.0549
  C  C2238  1  0.159700  0.622100  0.808900  1.0  0.5663
  C  C2239  1  0.132100  0.609700  0.766200  1.0  0.1696
  C  C2240  1  0.161500  0.594800  0.739400  1.0  -0.0593
  C  C2241  1  0.416570  0.118150  0.643750  1.0  0.7643
  C  C2242  1  0.432010  0.096190  0.649440  1.0  -0.2055
  C  C2243  1  0.445670  0.082080  0.633400  1.0  -0.0769
  C  C2244  1  0.458430  0.062350  0.646160  1.0  -0.0623
  C  C2245  1  0.453540  0.061790  0.670700  1.0  -0.1981
  C  C2246  1  0.463300  0.044290  0.689970  1.0  0.7476
  C  C2247  1  0.343910  0.189930  0.707160  1.0  0.7158
  C  C2248  1  0.329450  0.186730  0.730540  1.0  -0.2059
  C  C2249  1  0.309440  0.199870  0.738800  1.0  -0.0654
  C  C2250  1  0.384680  0.256550  0.672950  1.0  0.7309
  C  C2251  1  0.391010  0.278220  0.689450  1.0  -0.165
  C  C2252  1  0.413520  0.288570  0.692960  1.0  -0.0438
  C  C2253  1  0.450640  0.178160  0.609530  1.0  0.7429
  C  C2254  1  0.477270  0.172790  0.605290  1.0  -0.1825
  C  C2255  1  0.486800  0.152800  0.593100  1.0  -0.0789
  C  C2256  1  0.364200  0.103300  0.756300  1.0  0.131
  C  C2257  1  0.346100  0.109300  0.717300  1.0  -0.0539
  C  C2258  1  0.340300  0.122100  0.691100  1.0  0.5638
  C  C2259  1  0.367900  0.109700  0.733800  1.0  0.1703
  C  C2260  1  0.338500  0.094800  0.760600  1.0  -0.0658
  C  C2261  1  0.916570  0.618150  0.143750  1.0  0.7643
  C  C2262  1  0.932010  0.596190  0.149440  1.0  -0.2055
  C  C2263  1  0.945670  0.582080  0.133400  1.0  -0.0769
  C  C2264  1  0.958430  0.562350  0.146160  1.0  -0.0623
  C  C2265  1  0.953540  0.561790  0.170700  1.0  -0.1981
  C  C2266  1  0.963300  0.544290  0.189970  1.0  0.7476
  C  C2267  1  0.843910  0.689930  0.207160  1.0  0.7158
  C  C2268  1  0.829450  0.686730  0.230540  1.0  -0.2059
  C  C2269  1  0.809440  0.699870  0.238800  1.0  -0.0654
  C  C2270  1  0.884680  0.756550  0.172950  1.0  0.7309
  C  C2271  1  0.891010  0.778220  0.189450  1.0  -0.165
  C  C2272  1  0.913520  0.788570  0.192960  1.0  -0.0438
  C  C2273  1  0.950640  0.678160  0.109530  1.0  0.7429
  C  C2274  1  0.977270  0.672790  0.105290  1.0  -0.1874
  C  C2275  1  0.986800  0.652800  0.093100  1.0  -0.0789
  C  C2276  1  0.864200  0.603300  0.256300  1.0  0.131
  C  C2277  1  0.846100  0.609300  0.217300  1.0  -0.0539
  C  C2278  1  0.840300  0.622100  0.191100  1.0  0.5638
  C  C2279  1  0.867900  0.609700  0.233800  1.0  0.1703
  C  C2280  1  0.838500  0.594800  0.260600  1.0  -0.0658
  C  C2281  1  0.583430  0.643750  0.118150  1.0  0.7625
  C  C2282  1  0.567990  0.649440  0.096190  1.0  -0.2039
  C  C2283  1  0.554330  0.633400  0.082080  1.0  -0.0783
  C  C2284  1  0.541570  0.646160  0.062350  1.0  -0.0625
  C  C2285  1  0.546460  0.670700  0.061790  1.0  -0.1959
  C  C2286  1  0.536700  0.689970  0.044290  1.0  0.7471
  C  C2287  1  0.656090  0.707160  0.189930  1.0  0.7168
  C  C2288  1  0.670550  0.730540  0.186730  1.0  -0.2064
  C  C2289  1  0.690560  0.738800  0.199870  1.0  -0.064
  C  C2290  1  0.615320  0.672950  0.256550  1.0  0.7293
  C  C2291  1  0.608990  0.689450  0.278220  1.0  -0.1644
  C  C2292  1  0.586480  0.692960  0.288570  1.0  -0.0428
  C  C2293  1  0.549360  0.609530  0.178160  1.0  0.7366
  C  C2294  1  0.522730  0.605290  0.172790  1.0  -0.1864
  C  C2295  1  0.513200  0.593100  0.152800  1.0  -0.0762
  C  C2296  1  0.635800  0.756300  0.103300  1.0  0.1377
  C  C2297  1  0.653900  0.717300  0.109300  1.0  -0.0528
  C  C2298  1  0.659700  0.691100  0.122100  1.0  0.5656
  C  C2299  1  0.632100  0.733800  0.109700  1.0  0.1721
  C  C2300  1  0.661500  0.760600  0.094800  1.0  -0.0587
  C  C2301  1  0.083430  0.143750  0.618150  1.0  0.7625
  C  C2302  1  0.067990  0.149440  0.596190  1.0  -0.2039
  C  C2303  1  0.054330  0.133400  0.582080  1.0  -0.0783
  C  C2304  1  0.041570  0.146160  0.562350  1.0  -0.0625
  C  C2305  1  0.046460  0.170700  0.561790  1.0  -0.1959
  C  C2306  1  0.036700  0.189970  0.544290  1.0  0.7471
  C  C2307  1  0.156090  0.207160  0.689930  1.0  0.7168
  C  C2308  1  0.170550  0.230540  0.686730  1.0  -0.2064
  C  C2309  1  0.190560  0.238800  0.699870  1.0  -0.064
  C  C2310  1  0.115320  0.172950  0.756550  1.0  0.7293
  C  C2311  1  0.108990  0.189450  0.778220  1.0  -0.1644
  C  C2312  1  0.086480  0.192960  0.788570  1.0  -0.0428
  C  C2313  1  0.049360  0.109530  0.678160  1.0  0.7366
  C  C2314  1  0.022730  0.105290  0.672790  1.0  -0.1864
  C  C2315  1  0.013200  0.093100  0.652800  1.0  -0.0762
  C  C2316  1  0.135800  0.256300  0.603300  1.0  0.1377
  C  C2317  1  0.153900  0.217300  0.609300  1.0  -0.0528
  C  C2318  1  0.159700  0.191100  0.622100  1.0  0.5656
  C  C2319  1  0.132100  0.233800  0.609700  1.0  0.1721
  C  C2320  1  0.161500  0.260600  0.594800  1.0  -0.0587
  C  C2321  1  0.416570  0.356250  0.118150  1.0  0.7642
  C  C2322  1  0.432010  0.350560  0.096190  1.0  -0.2044
  C  C2323  1  0.445670  0.366600  0.082080  1.0  -0.0791
  C  C2324  1  0.458430  0.353840  0.062350  1.0  -0.0616
  C  C2325  1  0.453540  0.329300  0.061790  1.0  -0.1952
  C  C2326  1  0.463300  0.310030  0.044290  1.0  0.7457
  C  C2327  1  0.343910  0.292840  0.189930  1.0  0.7163
  C  C2328  1  0.329450  0.269460  0.186730  1.0  -0.2056
  C  C2329  1  0.309440  0.261200  0.199870  1.0  -0.0651
  C  C2330  1  0.384680  0.327050  0.256550  1.0  0.7313
  C  C2331  1  0.391010  0.310550  0.278220  1.0  -0.1662
  C  C2332  1  0.413520  0.307040  0.288570  1.0  -0.0428
  C  C2333  1  0.450640  0.390470  0.178160  1.0  0.7444
  C  C2334  1  0.477270  0.394710  0.172790  1.0  -0.1886
  C  C2335  1  0.486800  0.406900  0.152800  1.0  -0.0787
  C  C2336  1  0.364200  0.243700  0.103300  1.0  0.1386
  C  C2337  1  0.346100  0.282700  0.109300  1.0  -0.0519
  C  C2338  1  0.340300  0.308900  0.122100  1.0  0.5635
  C  C2339  1  0.367900  0.266200  0.109700  1.0  0.1706
  C  C2340  1  0.338500  0.239400  0.094800  1.0  -0.0579
  C  C2341  1  0.916570  0.856250  0.618150  1.0  0.7642
  C  C2342  1  0.932010  0.850560  0.596190  1.0  -0.2044
  C  C2343  1  0.945670  0.866600  0.582080  1.0  -0.0791
  C  C2344  1  0.958430  0.853840  0.562350  1.0  -0.0616
  C  C2345  1  0.953540  0.829300  0.561790  1.0  -0.1952
  C  C2346  1  0.963300  0.810030  0.544290  1.0  0.7457
  C  C2347  1  0.843910  0.792840  0.689930  1.0  0.7163
  C  C2348  1  0.829450  0.769460  0.686730  1.0  -0.2056
  C  C2349  1  0.809440  0.761200  0.699870  1.0  -0.0651
  C  C2350  1  0.884680  0.827050  0.756550  1.0  0.7313
  C  C2351  1  0.891010  0.810550  0.778220  1.0  -0.1662
  C  C2352  1  0.913520  0.807040  0.788570  1.0  -0.0428
  C  C2353  1  0.950640  0.890470  0.678160  1.0  0.7444
  C  C2354  1  0.977270  0.894710  0.672790  1.0  -0.1887
  C  C2355  1  0.986800  0.906900  0.652800  1.0  -0.0787
  C  C2356  1  0.864200  0.743700  0.603300  1.0  0.1386
  C  C2357  1  0.846100  0.782700  0.609300  1.0  -0.0519
  C  C2358  1  0.840300  0.808900  0.622100  1.0  0.5635
  C  C2359  1  0.867900  0.766200  0.609700  1.0  0.1706
  C  C2360  1  0.838500  0.739400  0.594800  1.0  -0.0579
  C  C2361  1  0.583430  0.356250  0.881850  1.0  0.7624
  C  C2362  1  0.567990  0.350560  0.903810  1.0  -0.2033
  C  C2363  1  0.554330  0.366600  0.917920  1.0  -0.0812
  C  C2364  1  0.541570  0.353840  0.937650  1.0  -0.0614
  C  C2365  1  0.546460  0.329300  0.938210  1.0  -0.1953
  C  C2366  1  0.536700  0.310030  0.955710  1.0  0.7474
  C  C2367  1  0.656090  0.292840  0.810070  1.0  0.7167
  C  C2368  1  0.670550  0.269460  0.813270  1.0  -0.2061
  C  C2369  1  0.690560  0.261200  0.800130  1.0  -0.0625
  C  C2370  1  0.615320  0.327050  0.743450  1.0  0.7299
  C  C2371  1  0.608990  0.310550  0.721780  1.0  -0.1645
  C  C2372  1  0.586480  0.307040  0.711430  1.0  -0.0425
  C  C2373  1  0.549360  0.390470  0.821840  1.0  0.7399
  C  C2374  1  0.522730  0.394710  0.827210  1.0  -0.1906
  C  C2375  1  0.513200  0.406900  0.847200  1.0  -0.0794
  C  C2376  1  0.635800  0.243700  0.896700  1.0  0.1357
  C  C2377  1  0.653900  0.282700  0.890700  1.0  -0.0487
  C  C2378  1  0.659700  0.308900  0.877900  1.0  0.5652
  C  C2379  1  0.632100  0.266200  0.890300  1.0  0.1729
  C  C2380  1  0.661500  0.239400  0.905200  1.0  -0.0581
  C  C2381  1  0.083430  0.856250  0.381850  1.0  0.7624
  C  C2382  1  0.067990  0.850560  0.403810  1.0  -0.2033
  C  C2383  1  0.054330  0.866600  0.417920  1.0  -0.0812
  C  C2384  1  0.041570  0.853840  0.437650  1.0  -0.0614
  C  C2385  1  0.046460  0.829300  0.438210  1.0  -0.1953
  C  C2386  1  0.036700  0.810030  0.455710  1.0  0.7474
  C  C2387  1  0.156090  0.792840  0.310070  1.0  0.7167
  C  C2388  1  0.170550  0.769460  0.313270  1.0  -0.2061
  C  C2389  1  0.190560  0.761200  0.300130  1.0  -0.0625
  C  C2390  1  0.115320  0.827050  0.243450  1.0  0.7299
  C  C2391  1  0.108990  0.810550  0.221780  1.0  -0.1645
  C  C2392  1  0.086480  0.807040  0.211430  1.0  -0.0425
  C  C2393  1  0.049360  0.890470  0.321840  1.0  0.7399
  C  C2394  1  0.022730  0.894710  0.327210  1.0  -0.1906
  C  C2395  1  0.013200  0.906900  0.347200  1.0  -0.0794
  C  C2396  1  0.135800  0.743700  0.396700  1.0  0.1357
  C  C2397  1  0.153900  0.782700  0.390700  1.0  -0.0526
  C  C2398  1  0.159700  0.808900  0.377900  1.0  0.5652
  C  C2399  1  0.132100  0.766200  0.390300  1.0  0.1729
  C  C2400  1  0.161500  0.739400  0.405200  1.0  -0.0581
  C  C2401  1  0.416570  0.643750  0.881850  1.0  0.7631
  C  C2402  1  0.432010  0.649440  0.903810  1.0  -0.2029
  C  C2403  1  0.445670  0.633400  0.917920  1.0  -0.0774
  C  C2404  1  0.458430  0.646160  0.937650  1.0  -0.0616
  C  C2405  1  0.453540  0.670700  0.938210  1.0  -0.1963
  C  C2406  1  0.463300  0.689970  0.955710  1.0  0.7457
  C  C2407  1  0.343910  0.707160  0.810070  1.0  0.7164
  C  C2408  1  0.329450  0.730540  0.813270  1.0  -0.2054
  C  C2409  1  0.309440  0.738800  0.800130  1.0  -0.0649
  C  C2410  1  0.384680  0.672950  0.743450  1.0  0.7311
  C  C2411  1  0.391010  0.689450  0.721780  1.0  -0.1658
  C  C2412  1  0.413520  0.692960  0.711430  1.0  -0.0423
  C  C2413  1  0.450640  0.609530  0.821840  1.0  0.7449
  C  C2414  1  0.477270  0.605290  0.827210  1.0  -0.1838
  C  C2415  1  0.486800  0.593100  0.847200  1.0  -0.0788
  C  C2416  1  0.364200  0.756300  0.896700  1.0  0.137
  C  C2417  1  0.346100  0.717300  0.890700  1.0  -0.0498
  C  C2418  1  0.340300  0.691100  0.877900  1.0  0.5627
  C  C2419  1  0.367900  0.733800  0.890300  1.0  0.1746
  C  C2420  1  0.338500  0.760600  0.905200  1.0  -0.0592
  C  C2421  1  0.916570  0.143750  0.381850  1.0  0.7631
  C  C2422  1  0.932010  0.149440  0.403810  1.0  -0.2029
  C  C2423  1  0.945670  0.133400  0.417920  1.0  -0.0774
  C  C2424  1  0.958430  0.146160  0.437650  1.0  -0.0616
  C  C2425  1  0.953540  0.170700  0.438210  1.0  -0.1963
  C  C2426  1  0.963300  0.189970  0.455710  1.0  0.7457
  C  C2427  1  0.843910  0.207160  0.310070  1.0  0.7164
  C  C2428  1  0.829450  0.230540  0.313270  1.0  -0.2054
  C  C2429  1  0.809440  0.238800  0.300130  1.0  -0.0649
  C  C2430  1  0.884680  0.172950  0.243450  1.0  0.7311
  C  C2431  1  0.891010  0.189450  0.221780  1.0  -0.1658
  C  C2432  1  0.913520  0.192960  0.211430  1.0  -0.0423
  C  C2433  1  0.950640  0.109530  0.321840  1.0  0.7449
  C  C2434  1  0.977270  0.105290  0.327210  1.0  -0.1887
  C  C2435  1  0.986800  0.093100  0.347200  1.0  -0.0788
  C  C2436  1  0.864200  0.256300  0.396700  1.0  0.137
  C  C2437  1  0.846100  0.217300  0.390700  1.0  -0.0536
  C  C2438  1  0.840300  0.191100  0.377900  1.0  0.5627
  C  C2439  1  0.867900  0.233800  0.390300  1.0  0.1746
  C  C2440  1  0.838500  0.260600  0.405200  1.0  -0.0592
  C  C2441  1  0.643750  0.881850  0.416570  1.0  0.7639
  C  C2442  1  0.649440  0.903810  0.432010  1.0  -0.2007
  C  C2443  1  0.633400  0.917920  0.445670  1.0  -0.0784
  C  C2444  1  0.646160  0.937650  0.458430  1.0  -0.0598
  C  C2445  1  0.670700  0.938210  0.453540  1.0  -0.1962
  C  C2446  1  0.689970  0.955710  0.463300  1.0  0.7454
  C  C2447  1  0.707160  0.810070  0.343910  1.0  0.7178
  C  C2448  1  0.730540  0.813270  0.329450  1.0  -0.2058
  C  C2449  1  0.738800  0.800130  0.309440  1.0  -0.0636
  C  C2450  1  0.672950  0.743450  0.384680  1.0  0.7298
  C  C2451  1  0.689450  0.721780  0.391010  1.0  -0.1641
  C  C2452  1  0.692960  0.711430  0.413520  1.0  -0.047
  C  C2453  1  0.609530  0.821840  0.450640  1.0  0.7447
  C  C2454  1  0.605290  0.827210  0.477270  1.0  -0.1832
  C  C2455  1  0.593100  0.847200  0.486800  1.0  -0.0781
  C  C2456  1  0.756300  0.896700  0.364200  1.0  0.1347
  C  C2457  1  0.717300  0.890700  0.346100  1.0  -0.0491
  C  C2458  1  0.691100  0.877900  0.340300  1.0  0.5643
  C  C2459  1  0.733800  0.890300  0.367900  1.0  0.1745
  C  C2460  1  0.760600  0.905200  0.338500  1.0  -0.0573
  C  C2461  1  0.143750  0.381850  0.916570  1.0  0.7639
  C  C2462  1  0.149440  0.403810  0.932010  1.0  -0.2007
  C  C2463  1  0.133400  0.417920  0.945670  1.0  -0.0784
  C  C2464  1  0.146160  0.437650  0.958430  1.0  -0.0598
  C  C2465  1  0.170700  0.438210  0.953540  1.0  -0.1962
  C  C2466  1  0.189970  0.455710  0.963300  1.0  0.7454
  C  C2467  1  0.207160  0.310070  0.843910  1.0  0.7178
  C  C2468  1  0.230540  0.313270  0.829450  1.0  -0.2058
  C  C2469  1  0.238800  0.300130  0.809440  1.0  -0.0636
  C  C2470  1  0.172950  0.243450  0.884680  1.0  0.7298
  C  C2471  1  0.189450  0.221780  0.891010  1.0  -0.1641
  C  C2472  1  0.192960  0.211430  0.913520  1.0  -0.047
  C  C2473  1  0.109530  0.321840  0.950640  1.0  0.7447
  C  C2474  1  0.105290  0.327210  0.977270  1.0  -0.1861
  C  C2475  1  0.093100  0.347200  0.986800  1.0  -0.0781
  C  C2476  1  0.256300  0.396700  0.864200  1.0  0.1347
  C  C2477  1  0.217300  0.390700  0.846100  1.0  -0.0526
  C  C2478  1  0.191100  0.377900  0.840300  1.0  0.5643
  C  C2479  1  0.233800  0.390300  0.867900  1.0  0.1745
  C  C2480  1  0.260600  0.405200  0.838500  1.0  -0.0573
  C  C2481  1  0.356250  0.881850  0.583430  1.0  0.7624
  C  C2482  1  0.350560  0.903810  0.567990  1.0  -0.2019
  C  C2483  1  0.366600  0.917920  0.554330  1.0  -0.0765
  C  C2484  1  0.353840  0.937650  0.541570  1.0  -0.0588
  C  C2485  1  0.329300  0.938210  0.546460  1.0  -0.1961
  C  C2486  1  0.310030  0.955710  0.536700  1.0  0.7471
  C  C2487  1  0.292840  0.810070  0.656090  1.0  0.7168
  C  C2488  1  0.269460  0.813270  0.670550  1.0  -0.2063
  C  C2489  1  0.261200  0.800130  0.690560  1.0  -0.0648
  C  C2490  1  0.327050  0.743450  0.615320  1.0  0.7306
  C  C2491  1  0.310550  0.721780  0.608990  1.0  -0.1656
  C  C2492  1  0.307040  0.711430  0.586480  1.0  -0.0434
  C  C2493  1  0.390470  0.821840  0.549360  1.0  0.7442
  C  C2494  1  0.394710  0.827210  0.522730  1.0  -0.1876
  C  C2495  1  0.406900  0.847200  0.513200  1.0  -0.0767
  C  C2496  1  0.243700  0.896700  0.635800  1.0  0.1356
  C  C2497  1  0.282700  0.890700  0.653900  1.0  -0.0501
  C  C2498  1  0.308900  0.877900  0.659700  1.0  0.5666
  C  C2499  1  0.266200  0.890300  0.632100  1.0  0.1728
  C  C2500  1  0.239400  0.905200  0.661500  1.0  -0.0567
  C  C2501  1  0.856250  0.381850  0.083430  1.0  0.7624
  C  C2502  1  0.850560  0.403810  0.067990  1.0  -0.2019
  C  C2503  1  0.866600  0.417920  0.054330  1.0  -0.0765
  C  C2504  1  0.853840  0.437650  0.041570  1.0  -0.0588
  C  C2505  1  0.829300  0.438210  0.046460  1.0  -0.1961
  C  C2506  1  0.810030  0.455710  0.036700  1.0  0.7471
  C  C2507  1  0.792840  0.310070  0.156090  1.0  0.7168
  C  C2508  1  0.769460  0.313270  0.170550  1.0  -0.2063
  C  C2509  1  0.761200  0.300130  0.190560  1.0  -0.0648
  C  C2510  1  0.827050  0.243450  0.115320  1.0  0.7306
  C  C2511  1  0.810550  0.221780  0.108990  1.0  -0.1656
  C  C2512  1  0.807040  0.211430  0.086480  1.0  -0.0434
  C  C2513  1  0.890470  0.321840  0.049360  1.0  0.7442
  C  C2514  1  0.894710  0.327210  0.022730  1.0  -0.1876
  C  C2515  1  0.906900  0.347200  0.013200  1.0  -0.0767
  C  C2516  1  0.743700  0.396700  0.135800  1.0  0.1356
  C  C2517  1  0.782700  0.390700  0.153900  1.0  -0.0535
  C  C2518  1  0.808900  0.377900  0.159700  1.0  0.5666
  C  C2519  1  0.766200  0.390300  0.132100  1.0  0.1728
  C  C2520  1  0.739400  0.405200  0.161500  1.0  -0.0567
  C  C2521  1  0.356250  0.118150  0.416570  1.0  0.7632
  C  C2522  1  0.350560  0.096190  0.432010  1.0  -0.2015
  C  C2523  1  0.366600  0.082080  0.445670  1.0  -0.0774
  C  C2524  1  0.353840  0.062350  0.458430  1.0  -0.0589
  C  C2525  1  0.329300  0.061790  0.453540  1.0  -0.1964
  C  C2526  1  0.310030  0.044290  0.463300  1.0  0.7469
  C  C2527  1  0.292840  0.189930  0.343910  1.0  0.7168
  C  C2528  1  0.269460  0.186730  0.329450  1.0  -0.2069
  C  C2529  1  0.261200  0.199870  0.309440  1.0  -0.0639
  C  C2530  1  0.327050  0.256550  0.384680  1.0  0.7305
  C  C2531  1  0.310550  0.278220  0.391010  1.0  -0.1656
  C  C2532  1  0.307040  0.288570  0.413520  1.0  -0.0445
  C  C2533  1  0.390470  0.178160  0.450640  1.0  0.7447
  C  C2534  1  0.394710  0.172790  0.477270  1.0  -0.1894
  C  C2535  1  0.406900  0.152800  0.486800  1.0  -0.0767
  C  C2536  1  0.243700  0.103300  0.364200  1.0  0.1341
  C  C2537  1  0.282700  0.109300  0.346100  1.0  -0.0528
  C  C2538  1  0.308900  0.122100  0.340300  1.0  0.5656
  C  C2539  1  0.266200  0.109700  0.367900  1.0  0.1735
  C  C2540  1  0.239400  0.094800  0.338500  1.0  -0.0588
  C  C2541  1  0.856250  0.618150  0.916570  1.0  0.7632
  C  C2542  1  0.850560  0.596190  0.932010  1.0  -0.2015
  C  C2543  1  0.866600  0.582080  0.945670  1.0  -0.0774
  C  C2544  1  0.853840  0.562350  0.958430  1.0  -0.0589
  C  C2545  1  0.829300  0.561790  0.953540  1.0  -0.1964
  C  C2546  1  0.810030  0.544290  0.963300  1.0  0.7469
  C  C2547  1  0.792840  0.689930  0.843910  1.0  0.7168
  C  C2548  1  0.769460  0.686730  0.829450  1.0  -0.2069
  C  C2549  1  0.761200  0.699870  0.809440  1.0  -0.0639
  C  C2550  1  0.827050  0.756550  0.884680  1.0  0.7305
  C  C2551  1  0.810550  0.778220  0.891010  1.0  -0.1656
  C  C2552  1  0.807040  0.788570  0.913520  1.0  -0.0445
  C  C2553  1  0.890470  0.678160  0.950640  1.0  0.7447
  C  C2554  1  0.894710  0.672790  0.977270  1.0  -0.1892
  C  C2555  1  0.906900  0.652800  0.986800  1.0  -0.0767
  C  C2556  1  0.743700  0.603300  0.864200  1.0  0.1341
  C  C2557  1  0.782700  0.609300  0.846100  1.0  -0.0528
  C  C2558  1  0.808900  0.622100  0.840300  1.0  0.5656
  C  C2559  1  0.766200  0.609700  0.867900  1.0  0.1735
  C  C2560  1  0.739400  0.594800  0.838500  1.0  -0.0588
  C  C2561  1  0.643750  0.118150  0.583430  1.0  0.7635
  C  C2562  1  0.649440  0.096190  0.567990  1.0  -0.2007
  C  C2563  1  0.633400  0.082080  0.554330  1.0  -0.079
  C  C2564  1  0.646160  0.062350  0.541570  1.0  -0.0613
  C  C2565  1  0.670700  0.061790  0.546460  1.0  -0.1957
  C  C2566  1  0.689970  0.044290  0.536700  1.0  0.7456
  C  C2567  1  0.707160  0.189930  0.656090  1.0  0.718
  C  C2568  1  0.730540  0.186730  0.670550  1.0  -0.2083
  C  C2569  1  0.738800  0.199870  0.690560  1.0  -0.0646
  C  C2570  1  0.672950  0.256550  0.615320  1.0  0.7298
  C  C2571  1  0.689450  0.278220  0.608990  1.0  -0.1659
  C  C2572  1  0.692960  0.288570  0.586480  1.0  -0.0463
  C  C2573  1  0.609530  0.178160  0.549360  1.0  0.7444
  C  C2574  1  0.605290  0.172790  0.522730  1.0  -0.185
  C  C2575  1  0.593100  0.152800  0.513200  1.0  -0.0772
  C  C2576  1  0.756300  0.103300  0.635800  1.0  0.1362
  C  C2577  1  0.717300  0.109300  0.653900  1.0  -0.0552
  C  C2578  1  0.691100  0.122100  0.659700  1.0  0.562
  C  C2579  1  0.733800  0.109700  0.632100  1.0  0.1736
  C  C2580  1  0.760600  0.094800  0.661500  1.0  -0.0582
  C  C2581  1  0.143750  0.618150  0.083430  1.0  0.7635
  C  C2582  1  0.149440  0.596190  0.067990  1.0  -0.2007
  C  C2583  1  0.133400  0.582080  0.054330  1.0  -0.079
  C  C2584  1  0.146160  0.562350  0.041570  1.0  -0.0613
  C  C2585  1  0.170700  0.561790  0.046460  1.0  -0.1957
  C  C2586  1  0.189970  0.544290  0.036700  1.0  0.7456
  C  C2587  1  0.207160  0.689930  0.156090  1.0  0.718
  C  C2588  1  0.230540  0.686730  0.170550  1.0  -0.2083
  C  C2589  1  0.238800  0.699870  0.190560  1.0  -0.0646
  C  C2590  1  0.172950  0.756550  0.115320  1.0  0.7298
  C  C2591  1  0.189450  0.778220  0.108990  1.0  -0.1659
  C  C2592  1  0.192960  0.788570  0.086480  1.0  -0.0463
  C  C2593  1  0.109530  0.678160  0.049360  1.0  0.7444
  C  C2594  1  0.105290  0.672790  0.022730  1.0  -0.185
  C  C2595  1  0.093100  0.652800  0.013200  1.0  -0.0772
  C  C2596  1  0.256300  0.603300  0.135800  1.0  0.1362
  C  C2597  1  0.217300  0.609300  0.153900  1.0  -0.0552
  C  C2598  1  0.191100  0.622100  0.159700  1.0  0.562
  C  C2599  1  0.233800  0.609700  0.132100  1.0  0.1736
  C  C2600  1  0.260600  0.594800  0.161500  1.0  -0.0582
  C  C2601  1  0.881850  0.583430  0.356250  1.0  0.7645
  C  C2602  1  0.903810  0.567990  0.350560  1.0  -0.2039
  C  C2603  1  0.917920  0.554330  0.366600  1.0  -0.0764
  C  C2604  1  0.937650  0.541570  0.353840  1.0  -0.0599
  C  C2605  1  0.938210  0.546460  0.329300  1.0  -0.1983
  C  C2606  1  0.955710  0.536700  0.310030  1.0  0.7463
  C  C2607  1  0.810070  0.656090  0.292840  1.0  0.7176
  C  C2608  1  0.813270  0.670550  0.269460  1.0  -0.2069
  C  C2609  1  0.800130  0.690560  0.261200  1.0  -0.0611
  C  C2610  1  0.743450  0.615320  0.327050  1.0  0.7298
  C  C2611  1  0.721780  0.608990  0.310550  1.0  -0.1654
  C  C2612  1  0.711430  0.586480  0.307040  1.0  -0.0394
  C  C2613  1  0.821840  0.549360  0.390470  1.0  0.7418
  C  C2614  1  0.827210  0.522730  0.394710  1.0  -0.1877
  C  C2615  1  0.847200  0.513200  0.406900  1.0  -0.0774
  C  C2616  1  0.896700  0.635800  0.243700  1.0  0.1332
  C  C2617  1  0.890700  0.653900  0.282700  1.0  -0.0485
  C  C2618  1  0.877900  0.659700  0.308900  1.0  0.57
  C  C2619  1  0.890300  0.632100  0.266200  1.0  0.171
  C  C2620  1  0.905200  0.661500  0.239400  1.0  -0.0576
  C  C2621  1  0.381850  0.083430  0.856250  1.0  0.7645
  C  C2622  1  0.403810  0.067990  0.850560  1.0  -0.2039
  C  C2623  1  0.417920  0.054330  0.866600  1.0  -0.0764
  C  C2624  1  0.437650  0.041570  0.853840  1.0  -0.0599
  C  C2625  1  0.438210  0.046460  0.829300  1.0  -0.1983
  C  C2626  1  0.455710  0.036700  0.810030  1.0  0.7463
  C  C2627  1  0.310070  0.156090  0.792840  1.0  0.7176
  C  C2628  1  0.313270  0.170550  0.769460  1.0  -0.2069
  C  C2629  1  0.300130  0.190560  0.761200  1.0  -0.0611
  C  C2630  1  0.243450  0.115320  0.827050  1.0  0.7298
  C  C2631  1  0.221780  0.108990  0.810550  1.0  -0.1654
  C  C2632  1  0.211430  0.086480  0.807040  1.0  -0.0394
  C  C2633  1  0.321840  0.049360  0.890470  1.0  0.7418
  C  C2634  1  0.327210  0.022730  0.894710  1.0  -0.1877
  C  C2635  1  0.347200  0.013200  0.906900  1.0  -0.0774
  C  C2636  1  0.396700  0.135800  0.743700  1.0  0.1332
  C  C2637  1  0.390700  0.153900  0.782700  1.0  -0.0527
  C  C2638  1  0.377900  0.159700  0.808900  1.0  0.57
  C  C2639  1  0.390300  0.132100  0.766200  1.0  0.171
  C  C2640  1  0.405200  0.161500  0.739400  1.0  -0.0576
  C  C2641  1  0.881850  0.416570  0.643750  1.0  0.7643
  C  C2642  1  0.903810  0.432010  0.649440  1.0  -0.2038
  C  C2643  1  0.917920  0.445670  0.633400  1.0  -0.0771
  C  C2644  1  0.937650  0.458430  0.646160  1.0  -0.0626
  C  C2645  1  0.938210  0.453540  0.670700  1.0  -0.1986
  C  C2646  1  0.955710  0.463300  0.689970  1.0  0.7468
  C  C2647  1  0.810070  0.343910  0.707160  1.0  0.7161
  C  C2648  1  0.813270  0.329450  0.730540  1.0  -0.2054
  C  C2649  1  0.800130  0.309440  0.738800  1.0  -0.0639
  C  C2650  1  0.743450  0.384680  0.672950  1.0  0.7295
  C  C2651  1  0.721780  0.391010  0.689450  1.0  -0.1633
  C  C2652  1  0.711430  0.413520  0.692960  1.0  -0.0424
  C  C2653  1  0.821840  0.450640  0.609530  1.0  0.7428
  C  C2654  1  0.827210  0.477270  0.605290  1.0  -0.1887
  C  C2655  1  0.847200  0.486800  0.593100  1.0  -0.0785
  C  C2656  1  0.896700  0.364200  0.756300  1.0  0.1338
  C  C2657  1  0.890700  0.346100  0.717300  1.0  -0.0473
  C  C2658  1  0.877900  0.340300  0.691100  1.0  0.5688
  C  C2659  1  0.890300  0.367900  0.733800  1.0  0.1677
  C  C2660  1  0.905200  0.338500  0.760600  1.0  -0.0613
  C  C2661  1  0.381850  0.916570  0.143750  1.0  0.7643
  C  C2662  1  0.403810  0.932010  0.149440  1.0  -0.2038
  C  C2663  1  0.417920  0.945670  0.133400  1.0  -0.0771
  C  C2664  1  0.437650  0.958430  0.146160  1.0  -0.0626
  C  C2665  1  0.438210  0.953540  0.170700  1.0  -0.1986
  C  C2666  1  0.455710  0.963300  0.189970  1.0  0.7468
  C  C2667  1  0.310070  0.843910  0.207160  1.0  0.7161
  C  C2668  1  0.313270  0.829450  0.230540  1.0  -0.2054
  C  C2669  1  0.300130  0.809440  0.238800  1.0  -0.0639
  C  C2670  1  0.243450  0.884680  0.172950  1.0  0.7295
  C  C2671  1  0.221780  0.891010  0.189450  1.0  -0.1633
  C  C2672  1  0.211430  0.913520  0.192960  1.0  -0.0424
  C  C2673  1  0.321840  0.950640  0.109530  1.0  0.7428
  C  C2674  1  0.327210  0.977270  0.105290  1.0  -0.1885
  C  C2675  1  0.347200  0.986800  0.093100  1.0  -0.0785
  C  C2676  1  0.396700  0.864200  0.256300  1.0  0.1338
  C  C2677  1  0.390700  0.846100  0.217300  1.0  -0.0516
  C  C2678  1  0.377900  0.840300  0.191100  1.0  0.5688
  C  C2679  1  0.390300  0.867900  0.233800  1.0  0.1677
  C  C2680  1  0.405200  0.838500  0.260600  1.0  -0.0613
  C  C2681  1  0.118150  0.583430  0.643750  1.0  0.7624
  C  C2682  1  0.096190  0.567990  0.649440  1.0  -0.2056
  C  C2683  1  0.082080  0.554330  0.633400  1.0  -0.078
  C  C2684  1  0.062350  0.541570  0.646160  1.0  -0.0611
  C  C2685  1  0.061790  0.546460  0.670700  1.0  -0.1992
  C  C2686  1  0.044290  0.536700  0.689970  1.0  0.748
  C  C2687  1  0.189930  0.656090  0.707160  1.0  0.7178
  C  C2688  1  0.186730  0.670550  0.730540  1.0  -0.2064
  C  C2689  1  0.199870  0.690560  0.738800  1.0  -0.0615
  C  C2690  1  0.256550  0.615320  0.672950  1.0  0.7316
  C  C2691  1  0.278220  0.608990  0.689450  1.0  -0.1654
  C  C2692  1  0.288570  0.586480  0.692960  1.0  -0.0449
  C  C2693  1  0.178160  0.549360  0.609530  1.0  0.7392
  C  C2694  1  0.172790  0.522730  0.605290  1.0  -0.1833
  C  C2695  1  0.152800  0.513200  0.593100  1.0  -0.0784
  C  C2696  1  0.103300  0.635800  0.756300  1.0  0.1304
  C  C2697  1  0.109300  0.653900  0.717300  1.0  -0.0548
  C  C2698  1  0.122100  0.659700  0.691100  1.0  0.5689
  C  C2699  1  0.109700  0.632100  0.733800  1.0  0.173
  C  C2700  1  0.094800  0.661500  0.760600  1.0  -0.0627
  C  C2701  1  0.618150  0.083430  0.143750  1.0  0.7624
  C  C2702  1  0.596190  0.067990  0.149440  1.0  -0.2056
  C  C2703  1  0.582080  0.054330  0.133400  1.0  -0.078
  C  C2704  1  0.562350  0.041570  0.146160  1.0  -0.0611
  C  C2705  1  0.561790  0.046460  0.170700  1.0  -0.1992
  C  C2706  1  0.544290  0.036700  0.189970  1.0  0.748
  C  C2707  1  0.689930  0.156090  0.207160  1.0  0.7178
  C  C2708  1  0.686730  0.170550  0.230540  1.0  -0.2064
  C  C2709  1  0.699870  0.190560  0.238800  1.0  -0.0615
  C  C2710  1  0.756550  0.115320  0.172950  1.0  0.7316
  C  C2711  1  0.778220  0.108990  0.189450  1.0  -0.1654
  C  C2712  1  0.788570  0.086480  0.192960  1.0  -0.0449
  C  C2713  1  0.678160  0.049360  0.109530  1.0  0.7392
  C  C2714  1  0.672790  0.022730  0.105290  1.0  -0.1833
  C  C2715  1  0.652800  0.013200  0.093100  1.0  -0.0784
  C  C2716  1  0.603300  0.135800  0.256300  1.0  0.1304
  C  C2717  1  0.609300  0.153900  0.217300  1.0  -0.0548
  C  C2718  1  0.622100  0.159700  0.191100  1.0  0.5689
  C  C2719  1  0.609700  0.132100  0.233800  1.0  0.173
  C  C2720  1  0.594800  0.161500  0.260600  1.0  -0.0627
  C  C2721  1  0.118150  0.416570  0.356250  1.0  0.7622
  C  C2722  1  0.096190  0.432010  0.350560  1.0  -0.2045
  C  C2723  1  0.082080  0.445670  0.366600  1.0  -0.0762
  C  C2724  1  0.062350  0.458430  0.353840  1.0  -0.0604
  C  C2725  1  0.061790  0.453540  0.329300  1.0  -0.1989
  C  C2726  1  0.044290  0.463300  0.310030  1.0  0.7474
  C  C2727  1  0.189930  0.343910  0.292840  1.0  0.7192
  C  C2728  1  0.186730  0.329450  0.269460  1.0  -0.2066
  C  C2729  1  0.199870  0.309440  0.261200  1.0  -0.0618
  C  C2730  1  0.256550  0.384680  0.327050  1.0  0.732
  C  C2731  1  0.278220  0.391010  0.310550  1.0  -0.1671
  C  C2732  1  0.288570  0.413520  0.307040  1.0  -0.0447
  C  C2733  1  0.178160  0.450640  0.390470  1.0  0.7434
  C  C2734  1  0.172790  0.477270  0.394710  1.0  -0.1831
  C  C2735  1  0.152800  0.486800  0.406900  1.0  -0.0777
  C  C2736  1  0.103300  0.364200  0.243700  1.0  0.1324
  C  C2737  1  0.109300  0.346100  0.282700  1.0  -0.0563
  C  C2738  1  0.122100  0.340300  0.308900  1.0  0.567
  C  C2739  1  0.109700  0.367900  0.266200  1.0  0.172
  C  C2740  1  0.094800  0.338500  0.239400  1.0  -0.061
  C  C2741  1  0.618150  0.916570  0.856250  1.0  0.7622
  C  C2742  1  0.596190  0.932010  0.850560  1.0  -0.2045
  C  C2743  1  0.582080  0.945670  0.866600  1.0  -0.0762
  C  C2744  1  0.562350  0.958430  0.853840  1.0  -0.0604
  C  C2745  1  0.561790  0.953540  0.829300  1.0  -0.1989
  C  C2746  1  0.544290  0.963300  0.810030  1.0  0.7474
  C  C2747  1  0.689930  0.843910  0.792840  1.0  0.7192
  C  C2748  1  0.686730  0.829450  0.769460  1.0  -0.2066
  C  C2749  1  0.699870  0.809440  0.761200  1.0  -0.0618
  C  C2750  1  0.756550  0.884680  0.827050  1.0  0.732
  C  C2751  1  0.778220  0.891010  0.810550  1.0  -0.1671
  C  C2752  1  0.788570  0.913520  0.807040  1.0  -0.0447
  C  C2753  1  0.678160  0.950640  0.890470  1.0  0.7434
  C  C2754  1  0.672790  0.977270  0.894710  1.0  -0.1861
  C  C2755  1  0.652800  0.986800  0.906900  1.0  -0.0777
  C  C2756  1  0.603300  0.864200  0.743700  1.0  0.1324
  C  C2757  1  0.609300  0.846100  0.782700  1.0  -0.0563
  C  C2758  1  0.622100  0.840300  0.808900  1.0  0.567
  C  C2759  1  0.609700  0.867900  0.766200  1.0  0.172
  C  C2760  1  0.594800  0.838500  0.739400  1.0  -0.061
  S  S2761  1  0.320490  0.434240  0.085540  1.0  0.1684
  S  S2762  1  0.265660  0.321200  0.098800  1.0  0.0237
  S  S2763  1  0.820490  0.934240  0.585540  1.0  0.1684
  S  S2764  1  0.765660  0.821200  0.598800  1.0  0.0237
  S  S2765  1  0.679510  0.565760  0.085540  1.0  0.1562
  S  S2766  1  0.734340  0.678800  0.098800  1.0  0.0205
  S  S2767  1  0.179510  0.065760  0.585540  1.0  0.1562
  S  S2768  1  0.234340  0.178800  0.598800  1.0  0.0205
  S  S2769  1  0.679510  0.434240  0.914460  1.0  0.1665
  S  S2770  1  0.734340  0.321200  0.901200  1.0  0.0253
  S  S2771  1  0.179510  0.934240  0.414460  1.0  0.1665
  S  S2772  1  0.234340  0.821200  0.401200  1.0  0.0218
  S  S2773  1  0.320490  0.565760  0.914460  1.0  0.1685
  S  S2774  1  0.265660  0.678800  0.901200  1.0  0.0242
  S  S2775  1  0.820490  0.065760  0.414460  1.0  0.1685
  S  S2776  1  0.765660  0.178800  0.401200  1.0  0.0206
  S  S2777  1  0.085540  0.320490  0.434240  1.0  0.1728
  S  S2778  1  0.098800  0.265660  0.321200  1.0  0.022
  S  S2779  1  0.585540  0.820490  0.934240  1.0  0.1728
  S  S2780  1  0.598800  0.765660  0.821200  1.0  0.022
  S  S2781  1  0.085540  0.679510  0.565760  1.0  0.1614
  S  S2782  1  0.098800  0.734340  0.678800  1.0  0.0213
  S  S2783  1  0.585540  0.179510  0.065760  1.0  0.1614
  S  S2784  1  0.598800  0.234340  0.178800  1.0  0.0213
  S  S2785  1  0.914460  0.679510  0.434240  1.0  0.1695
  S  S2786  1  0.901200  0.734340  0.321200  1.0  0.0259
  S  S2787  1  0.414460  0.179510  0.934240  1.0  0.1695
  S  S2788  1  0.401200  0.234340  0.821200  1.0  0.0215
  S  S2789  1  0.914460  0.320490  0.565760  1.0  0.1698
  S  S2790  1  0.901200  0.265660  0.678800  1.0  0.0254
  S  S2791  1  0.414460  0.820490  0.065760  1.0  0.1698
  S  S2792  1  0.401200  0.765660  0.178800  1.0  0.021
  S  S2793  1  0.434240  0.085540  0.320490  1.0  0.1731
  S  S2794  1  0.321200  0.098800  0.265660  1.0  0.0196
  S  S2795  1  0.934240  0.585540  0.820490  1.0  0.1731
  S  S2796  1  0.821200  0.598800  0.765660  1.0  0.0196
  S  S2797  1  0.565760  0.085540  0.679510  1.0  0.1627
  S  S2798  1  0.678800  0.098800  0.734340  1.0  0.018
  S  S2799  1  0.065760  0.585540  0.179510  1.0  0.1627
  S  S2800  1  0.178800  0.598800  0.234340  1.0  0.018
  S  S2801  1  0.434240  0.914460  0.679510  1.0  0.1717
  S  S2802  1  0.321200  0.901200  0.734340  1.0  0.0238
  S  S2803  1  0.934240  0.414460  0.179510  1.0  0.1717
  S  S2804  1  0.821200  0.401200  0.234340  1.0  0.0194
  S  S2805  1  0.565760  0.914460  0.320490  1.0  0.1737
  S  S2806  1  0.678800  0.901200  0.265660  1.0  0.0228
  S  S2807  1  0.065760  0.414460  0.820490  1.0  0.1737
  S  S2808  1  0.178800  0.401200  0.765660  1.0  0.018
  S  S2809  1  0.434240  0.320490  0.914460  1.0  0.1718
  S  S2810  1  0.321200  0.265660  0.901200  1.0  0.024
  S  S2811  1  0.934240  0.820490  0.414460  1.0  0.1718
  S  S2812  1  0.821200  0.765660  0.401200  1.0  0.0201
  S  S2813  1  0.565760  0.679510  0.914460  1.0  0.1611
  S  S2814  1  0.678800  0.734340  0.901200  1.0  0.0228
  S  S2815  1  0.065760  0.179510  0.414460  1.0  0.1611
  S  S2816  1  0.178800  0.234340  0.401200  1.0  0.0182
  S  S2817  1  0.434240  0.679510  0.085540  1.0  0.1698
  S  S2818  1  0.321200  0.734340  0.098800  1.0  0.0222
  S  S2819  1  0.934240  0.179510  0.585540  1.0  0.1698
  S  S2820  1  0.821200  0.234340  0.598800  1.0  0.0222
  S  S2821  1  0.565760  0.320490  0.085540  1.0  0.1707
  S  S2822  1  0.678800  0.265660  0.098800  1.0  0.02
  S  S2823  1  0.065760  0.820490  0.585540  1.0  0.1707
  S  S2824  1  0.178800  0.765660  0.598800  1.0  0.02
  S  S2825  1  0.320490  0.085540  0.565760  1.0  0.1677
  S  S2826  1  0.265660  0.098800  0.678800  1.0  0.0216
  S  S2827  1  0.820490  0.585540  0.065760  1.0  0.1677
  S  S2828  1  0.765660  0.598800  0.178800  1.0  0.0216
  S  S2829  1  0.679510  0.085540  0.434240  1.0  0.156
  S  S2830  1  0.734340  0.098800  0.321200  1.0  0.0222
  S  S2831  1  0.179510  0.585540  0.934240  1.0  0.156
  S  S2832  1  0.234340  0.598800  0.821200  1.0  0.0222
  S  S2833  1  0.679510  0.914460  0.565760  1.0  0.1646
  S  S2834  1  0.734340  0.901200  0.678800  1.0  0.0255
  S  S2835  1  0.179510  0.414460  0.065760  1.0  0.1646
  S  S2836  1  0.234340  0.401200  0.178800  1.0  0.0216
  S  S2837  1  0.320490  0.914460  0.434240  1.0  0.1687
  S  S2838  1  0.265660  0.901200  0.321200  1.0  0.0242
  S  S2839  1  0.820490  0.414460  0.934240  1.0  0.1687
  S  S2840  1  0.765660  0.401200  0.821200  1.0  0.0199
  S  S2841  1  0.085540  0.434240  0.679510  1.0  0.164
  S  S2842  1  0.098800  0.321200  0.734340  1.0  0.0214
  S  S2843  1  0.585540  0.934240  0.179510  1.0  0.164
  S  S2844  1  0.598800  0.821200  0.234340  1.0  0.0214
  S  S2845  1  0.085540  0.565760  0.320490  1.0  0.1737
  S  S2846  1  0.098800  0.678800  0.265660  1.0  0.0194
  S  S2847  1  0.585540  0.065760  0.820490  1.0  0.1737
  S  S2848  1  0.598800  0.178800  0.765660  1.0  0.0194
  S  S2849  1  0.914460  0.434240  0.320490  1.0  0.1742
  S  S2850  1  0.901200  0.321200  0.265660  1.0  0.0261
  S  S2851  1  0.414460  0.934240  0.820490  1.0  0.1742
  S  S2852  1  0.401200  0.821200  0.765660  1.0  0.0219
  S  S2853  1  0.914460  0.565760  0.679510  1.0  0.1719
  S  S2854  1  0.901200  0.678800  0.734340  1.0  0.0248
  S  S2855  1  0.414460  0.065760  0.179510  1.0  0.1719
  S  S2856  1  0.401200  0.178800  0.234340  1.0  0.0204
  S  S2857  1  0.679510  0.565760  0.914460  1.0  0.1569
  S  S2858  1  0.734340  0.678800  0.901200  1.0  0.024
  S  S2859  1  0.179510  0.065760  0.414460  1.0  0.1569
  S  S2860  1  0.234340  0.178800  0.401200  1.0  0.0204
  S  S2861  1  0.320490  0.434240  0.914460  1.0  0.1688
  S  S2862  1  0.265660  0.321200  0.901200  1.0  0.0255
  S  S2863  1  0.820490  0.934240  0.414460  1.0  0.1688
  S  S2864  1  0.765660  0.821200  0.401200  1.0  0.022
  S  S2865  1  0.320490  0.565760  0.085540  1.0  0.1684
  S  S2866  1  0.265660  0.678800  0.098800  1.0  0.0205
  S  S2867  1  0.820490  0.065760  0.585540  1.0  0.1684
  S  S2868  1  0.765660  0.178800  0.598800  1.0  0.0205
  S  S2869  1  0.679510  0.434240  0.085540  1.0  0.1656
  S  S2870  1  0.734340  0.321200  0.098800  1.0  0.0237
  S  S2871  1  0.179510  0.934240  0.585540  1.0  0.1656
  S  S2872  1  0.234340  0.821200  0.598800  1.0  0.0237
  S  S2873  1  0.914460  0.679510  0.565760  1.0  0.1692
  S  S2874  1  0.901200  0.734340  0.678800  1.0  0.0246
  S  S2875  1  0.414460  0.179510  0.065760  1.0  0.1692
  S  S2876  1  0.401200  0.234340  0.178800  1.0  0.0205
  S  S2877  1  0.914460  0.320490  0.434240  1.0  0.1723
  S  S2878  1  0.901200  0.265660  0.321200  1.0  0.0266
  S  S2879  1  0.414460  0.820490  0.934240  1.0  0.1723
  S  S2880  1  0.401200  0.765660  0.821200  1.0  0.0221
  S  S2881  1  0.085540  0.320490  0.565760  1.0  0.1705
  S  S2882  1  0.098800  0.265660  0.678800  1.0  0.0215
  S  S2883  1  0.585540  0.820490  0.065760  1.0  0.1705
  S  S2884  1  0.598800  0.765660  0.178800  1.0  0.0215
  S  S2885  1  0.085540  0.679510  0.434240  1.0  0.1618
  S  S2886  1  0.098800  0.734340  0.321200  1.0  0.0216
  S  S2887  1  0.585540  0.179510  0.934240  1.0  0.1618
  S  S2888  1  0.598800  0.234340  0.821200  1.0  0.0216
  S  S2889  1  0.565760  0.914460  0.679510  1.0  0.1628
  S  S2890  1  0.678800  0.901200  0.734340  1.0  0.023
  S  S2891  1  0.065760  0.414460  0.179510  1.0  0.1628
  S  S2892  1  0.178800  0.401200  0.234340  1.0  0.018
  S  S2893  1  0.434240  0.914460  0.320490  1.0  0.174
  S  S2894  1  0.321200  0.901200  0.265660  1.0  0.0241
  S  S2895  1  0.934240  0.414460  0.820490  1.0  0.174
  S  S2896  1  0.821200  0.401200  0.765660  1.0  0.0199
  S  S2897  1  0.565760  0.085540  0.320490  1.0  0.1728
  S  S2898  1  0.678800  0.098800  0.265660  1.0  0.0179
  S  S2899  1  0.065760  0.585540  0.820490  1.0  0.1728
  S  S2900  1  0.178800  0.598800  0.765660  1.0  0.0179
  S  S2901  1  0.434240  0.085540  0.679510  1.0  0.1714
  S  S2902  1  0.321200  0.098800  0.734340  1.0  0.0195
  S  S2903  1  0.934240  0.585540  0.179510  1.0  0.1714
  S  S2904  1  0.821200  0.598800  0.234340  1.0  0.0195
  S  S2905  1  0.565760  0.679510  0.085540  1.0  0.1615
  S  S2906  1  0.678800  0.734340  0.098800  1.0  0.0194
  S  S2907  1  0.065760  0.179510  0.585540  1.0  0.1615
  S  S2908  1  0.178800  0.234340  0.598800  1.0  0.0194
  S  S2909  1  0.434240  0.320490  0.085540  1.0  0.1704
  S  S2910  1  0.321200  0.265660  0.098800  1.0  0.0228
  S  S2911  1  0.934240  0.820490  0.585540  1.0  0.1704
  S  S2912  1  0.821200  0.765660  0.598800  1.0  0.0228
  S  S2913  1  0.565760  0.320490  0.914460  1.0  0.1721
  S  S2914  1  0.678800  0.265660  0.901200  1.0  0.0235
  S  S2915  1  0.065760  0.820490  0.414460  1.0  0.1721
  S  S2916  1  0.178800  0.765660  0.401200  1.0  0.0187
  S  S2917  1  0.434240  0.679510  0.914460  1.0  0.1693
  S  S2918  1  0.321200  0.734340  0.901200  1.0  0.0238
  S  S2919  1  0.934240  0.179510  0.414460  1.0  0.1693
  S  S2920  1  0.821200  0.234340  0.401200  1.0  0.0201
  S  S2921  1  0.679510  0.914460  0.434240  1.0  0.1661
  S  S2922  1  0.734340  0.901200  0.321200  1.0  0.0243
  S  S2923  1  0.179510  0.414460  0.934240  1.0  0.1661
  S  S2924  1  0.234340  0.401200  0.821200  1.0  0.0202
  S  S2925  1  0.320490  0.914460  0.565760  1.0  0.1677
  S  S2926  1  0.265660  0.901200  0.678800  1.0  0.0253
  S  S2927  1  0.820490  0.414460  0.065760  1.0  0.1677
  S  S2928  1  0.765660  0.401200  0.178800  1.0  0.0213
  S  S2929  1  0.320490  0.085540  0.434240  1.0  0.1677
  S  S2930  1  0.265660  0.098800  0.321200  1.0  0.0219
  S  S2931  1  0.820490  0.585540  0.934240  1.0  0.1677
  S  S2932  1  0.765660  0.598800  0.821200  1.0  0.0219
  S  S2933  1  0.679510  0.085540  0.565760  1.0  0.1551
  S  S2934  1  0.734340  0.098800  0.678800  1.0  0.0219
  S  S2935  1  0.179510  0.585540  0.065760  1.0  0.1551
  S  S2936  1  0.234340  0.598800  0.178800  1.0  0.0219
  S  S2937  1  0.914460  0.565760  0.320490  1.0  0.1734
  S  S2938  1  0.901200  0.678800  0.265660  1.0  0.0242
  S  S2939  1  0.414460  0.065760  0.820490  1.0  0.1734
  S  S2940  1  0.401200  0.178800  0.765660  1.0  0.02
  S  S2941  1  0.914460  0.434240  0.679510  1.0  0.1718
  S  S2942  1  0.901200  0.321200  0.734340  1.0  0.0264
  S  S2943  1  0.414460  0.934240  0.179510  1.0  0.1718
  S  S2944  1  0.401200  0.821200  0.234340  1.0  0.022
  S  S2945  1  0.085540  0.565760  0.679510  1.0  0.1638
  S  S2946  1  0.098800  0.678800  0.734340  1.0  0.0198
  S  S2947  1  0.585540  0.065760  0.179510  1.0  0.1638
  S  S2948  1  0.598800  0.178800  0.234340  1.0  0.0198
  S  S2949  1  0.085540  0.434240  0.320490  1.0  0.175
  S  S2950  1  0.098800  0.321200  0.265660  1.0  0.0211
  S  S2951  1  0.585540  0.934240  0.820490  1.0  0.175
  S  S2952  1  0.598800  0.821200  0.765660  1.0  0.0211
  S  S2953  1  0.250000  0.337230  0.162770  1.0  0.1364
  S  S2954  1  0.750000  0.662770  0.162770  1.0  0.1345
  S  S2955  1  0.750000  0.337230  0.837230  1.0  0.1307
  S  S2956  1  0.250000  0.662770  0.837230  1.0  0.1354
  S  S2957  1  0.162770  0.250000  0.337230  1.0  0.1369
  S  S2958  1  0.162770  0.750000  0.662770  1.0  0.136
  S  S2959  1  0.837230  0.750000  0.337230  1.0  0.1313
  S  S2960  1  0.837230  0.250000  0.662770  1.0  0.1339
  S  S2961  1  0.337230  0.162770  0.250000  1.0  0.1374
  S  S2962  1  0.662770  0.162770  0.750000  1.0  0.1362
  S  S2963  1  0.337230  0.837230  0.750000  1.0  0.1306
  S  S2964  1  0.662770  0.837230  0.250000  1.0  0.138
  S  S2965  1  0.337230  0.250000  0.837230  1.0  0.1313
  S  S2966  1  0.662770  0.750000  0.837230  1.0  0.1369
  S  S2967  1  0.337230  0.750000  0.162770  1.0  0.1339
  S  S2968  1  0.662770  0.250000  0.162770  1.0  0.136
  S  S2969  1  0.250000  0.162770  0.662770  1.0  0.1345
  S  S2970  1  0.750000  0.162770  0.337230  1.0  0.1354
  S  S2971  1  0.750000  0.837230  0.662770  1.0  0.1364
  S  S2972  1  0.250000  0.837230  0.337230  1.0  0.1307
  S  S2973  1  0.162770  0.337230  0.750000  1.0  0.138
  S  S2974  1  0.162770  0.662770  0.250000  1.0  0.1362
  S  S2975  1  0.837230  0.337230  0.250000  1.0  0.1306
  S  S2976  1  0.837230  0.662770  0.750000  1.0  0.1374
  S  S2977  1  0.750000  0.662770  0.837230  1.0  0.1354
  S  S2978  1  0.250000  0.162770  0.337230  1.0  0.1354
  S  S2979  1  0.250000  0.337230  0.837230  1.0  0.1307
  S  S2980  1  0.250000  0.662770  0.162770  1.0  0.1345
  S  S2981  1  0.750000  0.337230  0.162770  1.0  0.1364
  S  S2982  1  0.837230  0.750000  0.662770  1.0  0.1372
  S  S2983  1  0.337230  0.250000  0.162770  1.0  0.1372
  S  S2984  1  0.837230  0.250000  0.337230  1.0  0.1292
  S  S2985  1  0.162770  0.250000  0.662770  1.0  0.136
  S  S2986  1  0.162770  0.750000  0.337230  1.0  0.1355
  S  S2987  1  0.662770  0.837230  0.750000  1.0  0.138
  S  S2988  1  0.162770  0.337230  0.250000  1.0  0.138
  S  S2989  1  0.337230  0.837230  0.250000  1.0  0.1306
  S  S2990  1  0.662770  0.162770  0.250000  1.0  0.1362
  S  S2991  1  0.337230  0.162770  0.750000  1.0  0.1374
  S  S2992  1  0.662770  0.750000  0.162770  1.0  0.136
  S  S2993  1  0.662770  0.250000  0.837230  1.0  0.1355
  S  S2994  1  0.337230  0.750000  0.837230  1.0  0.1292
  S  S2995  1  0.750000  0.837230  0.337230  1.0  0.1307
  S  S2996  1  0.250000  0.837230  0.662770  1.0  0.1364
  S  S2997  1  0.750000  0.162770  0.662770  1.0  0.1345
  S  S2998  1  0.837230  0.662770  0.250000  1.0  0.1374
  S  S2999  1  0.837230  0.337230  0.750000  1.0  0.1306
  S  S3000  1  0.162770  0.662770  0.750000  1.0  0.1362
  S  S3001  1  0.290680  0.369180  0.290680  1.0  0.1581
  S  S3002  1  0.790680  0.869180  0.790680  1.0  0.1581
  S  S3003  1  0.709320  0.630820  0.290680  1.0  0.1521
  S  S3004  1  0.209320  0.130820  0.790680  1.0  0.1521
  S  S3005  1  0.709320  0.369180  0.709320  1.0  0.1581
  S  S3006  1  0.209320  0.869180  0.209320  1.0  0.1581
  S  S3007  1  0.290680  0.630820  0.709320  1.0  0.1527
  S  S3008  1  0.790680  0.130820  0.209320  1.0  0.1527
  S  S3009  1  0.290680  0.290680  0.369180  1.0  0.1646
  S  S3010  1  0.790680  0.790680  0.869180  1.0  0.1646
  S  S3011  1  0.290680  0.709320  0.630820  1.0  0.1568
  S  S3012  1  0.790680  0.209320  0.130820  1.0  0.1568
  S  S3013  1  0.709320  0.709320  0.369180  1.0  0.1642
  S  S3014  1  0.209320  0.209320  0.869180  1.0  0.1642
  S  S3015  1  0.709320  0.290680  0.630820  1.0  0.156
  S  S3016  1  0.209320  0.790680  0.130820  1.0  0.156
  S  S3017  1  0.369180  0.290680  0.290680  1.0  0.1561
  S  S3018  1  0.869180  0.790680  0.790680  1.0  0.1561
  S  S3019  1  0.630820  0.290680  0.709320  1.0  0.1436
  S  S3020  1  0.130820  0.790680  0.209320  1.0  0.1436
  S  S3021  1  0.369180  0.709320  0.709320  1.0  0.1568
  S  S3022  1  0.869180  0.209320  0.209320  1.0  0.1568
  S  S3023  1  0.630820  0.709320  0.290680  1.0  0.1434
  S  S3024  1  0.130820  0.209320  0.790680  1.0  0.1434
  S  S3025  1  0.369180  0.290680  0.709320  1.0  0.1566
  S  S3026  1  0.869180  0.790680  0.209320  1.0  0.1566
  S  S3027  1  0.630820  0.709320  0.709320  1.0  0.1437
  S  S3028  1  0.130820  0.209320  0.209320  1.0  0.1437
  S  S3029  1  0.369180  0.709320  0.290680  1.0  0.1563
  S  S3030  1  0.869180  0.209320  0.790680  1.0  0.1563
  S  S3031  1  0.630820  0.290680  0.290680  1.0  0.1433
  S  S3032  1  0.130820  0.790680  0.790680  1.0  0.1433
  S  S3033  1  0.290680  0.290680  0.630820  1.0  0.1567
  S  S3034  1  0.790680  0.790680  0.130820  1.0  0.1567
  S  S3035  1  0.709320  0.290680  0.369180  1.0  0.164
  S  S3036  1  0.209320  0.790680  0.869180  1.0  0.164
  S  S3037  1  0.709320  0.709320  0.630820  1.0  0.156
  S  S3038  1  0.209320  0.209320  0.130820  1.0  0.156
  S  S3039  1  0.290680  0.709320  0.369180  1.0  0.1648
  S  S3040  1  0.790680  0.209320  0.869180  1.0  0.1648
  S  S3041  1  0.290680  0.369180  0.709320  1.0  0.1584
  S  S3042  1  0.790680  0.869180  0.209320  1.0  0.1584
  S  S3043  1  0.290680  0.630820  0.290680  1.0  0.1524
  S  S3044  1  0.790680  0.130820  0.790680  1.0  0.1524
  S  S3045  1  0.709320  0.369180  0.290680  1.0  0.158
  S  S3046  1  0.209320  0.869180  0.790680  1.0  0.158
  S  S3047  1  0.709320  0.630820  0.709320  1.0  0.1523
  S  S3048  1  0.209320  0.130820  0.209320  1.0  0.1523
  S  S3049  1  0.383240  0.500000  0.191850  1.0  0.1463
  S  S3050  1  0.883240  0.000000  0.691850  1.0  0.1463
  S  S3051  1  0.616760  0.500000  0.191850  1.0  0.1356
  S  S3052  1  0.116760  0.000000  0.691850  1.0  0.1356
  S  S3053  1  0.616760  0.500000  0.808150  1.0  0.1329
  S  S3054  1  0.116760  0.000000  0.308150  1.0  0.1329
  S  S3055  1  0.383240  0.500000  0.808150  1.0  0.1464
  S  S3056  1  0.883240  0.000000  0.308150  1.0  0.1464
  S  S3057  1  0.191850  0.383240  0.500000  1.0  0.1276
  S  S3058  1  0.691850  0.883240  0.000000  1.0  0.1276
  S  S3059  1  0.191850  0.616760  0.500000  1.0  0.1285
  S  S3060  1  0.691850  0.116760  0.000000  1.0  0.1285
  S  S3061  1  0.808150  0.616760  0.500000  1.0  0.1405
  S  S3062  1  0.308150  0.116760  0.000000  1.0  0.1405
  S  S3063  1  0.808150  0.383240  0.500000  1.0  0.1396
  S  S3064  1  0.308150  0.883240  0.000000  1.0  0.1396
  S  S3065  1  0.500000  0.191850  0.383240  1.0  0.1318
  S  S3066  1  0.000000  0.691850  0.883240  1.0  0.1318
  S  S3067  1  0.500000  0.191850  0.616760  1.0  0.134
  S  S3068  1  0.000000  0.691850  0.116760  1.0  0.134
  S  S3069  1  0.500000  0.808150  0.616760  1.0  0.138
  S  S3070  1  0.000000  0.308150  0.116760  1.0  0.138
  S  S3071  1  0.500000  0.808150  0.383240  1.0  0.1402
  S  S3072  1  0.000000  0.308150  0.883240  1.0  0.1402
  S  S3073  1  0.500000  0.383240  0.808150  1.0  0.1434
  S  S3074  1  0.000000  0.883240  0.308150  1.0  0.1434
  S  S3075  1  0.500000  0.616760  0.808150  1.0  0.1358
  S  S3076  1  0.000000  0.116760  0.308150  1.0  0.1358
  S  S3077  1  0.500000  0.616760  0.191850  1.0  0.139
  S  S3078  1  0.000000  0.116760  0.691850  1.0  0.139
  S  S3079  1  0.500000  0.383240  0.191850  1.0  0.1417
  S  S3080  1  0.000000  0.883240  0.691850  1.0  0.1417
  S  S3081  1  0.383240  0.191850  0.500000  1.0  0.1424
  S  S3082  1  0.883240  0.691850  0.000000  1.0  0.1424
  S  S3083  1  0.616760  0.191850  0.500000  1.0  0.1314
  S  S3084  1  0.116760  0.691850  0.000000  1.0  0.1314
  S  S3085  1  0.616760  0.808150  0.500000  1.0  0.1326
  S  S3086  1  0.116760  0.308150  0.000000  1.0  0.1326
  S  S3087  1  0.383240  0.808150  0.500000  1.0  0.1429
  S  S3088  1  0.883240  0.308150  0.000000  1.0  0.1429
  S  S3089  1  0.191850  0.500000  0.616760  1.0  0.1275
  S  S3090  1  0.691850  0.000000  0.116760  1.0  0.1275
  S  S3091  1  0.191850  0.500000  0.383240  1.0  0.1264
  S  S3092  1  0.691850  0.000000  0.883240  1.0  0.1264
  S  S3093  1  0.808150  0.500000  0.383240  1.0  0.14
  S  S3094  1  0.308150  0.000000  0.883240  1.0  0.14
  S  S3095  1  0.808150  0.500000  0.616760  1.0  0.1405
  S  S3096  1  0.308150  0.000000  0.116760  1.0  0.1405
  O  O3097  1  0.378800  0.414710  0.124570  1.0  -0.6244
  O  O3098  1  0.337680  0.406630  0.128840  1.0  -0.7112
  O  O3099  1  0.288070  0.457690  0.049510  1.0  -0.6548
  O  O3100  1  0.317400  0.475660  0.025870  1.0  -0.6052
  O  O3101  1  0.297850  0.359110  0.172850  1.0  -0.6496
  O  O3102  1  0.305490  0.339580  0.209390  1.0  -0.6034
  O  O3103  1  0.327080  0.362600  0.249070  1.0  -0.605
  O  O3104  1  0.339250  0.402840  0.247790  1.0  -0.6874
  O  O3105  1  0.376840  0.445370  0.196410  1.0  -0.6457
  O  O3106  1  0.400440  0.435580  0.162990  1.0  -0.6156
  O  O3107  1  0.361680  0.401570  0.174400  1.0  -0.8859
  O  O3108  1  0.330660  0.383400  0.202760  1.0  -0.9116
  O  O3109  1  0.317720  0.361070  0.128110  1.0  -0.6781
  O  O3110  1  0.878800  0.914710  0.624570  1.0  -0.6244
  O  O3111  1  0.837680  0.906630  0.628840  1.0  -0.7112
  O  O3112  1  0.788070  0.957690  0.549510  1.0  -0.6548
  O  O3113  1  0.817400  0.975660  0.525870  1.0  -0.6052
  O  O3114  1  0.797850  0.859110  0.672850  1.0  -0.6496
  O  O3115  1  0.805490  0.839580  0.709390  1.0  -0.6034
  O  O3116  1  0.827080  0.862600  0.749070  1.0  -0.605
  O  O3117  1  0.839250  0.902840  0.747790  1.0  -0.6874
  O  O3118  1  0.876840  0.945370  0.696410  1.0  -0.6457
  O  O3119  1  0.900440  0.935580  0.662990  1.0  -0.6156
  O  O3120  1  0.861680  0.901570  0.674400  1.0  -0.8859
  O  O3121  1  0.830660  0.883400  0.702760  1.0  -0.9116
  O  O3122  1  0.817720  0.861070  0.628110  1.0  -0.6781
  O  O3123  1  0.621200  0.585290  0.124570  1.0  -0.6229
  O  O3124  1  0.662320  0.593370  0.128840  1.0  -0.7117
  O  O3125  1  0.711930  0.542310  0.049510  1.0  -0.654
  O  O3126  1  0.682600  0.524340  0.025870  1.0  -0.605
  O  O3127  1  0.702150  0.640890  0.172850  1.0  -0.6506
  O  O3128  1  0.694510  0.660420  0.209390  1.0  -0.6018
  O  O3129  1  0.672920  0.637400  0.249070  1.0  -0.6056
  O  O3130  1  0.660750  0.597160  0.247790  1.0  -0.6867
  O  O3131  1  0.623160  0.554630  0.196410  1.0  -0.6466
  O  O3132  1  0.599560  0.564420  0.162990  1.0  -0.6146
  O  O3133  1  0.638320  0.598430  0.174400  1.0  -0.885
  O  O3134  1  0.669340  0.616600  0.202760  1.0  -0.9114
  O  O3135  1  0.682280  0.638930  0.128110  1.0  -0.673
  O  O3136  1  0.121200  0.085290  0.624570  1.0  -0.6229
  O  O3137  1  0.162320  0.093370  0.628840  1.0  -0.7117
  O  O3138  1  0.211930  0.042310  0.549510  1.0  -0.654
  O  O3139  1  0.182600  0.024340  0.525870  1.0  -0.605
  O  O3140  1  0.202150  0.140890  0.672850  1.0  -0.6506
  O  O3141  1  0.194510  0.160420  0.709390  1.0  -0.6018
  O  O3142  1  0.172920  0.137400  0.749070  1.0  -0.6056
  O  O3143  1  0.160750  0.097160  0.747790  1.0  -0.6867
  O  O3144  1  0.123160  0.054630  0.696410  1.0  -0.6466
  O  O3145  1  0.099560  0.064420  0.662990  1.0  -0.6146
  O  O3146  1  0.138320  0.098430  0.674400  1.0  -0.885
  O  O3147  1  0.169340  0.116600  0.702760  1.0  -0.9114
  O  O3148  1  0.182280  0.138930  0.628110  1.0  -0.673
  O  O3149  1  0.621200  0.414710  0.875430  1.0  -0.6233
  O  O3150  1  0.662320  0.406630  0.871160  1.0  -0.7104
  O  O3151  1  0.711930  0.457690  0.950490  1.0  -0.6534
  O  O3152  1  0.682600  0.475660  0.974130  1.0  -0.6058
  O  O3153  1  0.702150  0.359110  0.827150  1.0  -0.6495
  O  O3154  1  0.694510  0.339580  0.790610  1.0  -0.6028
  O  O3155  1  0.672920  0.362600  0.750930  1.0  -0.6043
  O  O3156  1  0.660750  0.402840  0.752210  1.0  -0.6863
  O  O3157  1  0.623160  0.445370  0.803590  1.0  -0.6455
  O  O3158  1  0.599560  0.435580  0.837010  1.0  -0.6163
  O  O3159  1  0.638320  0.401570  0.825600  1.0  -0.8849
  O  O3160  1  0.669340  0.383400  0.797240  1.0  -0.9116
  O  O3161  1  0.682280  0.361070  0.871890  1.0  -0.677
  O  O3162  1  0.121200  0.914710  0.375430  1.0  -0.6233
  O  O3163  1  0.162320  0.906630  0.371160  1.0  -0.7104
  O  O3164  1  0.211930  0.957690  0.450490  1.0  -0.6534
  O  O3165  1  0.182600  0.975660  0.474130  1.0  -0.6058
  O  O3166  1  0.202150  0.859110  0.327150  1.0  -0.6495
  O  O3167  1  0.194510  0.839580  0.290610  1.0  -0.6028
  O  O3168  1  0.172920  0.862600  0.250930  1.0  -0.6043
  O  O3169  1  0.160750  0.902840  0.252210  1.0  -0.6863
  O  O3170  1  0.123160  0.945370  0.303590  1.0  -0.6455
  O  O3171  1  0.099560  0.935580  0.337010  1.0  -0.6163
  O  O3172  1  0.138320  0.901570  0.325600  1.0  -0.8849
  O  O3173  1  0.169340  0.883400  0.297240  1.0  -0.9116
  O  O3174  1  0.182280  0.861070  0.371890  1.0  -0.677
  O  O3175  1  0.378800  0.585290  0.875430  1.0  -0.625
  O  O3176  1  0.337680  0.593370  0.871160  1.0  -0.7094
  O  O3177  1  0.288070  0.542310  0.950490  1.0  -0.6543
  O  O3178  1  0.317400  0.524340  0.974130  1.0  -0.6071
  O  O3179  1  0.297850  0.640890  0.827150  1.0  -0.6485
  O  O3180  1  0.305490  0.660420  0.790610  1.0  -0.6024
  O  O3181  1  0.327080  0.637400  0.750930  1.0  -0.604
  O  O3182  1  0.339250  0.597160  0.752210  1.0  -0.6886
  O  O3183  1  0.376840  0.554630  0.803590  1.0  -0.6441
  O  O3184  1  0.400440  0.564420  0.837010  1.0  -0.6159
  O  O3185  1  0.361680  0.598430  0.825600  1.0  -0.8853
  O  O3186  1  0.330660  0.616600  0.797240  1.0  -0.9102
  O  O3187  1  0.317720  0.638930  0.871890  1.0  -0.6801
  O  O3188  1  0.878800  0.085290  0.375430  1.0  -0.625
  O  O3189  1  0.837680  0.093370  0.371160  1.0  -0.7094
  O  O3190  1  0.788070  0.042310  0.450490  1.0  -0.6543
  O  O3191  1  0.817400  0.024340  0.474130  1.0  -0.6071
  O  O3192  1  0.797850  0.140890  0.327150  1.0  -0.6485
  O  O3193  1  0.805490  0.160420  0.290610  1.0  -0.6024
  O  O3194  1  0.827080  0.137400  0.250930  1.0  -0.604
  O  O3195  1  0.839250  0.097160  0.252210  1.0  -0.6886
  O  O3196  1  0.876840  0.054630  0.303590  1.0  -0.6441
  O  O3197  1  0.900440  0.064420  0.337010  1.0  -0.6159
  O  O3198  1  0.861680  0.098430  0.325600  1.0  -0.8853
  O  O3199  1  0.830660  0.116600  0.297240  1.0  -0.9102
  O  O3200  1  0.817720  0.138930  0.371890  1.0  -0.6801
  O  O3201  1  0.124570  0.378800  0.414710  1.0  -0.6254
  O  O3202  1  0.128840  0.337680  0.406630  1.0  -0.7103
  O  O3203  1  0.049510  0.288070  0.457690  1.0  -0.6507
  O  O3204  1  0.025870  0.317400  0.475660  1.0  -0.6073
  O  O3205  1  0.172850  0.297850  0.359110  1.0  -0.6456
  O  O3206  1  0.209390  0.305490  0.339580  1.0  -0.6005
  O  O3207  1  0.249070  0.327080  0.362600  1.0  -0.6076
  O  O3208  1  0.247790  0.339250  0.402840  1.0  -0.6899
  O  O3209  1  0.196410  0.376840  0.445370  1.0  -0.6471
  O  O3210  1  0.162990  0.400440  0.435580  1.0  -0.6185
  O  O3211  1  0.174400  0.361680  0.401570  1.0  -0.8871
  O  O3212  1  0.202760  0.330660  0.383400  1.0  -0.9126
  O  O3213  1  0.128110  0.317720  0.361070  1.0  -0.6773
  O  O3214  1  0.624570  0.878800  0.914710  1.0  -0.6254
  O  O3215  1  0.628840  0.837680  0.906630  1.0  -0.7103
  O  O3216  1  0.549510  0.788070  0.957690  1.0  -0.6507
  O  O3217  1  0.525870  0.817400  0.975660  1.0  -0.6073
  O  O3218  1  0.672850  0.797850  0.859110  1.0  -0.6456
  O  O3219  1  0.709390  0.805490  0.839580  1.0  -0.6005
  O  O3220  1  0.749070  0.827080  0.862600  1.0  -0.6076
  O  O3221  1  0.747790  0.839250  0.902840  1.0  -0.6899
  O  O3222  1  0.696410  0.876840  0.945370  1.0  -0.6471
  O  O3223  1  0.662990  0.900440  0.935580  1.0  -0.6185
  O  O3224  1  0.674400  0.861680  0.901570  1.0  -0.8871
  O  O3225  1  0.702760  0.830660  0.883400  1.0  -0.9126
  O  O3226  1  0.628110  0.817720  0.861070  1.0  -0.6773
  O  O3227  1  0.124570  0.621200  0.585290  1.0  -0.6262
  O  O3228  1  0.128840  0.662320  0.593370  1.0  -0.7097
  O  O3229  1  0.049510  0.711930  0.542310  1.0  -0.6512
  O  O3230  1  0.025870  0.682600  0.524340  1.0  -0.6057
  O  O3231  1  0.172850  0.702150  0.640890  1.0  -0.6466
  O  O3232  1  0.209390  0.694510  0.660420  1.0  -0.6007
  O  O3233  1  0.249070  0.672920  0.637400  1.0  -0.6062
  O  O3234  1  0.247790  0.660750  0.597160  1.0  -0.6921
  O  O3235  1  0.196410  0.623160  0.554630  1.0  -0.6452
  O  O3236  1  0.162990  0.599560  0.564420  1.0  -0.6192
  O  O3237  1  0.174400  0.638320  0.598430  1.0  -0.8859
  O  O3238  1  0.202760  0.669340  0.616600  1.0  -0.9152
  O  O3239  1  0.128110  0.682280  0.638930  1.0  -0.6779
  O  O3240  1  0.624570  0.121200  0.085290  1.0  -0.6262
  O  O3241  1  0.628840  0.162320  0.093370  1.0  -0.7097
  O  O3242  1  0.549510  0.211930  0.042310  1.0  -0.6512
  O  O3243  1  0.525870  0.182600  0.024340  1.0  -0.6057
  O  O3244  1  0.672850  0.202150  0.140890  1.0  -0.6466
  O  O3245  1  0.709390  0.194510  0.160420  1.0  -0.6007
  O  O3246  1  0.749070  0.172920  0.137400  1.0  -0.6062
  O  O3247  1  0.747790  0.160750  0.097160  1.0  -0.6921
  O  O3248  1  0.696410  0.123160  0.054630  1.0  -0.6452
  O  O3249  1  0.662990  0.099560  0.064420  1.0  -0.6192
  O  O3250  1  0.674400  0.138320  0.098430  1.0  -0.8859
  O  O3251  1  0.702760  0.169340  0.116600  1.0  -0.9152
  O  O3252  1  0.628110  0.182280  0.138930  1.0  -0.6779
  O  O3253  1  0.875430  0.621200  0.414710  1.0  -0.6256
  O  O3254  1  0.871160  0.662320  0.406630  1.0  -0.71
  O  O3255  1  0.950490  0.711930  0.457690  1.0  -0.6523
  O  O3256  1  0.974130  0.682600  0.475660  1.0  -0.6071
  O  O3257  1  0.827150  0.702150  0.359110  1.0  -0.6466
  O  O3258  1  0.790610  0.694510  0.339580  1.0  -0.5988
  O  O3259  1  0.750930  0.672920  0.362600  1.0  -0.6083
  O  O3260  1  0.752210  0.660750  0.402840  1.0  -0.6902
  O  O3261  1  0.803590  0.623160  0.445370  1.0  -0.6449
  O  O3262  1  0.837010  0.599560  0.435580  1.0  -0.6189
  O  O3263  1  0.825600  0.638320  0.401570  1.0  -0.8883
  O  O3264  1  0.797240  0.669340  0.383400  1.0  -0.9111
  O  O3265  1  0.871890  0.682280  0.361070  1.0  -0.6717
  O  O3266  1  0.375430  0.121200  0.914710  1.0  -0.6256
  O  O3267  1  0.371160  0.162320  0.906630  1.0  -0.71
  O  O3268  1  0.450490  0.211930  0.957690  1.0  -0.6523
  O  O3269  1  0.474130  0.182600  0.975660  1.0  -0.6071
  O  O3270  1  0.327150  0.202150  0.859110  1.0  -0.6466
  O  O3271  1  0.290610  0.194510  0.839580  1.0  -0.5988
  O  O3272  1  0.250930  0.172920  0.862600  1.0  -0.6083
  O  O3273  1  0.252210  0.160750  0.902840  1.0  -0.6902
  O  O3274  1  0.303590  0.123160  0.945370  1.0  -0.6449
  O  O3275  1  0.337010  0.099560  0.935580  1.0  -0.6189
  O  O3276  1  0.325600  0.138320  0.901570  1.0  -0.8883
  O  O3277  1  0.297240  0.169340  0.883400  1.0  -0.9111
  O  O3278  1  0.371890  0.182280  0.861070  1.0  -0.6717
  O  O3279  1  0.875430  0.378800  0.585290  1.0  -0.6255
  O  O3280  1  0.871160  0.337680  0.593370  1.0  -0.7118
  O  O3281  1  0.950490  0.288070  0.542310  1.0  -0.6514
  O  O3282  1  0.974130  0.317400  0.524340  1.0  -0.6074
  O  O3283  1  0.827150  0.297850  0.640890  1.0  -0.6472
  O  O3284  1  0.790610  0.305490  0.660420  1.0  -0.598
  O  O3285  1  0.750930  0.327080  0.637400  1.0  -0.6051
  O  O3286  1  0.752210  0.339250  0.597160  1.0  -0.6921
  O  O3287  1  0.803590  0.376840  0.554630  1.0  -0.6438
  O  O3288  1  0.837010  0.400440  0.564420  1.0  -0.6199
  O  O3289  1  0.825600  0.361680  0.598430  1.0  -0.8869
  O  O3290  1  0.797240  0.330660  0.616600  1.0  -0.9131
  O  O3291  1  0.871890  0.317720  0.638930  1.0  -0.6724
  O  O3292  1  0.375430  0.878800  0.085290  1.0  -0.6255
  O  O3293  1  0.371160  0.837680  0.093370  1.0  -0.7118
  O  O3294  1  0.450490  0.788070  0.042310  1.0  -0.6514
  O  O3295  1  0.474130  0.817400  0.024340  1.0  -0.6074
  O  O3296  1  0.327150  0.797850  0.140890  1.0  -0.6472
  O  O3297  1  0.290610  0.805490  0.160420  1.0  -0.598
  O  O3298  1  0.250930  0.827080  0.137400  1.0  -0.6051
  O  O3299  1  0.252210  0.839250  0.097160  1.0  -0.6921
  O  O3300  1  0.303590  0.876840  0.054630  1.0  -0.6438
  O  O3301  1  0.337010  0.900440  0.064420  1.0  -0.6199
  O  O3302  1  0.325600  0.861680  0.098430  1.0  -0.8869
  O  O3303  1  0.297240  0.830660  0.116600  1.0  -0.9131
  O  O3304  1  0.371890  0.817720  0.138930  1.0  -0.6724
  O  O3305  1  0.414710  0.124570  0.378800  1.0  -0.6214
  O  O3306  1  0.406630  0.128840  0.337680  1.0  -0.7127
  O  O3307  1  0.457690  0.049510  0.288070  1.0  -0.657
  O  O3308  1  0.475660  0.025870  0.317400  1.0  -0.6084
  O  O3309  1  0.359110  0.172850  0.297850  1.0  -0.6492
  O  O3310  1  0.339580  0.209390  0.305490  1.0  -0.5967
  O  O3311  1  0.362600  0.249070  0.327080  1.0  -0.6022
  O  O3312  1  0.402840  0.247790  0.339250  1.0  -0.6907
  O  O3313  1  0.445370  0.196410  0.376840  1.0  -0.6463
  O  O3314  1  0.435580  0.162990  0.400440  1.0  -0.6182
  O  O3315  1  0.401570  0.174400  0.361680  1.0  -0.8845
  O  O3316  1  0.383400  0.202760  0.330660  1.0  -0.913
  O  O3317  1  0.361070  0.128110  0.317720  1.0  -0.6776
  O  O3318  1  0.914710  0.624570  0.878800  1.0  -0.6214
  O  O3319  1  0.906630  0.628840  0.837680  1.0  -0.7127
  O  O3320  1  0.957690  0.549510  0.788070  1.0  -0.657
  O  O3321  1  0.975660  0.525870  0.817400  1.0  -0.6084
  O  O3322  1  0.859110  0.672850  0.797850  1.0  -0.6492
  O  O3323  1  0.839580  0.709390  0.805490  1.0  -0.5967
  O  O3324  1  0.862600  0.749070  0.827080  1.0  -0.6022
  O  O3325  1  0.902840  0.747790  0.839250  1.0  -0.6907
  O  O3326  1  0.945370  0.696410  0.876840  1.0  -0.6463
  O  O3327  1  0.935580  0.662990  0.900440  1.0  -0.6182
  O  O3328  1  0.901570  0.674400  0.861680  1.0  -0.8845
  O  O3329  1  0.883400  0.702760  0.830660  1.0  -0.913
  O  O3330  1  0.861070  0.628110  0.817720  1.0  -0.6776
  O  O3331  1  0.585290  0.124570  0.621200  1.0  -0.6239
  O  O3332  1  0.593370  0.128840  0.662320  1.0  -0.7142
  O  O3333  1  0.542310  0.049510  0.711930  1.0  -0.6552
  O  O3334  1  0.524340  0.025870  0.682600  1.0  -0.607
  O  O3335  1  0.640890  0.172850  0.702150  1.0  -0.649
  O  O3336  1  0.660420  0.209390  0.694510  1.0  -0.5981
  O  O3337  1  0.637400  0.249070  0.672920  1.0  -0.6043
  O  O3338  1  0.597160  0.247790  0.660750  1.0  -0.6902
  O  O3339  1  0.554630  0.196410  0.623160  1.0  -0.6471
  O  O3340  1  0.564420  0.162990  0.599560  1.0  -0.6196
  O  O3341  1  0.598430  0.174400  0.638320  1.0  -0.8838
  O  O3342  1  0.616600  0.202760  0.669340  1.0  -0.9103
  O  O3343  1  0.638930  0.128110  0.682280  1.0  -0.6712
  O  O3344  1  0.085290  0.624570  0.121200  1.0  -0.6239
  O  O3345  1  0.093370  0.628840  0.162320  1.0  -0.7142
  O  O3346  1  0.042310  0.549510  0.211930  1.0  -0.6552
  O  O3347  1  0.024340  0.525870  0.182600  1.0  -0.607
  O  O3348  1  0.140890  0.672850  0.202150  1.0  -0.649
  O  O3349  1  0.160420  0.709390  0.194510  1.0  -0.5981
  O  O3350  1  0.137400  0.749070  0.172920  1.0  -0.6043
  O  O3351  1  0.097160  0.747790  0.160750  1.0  -0.6902
  O  O3352  1  0.054630  0.696410  0.123160  1.0  -0.6471
  O  O3353  1  0.064420  0.662990  0.099560  1.0  -0.6196
  O  O3354  1  0.098430  0.674400  0.138320  1.0  -0.8838
  O  O3355  1  0.116600  0.702760  0.169340  1.0  -0.9103
  O  O3356  1  0.138930  0.628110  0.182280  1.0  -0.6712
  O  O3357  1  0.414710  0.875430  0.621200  1.0  -0.6234
  O  O3358  1  0.406630  0.871160  0.662320  1.0  -0.7143
  O  O3359  1  0.457690  0.950490  0.711930  1.0  -0.6554
  O  O3360  1  0.475660  0.974130  0.682600  1.0  -0.6085
  O  O3361  1  0.359110  0.827150  0.702150  1.0  -0.6491
  O  O3362  1  0.339580  0.790610  0.694510  1.0  -0.5979
  O  O3363  1  0.362600  0.750930  0.672920  1.0  -0.6021
  O  O3364  1  0.402840  0.752210  0.660750  1.0  -0.6907
  O  O3365  1  0.445370  0.803590  0.623160  1.0  -0.6468
  O  O3366  1  0.435580  0.837010  0.599560  1.0  -0.6185
  O  O3367  1  0.401570  0.825600  0.638320  1.0  -0.8858
  O  O3368  1  0.383400  0.797240  0.669340  1.0  -0.9102
  O  O3369  1  0.361070  0.871890  0.682280  1.0  -0.6758
  O  O3370  1  0.914710  0.375430  0.121200  1.0  -0.6234
  O  O3371  1  0.906630  0.371160  0.162320  1.0  -0.7143
  O  O3372  1  0.957690  0.450490  0.211930  1.0  -0.6554
  O  O3373  1  0.975660  0.474130  0.182600  1.0  -0.6085
  O  O3374  1  0.859110  0.327150  0.202150  1.0  -0.6491
  O  O3375  1  0.839580  0.290610  0.194510  1.0  -0.5979
  O  O3376  1  0.862600  0.250930  0.172920  1.0  -0.6021
  O  O3377  1  0.902840  0.252210  0.160750  1.0  -0.6907
  O  O3378  1  0.945370  0.303590  0.123160  1.0  -0.6468
  O  O3379  1  0.935580  0.337010  0.099560  1.0  -0.6185
  O  O3380  1  0.901570  0.325600  0.138320  1.0  -0.8858
  O  O3381  1  0.883400  0.297240  0.169340  1.0  -0.9102
  O  O3382  1  0.861070  0.371890  0.182280  1.0  -0.6758
  O  O3383  1  0.585290  0.875430  0.378800  1.0  -0.6222
  O  O3384  1  0.593370  0.871160  0.337680  1.0  -0.7136
  O  O3385  1  0.542310  0.950490  0.288070  1.0  -0.6563
  O  O3386  1  0.524340  0.974130  0.317400  1.0  -0.6085
  O  O3387  1  0.640890  0.827150  0.297850  1.0  -0.6487
  O  O3388  1  0.660420  0.790610  0.305490  1.0  -0.5988
  O  O3389  1  0.637400  0.750930  0.327080  1.0  -0.6043
  O  O3390  1  0.597160  0.752210  0.339250  1.0  -0.689
  O  O3391  1  0.554630  0.803590  0.376840  1.0  -0.6457
  O  O3392  1  0.564420  0.837010  0.400440  1.0  -0.6194
  O  O3393  1  0.598430  0.825600  0.361680  1.0  -0.8832
  O  O3394  1  0.616600  0.797240  0.330660  1.0  -0.913
  O  O3395  1  0.638930  0.871890  0.317720  1.0  -0.671
  O  O3396  1  0.085290  0.375430  0.878800  1.0  -0.6222
  O  O3397  1  0.093370  0.371160  0.837680  1.0  -0.7136
  O  O3398  1  0.042310  0.450490  0.788070  1.0  -0.6563
  O  O3399  1  0.024340  0.474130  0.817400  1.0  -0.6085
  O  O3400  1  0.140890  0.327150  0.797850  1.0  -0.6487
  O  O3401  1  0.160420  0.290610  0.805490  1.0  -0.5988
  O  O3402  1  0.137400  0.250930  0.827080  1.0  -0.6043
  O  O3403  1  0.097160  0.252210  0.839250  1.0  -0.689
  O  O3404  1  0.054630  0.303590  0.876840  1.0  -0.6457
  O  O3405  1  0.064420  0.337010  0.900440  1.0  -0.6194
  O  O3406  1  0.098430  0.325600  0.861680  1.0  -0.8832
  O  O3407  1  0.116600  0.297240  0.830660  1.0  -0.913
  O  O3408  1  0.138930  0.371890  0.817720  1.0  -0.671
  O  O3409  1  0.414710  0.378800  0.875430  1.0  -0.6241
  O  O3410  1  0.406630  0.337680  0.871160  1.0  -0.712
  O  O3411  1  0.457690  0.288070  0.950490  1.0  -0.6523
  O  O3412  1  0.475660  0.317400  0.974130  1.0  -0.6086
  O  O3413  1  0.359110  0.297850  0.827150  1.0  -0.6473
  O  O3414  1  0.339580  0.305490  0.790610  1.0  -0.5989
  O  O3415  1  0.362600  0.327080  0.750930  1.0  -0.6027
  O  O3416  1  0.402840  0.339250  0.752210  1.0  -0.6909
  O  O3417  1  0.445370  0.376840  0.803590  1.0  -0.6478
  O  O3418  1  0.435580  0.400440  0.837010  1.0  -0.6179
  O  O3419  1  0.401570  0.361680  0.825600  1.0  -0.8864
  O  O3420  1  0.383400  0.330660  0.797240  1.0  -0.91
  O  O3421  1  0.361070  0.317720  0.871890  1.0  -0.679
  O  O3422  1  0.914710  0.878800  0.375430  1.0  -0.6241
  O  O3423  1  0.906630  0.837680  0.371160  1.0  -0.712
  O  O3424  1  0.957690  0.788070  0.450490  1.0  -0.6523
  O  O3425  1  0.975660  0.817400  0.474130  1.0  -0.6086
  O  O3426  1  0.859110  0.797850  0.327150  1.0  -0.6473
  O  O3427  1  0.839580  0.805490  0.290610  1.0  -0.5989
  O  O3428  1  0.862600  0.827080  0.250930  1.0  -0.6027
  O  O3429  1  0.902840  0.839250  0.252210  1.0  -0.6909
  O  O3430  1  0.945370  0.876840  0.303590  1.0  -0.6478
  O  O3431  1  0.935580  0.900440  0.337010  1.0  -0.6179
  O  O3432  1  0.901570  0.861680  0.325600  1.0  -0.8864
  O  O3433  1  0.883400  0.830660  0.297240  1.0  -0.91
  O  O3434  1  0.861070  0.817720  0.371890  1.0  -0.679
  O  O3435  1  0.585290  0.621200  0.875430  1.0  -0.6241
  O  O3436  1  0.593370  0.662320  0.871160  1.0  -0.7118
  O  O3437  1  0.542310  0.711930  0.950490  1.0  -0.6517
  O  O3438  1  0.524340  0.682600  0.974130  1.0  -0.6074
  O  O3439  1  0.640890  0.702150  0.827150  1.0  -0.6472
  O  O3440  1  0.660420  0.694510  0.790610  1.0  -0.6009
  O  O3441  1  0.637400  0.672920  0.750930  1.0  -0.605
  O  O3442  1  0.597160  0.660750  0.752210  1.0  -0.6906
  O  O3443  1  0.554630  0.623160  0.803590  1.0  -0.6489
  O  O3444  1  0.564420  0.599560  0.837010  1.0  -0.6188
  O  O3445  1  0.598430  0.638320  0.825600  1.0  -0.8838
  O  O3446  1  0.616600  0.669340  0.797240  1.0  -0.9109
  O  O3447  1  0.638930  0.682280  0.871890  1.0  -0.6734
  O  O3448  1  0.085290  0.121200  0.375430  1.0  -0.6241
  O  O3449  1  0.093370  0.162320  0.371160  1.0  -0.7118
  O  O3450  1  0.042310  0.211930  0.450490  1.0  -0.6517
  O  O3451  1  0.024340  0.182600  0.474130  1.0  -0.6074
  O  O3452  1  0.140890  0.202150  0.327150  1.0  -0.6472
  O  O3453  1  0.160420  0.194510  0.290610  1.0  -0.6009
  O  O3454  1  0.137400  0.172920  0.250930  1.0  -0.605
  O  O3455  1  0.097160  0.160750  0.252210  1.0  -0.6906
  O  O3456  1  0.054630  0.123160  0.303590  1.0  -0.6489
  O  O3457  1  0.064420  0.099560  0.337010  1.0  -0.6188
  O  O3458  1  0.098430  0.138320  0.325600  1.0  -0.8838
  O  O3459  1  0.116600  0.169340  0.297240  1.0  -0.9109
  O  O3460  1  0.138930  0.182280  0.371890  1.0  -0.6734
  O  O3461  1  0.414710  0.621200  0.124570  1.0  -0.6242
  O  O3462  1  0.406630  0.662320  0.128840  1.0  -0.7119
  O  O3463  1  0.457690  0.711930  0.049510  1.0  -0.6529
  O  O3464  1  0.475660  0.682600  0.025870  1.0  -0.6068
  O  O3465  1  0.359110  0.702150  0.172850  1.0  -0.6481
  O  O3466  1  0.339580  0.694510  0.209390  1.0  -0.6003
  O  O3467  1  0.362600  0.672920  0.249070  1.0  -0.6043
  O  O3468  1  0.402840  0.660750  0.247790  1.0  -0.6909
  O  O3469  1  0.445370  0.623160  0.196410  1.0  -0.6488
  O  O3470  1  0.435580  0.599560  0.162990  1.0  -0.6165
  O  O3471  1  0.401570  0.638320  0.174400  1.0  -0.8858
  O  O3472  1  0.383400  0.669340  0.202760  1.0  -0.9112
  O  O3473  1  0.361070  0.682280  0.128110  1.0  -0.6761
  O  O3474  1  0.914710  0.121200  0.624570  1.0  -0.6242
  O  O3475  1  0.906630  0.162320  0.628840  1.0  -0.7119
  O  O3476  1  0.957690  0.211930  0.549510  1.0  -0.6529
  O  O3477  1  0.975660  0.182600  0.525870  1.0  -0.6068
  O  O3478  1  0.859110  0.202150  0.672850  1.0  -0.6481
  O  O3479  1  0.839580  0.194510  0.709390  1.0  -0.6003
  O  O3480  1  0.862600  0.172920  0.749070  1.0  -0.6043
  O  O3481  1  0.902840  0.160750  0.747790  1.0  -0.6909
  O  O3482  1  0.945370  0.123160  0.696410  1.0  -0.6488
  O  O3483  1  0.935580  0.099560  0.662990  1.0  -0.6165
  O  O3484  1  0.901570  0.138320  0.674400  1.0  -0.8858
  O  O3485  1  0.883400  0.169340  0.702760  1.0  -0.9112
  O  O3486  1  0.861070  0.182280  0.628110  1.0  -0.6761
  O  O3487  1  0.585290  0.378800  0.124570  1.0  -0.624
  O  O3488  1  0.593370  0.337680  0.128840  1.0  -0.7132
  O  O3489  1  0.542310  0.288070  0.049510  1.0  -0.6541
  O  O3490  1  0.524340  0.317400  0.025870  1.0  -0.6068
  O  O3491  1  0.640890  0.297850  0.172850  1.0  -0.6483
  O  O3492  1  0.660420  0.305490  0.209390  1.0  -0.5998
  O  O3493  1  0.637400  0.327080  0.249070  1.0  -0.6062
  O  O3494  1  0.597160  0.339250  0.247790  1.0  -0.6881
  O  O3495  1  0.554630  0.376840  0.196410  1.0  -0.6497
  O  O3496  1  0.564420  0.400440  0.162990  1.0  -0.6182
  O  O3497  1  0.598430  0.361680  0.174400  1.0  -0.8851
  O  O3498  1  0.616600  0.330660  0.202760  1.0  -0.9113
  O  O3499  1  0.638930  0.317720  0.128110  1.0  -0.6736
  O  O3500  1  0.085290  0.878800  0.624570  1.0  -0.624
  O  O3501  1  0.093370  0.837680  0.628840  1.0  -0.7132
  O  O3502  1  0.042310  0.788070  0.549510  1.0  -0.6541
  O  O3503  1  0.024340  0.817400  0.525870  1.0  -0.6068
  O  O3504  1  0.140890  0.797850  0.672850  1.0  -0.6483
  O  O3505  1  0.160420  0.805490  0.709390  1.0  -0.5998
  O  O3506  1  0.137400  0.827080  0.749070  1.0  -0.6062
  O  O3507  1  0.097160  0.839250  0.747790  1.0  -0.6881
  O  O3508  1  0.054630  0.876840  0.696410  1.0  -0.6497
  O  O3509  1  0.064420  0.900440  0.662990  1.0  -0.6182
  O  O3510  1  0.098430  0.861680  0.674400  1.0  -0.8851
  O  O3511  1  0.116600  0.830660  0.702760  1.0  -0.9113
  O  O3512  1  0.138930  0.817720  0.628110  1.0  -0.6736
  O  O3513  1  0.378800  0.124570  0.585290  1.0  -0.6242
  O  O3514  1  0.337680  0.128840  0.593370  1.0  -0.7103
  O  O3515  1  0.288070  0.049510  0.542310  1.0  -0.6539
  O  O3516  1  0.317400  0.025870  0.524340  1.0  -0.6093
  O  O3517  1  0.297850  0.172850  0.640890  1.0  -0.6498
  O  O3518  1  0.305490  0.209390  0.660420  1.0  -0.6009
  O  O3519  1  0.327080  0.249070  0.637400  1.0  -0.6022
  O  O3520  1  0.339250  0.247790  0.597160  1.0  -0.6868
  O  O3521  1  0.376840  0.196410  0.554630  1.0  -0.6426
  O  O3522  1  0.400440  0.162990  0.564420  1.0  -0.6206
  O  O3523  1  0.361680  0.174400  0.598430  1.0  -0.8861
  O  O3524  1  0.330660  0.202760  0.616600  1.0  -0.9126
  O  O3525  1  0.317720  0.128110  0.638930  1.0  -0.6764
  O  O3526  1  0.878800  0.624570  0.085290  1.0  -0.6242
  O  O3527  1  0.837680  0.628840  0.093370  1.0  -0.7103
  O  O3528  1  0.788070  0.549510  0.042310  1.0  -0.6539
  O  O3529  1  0.817400  0.525870  0.024340  1.0  -0.6093
  O  O3530  1  0.797850  0.672850  0.140890  1.0  -0.6498
  O  O3531  1  0.805490  0.709390  0.160420  1.0  -0.6009
  O  O3532  1  0.827080  0.749070  0.137400  1.0  -0.6022
  O  O3533  1  0.839250  0.747790  0.097160  1.0  -0.6868
  O  O3534  1  0.876840  0.696410  0.054630  1.0  -0.6426
  O  O3535  1  0.900440  0.662990  0.064420  1.0  -0.6206
  O  O3536  1  0.861680  0.674400  0.098430  1.0  -0.8861
  O  O3537  1  0.830660  0.702760  0.116600  1.0  -0.9126
  O  O3538  1  0.817720  0.628110  0.138930  1.0  -0.6764
  O  O3539  1  0.621200  0.124570  0.414710  1.0  -0.622
  O  O3540  1  0.662320  0.128840  0.406630  1.0  -0.711
  O  O3541  1  0.711930  0.049510  0.457690  1.0  -0.6546
  O  O3542  1  0.682600  0.025870  0.475660  1.0  -0.6095
  O  O3543  1  0.702150  0.172850  0.359110  1.0  -0.6492
  O  O3544  1  0.694510  0.209390  0.339580  1.0  -0.5995
  O  O3545  1  0.672920  0.249070  0.362600  1.0  -0.6043
  O  O3546  1  0.660750  0.247790  0.402840  1.0  -0.6861
  O  O3547  1  0.623160  0.196410  0.445370  1.0  -0.6427
  O  O3548  1  0.599560  0.162990  0.435580  1.0  -0.6194
  O  O3549  1  0.638320  0.174400  0.401570  1.0  -0.8862
  O  O3550  1  0.669340  0.202760  0.383400  1.0  -0.9096
  O  O3551  1  0.682280  0.128110  0.361070  1.0  -0.6743
  O  O3552  1  0.121200  0.624570  0.914710  1.0  -0.622
  O  O3553  1  0.162320  0.628840  0.906630  1.0  -0.711
  O  O3554  1  0.211930  0.549510  0.957690  1.0  -0.6546
  O  O3555  1  0.182600  0.525870  0.975660  1.0  -0.6095
  O  O3556  1  0.202150  0.672850  0.859110  1.0  -0.6492
  O  O3557  1  0.194510  0.709390  0.839580  1.0  -0.5995
  O  O3558  1  0.172920  0.749070  0.862600  1.0  -0.6043
  O  O3559  1  0.160750  0.747790  0.902840  1.0  -0.6861
  O  O3560  1  0.123160  0.696410  0.945370  1.0  -0.6427
  O  O3561  1  0.099560  0.662990  0.935580  1.0  -0.6194
  O  O3562  1  0.138320  0.674400  0.901570  1.0  -0.8862
  O  O3563  1  0.169340  0.702760  0.883400  1.0  -0.9096
  O  O3564  1  0.182280  0.628110  0.861070  1.0  -0.6743
  O  O3565  1  0.621200  0.875430  0.585290  1.0  -0.6232
  O  O3566  1  0.662320  0.871160  0.593370  1.0  -0.7115
  O  O3567  1  0.711930  0.950490  0.542310  1.0  -0.6547
  O  O3568  1  0.682600  0.974130  0.524340  1.0  -0.6097
  O  O3569  1  0.702150  0.827150  0.640890  1.0  -0.6495
  O  O3570  1  0.694510  0.790610  0.660420  1.0  -0.6008
  O  O3571  1  0.672920  0.750930  0.637400  1.0  -0.6022
  O  O3572  1  0.660750  0.752210  0.597160  1.0  -0.6863
  O  O3573  1  0.623160  0.803590  0.554630  1.0  -0.6415
  O  O3574  1  0.599560  0.837010  0.564420  1.0  -0.62
  O  O3575  1  0.638320  0.825600  0.598430  1.0  -0.886
  O  O3576  1  0.669340  0.797240  0.616600  1.0  -0.912
  O  O3577  1  0.682280  0.871890  0.638930  1.0  -0.6713
  O  O3578  1  0.121200  0.375430  0.085290  1.0  -0.6232
  O  O3579  1  0.162320  0.371160  0.093370  1.0  -0.7115
  O  O3580  1  0.211930  0.450490  0.042310  1.0  -0.6547
  O  O3581  1  0.182600  0.474130  0.024340  1.0  -0.6097
  O  O3582  1  0.202150  0.327150  0.140890  1.0  -0.6495
  O  O3583  1  0.194510  0.290610  0.160420  1.0  -0.6008
  O  O3584  1  0.172920  0.250930  0.137400  1.0  -0.6022
  O  O3585  1  0.160750  0.252210  0.097160  1.0  -0.6863
  O  O3586  1  0.123160  0.303590  0.054630  1.0  -0.6415
  O  O3587  1  0.099560  0.337010  0.064420  1.0  -0.62
  O  O3588  1  0.138320  0.325600  0.098430  1.0  -0.886
  O  O3589  1  0.169340  0.297240  0.116600  1.0  -0.912
  O  O3590  1  0.182280  0.371890  0.138930  1.0  -0.6713
  O  O3591  1  0.378800  0.875430  0.414710  1.0  -0.6244
  O  O3592  1  0.337680  0.871160  0.406630  1.0  -0.711
  O  O3593  1  0.288070  0.950490  0.457690  1.0  -0.6545
  O  O3594  1  0.317400  0.974130  0.475660  1.0  -0.6106
  O  O3595  1  0.297850  0.827150  0.359110  1.0  -0.6485
  O  O3596  1  0.305490  0.790610  0.339580  1.0  -0.6007
  O  O3597  1  0.327080  0.750930  0.362600  1.0  -0.6045
  O  O3598  1  0.339250  0.752210  0.402840  1.0  -0.6861
  O  O3599  1  0.376840  0.803590  0.445370  1.0  -0.6427
  O  O3600  1  0.400440  0.837010  0.435580  1.0  -0.6201
  O  O3601  1  0.361680  0.825600  0.401570  1.0  -0.8877
  O  O3602  1  0.330660  0.797240  0.383400  1.0  -0.9092
  O  O3603  1  0.317720  0.871890  0.361070  1.0  -0.6765
  O  O3604  1  0.878800  0.375430  0.914710  1.0  -0.6244
  O  O3605  1  0.837680  0.371160  0.906630  1.0  -0.711
  O  O3606  1  0.788070  0.450490  0.957690  1.0  -0.6545
  O  O3607  1  0.817400  0.474130  0.975660  1.0  -0.6106
  O  O3608  1  0.797850  0.327150  0.859110  1.0  -0.6485
  O  O3609  1  0.805490  0.290610  0.839580  1.0  -0.6007
  O  O3610  1  0.827080  0.250930  0.862600  1.0  -0.6045
  O  O3611  1  0.839250  0.252210  0.902840  1.0  -0.6861
  O  O3612  1  0.876840  0.303590  0.945370  1.0  -0.6427
  O  O3613  1  0.900440  0.337010  0.935580  1.0  -0.6201
  O  O3614  1  0.861680  0.325600  0.901570  1.0  -0.8877
  O  O3615  1  0.830660  0.297240  0.883400  1.0  -0.9092
  O  O3616  1  0.817720  0.371890  0.861070  1.0  -0.6765
  O  O3617  1  0.124570  0.414710  0.621200  1.0  -0.6255
  O  O3618  1  0.128840  0.406630  0.662320  1.0  -0.7136
  O  O3619  1  0.049510  0.457690  0.711930  1.0  -0.6549
  O  O3620  1  0.025870  0.475660  0.682600  1.0  -0.6033
  O  O3621  1  0.172850  0.359110  0.702150  1.0  -0.6475
  O  O3622  1  0.209390  0.339580  0.694510  1.0  -0.6012
  O  O3623  1  0.249070  0.362600  0.672920  1.0  -0.6082
  O  O3624  1  0.247790  0.402840  0.660750  1.0  -0.6913
  O  O3625  1  0.196410  0.445370  0.623160  1.0  -0.6463
  O  O3626  1  0.162990  0.435580  0.599560  1.0  -0.6159
  O  O3627  1  0.174400  0.401570  0.638320  1.0  -0.8861
  O  O3628  1  0.202760  0.383400  0.669340  1.0  -0.9109
  O  O3629  1  0.128110  0.361070  0.682280  1.0  -0.6807
  O  O3630  1  0.624570  0.914710  0.121200  1.0  -0.6255
  O  O3631  1  0.628840  0.906630  0.162320  1.0  -0.7136
  O  O3632  1  0.549510  0.957690  0.211930  1.0  -0.6549
  O  O3633  1  0.525870  0.975660  0.182600  1.0  -0.6033
  O  O3634  1  0.672850  0.859110  0.202150  1.0  -0.6475
  O  O3635  1  0.709390  0.839580  0.194510  1.0  -0.6012
  O  O3636  1  0.749070  0.862600  0.172920  1.0  -0.6082
  O  O3637  1  0.747790  0.902840  0.160750  1.0  -0.6913
  O  O3638  1  0.696410  0.945370  0.123160  1.0  -0.6463
  O  O3639  1  0.662990  0.935580  0.099560  1.0  -0.6159
  O  O3640  1  0.674400  0.901570  0.138320  1.0  -0.8861
  O  O3641  1  0.702760  0.883400  0.169340  1.0  -0.9109
  O  O3642  1  0.628110  0.861070  0.182280  1.0  -0.6807
  O  O3643  1  0.124570  0.585290  0.378800  1.0  -0.6236
  O  O3644  1  0.128840  0.593370  0.337680  1.0  -0.7107
  O  O3645  1  0.049510  0.542310  0.288070  1.0  -0.6553
  O  O3646  1  0.025870  0.524340  0.317400  1.0  -0.6041
  O  O3647  1  0.172850  0.640890  0.297850  1.0  -0.6489
  O  O3648  1  0.209390  0.660420  0.305490  1.0  -0.6009
  O  O3649  1  0.249070  0.637400  0.327080  1.0  -0.6068
  O  O3650  1  0.247790  0.597160  0.339250  1.0  -0.6906
  O  O3651  1  0.196410  0.554630  0.376840  1.0  -0.6468
  O  O3652  1  0.162990  0.564420  0.400440  1.0  -0.6152
  O  O3653  1  0.174400  0.598430  0.361680  1.0  -0.884
  O  O3654  1  0.202760  0.616600  0.330660  1.0  -0.913
  O  O3655  1  0.128110  0.638930  0.317720  1.0  -0.6795
  O  O3656  1  0.624570  0.085290  0.878800  1.0  -0.6236
  O  O3657  1  0.628840  0.093370  0.837680  1.0  -0.7107
  O  O3658  1  0.549510  0.042310  0.788070  1.0  -0.6553
  O  O3659  1  0.525870  0.024340  0.817400  1.0  -0.6041
  O  O3660  1  0.672850  0.140890  0.797850  1.0  -0.6489
  O  O3661  1  0.709390  0.160420  0.805490  1.0  -0.6009
  O  O3662  1  0.749070  0.137400  0.827080  1.0  -0.6068
  O  O3663  1  0.747790  0.097160  0.839250  1.0  -0.6906
  O  O3664  1  0.696410  0.054630  0.876840  1.0  -0.6468
  O  O3665  1  0.662990  0.064420  0.900440  1.0  -0.6152
  O  O3666  1  0.674400  0.098430  0.861680  1.0  -0.884
  O  O3667  1  0.702760  0.116600  0.830660  1.0  -0.913
  O  O3668  1  0.628110  0.138930  0.817720  1.0  -0.6795
  O  O3669  1  0.875430  0.414710  0.378800  1.0  -0.6239
  O  O3670  1  0.871160  0.406630  0.337680  1.0  -0.7124
  O  O3671  1  0.950490  0.457690  0.288070  1.0  -0.6564
  O  O3672  1  0.974130  0.475660  0.317400  1.0  -0.603
  O  O3673  1  0.827150  0.359110  0.297850  1.0  -0.6481
  O  O3674  1  0.790610  0.339580  0.305490  1.0  -0.5998
  O  O3675  1  0.750930  0.362600  0.327080  1.0  -0.6085
  O  O3676  1  0.752210  0.402840  0.339250  1.0  -0.6903
  O  O3677  1  0.803590  0.445370  0.376840  1.0  -0.6452
  O  O3678  1  0.837010  0.435580  0.400440  1.0  -0.6161
  O  O3679  1  0.825600  0.401570  0.361680  1.0  -0.8845
  O  O3680  1  0.797240  0.383400  0.330660  1.0  -0.9164
  O  O3681  1  0.871890  0.361070  0.317720  1.0  -0.6761
  O  O3682  1  0.375430  0.914710  0.878800  1.0  -0.6239
  O  O3683  1  0.371160  0.906630  0.837680  1.0  -0.7124
  O  O3684  1  0.450490  0.957690  0.788070  1.0  -0.6564
  O  O3685  1  0.474130  0.975660  0.817400  1.0  -0.603
  O  O3686  1  0.327150  0.859110  0.797850  1.0  -0.6481
  O  O3687  1  0.290610  0.839580  0.805490  1.0  -0.5998
  O  O3688  1  0.250930  0.862600  0.827080  1.0  -0.6085
  O  O3689  1  0.252210  0.902840  0.839250  1.0  -0.6903
  O  O3690  1  0.303590  0.945370  0.876840  1.0  -0.6452
  O  O3691  1  0.337010  0.935580  0.900440  1.0  -0.6161
  O  O3692  1  0.325600  0.901570  0.861680  1.0  -0.8845
  O  O3693  1  0.297240  0.883400  0.830660  1.0  -0.9164
  O  O3694  1  0.371890  0.861070  0.817720  1.0  -0.6761
  O  O3695  1  0.875430  0.585290  0.621200  1.0  -0.6254
  O  O3696  1  0.871160  0.593370  0.662320  1.0  -0.7122
  O  O3697  1  0.950490  0.542310  0.711930  1.0  -0.6551
  O  O3698  1  0.974130  0.524340  0.682600  1.0  -0.6035
  O  O3699  1  0.827150  0.640890  0.702150  1.0  -0.6481
  O  O3700  1  0.790610  0.660420  0.694510  1.0  -0.5988
  O  O3701  1  0.750930  0.637400  0.672920  1.0  -0.6086
  O  O3702  1  0.752210  0.597160  0.660750  1.0  -0.6915
  O  O3703  1  0.803590  0.554630  0.623160  1.0  -0.6444
  O  O3704  1  0.837010  0.564420  0.599560  1.0  -0.6163
  O  O3705  1  0.825600  0.598430  0.638320  1.0  -0.8858
  O  O3706  1  0.797240  0.616600  0.669340  1.0  -0.9136
  O  O3707  1  0.871890  0.638930  0.682280  1.0  -0.6731
  O  O3708  1  0.375430  0.085290  0.121200  1.0  -0.6254
  O  O3709  1  0.371160  0.093370  0.162320  1.0  -0.7122
  O  O3710  1  0.450490  0.042310  0.211930  1.0  -0.6551
  O  O3711  1  0.474130  0.024340  0.182600  1.0  -0.6035
  O  O3712  1  0.327150  0.140890  0.202150  1.0  -0.6481
  O  O3713  1  0.290610  0.160420  0.194510  1.0  -0.5988
  O  O3714  1  0.250930  0.137400  0.172920  1.0  -0.6086
  O  O3715  1  0.252210  0.097160  0.160750  1.0  -0.6915
  O  O3716  1  0.303590  0.054630  0.123160  1.0  -0.6444
  O  O3717  1  0.337010  0.064420  0.099560  1.0  -0.6163
  O  O3718  1  0.325600  0.098430  0.138320  1.0  -0.8858
  O  O3719  1  0.297240  0.116600  0.169340  1.0  -0.9136
  O  O3720  1  0.371890  0.138930  0.182280  1.0  -0.6731
  O  O3721  1  0.621200  0.585290  0.875430  1.0  -0.6227
  O  O3722  1  0.662320  0.593370  0.871160  1.0  -0.71
  O  O3723  1  0.711930  0.542310  0.950490  1.0  -0.6541
  O  O3724  1  0.682600  0.524340  0.974130  1.0  -0.6069
  O  O3725  1  0.702150  0.640890  0.827150  1.0  -0.6494
  O  O3726  1  0.694510  0.660420  0.790610  1.0  -0.6021
  O  O3727  1  0.672920  0.637400  0.750930  1.0  -0.604
  O  O3728  1  0.660750  0.597160  0.752210  1.0  -0.6873
  O  O3729  1  0.623160  0.554630  0.803590  1.0  -0.6441
  O  O3730  1  0.599560  0.564420  0.837010  1.0  -0.616
  O  O3731  1  0.638320  0.598430  0.825600  1.0  -0.8849
  O  O3732  1  0.669340  0.616600  0.797240  1.0  -0.9102
  O  O3733  1  0.682280  0.638930  0.871890  1.0  -0.6747
  O  O3734  1  0.121200  0.085290  0.375430  1.0  -0.6227
  O  O3735  1  0.162320  0.093370  0.371160  1.0  -0.71
  O  O3736  1  0.211930  0.042310  0.450490  1.0  -0.6541
  O  O3737  1  0.182600  0.024340  0.474130  1.0  -0.6069
  O  O3738  1  0.202150  0.140890  0.327150  1.0  -0.6494
  O  O3739  1  0.194510  0.160420  0.290610  1.0  -0.6021
  O  O3740  1  0.172920  0.137400  0.250930  1.0  -0.604
  O  O3741  1  0.160750  0.097160  0.252210  1.0  -0.6873
  O  O3742  1  0.123160  0.054630  0.303590  1.0  -0.6441
  O  O3743  1  0.099560  0.064420  0.337010  1.0  -0.616
  O  O3744  1  0.138320  0.098430  0.325600  1.0  -0.8849
  O  O3745  1  0.169340  0.116600  0.297240  1.0  -0.9102
  O  O3746  1  0.182280  0.138930  0.371890  1.0  -0.6747
  O  O3747  1  0.378800  0.414710  0.875430  1.0  -0.6253
  O  O3748  1  0.337680  0.406630  0.871160  1.0  -0.7105
  O  O3749  1  0.288070  0.457690  0.950490  1.0  -0.6541
  O  O3750  1  0.317400  0.475660  0.974130  1.0  -0.6058
  O  O3751  1  0.297850  0.359110  0.827150  1.0  -0.6491
  O  O3752  1  0.305490  0.339580  0.790610  1.0  -0.6029
  O  O3753  1  0.327080  0.362600  0.750930  1.0  -0.6043
  O  O3754  1  0.339250  0.402840  0.752210  1.0  -0.6875
  O  O3755  1  0.376840  0.445370  0.803590  1.0  -0.6453
  O  O3756  1  0.400440  0.435580  0.837010  1.0  -0.6169
  O  O3757  1  0.361680  0.401570  0.825600  1.0  -0.8857
  O  O3758  1  0.330660  0.383400  0.797240  1.0  -0.9111
  O  O3759  1  0.317720  0.361070  0.871890  1.0  -0.6804
  O  O3760  1  0.878800  0.914710  0.375430  1.0  -0.6253
  O  O3761  1  0.837680  0.906630  0.371160  1.0  -0.7105
  O  O3762  1  0.788070  0.957690  0.450490  1.0  -0.6541
  O  O3763  1  0.817400  0.975660  0.474130  1.0  -0.6058
  O  O3764  1  0.797850  0.859110  0.327150  1.0  -0.6491
  O  O3765  1  0.805490  0.839580  0.290610  1.0  -0.6029
  O  O3766  1  0.827080  0.862600  0.250930  1.0  -0.6043
  O  O3767  1  0.839250  0.902840  0.252210  1.0  -0.6875
  O  O3768  1  0.876840  0.945370  0.303590  1.0  -0.6453
  O  O3769  1  0.900440  0.935580  0.337010  1.0  -0.6169
  O  O3770  1  0.861680  0.901570  0.325600  1.0  -0.8857
  O  O3771  1  0.830660  0.883400  0.297240  1.0  -0.9111
  O  O3772  1  0.817720  0.861070  0.371890  1.0  -0.6804
  O  O3773  1  0.378800  0.585290  0.124570  1.0  -0.6245
  O  O3774  1  0.337680  0.593370  0.128840  1.0  -0.7102
  O  O3775  1  0.288070  0.542310  0.049510  1.0  -0.6542
  O  O3776  1  0.317400  0.524340  0.025870  1.0  -0.6055
  O  O3777  1  0.297850  0.640890  0.172850  1.0  -0.6503
  O  O3778  1  0.305490  0.660420  0.209390  1.0  -0.6029
  O  O3779  1  0.327080  0.637400  0.249070  1.0  -0.6051
  O  O3780  1  0.339250  0.597160  0.247790  1.0  -0.6859
  O  O3781  1  0.376840  0.554630  0.196410  1.0  -0.6464
  O  O3782  1  0.400440  0.564420  0.162990  1.0  -0.6152
  O  O3783  1  0.361680  0.598430  0.174400  1.0  -0.8855
  O  O3784  1  0.330660  0.616600  0.202760  1.0  -0.911
  O  O3785  1  0.317720  0.638930  0.128110  1.0  -0.6778
  O  O3786  1  0.878800  0.085290  0.624570  1.0  -0.6245
  O  O3787  1  0.837680  0.093370  0.628840  1.0  -0.7102
  O  O3788  1  0.788070  0.042310  0.549510  1.0  -0.6542
  O  O3789  1  0.817400  0.024340  0.525870  1.0  -0.6055
  O  O3790  1  0.797850  0.140890  0.672850  1.0  -0.6503
  O  O3791  1  0.805490  0.160420  0.709390  1.0  -0.6029
  O  O3792  1  0.827080  0.137400  0.749070  1.0  -0.6051
  O  O3793  1  0.839250  0.097160  0.747790  1.0  -0.6859
  O  O3794  1  0.876840  0.054630  0.696410  1.0  -0.6464
  O  O3795  1  0.900440  0.064420  0.662990  1.0  -0.6152
  O  O3796  1  0.861680  0.098430  0.674400  1.0  -0.8855
  O  O3797  1  0.830660  0.116600  0.702760  1.0  -0.911
  O  O3798  1  0.817720  0.138930  0.628110  1.0  -0.6778
  O  O3799  1  0.621200  0.414710  0.124570  1.0  -0.623
  O  O3800  1  0.662320  0.406630  0.128840  1.0  -0.7116
  O  O3801  1  0.711930  0.457690  0.049510  1.0  -0.6549
  O  O3802  1  0.682600  0.475660  0.025870  1.0  -0.6051
  O  O3803  1  0.702150  0.359110  0.172850  1.0  -0.6498
  O  O3804  1  0.694510  0.339580  0.209390  1.0  -0.6023
  O  O3805  1  0.672920  0.362600  0.249070  1.0  -0.6058
  O  O3806  1  0.660750  0.402840  0.247790  1.0  -0.6863
  O  O3807  1  0.623160  0.445370  0.196410  1.0  -0.645
  O  O3808  1  0.599560  0.435580  0.162990  1.0  -0.6145
  O  O3809  1  0.638320  0.401570  0.174400  1.0  -0.8852
  O  O3810  1  0.669340  0.383400  0.202760  1.0  -0.9121
  O  O3811  1  0.682280  0.361070  0.128110  1.0  -0.6707
  O  O3812  1  0.121200  0.914710  0.624570  1.0  -0.623
  O  O3813  1  0.162320  0.906630  0.628840  1.0  -0.7116
  O  O3814  1  0.211930  0.957690  0.549510  1.0  -0.6549
  O  O3815  1  0.182600  0.975660  0.525870  1.0  -0.6051
  O  O3816  1  0.202150  0.859110  0.672850  1.0  -0.6498
  O  O3817  1  0.194510  0.839580  0.709390  1.0  -0.6023
  O  O3818  1  0.172920  0.862600  0.749070  1.0  -0.6058
  O  O3819  1  0.160750  0.902840  0.747790  1.0  -0.6863
  O  O3820  1  0.123160  0.945370  0.696410  1.0  -0.645
  O  O3821  1  0.099560  0.935580  0.662990  1.0  -0.6145
  O  O3822  1  0.138320  0.901570  0.674400  1.0  -0.8852
  O  O3823  1  0.169340  0.883400  0.702760  1.0  -0.9121
  O  O3824  1  0.182280  0.861070  0.628110  1.0  -0.6707
  O  O3825  1  0.875430  0.621200  0.585290  1.0  -0.6263
  O  O3826  1  0.871160  0.662320  0.593370  1.0  -0.7096
  O  O3827  1  0.950490  0.711930  0.542310  1.0  -0.6517
  O  O3828  1  0.974130  0.682600  0.524340  1.0  -0.6064
  O  O3829  1  0.827150  0.702150  0.640890  1.0  -0.6473
  O  O3830  1  0.790610  0.694510  0.660420  1.0  -0.599
  O  O3831  1  0.750930  0.672920  0.637400  1.0  -0.606
  O  O3832  1  0.752210  0.660750  0.597160  1.0  -0.692
  O  O3833  1  0.803590  0.623160  0.554630  1.0  -0.6443
  O  O3834  1  0.837010  0.599560  0.564420  1.0  -0.6193
  O  O3835  1  0.825600  0.638320  0.598430  1.0  -0.8862
  O  O3836  1  0.797240  0.669340  0.616600  1.0  -0.915
  O  O3837  1  0.871890  0.682280  0.638930  1.0  -0.6711
  O  O3838  1  0.375430  0.121200  0.085290  1.0  -0.6263
  O  O3839  1  0.371160  0.162320  0.093370  1.0  -0.7096
  O  O3840  1  0.450490  0.211930  0.042310  1.0  -0.6517
  O  O3841  1  0.474130  0.182600  0.024340  1.0  -0.6064
  O  O3842  1  0.327150  0.202150  0.140890  1.0  -0.6473
  O  O3843  1  0.290610  0.194510  0.160420  1.0  -0.599
  O  O3844  1  0.250930  0.172920  0.137400  1.0  -0.606
  O  O3845  1  0.252210  0.160750  0.097160  1.0  -0.692
  O  O3846  1  0.303590  0.123160  0.054630  1.0  -0.6443
  O  O3847  1  0.337010  0.099560  0.064420  1.0  -0.6193
  O  O3848  1  0.325600  0.138320  0.098430  1.0  -0.8862
  O  O3849  1  0.297240  0.169340  0.116600  1.0  -0.915
  O  O3850  1  0.371890  0.182280  0.138930  1.0  -0.6711
  O  O3851  1  0.875430  0.378800  0.414710  1.0  -0.625
  O  O3852  1  0.871160  0.337680  0.406630  1.0  -0.7111
  O  O3853  1  0.950490  0.288070  0.457690  1.0  -0.6513
  O  O3854  1  0.974130  0.317400  0.475660  1.0  -0.6082
  O  O3855  1  0.827150  0.297850  0.359110  1.0  -0.6456
  O  O3856  1  0.790610  0.305490  0.339580  1.0  -0.5978
  O  O3857  1  0.750930  0.327080  0.362600  1.0  -0.6086
  O  O3858  1  0.752210  0.339250  0.402840  1.0  -0.6894
  O  O3859  1  0.803590  0.376840  0.445370  1.0  -0.6443
  O  O3860  1  0.837010  0.400440  0.435580  1.0  -0.6191
  O  O3861  1  0.825600  0.361680  0.401570  1.0  -0.8882
  O  O3862  1  0.797240  0.330660  0.383400  1.0  -0.913
  O  O3863  1  0.871890  0.317720  0.361070  1.0  -0.6748
  O  O3864  1  0.375430  0.878800  0.914710  1.0  -0.625
  O  O3865  1  0.371160  0.837680  0.906630  1.0  -0.7111
  O  O3866  1  0.450490  0.788070  0.957690  1.0  -0.6513
  O  O3867  1  0.474130  0.817400  0.975660  1.0  -0.6082
  O  O3868  1  0.327150  0.797850  0.859110  1.0  -0.6456
  O  O3869  1  0.290610  0.805490  0.839580  1.0  -0.5978
  O  O3870  1  0.250930  0.827080  0.862600  1.0  -0.6086
  O  O3871  1  0.252210  0.839250  0.902840  1.0  -0.6894
  O  O3872  1  0.303590  0.876840  0.945370  1.0  -0.6443
  O  O3873  1  0.337010  0.900440  0.935580  1.0  -0.6191
  O  O3874  1  0.325600  0.861680  0.901570  1.0  -0.8882
  O  O3875  1  0.297240  0.830660  0.883400  1.0  -0.913
  O  O3876  1  0.371890  0.817720  0.861070  1.0  -0.6748
  O  O3877  1  0.124570  0.378800  0.585290  1.0  -0.6261
  O  O3878  1  0.128840  0.337680  0.593370  1.0  -0.7109
  O  O3879  1  0.049510  0.288070  0.542310  1.0  -0.6522
  O  O3880  1  0.025870  0.317400  0.524340  1.0  -0.6067
  O  O3881  1  0.172850  0.297850  0.640890  1.0  -0.6471
  O  O3882  1  0.209390  0.305490  0.660420  1.0  -0.6009
  O  O3883  1  0.249070  0.327080  0.637400  1.0  -0.6055
  O  O3884  1  0.247790  0.339250  0.597160  1.0  -0.6919
  O  O3885  1  0.196410  0.376840  0.554630  1.0  -0.6456
  O  O3886  1  0.162990  0.400440  0.564420  1.0  -0.6193
  O  O3887  1  0.174400  0.361680  0.598430  1.0  -0.8869
  O  O3888  1  0.202760  0.330660  0.616600  1.0  -0.9131
  O  O3889  1  0.128110  0.317720  0.638930  1.0  -0.6783
  O  O3890  1  0.624570  0.878800  0.085290  1.0  -0.6261
  O  O3891  1  0.628840  0.837680  0.093370  1.0  -0.7109
  O  O3892  1  0.549510  0.788070  0.042310  1.0  -0.6522
  O  O3893  1  0.525870  0.817400  0.024340  1.0  -0.6067
  O  O3894  1  0.672850  0.797850  0.140890  1.0  -0.6471
  O  O3895  1  0.709390  0.805490  0.160420  1.0  -0.6009
  O  O3896  1  0.749070  0.827080  0.137400  1.0  -0.6055
  O  O3897  1  0.747790  0.839250  0.097160  1.0  -0.6919
  O  O3898  1  0.696410  0.876840  0.054630  1.0  -0.6456
  O  O3899  1  0.662990  0.900440  0.064420  1.0  -0.6193
  O  O3900  1  0.674400  0.861680  0.098430  1.0  -0.8869
  O  O3901  1  0.702760  0.830660  0.116600  1.0  -0.9131
  O  O3902  1  0.628110  0.817720  0.138930  1.0  -0.6783
  O  O3903  1  0.124570  0.621200  0.414710  1.0  -0.6254
  O  O3904  1  0.128840  0.662320  0.406630  1.0  -0.7101
  O  O3905  1  0.049510  0.711930  0.457690  1.0  -0.6513
  O  O3906  1  0.025870  0.682600  0.475660  1.0  -0.6067
  O  O3907  1  0.172850  0.702150  0.359110  1.0  -0.6459
  O  O3908  1  0.209390  0.694510  0.339580  1.0  -0.6003
  O  O3909  1  0.249070  0.672920  0.362600  1.0  -0.6077
  O  O3910  1  0.247790  0.660750  0.402840  1.0  -0.6902
  O  O3911  1  0.196410  0.623160  0.445370  1.0  -0.6468
  O  O3912  1  0.162990  0.599560  0.435580  1.0  -0.6184
  O  O3913  1  0.174400  0.638320  0.401570  1.0  -0.8869
  O  O3914  1  0.202760  0.669340  0.383400  1.0  -0.9101
  O  O3915  1  0.128110  0.682280  0.361070  1.0  -0.6756
  O  O3916  1  0.624570  0.121200  0.914710  1.0  -0.6254
  O  O3917  1  0.628840  0.162320  0.906630  1.0  -0.7101
  O  O3918  1  0.549510  0.211930  0.957690  1.0  -0.6513
  O  O3919  1  0.525870  0.182600  0.975660  1.0  -0.6067
  O  O3920  1  0.672850  0.202150  0.859110  1.0  -0.6459
  O  O3921  1  0.709390  0.194510  0.839580  1.0  -0.6003
  O  O3922  1  0.749070  0.172920  0.862600  1.0  -0.6077
  O  O3923  1  0.747790  0.160750  0.902840  1.0  -0.6902
  O  O3924  1  0.696410  0.123160  0.945370  1.0  -0.6468
  O  O3925  1  0.662990  0.099560  0.935580  1.0  -0.6184
  O  O3926  1  0.674400  0.138320  0.901570  1.0  -0.8869
  O  O3927  1  0.702760  0.169340  0.883400  1.0  -0.9101
  O  O3928  1  0.628110  0.182280  0.861070  1.0  -0.6756
  O  O3929  1  0.585290  0.875430  0.621200  1.0  -0.6236
  O  O3930  1  0.593370  0.871160  0.662320  1.0  -0.7148
  O  O3931  1  0.542310  0.950490  0.711930  1.0  -0.6558
  O  O3932  1  0.524340  0.974130  0.682600  1.0  -0.6083
  O  O3933  1  0.640890  0.827150  0.702150  1.0  -0.6488
  O  O3934  1  0.660420  0.790610  0.694510  1.0  -0.5986
  O  O3935  1  0.637400  0.750930  0.672920  1.0  -0.6045
  O  O3936  1  0.597160  0.752210  0.660750  1.0  -0.6901
  O  O3937  1  0.554630  0.803590  0.623160  1.0  -0.647
  O  O3938  1  0.564420  0.837010  0.599560  1.0  -0.6205
  O  O3939  1  0.598430  0.825600  0.638320  1.0  -0.884
  O  O3940  1  0.616600  0.797240  0.669340  1.0  -0.91
  O  O3941  1  0.638930  0.871890  0.682280  1.0  -0.6727
  O  O3942  1  0.085290  0.375430  0.121200  1.0  -0.6236
  O  O3943  1  0.093370  0.371160  0.162320  1.0  -0.7148
  O  O3944  1  0.042310  0.450490  0.211930  1.0  -0.6558
  O  O3945  1  0.024340  0.474130  0.182600  1.0  -0.6083
  O  O3946  1  0.140890  0.327150  0.202150  1.0  -0.6488
  O  O3947  1  0.160420  0.290610  0.194510  1.0  -0.5986
  O  O3948  1  0.137400  0.250930  0.172920  1.0  -0.6045
  O  O3949  1  0.097160  0.252210  0.160750  1.0  -0.6901
  O  O3950  1  0.054630  0.303590  0.123160  1.0  -0.647
  O  O3951  1  0.064420  0.337010  0.099560  1.0  -0.6205
  O  O3952  1  0.098430  0.325600  0.138320  1.0  -0.884
  O  O3953  1  0.116600  0.297240  0.169340  1.0  -0.91
  O  O3954  1  0.138930  0.371890  0.182280  1.0  -0.6727
  O  O3955  1  0.414710  0.875430  0.378800  1.0  -0.6224
  O  O3956  1  0.406630  0.871160  0.337680  1.0  -0.7134
  O  O3957  1  0.457690  0.950490  0.288070  1.0  -0.6575
  O  O3958  1  0.475660  0.974130  0.317400  1.0  -0.6085
  O  O3959  1  0.359110  0.827150  0.297850  1.0  -0.649
  O  O3960  1  0.339580  0.790610  0.305490  1.0  -0.5979
  O  O3961  1  0.362600  0.750930  0.327080  1.0  -0.6024
  O  O3962  1  0.402840  0.752210  0.339250  1.0  -0.6904
  O  O3963  1  0.445370  0.803590  0.376840  1.0  -0.6466
  O  O3964  1  0.435580  0.837010  0.400440  1.0  -0.6178
  O  O3965  1  0.401570  0.825600  0.361680  1.0  -0.8849
  O  O3966  1  0.383400  0.797240  0.330660  1.0  -0.9125
  O  O3967  1  0.361070  0.871890  0.317720  1.0  -0.6774
  O  O3968  1  0.914710  0.375430  0.878800  1.0  -0.6224
  O  O3969  1  0.906630  0.371160  0.837680  1.0  -0.7134
  O  O3970  1  0.957690  0.450490  0.788070  1.0  -0.6575
  O  O3971  1  0.975660  0.474130  0.817400  1.0  -0.6085
  O  O3972  1  0.859110  0.327150  0.797850  1.0  -0.649
  O  O3973  1  0.839580  0.290610  0.805490  1.0  -0.5979
  O  O3974  1  0.862600  0.250930  0.827080  1.0  -0.6024
  O  O3975  1  0.902840  0.252210  0.839250  1.0  -0.6904
  O  O3976  1  0.945370  0.303590  0.876840  1.0  -0.6466
  O  O3977  1  0.935580  0.337010  0.900440  1.0  -0.6178
  O  O3978  1  0.901570  0.325600  0.861680  1.0  -0.8849
  O  O3979  1  0.883400  0.297240  0.830660  1.0  -0.9125
  O  O3980  1  0.861070  0.371890  0.817720  1.0  -0.6774
  O  O3981  1  0.585290  0.124570  0.378800  1.0  -0.6213
  O  O3982  1  0.593370  0.128840  0.337680  1.0  -0.7128
  O  O3983  1  0.542310  0.049510  0.288070  1.0  -0.6555
  O  O3984  1  0.524340  0.025870  0.317400  1.0  -0.6082
  O  O3985  1  0.640890  0.172850  0.297850  1.0  -0.6491
  O  O3986  1  0.660420  0.209390  0.305490  1.0  -0.5982
  O  O3987  1  0.637400  0.249070  0.327080  1.0  -0.6036
  O  O3988  1  0.597160  0.247790  0.339250  1.0  -0.6899
  O  O3989  1  0.554630  0.196410  0.376840  1.0  -0.647
  O  O3990  1  0.564420  0.162990  0.400440  1.0  -0.6196
  O  O3991  1  0.598430  0.174400  0.361680  1.0  -0.8828
  O  O3992  1  0.616600  0.202760  0.330660  1.0  -0.9142
  O  O3993  1  0.638930  0.128110  0.317720  1.0  -0.6738
  O  O3994  1  0.085290  0.624570  0.878800  1.0  -0.6213
  O  O3995  1  0.093370  0.628840  0.837680  1.0  -0.7128
  O  O3996  1  0.042310  0.549510  0.788070  1.0  -0.6555
  O  O3997  1  0.024340  0.525870  0.817400  1.0  -0.6082
  O  O3998  1  0.140890  0.672850  0.797850  1.0  -0.6491
  O  O3999  1  0.160420  0.709390  0.805490  1.0  -0.5982
  O  O4000  1  0.137400  0.749070  0.827080  1.0  -0.6036
  O  O4001  1  0.097160  0.747790  0.839250  1.0  -0.6899
  O  O4002  1  0.054630  0.696410  0.876840  1.0  -0.647
  O  O4003  1  0.064420  0.662990  0.900440  1.0  -0.6196
  O  O4004  1  0.098430  0.674400  0.861680  1.0  -0.8828
  O  O4005  1  0.116600  0.702760  0.830660  1.0  -0.9142
  O  O4006  1  0.138930  0.628110  0.817720  1.0  -0.6738
  O  O4007  1  0.414710  0.124570  0.621200  1.0  -0.6238
  O  O4008  1  0.406630  0.128840  0.662320  1.0  -0.7134
  O  O4009  1  0.457690  0.049510  0.711930  1.0  -0.6556
  O  O4010  1  0.475660  0.025870  0.682600  1.0  -0.607
  O  O4011  1  0.359110  0.172850  0.702150  1.0  -0.6491
  O  O4012  1  0.339580  0.209390  0.694510  1.0  -0.5963
  O  O4013  1  0.362600  0.249070  0.672920  1.0  -0.6027
  O  O4014  1  0.402840  0.247790  0.660750  1.0  -0.6904
  O  O4015  1  0.445370  0.196410  0.623160  1.0  -0.6466
  O  O4016  1  0.435580  0.162990  0.599560  1.0  -0.6184
  O  O4017  1  0.401570  0.174400  0.638320  1.0  -0.8857
  O  O4018  1  0.383400  0.202760  0.669340  1.0  -0.9097
  O  O4019  1  0.361070  0.128110  0.682280  1.0  -0.6774
  O  O4020  1  0.914710  0.624570  0.121200  1.0  -0.6238
  O  O4021  1  0.906630  0.628840  0.162320  1.0  -0.7134
  O  O4022  1  0.957690  0.549510  0.211930  1.0  -0.6556
  O  O4023  1  0.975660  0.525870  0.182600  1.0  -0.607
  O  O4024  1  0.859110  0.672850  0.202150  1.0  -0.6491
  O  O4025  1  0.839580  0.709390  0.194510  1.0  -0.5963
  O  O4026  1  0.862600  0.749070  0.172920  1.0  -0.6027
  O  O4027  1  0.902840  0.747790  0.160750  1.0  -0.6904
  O  O4028  1  0.945370  0.696410  0.123160  1.0  -0.6466
  O  O4029  1  0.935580  0.662990  0.099560  1.0  -0.6184
  O  O4030  1  0.901570  0.674400  0.138320  1.0  -0.8857
  O  O4031  1  0.883400  0.702760  0.169340  1.0  -0.9097
  O  O4032  1  0.861070  0.628110  0.182280  1.0  -0.6774
  O  O4033  1  0.585290  0.621200  0.124570  1.0  -0.6245
  O  O4034  1  0.593370  0.662320  0.128840  1.0  -0.7127
  O  O4035  1  0.542310  0.711930  0.049510  1.0  -0.6524
  O  O4036  1  0.524340  0.682600  0.025870  1.0  -0.6066
  O  O4037  1  0.640890  0.702150  0.172850  1.0  -0.6482
  O  O4038  1  0.660420  0.694510  0.209390  1.0  -0.601
  O  O4039  1  0.637400  0.672920  0.249070  1.0  -0.6066
  O  O4040  1  0.597160  0.660750  0.247790  1.0  -0.6905
  O  O4041  1  0.554630  0.623160  0.196410  1.0  -0.6501
  O  O4042  1  0.564420  0.599560  0.162990  1.0  -0.6178
  O  O4043  1  0.598430  0.638320  0.174400  1.0  -0.8842
  O  O4044  1  0.616600  0.669340  0.202760  1.0  -0.9114
  O  O4045  1  0.638930  0.682280  0.128110  1.0  -0.6716
  O  O4046  1  0.085290  0.121200  0.624570  1.0  -0.6245
  O  O4047  1  0.093370  0.162320  0.628840  1.0  -0.7127
  O  O4048  1  0.042310  0.211930  0.549510  1.0  -0.6524
  O  O4049  1  0.024340  0.182600  0.525870  1.0  -0.6066
  O  O4050  1  0.140890  0.202150  0.672850  1.0  -0.6482
  O  O4051  1  0.160420  0.194510  0.709390  1.0  -0.601
  O  O4052  1  0.137400  0.172920  0.749070  1.0  -0.6066
  O  O4053  1  0.097160  0.160750  0.747790  1.0  -0.6905
  O  O4054  1  0.054630  0.123160  0.696410  1.0  -0.6501
  O  O4055  1  0.064420  0.099560  0.662990  1.0  -0.6178
  O  O4056  1  0.098430  0.138320  0.674400  1.0  -0.8842
  O  O4057  1  0.116600  0.169340  0.702760  1.0  -0.9114
  O  O4058  1  0.138930  0.182280  0.628110  1.0  -0.6716
  O  O4059  1  0.414710  0.378800  0.124570  1.0  -0.6236
  O  O4060  1  0.406630  0.337680  0.128840  1.0  -0.7137
  O  O4061  1  0.457690  0.288070  0.049510  1.0  -0.6525
  O  O4062  1  0.475660  0.317400  0.025870  1.0  -0.6074
  O  O4063  1  0.359110  0.297850  0.172850  1.0  -0.6483
  O  O4064  1  0.339580  0.305490  0.209390  1.0  -0.5985
  O  O4065  1  0.362600  0.327080  0.249070  1.0  -0.6042
  O  O4066  1  0.402840  0.339250  0.247790  1.0  -0.6906
  O  O4067  1  0.445370  0.376840  0.196410  1.0  -0.649
  O  O4068  1  0.435580  0.400440  0.162990  1.0  -0.6167
  O  O4069  1  0.401570  0.361680  0.174400  1.0  -0.8867
  O  O4070  1  0.383400  0.330660  0.202760  1.0  -0.9106
  O  O4071  1  0.361070  0.317720  0.128110  1.0  -0.6772
  O  O4072  1  0.914710  0.878800  0.624570  1.0  -0.6236
  O  O4073  1  0.906630  0.837680  0.628840  1.0  -0.7137
  O  O4074  1  0.957690  0.788070  0.549510  1.0  -0.6525
  O  O4075  1  0.975660  0.817400  0.525870  1.0  -0.6074
  O  O4076  1  0.859110  0.797850  0.672850  1.0  -0.6483
  O  O4077  1  0.839580  0.805490  0.709390  1.0  -0.5985
  O  O4078  1  0.862600  0.827080  0.749070  1.0  -0.6042
  O  O4079  1  0.902840  0.839250  0.747790  1.0  -0.6906
  O  O4080  1  0.945370  0.876840  0.696410  1.0  -0.649
  O  O4081  1  0.935580  0.900440  0.662990  1.0  -0.6167
  O  O4082  1  0.901570  0.861680  0.674400  1.0  -0.8867
  O  O4083  1  0.883400  0.830660  0.702760  1.0  -0.9106
  O  O4084  1  0.861070  0.817720  0.628110  1.0  -0.6772
  O  O4085  1  0.585290  0.378800  0.875430  1.0  -0.6242
  O  O4086  1  0.593370  0.337680  0.871160  1.0  -0.7118
  O  O4087  1  0.542310  0.288070  0.950490  1.0  -0.652
  O  O4088  1  0.524340  0.317400  0.974130  1.0  -0.6084
  O  O4089  1  0.640890  0.297850  0.827150  1.0  -0.6466
  O  O4090  1  0.660420  0.305490  0.790610  1.0  -0.6003
  O  O4091  1  0.637400  0.327080  0.750930  1.0  -0.6045
  O  O4092  1  0.597160  0.339250  0.752210  1.0  -0.69
  O  O4093  1  0.554630  0.376840  0.803590  1.0  -0.6477
  O  O4094  1  0.564420  0.400440  0.837010  1.0  -0.6192
  O  O4095  1  0.598430  0.361680  0.825600  1.0  -0.8848
  O  O4096  1  0.616600  0.330660  0.797240  1.0  -0.9108
  O  O4097  1  0.638930  0.317720  0.871890  1.0  -0.6755
  O  O4098  1  0.085290  0.878800  0.375430  1.0  -0.6242
  O  O4099  1  0.093370  0.837680  0.371160  1.0  -0.7118
  O  O4100  1  0.042310  0.788070  0.450490  1.0  -0.652
  O  O4101  1  0.024340  0.817400  0.474130  1.0  -0.6084
  O  O4102  1  0.140890  0.797850  0.327150  1.0  -0.6466
  O  O4103  1  0.160420  0.805490  0.290610  1.0  -0.6003
  O  O4104  1  0.137400  0.827080  0.250930  1.0  -0.6045
  O  O4105  1  0.097160  0.839250  0.252210  1.0  -0.69
  O  O4106  1  0.054630  0.876840  0.303590  1.0  -0.6477
  O  O4107  1  0.064420  0.900440  0.337010  1.0  -0.6192
  O  O4108  1  0.098430  0.861680  0.325600  1.0  -0.8848
  O  O4109  1  0.116600  0.830660  0.297240  1.0  -0.9108
  O  O4110  1  0.138930  0.817720  0.371890  1.0  -0.6755
  O  O4111  1  0.414710  0.621200  0.875430  1.0  -0.6243
  O  O4112  1  0.406630  0.662320  0.871160  1.0  -0.7106
  O  O4113  1  0.457690  0.711930  0.950490  1.0  -0.6533
  O  O4114  1  0.475660  0.682600  0.974130  1.0  -0.6074
  O  O4115  1  0.359110  0.702150  0.827150  1.0  -0.6475
  O  O4116  1  0.339580  0.694510  0.790610  1.0  -0.5999
  O  O4117  1  0.362600  0.672920  0.750930  1.0  -0.6026
  O  O4118  1  0.402840  0.660750  0.752210  1.0  -0.6913
  O  O4119  1  0.445370  0.623160  0.803590  1.0  -0.648
  O  O4120  1  0.435580  0.599560  0.837010  1.0  -0.6179
  O  O4121  1  0.401570  0.638320  0.825600  1.0  -0.8854
  O  O4122  1  0.383400  0.669340  0.797240  1.0  -0.911
  O  O4123  1  0.361070  0.682280  0.871890  1.0  -0.677
  O  O4124  1  0.914710  0.121200  0.375430  1.0  -0.6243
  O  O4125  1  0.906630  0.162320  0.371160  1.0  -0.7106
  O  O4126  1  0.957690  0.211930  0.450490  1.0  -0.6533
  O  O4127  1  0.975660  0.182600  0.474130  1.0  -0.6074
  O  O4128  1  0.859110  0.202150  0.327150  1.0  -0.6475
  O  O4129  1  0.839580  0.194510  0.290610  1.0  -0.5999
  O  O4130  1  0.862600  0.172920  0.250930  1.0  -0.6026
  O  O4131  1  0.902840  0.160750  0.252210  1.0  -0.6913
  O  O4132  1  0.945370  0.123160  0.303590  1.0  -0.648
  O  O4133  1  0.935580  0.099560  0.337010  1.0  -0.6179
  O  O4134  1  0.901570  0.138320  0.325600  1.0  -0.8854
  O  O4135  1  0.883400  0.169340  0.297240  1.0  -0.911
  O  O4136  1  0.861070  0.182280  0.371890  1.0  -0.677
  O  O4137  1  0.621200  0.875430  0.414710  1.0  -0.6227
  O  O4138  1  0.662320  0.871160  0.406630  1.0  -0.7113
  O  O4139  1  0.711930  0.950490  0.457690  1.0  -0.654
  O  O4140  1  0.682600  0.974130  0.475660  1.0  -0.6107
  O  O4141  1  0.702150  0.827150  0.359110  1.0  -0.6489
  O  O4142  1  0.694510  0.790610  0.339580  1.0  -0.6005
  O  O4143  1  0.672920  0.750930  0.362600  1.0  -0.6046
  O  O4144  1  0.660750  0.752210  0.402840  1.0  -0.6852
  O  O4145  1  0.623160  0.803590  0.445370  1.0  -0.6426
  O  O4146  1  0.599560  0.837010  0.435580  1.0  -0.6192
  O  O4147  1  0.638320  0.825600  0.401570  1.0  -0.8863
  O  O4148  1  0.669340  0.797240  0.383400  1.0  -0.9104
  O  O4149  1  0.682280  0.871890  0.361070  1.0  -0.6719
  O  O4150  1  0.121200  0.375430  0.914710  1.0  -0.6227
  O  O4151  1  0.162320  0.371160  0.906630  1.0  -0.7113
  O  O4152  1  0.211930  0.450490  0.957690  1.0  -0.654
  O  O4153  1  0.182600  0.474130  0.975660  1.0  -0.6107
  O  O4154  1  0.202150  0.327150  0.859110  1.0  -0.6489
  O  O4155  1  0.194510  0.290610  0.839580  1.0  -0.6005
  O  O4156  1  0.172920  0.250930  0.862600  1.0  -0.6046
  O  O4157  1  0.160750  0.252210  0.902840  1.0  -0.6852
  O  O4158  1  0.123160  0.303590  0.945370  1.0  -0.6426
  O  O4159  1  0.099560  0.337010  0.935580  1.0  -0.6192
  O  O4160  1  0.138320  0.325600  0.901570  1.0  -0.8863
  O  O4161  1  0.169340  0.297240  0.883400  1.0  -0.9104
  O  O4162  1  0.182280  0.371890  0.861070  1.0  -0.6719
  O  O4163  1  0.378800  0.875430  0.585290  1.0  -0.6247
  O  O4164  1  0.337680  0.871160  0.593370  1.0  -0.7111
  O  O4165  1  0.288070  0.950490  0.542310  1.0  -0.6547
  O  O4166  1  0.317400  0.974130  0.524340  1.0  -0.6098
  O  O4167  1  0.297850  0.827150  0.640890  1.0  -0.6493
  O  O4168  1  0.305490  0.790610  0.660420  1.0  -0.601
  O  O4169  1  0.327080  0.750930  0.637400  1.0  -0.6021
  O  O4170  1  0.339250  0.752210  0.597160  1.0  -0.688
  O  O4171  1  0.376840  0.803590  0.554630  1.0  -0.6416
  O  O4172  1  0.400440  0.837010  0.564420  1.0  -0.6207
  O  O4173  1  0.361680  0.825600  0.598430  1.0  -0.8865
  O  O4174  1  0.330660  0.797240  0.616600  1.0  -0.9118
  O  O4175  1  0.317720  0.871890  0.638930  1.0  -0.6771
  O  O4176  1  0.878800  0.375430  0.085290  1.0  -0.6247
  O  O4177  1  0.837680  0.371160  0.093370  1.0  -0.7111
  O  O4178  1  0.788070  0.450490  0.042310  1.0  -0.6547
  O  O4179  1  0.817400  0.474130  0.024340  1.0  -0.6098
  O  O4180  1  0.797850  0.327150  0.140890  1.0  -0.6493
  O  O4181  1  0.805490  0.290610  0.160420  1.0  -0.601
  O  O4182  1  0.827080  0.250930  0.137400  1.0  -0.6021
  O  O4183  1  0.839250  0.252210  0.097160  1.0  -0.688
  O  O4184  1  0.876840  0.303590  0.054630  1.0  -0.6416
  O  O4185  1  0.900440  0.337010  0.064420  1.0  -0.6207
  O  O4186  1  0.861680  0.325600  0.098430  1.0  -0.8865
  O  O4187  1  0.830660  0.297240  0.116600  1.0  -0.9118
  O  O4188  1  0.817720  0.371890  0.138930  1.0  -0.6771
  O  O4189  1  0.378800  0.124570  0.414710  1.0  -0.624
  O  O4190  1  0.337680  0.128840  0.406630  1.0  -0.7102
  O  O4191  1  0.288070  0.049510  0.457690  1.0  -0.6544
  O  O4192  1  0.317400  0.025870  0.475660  1.0  -0.6095
  O  O4193  1  0.297850  0.172850  0.359110  1.0  -0.6488
  O  O4194  1  0.305490  0.209390  0.339580  1.0  -0.6007
  O  O4195  1  0.327080  0.249070  0.362600  1.0  -0.6045
  O  O4196  1  0.339250  0.247790  0.402840  1.0  -0.6872
  O  O4197  1  0.376840  0.196410  0.445370  1.0  -0.6427
  O  O4198  1  0.400440  0.162990  0.435580  1.0  -0.6202
  O  O4199  1  0.361680  0.174400  0.401570  1.0  -0.8873
  O  O4200  1  0.330660  0.202760  0.383400  1.0  -0.9091
  O  O4201  1  0.317720  0.128110  0.361070  1.0  -0.6758
  O  O4202  1  0.878800  0.624570  0.914710  1.0  -0.624
  O  O4203  1  0.837680  0.628840  0.906630  1.0  -0.7102
  O  O4204  1  0.788070  0.549510  0.957690  1.0  -0.6544
  O  O4205  1  0.817400  0.525870  0.975660  1.0  -0.6095
  O  O4206  1  0.797850  0.672850  0.859110  1.0  -0.6488
  O  O4207  1  0.805490  0.709390  0.839580  1.0  -0.6007
  O  O4208  1  0.827080  0.749070  0.862600  1.0  -0.6045
  O  O4209  1  0.839250  0.747790  0.902840  1.0  -0.6872
  O  O4210  1  0.876840  0.696410  0.945370  1.0  -0.6427
  O  O4211  1  0.900440  0.662990  0.935580  1.0  -0.6202
  O  O4212  1  0.861680  0.674400  0.901570  1.0  -0.8873
  O  O4213  1  0.830660  0.702760  0.883400  1.0  -0.9091
  O  O4214  1  0.817720  0.628110  0.861070  1.0  -0.6758
  O  O4215  1  0.621200  0.124570  0.585290  1.0  -0.6225
  O  O4216  1  0.662320  0.128840  0.593370  1.0  -0.7114
  O  O4217  1  0.711930  0.049510  0.542310  1.0  -0.6538
  O  O4218  1  0.682600  0.025870  0.524340  1.0  -0.6089
  O  O4219  1  0.702150  0.172850  0.640890  1.0  -0.65
  O  O4220  1  0.694510  0.209390  0.660420  1.0  -0.5997
  O  O4221  1  0.672920  0.249070  0.637400  1.0  -0.6022
  O  O4222  1  0.660750  0.247790  0.597160  1.0  -0.6875
  O  O4223  1  0.623160  0.196410  0.554630  1.0  -0.6434
  O  O4224  1  0.599560  0.162990  0.564420  1.0  -0.62
  O  O4225  1  0.638320  0.174400  0.598430  1.0  -0.886
  O  O4226  1  0.669340  0.202760  0.616600  1.0  -0.9127
  O  O4227  1  0.682280  0.128110  0.638930  1.0  -0.6719
  O  O4228  1  0.121200  0.624570  0.085290  1.0  -0.6225
  O  O4229  1  0.162320  0.628840  0.093370  1.0  -0.7114
  O  O4230  1  0.211930  0.549510  0.042310  1.0  -0.6538
  O  O4231  1  0.182600  0.525870  0.024340  1.0  -0.6089
  O  O4232  1  0.202150  0.672850  0.140890  1.0  -0.65
  O  O4233  1  0.194510  0.709390  0.160420  1.0  -0.5997
  O  O4234  1  0.172920  0.749070  0.137400  1.0  -0.6022
  O  O4235  1  0.160750  0.747790  0.097160  1.0  -0.6875
  O  O4236  1  0.123160  0.696410  0.054630  1.0  -0.6434
  O  O4237  1  0.099560  0.662990  0.064420  1.0  -0.62
  O  O4238  1  0.138320  0.674400  0.098430  1.0  -0.886
  O  O4239  1  0.169340  0.702760  0.116600  1.0  -0.9127
  O  O4240  1  0.182280  0.628110  0.138930  1.0  -0.6719
  O  O4241  1  0.875430  0.585290  0.378800  1.0  -0.6236
  O  O4242  1  0.871160  0.593370  0.337680  1.0  -0.7115
  O  O4243  1  0.950490  0.542310  0.288070  1.0  -0.6562
  O  O4244  1  0.974130  0.524340  0.317400  1.0  -0.6047
  O  O4245  1  0.827150  0.640890  0.297850  1.0  -0.6485
  O  O4246  1  0.790610  0.660420  0.305490  1.0  -0.5995
  O  O4247  1  0.750930  0.637400  0.327080  1.0  -0.6078
  O  O4248  1  0.752210  0.597160  0.339250  1.0  -0.6907
  O  O4249  1  0.803590  0.554630  0.376840  1.0  -0.645
  O  O4250  1  0.837010  0.564420  0.400440  1.0  -0.6157
  O  O4251  1  0.825600  0.598430  0.361680  1.0  -0.8844
  O  O4252  1  0.797240  0.616600  0.330660  1.0  -0.9132
  O  O4253  1  0.871890  0.638930  0.317720  1.0  -0.6731
  O  O4254  1  0.375430  0.085290  0.878800  1.0  -0.6236
  O  O4255  1  0.371160  0.093370  0.837680  1.0  -0.7115
  O  O4256  1  0.450490  0.042310  0.788070  1.0  -0.6562
  O  O4257  1  0.474130  0.024340  0.817400  1.0  -0.6047
  O  O4258  1  0.327150  0.140890  0.797850  1.0  -0.6485
  O  O4259  1  0.290610  0.160420  0.805490  1.0  -0.5995
  O  O4260  1  0.250930  0.137400  0.827080  1.0  -0.6078
  O  O4261  1  0.252210  0.097160  0.839250  1.0  -0.6907
  O  O4262  1  0.303590  0.054630  0.876840  1.0  -0.645
  O  O4263  1  0.337010  0.064420  0.900440  1.0  -0.6157
  O  O4264  1  0.325600  0.098430  0.861680  1.0  -0.8844
  O  O4265  1  0.297240  0.116600  0.830660  1.0  -0.9132
  O  O4266  1  0.371890  0.138930  0.817720  1.0  -0.6731
  O  O4267  1  0.875430  0.414710  0.621200  1.0  -0.6251
  O  O4268  1  0.871160  0.406630  0.662320  1.0  -0.7135
  O  O4269  1  0.950490  0.457690  0.711930  1.0  -0.655
  O  O4270  1  0.974130  0.475660  0.682600  1.0  -0.6032
  O  O4271  1  0.827150  0.359110  0.702150  1.0  -0.6482
  O  O4272  1  0.790610  0.339580  0.694510  1.0  -0.5994
  O  O4273  1  0.750930  0.362600  0.672920  1.0  -0.6079
  O  O4274  1  0.752210  0.402840  0.660750  1.0  -0.6914
  O  O4275  1  0.803590  0.445370  0.623160  1.0  -0.6451
  O  O4276  1  0.837010  0.435580  0.599560  1.0  -0.6162
  O  O4277  1  0.825600  0.401570  0.638320  1.0  -0.8862
  O  O4278  1  0.797240  0.383400  0.669340  1.0  -0.912
  O  O4279  1  0.871890  0.361070  0.682280  1.0  -0.6749
  O  O4280  1  0.375430  0.914710  0.121200  1.0  -0.6251
  O  O4281  1  0.371160  0.906630  0.162320  1.0  -0.7135
  O  O4282  1  0.450490  0.957690  0.211930  1.0  -0.655
  O  O4283  1  0.474130  0.975660  0.182600  1.0  -0.6032
  O  O4284  1  0.327150  0.859110  0.202150  1.0  -0.6482
  O  O4285  1  0.290610  0.839580  0.194510  1.0  -0.5994
  O  O4286  1  0.250930  0.862600  0.172920  1.0  -0.6079
  O  O4287  1  0.252210  0.902840  0.160750  1.0  -0.6914
  O  O4288  1  0.303590  0.945370  0.123160  1.0  -0.6451
  O  O4289  1  0.337010  0.935580  0.099560  1.0  -0.6162
  O  O4290  1  0.325600  0.901570  0.138320  1.0  -0.8862
  O  O4291  1  0.297240  0.883400  0.169340  1.0  -0.912
  O  O4292  1  0.371890  0.861070  0.182280  1.0  -0.6749
  O  O4293  1  0.124570  0.585290  0.621200  1.0  -0.6259
  O  O4294  1  0.128840  0.593370  0.662320  1.0  -0.7122
  O  O4295  1  0.049510  0.542310  0.711930  1.0  -0.6546
  O  O4296  1  0.025870  0.524340  0.682600  1.0  -0.6028
  O  O4297  1  0.172850  0.640890  0.702150  1.0  -0.6479
  O  O4298  1  0.209390  0.660420  0.694510  1.0  -0.6007
  O  O4299  1  0.249070  0.637400  0.672920  1.0  -0.6078
  O  O4300  1  0.247790  0.597160  0.660750  1.0  -0.691
  O  O4301  1  0.196410  0.554630  0.623160  1.0  -0.6473
  O  O4302  1  0.162990  0.564420  0.599560  1.0  -0.616
  O  O4303  1  0.174400  0.598430  0.638320  1.0  -0.8852
  O  O4304  1  0.202760  0.616600  0.669340  1.0  -0.913
  O  O4305  1  0.128110  0.638930  0.682280  1.0  -0.6786
  O  O4306  1  0.624570  0.085290  0.121200  1.0  -0.6259
  O  O4307  1  0.628840  0.093370  0.162320  1.0  -0.7122
  O  O4308  1  0.549510  0.042310  0.211930  1.0  -0.6546
  O  O4309  1  0.525870  0.024340  0.182600  1.0  -0.6028
  O  O4310  1  0.672850  0.140890  0.202150  1.0  -0.6479
  O  O4311  1  0.709390  0.160420  0.194510  1.0  -0.6007
  O  O4312  1  0.749070  0.137400  0.172920  1.0  -0.6078
  O  O4313  1  0.747790  0.097160  0.160750  1.0  -0.691
  O  O4314  1  0.696410  0.054630  0.123160  1.0  -0.6473
  O  O4315  1  0.662990  0.064420  0.099560  1.0  -0.616
  O  O4316  1  0.674400  0.098430  0.138320  1.0  -0.8852
  O  O4317  1  0.702760  0.116600  0.169340  1.0  -0.913
  O  O4318  1  0.628110  0.138930  0.182280  1.0  -0.6786
  O  O4319  1  0.124570  0.414710  0.378800  1.0  -0.6239
  O  O4320  1  0.128840  0.406630  0.337680  1.0  -0.7116
  O  O4321  1  0.049510  0.457690  0.288070  1.0  -0.6557
  O  O4322  1  0.025870  0.475660  0.317400  1.0  -0.6033
  O  O4323  1  0.172850  0.359110  0.297850  1.0  -0.6472
  O  O4324  1  0.209390  0.339580  0.305490  1.0  -0.6012
  O  O4325  1  0.249070  0.362600  0.327080  1.0  -0.6083
  O  O4326  1  0.247790  0.402840  0.339250  1.0  -0.6905
  O  O4327  1  0.196410  0.445370  0.376840  1.0  -0.6458
  O  O4328  1  0.162990  0.435580  0.400440  1.0  -0.6158
  O  O4329  1  0.174400  0.401570  0.361680  1.0  -0.8843
  O  O4330  1  0.202760  0.383400  0.330660  1.0  -0.9162
  O  O4331  1  0.128110  0.361070  0.317720  1.0  -0.6806
  O  O4332  1  0.624570  0.914710  0.878800  1.0  -0.6239
  O  O4333  1  0.628840  0.906630  0.837680  1.0  -0.7116
  O  O4334  1  0.549510  0.957690  0.788070  1.0  -0.6557
  O  O4335  1  0.525870  0.975660  0.817400  1.0  -0.6033
  O  O4336  1  0.672850  0.859110  0.797850  1.0  -0.6472
  O  O4337  1  0.709390  0.839580  0.805490  1.0  -0.6012
  O  O4338  1  0.749070  0.862600  0.827080  1.0  -0.6083
  O  O4339  1  0.747790  0.902840  0.839250  1.0  -0.6905
  O  O4340  1  0.696410  0.945370  0.876840  1.0  -0.6458
  O  O4341  1  0.662990  0.935580  0.900440  1.0  -0.6158
  O  O4342  1  0.674400  0.901570  0.861680  1.0  -0.8843
  O  O4343  1  0.702760  0.883400  0.830660  1.0  -0.9162
  O  O4344  1  0.628110  0.861070  0.817720  1.0  -0.6806
  O  O4345  1  0.372450  0.372450  0.221740  1.0  -0.9618
  O  O4346  1  0.401270  0.401270  0.200610  1.0  -0.8567
  O  O4347  1  0.347430  0.347430  0.177240  1.0  -0.8816
  O  O4348  1  0.368070  0.368070  0.141630  1.0  -0.9204
  O  O4349  1  0.317800  0.317800  0.118000  1.0  -0.3811
  O  O4350  1  0.872450  0.872450  0.721740  1.0  -0.9618
  O  O4351  1  0.901270  0.901270  0.700610  1.0  -0.8567
  O  O4352  1  0.847430  0.847430  0.677240  1.0  -0.8816
  O  O4353  1  0.868070  0.868070  0.641630  1.0  -0.9204
  O  O4354  1  0.817800  0.817800  0.618000  1.0  -0.3802
  O  O4355  1  0.627550  0.627550  0.221740  1.0  -0.9631
  O  O4356  1  0.598730  0.598730  0.200610  1.0  -0.8535
  O  O4357  1  0.652570  0.652570  0.177240  1.0  -0.8812
  O  O4358  1  0.631930  0.631930  0.141630  1.0  -0.9207
  O  O4359  1  0.682200  0.682200  0.118000  1.0  -0.3838
  O  O4360  1  0.127550  0.127550  0.721740  1.0  -0.9631
  O  O4361  1  0.098730  0.098730  0.700610  1.0  -0.8535
  O  O4362  1  0.152570  0.152570  0.677240  1.0  -0.8812
  O  O4363  1  0.131930  0.131930  0.641630  1.0  -0.9207
  O  O4364  1  0.182200  0.182200  0.618000  1.0  -0.3832
  O  O4365  1  0.627550  0.372450  0.778260  1.0  -0.9616
  O  O4366  1  0.598730  0.401270  0.799390  1.0  -0.8571
  O  O4367  1  0.652570  0.347430  0.822760  1.0  -0.8814
  O  O4368  1  0.631930  0.368070  0.858370  1.0  -0.9188
  O  O4369  1  0.682200  0.317800  0.882000  1.0  -0.3826
  O  O4370  1  0.127550  0.872450  0.278260  1.0  -0.9616
  O  O4371  1  0.098730  0.901270  0.299390  1.0  -0.8571
  O  O4372  1  0.152570  0.847430  0.322760  1.0  -0.8814
  O  O4373  1  0.131930  0.868070  0.358370  1.0  -0.9188
  O  O4374  1  0.182200  0.817800  0.382000  1.0  -0.38
  O  O4375  1  0.372450  0.627550  0.778260  1.0  -0.9613
  O  O4376  1  0.401270  0.598730  0.799390  1.0  -0.8577
  O  O4377  1  0.347430  0.652570  0.822760  1.0  -0.881
  O  O4378  1  0.368070  0.631930  0.858370  1.0  -0.9178
  O  O4379  1  0.317800  0.682200  0.882000  1.0  -0.3802
  O  O4380  1  0.872450  0.127550  0.278260  1.0  -0.9613
  O  O4381  1  0.901270  0.098730  0.299390  1.0  -0.8577
  O  O4382  1  0.847430  0.152570  0.322760  1.0  -0.881
  O  O4383  1  0.868070  0.131930  0.358370  1.0  -0.9178
  O  O4384  1  0.817800  0.182200  0.382000  1.0  -0.378
  O  O4385  1  0.221740  0.372450  0.372450  1.0  -0.9637
  O  O4386  1  0.200610  0.401270  0.401270  1.0  -0.8549
  O  O4387  1  0.177240  0.347430  0.347430  1.0  -0.8816
  O  O4388  1  0.141630  0.368070  0.368070  1.0  -0.9181
  O  O4389  1  0.118000  0.317800  0.317800  1.0  -0.381
  O  O4390  1  0.721740  0.872450  0.872450  1.0  -0.9637
  O  O4391  1  0.700610  0.901270  0.901270  1.0  -0.8549
  O  O4392  1  0.677240  0.847430  0.847430  1.0  -0.8816
  O  O4393  1  0.641630  0.868070  0.868070  1.0  -0.9181
  O  O4394  1  0.618000  0.817800  0.817800  1.0  -0.3799
  O  O4395  1  0.221740  0.627550  0.627550  1.0  -0.9628
  O  O4396  1  0.200610  0.598730  0.598730  1.0  -0.854
  O  O4397  1  0.177240  0.652570  0.652570  1.0  -0.881
  O  O4398  1  0.141630  0.631930  0.631930  1.0  -0.9176
  O  O4399  1  0.118000  0.682200  0.682200  1.0  -0.3821
  O  O4400  1  0.721740  0.127550  0.127550  1.0  -0.9628
  O  O4401  1  0.700610  0.098730  0.098730  1.0  -0.854
  O  O4402  1  0.677240  0.152570  0.152570  1.0  -0.881
  O  O4403  1  0.641630  0.131930  0.131930  1.0  -0.9176
  O  O4404  1  0.618000  0.182200  0.182200  1.0  -0.3813
  O  O4405  1  0.778260  0.627550  0.372450  1.0  -0.9621
  O  O4406  1  0.799390  0.598730  0.401270  1.0  -0.8526
  O  O4407  1  0.822760  0.652570  0.347430  1.0  -0.8811
  O  O4408  1  0.858370  0.631930  0.368070  1.0  -0.9157
  O  O4409  1  0.882000  0.682200  0.317800  1.0  -0.3828
  O  O4410  1  0.278260  0.127550  0.872450  1.0  -0.9621
  O  O4411  1  0.299390  0.098730  0.901270  1.0  -0.8526
  O  O4412  1  0.322760  0.152570  0.847430  1.0  -0.8811
  O  O4413  1  0.358370  0.131930  0.868070  1.0  -0.9157
  O  O4414  1  0.382000  0.182200  0.817800  1.0  -0.3806
  O  O4415  1  0.778260  0.372450  0.627550  1.0  -0.962
  O  O4416  1  0.799390  0.401270  0.598730  1.0  -0.855
  O  O4417  1  0.822760  0.347430  0.652570  1.0  -0.8813
  O  O4418  1  0.858370  0.368070  0.631930  1.0  -0.9159
  O  O4419  1  0.882000  0.317800  0.682200  1.0  -0.3857
  O  O4420  1  0.278260  0.872450  0.127550  1.0  -0.962
  O  O4421  1  0.299390  0.901270  0.098730  1.0  -0.855
  O  O4422  1  0.322760  0.847430  0.152570  1.0  -0.8813
  O  O4423  1  0.358370  0.868070  0.131930  1.0  -0.9159
  O  O4424  1  0.382000  0.817800  0.182200  1.0  -0.3824
  O  O4425  1  0.372450  0.221740  0.372450  1.0  -0.9635
  O  O4426  1  0.401270  0.200610  0.401270  1.0  -0.8564
  O  O4427  1  0.347430  0.177240  0.347430  1.0  -0.8815
  O  O4428  1  0.368070  0.141630  0.368070  1.0  -0.9198
  O  O4429  1  0.317800  0.118000  0.317800  1.0  -0.3797
  O  O4430  1  0.872450  0.721740  0.872450  1.0  -0.9635
  O  O4431  1  0.901270  0.700610  0.901270  1.0  -0.8564
  O  O4432  1  0.847430  0.677240  0.847430  1.0  -0.8815
  O  O4433  1  0.868070  0.641630  0.868070  1.0  -0.9198
  O  O4434  1  0.817800  0.618000  0.817800  1.0  -0.3794
  O  O4435  1  0.627550  0.221740  0.627550  1.0  -0.9639
  O  O4436  1  0.598730  0.200610  0.598730  1.0  -0.856
  O  O4437  1  0.652570  0.177240  0.652570  1.0  -0.8813
  O  O4438  1  0.631930  0.141630  0.631930  1.0  -0.9204
  O  O4439  1  0.682200  0.118000  0.682200  1.0  -0.3833
  O  O4440  1  0.127550  0.721740  0.127550  1.0  -0.9639
  O  O4441  1  0.098730  0.700610  0.098730  1.0  -0.856
  O  O4442  1  0.152570  0.677240  0.152570  1.0  -0.8813
  O  O4443  1  0.131930  0.641630  0.131930  1.0  -0.9204
  O  O4444  1  0.182200  0.618000  0.182200  1.0  -0.383
  O  O4445  1  0.372450  0.778260  0.627550  1.0  -0.9631
  O  O4446  1  0.401270  0.799390  0.598730  1.0  -0.8548
  O  O4447  1  0.347430  0.822760  0.652570  1.0  -0.8809
  O  O4448  1  0.368070  0.858370  0.631930  1.0  -0.9198
  O  O4449  1  0.317800  0.882000  0.682200  1.0  -0.3798
  O  O4450  1  0.872450  0.278260  0.127550  1.0  -0.9631
  O  O4451  1  0.901270  0.299390  0.098730  1.0  -0.8548
  O  O4452  1  0.847430  0.322760  0.152570  1.0  -0.8809
  O  O4453  1  0.868070  0.358370  0.131930  1.0  -0.9198
  O  O4454  1  0.817800  0.382000  0.182200  1.0  -0.3775
  O  O4455  1  0.627550  0.778260  0.372450  1.0  -0.9638
  O  O4456  1  0.598730  0.799390  0.401270  1.0  -0.8543
  O  O4457  1  0.652570  0.822760  0.347430  1.0  -0.8811
  O  O4458  1  0.631930  0.858370  0.368070  1.0  -0.9205
  O  O4459  1  0.682200  0.882000  0.317800  1.0  -0.3809
  O  O4460  1  0.127550  0.278260  0.872450  1.0  -0.9638
  O  O4461  1  0.098730  0.299390  0.901270  1.0  -0.8543
  O  O4462  1  0.152570  0.322760  0.847430  1.0  -0.8811
  O  O4463  1  0.131930  0.358370  0.868070  1.0  -0.9205
  O  O4464  1  0.182200  0.382000  0.817800  1.0  -0.3789
  O  O4465  1  0.372450  0.372450  0.778260  1.0  -0.9613
  O  O4466  1  0.401270  0.401270  0.799390  1.0  -0.8598
  O  O4467  1  0.347430  0.347430  0.822760  1.0  -0.8814
  O  O4468  1  0.368070  0.368070  0.858370  1.0  -0.9179
  O  O4469  1  0.317800  0.317800  0.882000  1.0  -0.381
  O  O4470  1  0.872450  0.872450  0.278260  1.0  -0.9613
  O  O4471  1  0.901270  0.901270  0.299390  1.0  -0.8598
  O  O4472  1  0.847430  0.847430  0.322760  1.0  -0.8814
  O  O4473  1  0.868070  0.868070  0.358370  1.0  -0.9179
  O  O4474  1  0.817800  0.817800  0.382000  1.0  -0.3783
  O  O4475  1  0.627550  0.627550  0.778260  1.0  -0.9618
  O  O4476  1  0.598730  0.598730  0.799390  1.0  -0.8553
  O  O4477  1  0.652570  0.652570  0.822760  1.0  -0.8811
  O  O4478  1  0.631930  0.631930  0.858370  1.0  -0.9188
  O  O4479  1  0.682200  0.682200  0.882000  1.0  -0.3824
  O  O4480  1  0.127550  0.127550  0.278260  1.0  -0.9618
  O  O4481  1  0.098730  0.098730  0.299390  1.0  -0.8553
  O  O4482  1  0.152570  0.152570  0.322760  1.0  -0.8811
  O  O4483  1  0.131930  0.131930  0.358370  1.0  -0.9188
  O  O4484  1  0.182200  0.182200  0.382000  1.0  -0.3802
  O  O4485  1  0.372450  0.627550  0.221740  1.0  -0.9613
  O  O4486  1  0.401270  0.598730  0.200610  1.0  -0.856
  O  O4487  1  0.347430  0.652570  0.177240  1.0  -0.8811
  O  O4488  1  0.368070  0.631930  0.141630  1.0  -0.9201
  O  O4489  1  0.317800  0.682200  0.118000  1.0  -0.3809
  O  O4490  1  0.872450  0.127550  0.721740  1.0  -0.9613
  O  O4491  1  0.901270  0.098730  0.700610  1.0  -0.856
  O  O4492  1  0.847430  0.152570  0.677240  1.0  -0.8811
  O  O4493  1  0.868070  0.131930  0.641630  1.0  -0.9201
  O  O4494  1  0.817800  0.182200  0.618000  1.0  -0.3803
  O  O4495  1  0.627550  0.372450  0.221740  1.0  -0.9634
  O  O4496  1  0.598730  0.401270  0.200610  1.0  -0.8548
  O  O4497  1  0.652570  0.347430  0.177240  1.0  -0.8816
  O  O4498  1  0.631930  0.368070  0.141630  1.0  -0.921
  O  O4499  1  0.682200  0.317800  0.118000  1.0  -0.3831
  O  O4500  1  0.127550  0.872450  0.721740  1.0  -0.9634
  O  O4501  1  0.098730  0.901270  0.700610  1.0  -0.8548
  O  O4502  1  0.152570  0.847430  0.677240  1.0  -0.8816
  O  O4503  1  0.131930  0.868070  0.641630  1.0  -0.921
  O  O4504  1  0.182200  0.817800  0.618000  1.0  -0.3823
  O  O4505  1  0.372450  0.221740  0.627550  1.0  -0.963
  O  O4506  1  0.401270  0.200610  0.598730  1.0  -0.8575
  O  O4507  1  0.347430  0.177240  0.652570  1.0  -0.8813
  O  O4508  1  0.368070  0.141630  0.631930  1.0  -0.9198
  O  O4509  1  0.317800  0.118000  0.682200  1.0  -0.3815
  O  O4510  1  0.872450  0.721740  0.127550  1.0  -0.963
  O  O4511  1  0.901270  0.700610  0.098730  1.0  -0.8575
  O  O4512  1  0.847430  0.677240  0.152570  1.0  -0.8813
  O  O4513  1  0.868070  0.641630  0.131930  1.0  -0.9198
  O  O4514  1  0.817800  0.618000  0.182200  1.0  -0.381
  O  O4515  1  0.627550  0.221740  0.372450  1.0  -0.9643
  O  O4516  1  0.598730  0.200610  0.401270  1.0  -0.8553
  O  O4517  1  0.652570  0.177240  0.347430  1.0  -0.8816
  O  O4518  1  0.631930  0.141630  0.368070  1.0  -0.9204
  O  O4519  1  0.682200  0.118000  0.317800  1.0  -0.3814
  O  O4520  1  0.127550  0.721740  0.872450  1.0  -0.9643
  O  O4521  1  0.098730  0.700610  0.901270  1.0  -0.8553
  O  O4522  1  0.152570  0.677240  0.847430  1.0  -0.8816
  O  O4523  1  0.131930  0.641630  0.868070  1.0  -0.9204
  O  O4524  1  0.182200  0.618000  0.817800  1.0  -0.3811
  O  O4525  1  0.627550  0.778260  0.627550  1.0  -0.9637
  O  O4526  1  0.598730  0.799390  0.598730  1.0  -0.8535
  O  O4527  1  0.652570  0.822760  0.652570  1.0  -0.8809
  O  O4528  1  0.631930  0.858370  0.631930  1.0  -0.9202
  O  O4529  1  0.682200  0.882000  0.682200  1.0  -0.3822
  O  O4530  1  0.127550  0.278260  0.127550  1.0  -0.9637
  O  O4531  1  0.098730  0.299390  0.098730  1.0  -0.8535
  O  O4532  1  0.152570  0.322760  0.152570  1.0  -0.8809
  O  O4533  1  0.131930  0.358370  0.131930  1.0  -0.9202
  O  O4534  1  0.182200  0.382000  0.182200  1.0  -0.3801
  O  O4535  1  0.372450  0.778260  0.372450  1.0  -0.963
  O  O4536  1  0.401270  0.799390  0.401270  1.0  -0.8552
  O  O4537  1  0.347430  0.822760  0.347430  1.0  -0.881
  O  O4538  1  0.368070  0.858370  0.368070  1.0  -0.9201
  O  O4539  1  0.317800  0.882000  0.317800  1.0  -0.3781
  O  O4540  1  0.872450  0.278260  0.872450  1.0  -0.963
  O  O4541  1  0.901270  0.299390  0.901270  1.0  -0.8552
  O  O4542  1  0.847430  0.322760  0.847430  1.0  -0.881
  O  O4543  1  0.868070  0.358370  0.868070  1.0  -0.9201
  O  O4544  1  0.817800  0.382000  0.817800  1.0  -0.3761
  O  O4545  1  0.221740  0.372450  0.627550  1.0  -0.9629
  O  O4546  1  0.200610  0.401270  0.598730  1.0  -0.8547
  O  O4547  1  0.177240  0.347430  0.652570  1.0  -0.8814
  O  O4548  1  0.141630  0.368070  0.631930  1.0  -0.9178
  O  O4549  1  0.118000  0.317800  0.682200  1.0  -0.3823
  O  O4550  1  0.721740  0.872450  0.127550  1.0  -0.9629
  O  O4551  1  0.700610  0.901270  0.098730  1.0  -0.8547
  O  O4552  1  0.677240  0.847430  0.152570  1.0  -0.8814
  O  O4553  1  0.641630  0.868070  0.131930  1.0  -0.9178
  O  O4554  1  0.618000  0.817800  0.182200  1.0  -0.381
  O  O4555  1  0.221740  0.627550  0.372450  1.0  -0.963
  O  O4556  1  0.200610  0.598730  0.401270  1.0  -0.8542
  O  O4557  1  0.177240  0.652570  0.347430  1.0  -0.881
  O  O4558  1  0.141630  0.631930  0.368070  1.0  -0.9181
  O  O4559  1  0.118000  0.682200  0.317800  1.0  -0.3808
  O  O4560  1  0.721740  0.127550  0.872450  1.0  -0.963
  O  O4561  1  0.700610  0.098730  0.901270  1.0  -0.8542
  O  O4562  1  0.677240  0.152570  0.847430  1.0  -0.881
  O  O4563  1  0.641630  0.131930  0.868070  1.0  -0.9181
  O  O4564  1  0.618000  0.182200  0.817800  1.0  -0.3801
  O  O4565  1  0.778260  0.372450  0.372450  1.0  -0.9627
  O  O4566  1  0.799390  0.401270  0.401270  1.0  -0.8541
  O  O4567  1  0.822760  0.347430  0.347430  1.0  -0.8816
  O  O4568  1  0.858370  0.368070  0.368070  1.0  -0.916
  O  O4569  1  0.882000  0.317800  0.317800  1.0  -0.383
  O  O4570  1  0.278260  0.872450  0.872450  1.0  -0.9627
  O  O4571  1  0.299390  0.901270  0.901270  1.0  -0.8541
  O  O4572  1  0.322760  0.847430  0.847430  1.0  -0.8816
  O  O4573  1  0.358370  0.868070  0.868070  1.0  -0.916
  O  O4574  1  0.382000  0.817800  0.817800  1.0  -0.3804
  O  O4575  1  0.778260  0.627550  0.627550  1.0  -0.9619
  O  O4576  1  0.799390  0.598730  0.598730  1.0  -0.8533
  O  O4577  1  0.822760  0.652570  0.652570  1.0  -0.8809
  O  O4578  1  0.858370  0.631930  0.631930  1.0  -0.9156
  O  O4579  1  0.882000  0.682200  0.682200  1.0  -0.385
  O  O4580  1  0.278260  0.127550  0.127550  1.0  -0.9619
  O  O4581  1  0.299390  0.098730  0.098730  1.0  -0.8533
  O  O4582  1  0.322760  0.152570  0.152570  1.0  -0.8809
  O  O4583  1  0.358370  0.131930  0.131930  1.0  -0.9156
  O  O4584  1  0.382000  0.182200  0.182200  1.0  -0.3823
  O  O4585  1  0.269610  0.500000  0.028020  1.0  -0.947
  O  O4586  1  0.769610  0.000000  0.528020  1.0  -0.947
  O  O4587  1  0.730390  0.500000  0.028020  1.0  -0.9472
  O  O4588  1  0.230390  0.000000  0.528020  1.0  -0.9472
  O  O4589  1  0.730390  0.500000  0.971980  1.0  -0.9469
  O  O4590  1  0.230390  0.000000  0.471980  1.0  -0.9469
  O  O4591  1  0.269610  0.500000  0.971980  1.0  -0.9465
  O  O4592  1  0.769610  0.000000  0.471980  1.0  -0.9465
  O  O4593  1  0.028020  0.269610  0.500000  1.0  -0.948
  O  O4594  1  0.528020  0.769610  0.000000  1.0  -0.948
  O  O4595  1  0.028020  0.730390  0.500000  1.0  -0.9489
  O  O4596  1  0.528020  0.230390  0.000000  1.0  -0.9489
  O  O4597  1  0.971980  0.730390  0.500000  1.0  -0.9464
  O  O4598  1  0.471980  0.230390  0.000000  1.0  -0.9464
  O  O4599  1  0.971980  0.269610  0.500000  1.0  -0.9463
  O  O4600  1  0.471980  0.769610  0.000000  1.0  -0.9463
  O  O4601  1  0.500000  0.028020  0.269610  1.0  -0.9456
  O  O4602  1  0.000000  0.528020  0.769610  1.0  -0.9456
  O  O4603  1  0.500000  0.028020  0.730390  1.0  -0.9464
  O  O4604  1  0.000000  0.528020  0.230390  1.0  -0.9464
  O  O4605  1  0.500000  0.971980  0.730390  1.0  -0.9484
  O  O4606  1  0.000000  0.471980  0.230390  1.0  -0.9484
  O  O4607  1  0.500000  0.971980  0.269610  1.0  -0.9475
  O  O4608  1  0.000000  0.471980  0.769610  1.0  -0.9475
  O  O4609  1  0.500000  0.269610  0.971980  1.0  -0.9467
  O  O4610  1  0.000000  0.769610  0.471980  1.0  -0.9467
  O  O4611  1  0.500000  0.730390  0.971980  1.0  -0.9468
  O  O4612  1  0.000000  0.230390  0.471980  1.0  -0.9468
  O  O4613  1  0.500000  0.730390  0.028020  1.0  -0.9472
  O  O4614  1  0.000000  0.230390  0.528020  1.0  -0.9472
  O  O4615  1  0.500000  0.269610  0.028020  1.0  -0.947
  O  O4616  1  0.000000  0.769610  0.528020  1.0  -0.947
  O  O4617  1  0.269610  0.028020  0.500000  1.0  -0.9461
  O  O4618  1  0.769610  0.528020  0.000000  1.0  -0.9461
  O  O4619  1  0.730390  0.028020  0.500000  1.0  -0.9467
  O  O4620  1  0.230390  0.528020  0.000000  1.0  -0.9467
  O  O4621  1  0.730390  0.971980  0.500000  1.0  -0.9485
  O  O4622  1  0.230390  0.471980  0.000000  1.0  -0.9485
  O  O4623  1  0.269610  0.971980  0.500000  1.0  -0.9483
  O  O4624  1  0.769610  0.471980  0.000000  1.0  -0.9483
  O  O4625  1  0.028020  0.500000  0.730390  1.0  -0.9482
  O  O4626  1  0.528020  0.000000  0.230390  1.0  -0.9482
  O  O4627  1  0.028020  0.500000  0.269610  1.0  -0.9476
  O  O4628  1  0.528020  0.000000  0.769610  1.0  -0.9476
  O  O4629  1  0.971980  0.500000  0.269610  1.0  -0.9457
  O  O4630  1  0.471980  0.000000  0.769610  1.0  -0.9457
  O  O4631  1  0.971980  0.500000  0.730390  1.0  -0.9464
  O  O4632  1  0.471980  0.000000  0.230390  1.0  -0.9464
  O  O4633  1  0.275480  0.462240  0.000000  1.0  -0.8429
  O  O4634  1  0.775480  0.962240  0.500000  1.0  -0.8429
  O  O4635  1  0.724520  0.537760  0.000000  1.0  -0.8447
  O  O4636  1  0.224520  0.037760  0.500000  1.0  -0.8447
  O  O4637  1  0.724520  0.462240  0.000000  1.0  -0.8434
  O  O4638  1  0.224520  0.962240  0.500000  1.0  -0.8434
  O  O4639  1  0.275480  0.537760  0.000000  1.0  -0.8447
  O  O4640  1  0.775480  0.037760  0.500000  1.0  -0.8447
  O  O4641  1  0.000000  0.275480  0.462240  1.0  -0.8516
  O  O4642  1  0.500000  0.775480  0.962240  1.0  -0.8516
  O  O4643  1  0.000000  0.724520  0.537760  1.0  -0.8376
  O  O4644  1  0.500000  0.224520  0.037760  1.0  -0.8376
  O  O4645  1  0.000000  0.724520  0.462240  1.0  -0.8522
  O  O4646  1  0.500000  0.224520  0.962240  1.0  -0.8522
  O  O4647  1  0.000000  0.275480  0.537760  1.0  -0.838
  O  O4648  1  0.500000  0.775480  0.037760  1.0  -0.838
  O  O4649  1  0.462240  0.000000  0.275480  1.0  -0.8454
  O  O4650  1  0.962240  0.500000  0.775480  1.0  -0.8454
  O  O4651  1  0.537760  0.000000  0.724520  1.0  -0.8455
  O  O4652  1  0.037760  0.500000  0.224520  1.0  -0.8455
  O  O4653  1  0.462240  0.000000  0.724520  1.0  -0.8457
  O  O4654  1  0.962240  0.500000  0.224520  1.0  -0.8457
  O  O4655  1  0.537760  0.000000  0.275480  1.0  -0.8452
  O  O4656  1  0.037760  0.500000  0.775480  1.0  -0.8452
  O  O4657  1  0.462240  0.275480  0.000000  1.0  -0.8457
  O  O4658  1  0.962240  0.775480  0.500000  1.0  -0.8457
  O  O4659  1  0.537760  0.724520  0.000000  1.0  -0.8451
  O  O4660  1  0.037760  0.224520  0.500000  1.0  -0.8451
  O  O4661  1  0.462240  0.724520  0.000000  1.0  -0.8457
  O  O4662  1  0.962240  0.224520  0.500000  1.0  -0.8457
  O  O4663  1  0.537760  0.275480  0.000000  1.0  -0.8455
  O  O4664  1  0.037760  0.775480  0.500000  1.0  -0.8455
  O  O4665  1  0.275480  0.000000  0.537760  1.0  -0.8377
  O  O4666  1  0.775480  0.500000  0.037760  1.0  -0.8377
  O  O4667  1  0.724520  0.000000  0.462240  1.0  -0.8521
  O  O4668  1  0.224520  0.500000  0.962240  1.0  -0.8521
  O  O4669  1  0.724520  0.000000  0.537760  1.0  -0.8387
  O  O4670  1  0.224520  0.500000  0.037760  1.0  -0.8387
  O  O4671  1  0.275480  0.000000  0.462240  1.0  -0.8522
  O  O4672  1  0.775480  0.500000  0.962240  1.0  -0.8522
  O  O4673  1  0.000000  0.462240  0.724520  1.0  -0.8423
  O  O4674  1  0.500000  0.962240  0.224520  1.0  -0.8423
  O  O4675  1  0.000000  0.537760  0.275480  1.0  -0.844
  O  O4676  1  0.500000  0.037760  0.775480  1.0  -0.844
  O  O4677  1  0.000000  0.462240  0.275480  1.0  -0.8428
  O  O4678  1  0.500000  0.962240  0.775480  1.0  -0.8428
  O  O4679  1  0.000000  0.537760  0.724520  1.0  -0.8443
  O  O4680  1  0.500000  0.037760  0.224520  1.0  -0.8443
