# generated using pymatgen
data_CuH24C32(N2O)4
_symmetry_space_group_name_H-M   'P 1'
_cell_length_a   56.79200000
_cell_length_b   14.33100000
_cell_length_c   32.17000000
_cell_angle_alpha   90.00000000
_cell_angle_beta   90.00000000
_cell_angle_gamma   90.00000000
_symmetry_Int_Tables_number   1
_chemical_formula_structural   CuH24C32(N2O)4
_chemical_formula_sum   'Cu12 H288 C384 N96 O48'
_cell_volume   26182.71750984
_cell_formula_units_Z   12
loop_
 _symmetry_equiv_pos_site_id
 _symmetry_equiv_pos_as_xyz
  1  'x, y, z'
loop_
 _atom_site_type_symbol
 _atom_site_label
 _atom_site_symmetry_multiplicity
 _atom_site_fract_x
 _atom_site_fract_y
 _atom_site_fract_z
 _atom_site_occupancy
 _atom_site_charge
  Cu  Cu1  1  0.406140  0.882100  0.482320  1.0  0.4984
  Cu  Cu2  1  0.406140  0.617900  0.017680  1.0  0.4984
  Cu  Cu3  1  0.906140  0.882100  0.517680  1.0  0.4985
  Cu  Cu4  1  0.906140  0.617900  0.982320  1.0  0.4983
  Cu  Cu5  1  0.160320  0.250000  0.750000  1.0  0.5795
  Cu  Cu6  1  0.660320  0.250000  0.250000  1.0  0.5795
  Cu  Cu7  1  0.093860  0.117900  0.482320  1.0  0.498
  Cu  Cu8  1  0.093860  0.382100  0.017680  1.0  0.4986
  Cu  Cu9  1  0.593860  0.117900  0.517680  1.0  0.4984
  Cu  Cu10  1  0.593860  0.382100  0.982320  1.0  0.4982
  Cu  Cu11  1  0.339680  0.750000  0.750000  1.0  0.5778
  Cu  Cu12  1  0.839680  0.750000  0.250000  1.0  0.5778
  H  H13  1  0.335600  0.521800  0.523600  1.0  0.3517
  H  H14  1  0.243100  0.283400  0.606200  1.0  0.1472
  H  H15  1  0.348900  0.250500  0.551800  1.0  0.2433
  H  H16  1  0.376300  0.834100  0.564300  1.0  0.1073
  H  H17  1  0.351500  0.707600  0.584100  1.0  0.1168
  H  H18  1  0.357100  0.597500  0.458100  1.0  0.1555
  H  H19  1  0.385000  0.729000  0.450100  1.0  0.1314
  H  H20  1  0.174800  0.213000  0.669100  1.0  0.1115
  H  H21  1  0.207300  0.215100  0.619200  1.0  0.1504
  H  H22  1  0.234100  0.404800  0.702300  1.0  0.0965
  H  H23  1  0.204400  0.380600  0.746000  1.0  0.0981
  H  H24  1  0.408100  0.054700  0.536800  1.0  0.0924
  H  H25  1  0.384200  0.177400  0.558400  1.0  0.1159
  H  H26  1  0.329500  0.057800  0.485900  1.0  0.1125
  H  H27  1  0.355200  0.939000  0.468100  1.0  0.0975
  H  H28  1  0.292600  0.512000  0.625800  1.0  0.0969
  H  H29  1  0.282400  0.239900  0.594800  1.0  0.1205
  H  H30  1  0.334900  0.389800  0.535900  1.0  0.105
  H  H31  1  0.068500  0.253700  0.624100  1.0  0.2668
  H  H32  1  0.974700  0.508700  0.529900  1.0  0.2035
  H  H33  1  0.971000  0.248400  0.573100  1.0  0.2959
  H  H34  1  0.144600  0.389600  0.686000  1.0  0.0692
  H  H35  1  0.115900  0.411900  0.638400  1.0  0.125
  H  H36  1  0.088300  0.166900  0.672300  1.0  0.0949
  H  H37  1  0.117700  0.142800  0.719900  1.0  0.1234
  H  H38  1  0.923300  0.707600  0.475000  1.0  0.073
  H  H39  1  0.946400  0.583400  0.490900  1.0  0.0972
  H  H40  1  0.969600  0.716600  0.595200  1.0  0.1208
  H  H41  1  0.941100  0.833000  0.577800  1.0  0.0918
  H  H42  1  0.909400  0.045800  0.569500  1.0  0.0781
  H  H43  1  0.934700  0.163100  0.590000  1.0  0.1272
  H  H44  1  0.984500  0.053800  0.511700  1.0  0.1029
  H  H45  1  0.954500  0.935500  0.491800  1.0  0.0965
  H  H46  1  0.036800  0.516900  0.606800  1.0  0.1098
  H  H47  1  0.982200  0.378400  0.556200  1.0  0.1079
  H  H48  1  0.039200  0.233700  0.590900  1.0  0.1188
  H  H49  1  0.335600  0.978200  0.976400  1.0  0.3512
  H  H50  1  0.243100  0.216600  0.893800  1.0  0.1461
  H  H51  1  0.348900  0.249500  0.948200  1.0  0.2428
  H  H52  1  0.376300  0.665900  0.935700  1.0  0.1071
  H  H53  1  0.351500  0.792400  0.915900  1.0  0.1174
  H  H54  1  0.357100  0.902500  0.041900  1.0  0.1563
  H  H55  1  0.385000  0.771000  0.049900  1.0  0.1298
  H  H56  1  0.174800  0.287000  0.830900  1.0  0.1112
  H  H57  1  0.207300  0.284900  0.880800  1.0  0.1516
  H  H58  1  0.234100  0.095200  0.797700  1.0  0.0959
  H  H59  1  0.204400  0.119400  0.754000  1.0  0.098
  H  H60  1  0.408100  0.445300  0.963200  1.0  0.0923
  H  H61  1  0.384200  0.322600  0.941600  1.0  0.116
  H  H62  1  0.329500  0.442200  0.014100  1.0  0.1131
  H  H63  1  0.355200  0.561000  0.031900  1.0  0.0988
  H  H64  1  0.292600  0.988000  0.874200  1.0  0.0973
  H  H65  1  0.282400  0.260100  0.905200  1.0  0.1202
  H  H66  1  0.334900  0.110200  0.964100  1.0  0.1059
  H  H67  1  0.068500  0.246300  0.875900  1.0  0.2661
  H  H68  1  0.974700  0.991300  0.970100  1.0  0.2038
  H  H69  1  0.971000  0.251600  0.926900  1.0  0.2956
  H  H70  1  0.144600  0.110400  0.814000  1.0  0.0681
  H  H71  1  0.115900  0.088100  0.861600  1.0  0.124
  H  H72  1  0.088300  0.333100  0.827700  1.0  0.0952
  H  H73  1  0.117700  0.357200  0.780100  1.0  0.1255
  H  H74  1  0.923300  0.792400  0.025000  1.0  0.0722
  H  H75  1  0.946400  0.916600  0.009100  1.0  0.098
  H  H76  1  0.969600  0.783400  0.904800  1.0  0.1197
  H  H77  1  0.941100  0.667000  0.922200  1.0  0.0917
  H  H78  1  0.909400  0.454200  0.930500  1.0  0.0777
  H  H79  1  0.934700  0.336900  0.910000  1.0  0.1265
  H  H80  1  0.984500  0.446200  0.988300  1.0  0.1027
  H  H81  1  0.954500  0.564500  0.008200  1.0  0.0963
  H  H82  1  0.036800  0.983100  0.893200  1.0  0.1092
  H  H83  1  0.982200  0.121600  0.943800  1.0  0.1077
  H  H84  1  0.039200  0.266300  0.909100  1.0  0.1188
  H  H85  1  0.835600  0.521800  0.476400  1.0  0.3515
  H  H86  1  0.743100  0.283400  0.393800  1.0  0.1465
  H  H87  1  0.848900  0.250500  0.448200  1.0  0.243
  H  H88  1  0.876300  0.834100  0.435700  1.0  0.1073
  H  H89  1  0.851500  0.707600  0.415900  1.0  0.1167
  H  H90  1  0.857100  0.597500  0.541900  1.0  0.1572
  H  H91  1  0.885000  0.729000  0.549900  1.0  0.1301
  H  H92  1  0.674800  0.213000  0.330900  1.0  0.1113
  H  H93  1  0.707300  0.215100  0.380800  1.0  0.1511
  H  H94  1  0.734100  0.404800  0.297700  1.0  0.0959
  H  H95  1  0.704400  0.380600  0.254000  1.0  0.0977
  H  H96  1  0.908100  0.054700  0.463200  1.0  0.092
  H  H97  1  0.884200  0.177400  0.441600  1.0  0.1163
  H  H98  1  0.829500  0.057800  0.514100  1.0  0.1131
  H  H99  1  0.855200  0.939000  0.531900  1.0  0.0988
  H  H100  1  0.792600  0.512000  0.374200  1.0  0.0967
  H  H101  1  0.782400  0.239900  0.405200  1.0  0.12
  H  H102  1  0.834900  0.389800  0.464100  1.0  0.1057
  H  H103  1  0.568500  0.253700  0.375900  1.0  0.2675
  H  H104  1  0.474700  0.508700  0.470100  1.0  0.2034
  H  H105  1  0.471000  0.248400  0.426900  1.0  0.2961
  H  H106  1  0.644600  0.389600  0.314000  1.0  0.0695
  H  H107  1  0.615900  0.411900  0.361600  1.0  0.1246
  H  H108  1  0.588300  0.166900  0.327700  1.0  0.0947
  H  H109  1  0.617700  0.142800  0.280100  1.0  0.1227
  H  H110  1  0.423300  0.707600  0.525000  1.0  0.0728
  H  H111  1  0.446400  0.583400  0.509100  1.0  0.0976
  H  H112  1  0.469600  0.716600  0.404800  1.0  0.1199
  H  H113  1  0.441100  0.833000  0.422200  1.0  0.0921
  H  H114  1  0.409400  0.045800  0.430500  1.0  0.0777
  H  H115  1  0.434700  0.163100  0.410000  1.0  0.1268
  H  H116  1  0.484500  0.053800  0.488300  1.0  0.1029
  H  H117  1  0.454500  0.935500  0.508200  1.0  0.0966
  H  H118  1  0.536800  0.516900  0.393200  1.0  0.1095
  H  H119  1  0.482200  0.378400  0.443800  1.0  0.1078
  H  H120  1  0.539200  0.233700  0.409100  1.0  0.1187
  H  H121  1  0.835600  0.978200  0.023600  1.0  0.351
  H  H122  1  0.743100  0.216600  0.106200  1.0  0.146
  H  H123  1  0.848900  0.249500  0.051800  1.0  0.2436
  H  H124  1  0.876300  0.665900  0.064300  1.0  0.1069
  H  H125  1  0.851500  0.792400  0.084100  1.0  0.1177
  H  H126  1  0.857100  0.902500  0.958100  1.0  0.1559
  H  H127  1  0.885000  0.771000  0.950100  1.0  0.1311
  H  H128  1  0.674800  0.287000  0.169100  1.0  0.1113
  H  H129  1  0.707300  0.284900  0.119200  1.0  0.1515
  H  H130  1  0.734100  0.095200  0.202300  1.0  0.0964
  H  H131  1  0.704400  0.119400  0.246000  1.0  0.0979
  H  H132  1  0.908100  0.445300  0.036800  1.0  0.0925
  H  H133  1  0.884200  0.322600  0.058400  1.0  0.1158
  H  H134  1  0.829500  0.442200  0.985900  1.0  0.1126
  H  H135  1  0.855200  0.561000  0.968100  1.0  0.0982
  H  H136  1  0.792600  0.988000  0.125800  1.0  0.0976
  H  H137  1  0.782400  0.260100  0.094800  1.0  0.1206
  H  H138  1  0.834900  0.110200  0.035900  1.0  0.1051
  H  H139  1  0.568500  0.246300  0.124100  1.0  0.2651
  H  H140  1  0.474700  0.991300  0.029900  1.0  0.2038
  H  H141  1  0.471000  0.251600  0.073100  1.0  0.2961
  H  H142  1  0.644600  0.110400  0.186000  1.0  0.0683
  H  H143  1  0.615900  0.088100  0.138400  1.0  0.1236
  H  H144  1  0.588300  0.333100  0.172300  1.0  0.0952
  H  H145  1  0.617700  0.357200  0.219900  1.0  0.1256
  H  H146  1  0.423300  0.792400  0.975000  1.0  0.0733
  H  H147  1  0.446400  0.916600  0.990900  1.0  0.0982
  H  H148  1  0.469600  0.783400  0.095200  1.0  0.121
  H  H149  1  0.441100  0.667000  0.077800  1.0  0.0918
  H  H150  1  0.409400  0.454200  0.069500  1.0  0.0783
  H  H151  1  0.434700  0.336900  0.090000  1.0  0.1274
  H  H152  1  0.484500  0.446200  0.011700  1.0  0.1029
  H  H153  1  0.454500  0.564500  0.991800  1.0  0.096
  H  H154  1  0.536800  0.983100  0.106800  1.0  0.1094
  H  H155  1  0.482200  0.121600  0.056200  1.0  0.1076
  H  H156  1  0.539200  0.266300  0.090900  1.0  0.1191
  H  H157  1  0.164400  0.478200  0.523600  1.0  0.3506
  H  H158  1  0.256900  0.716600  0.606200  1.0  0.1459
  H  H159  1  0.151100  0.749500  0.551800  1.0  0.2435
  H  H160  1  0.123700  0.165900  0.564300  1.0  0.1067
  H  H161  1  0.148500  0.292400  0.584100  1.0  0.1183
  H  H162  1  0.142900  0.402500  0.458100  1.0  0.1557
  H  H163  1  0.115000  0.271000  0.450100  1.0  0.1314
  H  H164  1  0.325200  0.787000  0.669100  1.0  0.1113
  H  H165  1  0.292700  0.784900  0.619200  1.0  0.1522
  H  H166  1  0.265900  0.595200  0.702300  1.0  0.0963
  H  H167  1  0.295600  0.619400  0.746000  1.0  0.0983
  H  H168  1  0.091900  0.945300  0.536800  1.0  0.0924
  H  H169  1  0.115800  0.822600  0.558400  1.0  0.1158
  H  H170  1  0.170500  0.942200  0.485900  1.0  0.1134
  H  H171  1  0.144800  0.061000  0.468100  1.0  0.0987
  H  H172  1  0.207400  0.488000  0.625800  1.0  0.0976
  H  H173  1  0.217600  0.760100  0.594800  1.0  0.1201
  H  H174  1  0.165100  0.610200  0.535900  1.0  0.1058
  H  H175  1  0.431500  0.746300  0.624100  1.0  0.2657
  H  H176  1  0.525300  0.491300  0.529900  1.0  0.2033
  H  H177  1  0.529000  0.751600  0.573100  1.0  0.2963
  H  H178  1  0.355400  0.610400  0.686000  1.0  0.0697
  H  H179  1  0.384100  0.588100  0.638400  1.0  0.1242
  H  H180  1  0.411700  0.833100  0.672300  1.0  0.0949
  H  H181  1  0.382300  0.857200  0.719900  1.0  0.123
  H  H182  1  0.576700  0.292400  0.475000  1.0  0.0732
  H  H183  1  0.553600  0.416600  0.490900  1.0  0.0981
  H  H184  1  0.530400  0.283400  0.595200  1.0  0.1208
  H  H185  1  0.558900  0.167000  0.577800  1.0  0.0919
  H  H186  1  0.590600  0.954200  0.569500  1.0  0.0781
  H  H187  1  0.565300  0.836900  0.590000  1.0  0.1265
  H  H188  1  0.515500  0.946200  0.511700  1.0  0.1029
  H  H189  1  0.545500  0.064500  0.491800  1.0  0.0962
  H  H190  1  0.463200  0.483100  0.606800  1.0  0.1089
  H  H191  1  0.517800  0.621600  0.556200  1.0  0.1088
  H  H192  1  0.460800  0.766300  0.590900  1.0  0.1191
  H  H193  1  0.164400  0.021800  0.976400  1.0  0.3509
  H  H194  1  0.256900  0.783400  0.893800  1.0  0.1464
  H  H195  1  0.151100  0.750500  0.948200  1.0  0.243
  H  H196  1  0.123700  0.334100  0.935700  1.0  0.1071
  H  H197  1  0.148500  0.207600  0.915900  1.0  0.1165
  H  H198  1  0.142900  0.097500  0.041900  1.0  0.1568
  H  H199  1  0.115000  0.229000  0.049900  1.0  0.13
  H  H200  1  0.325200  0.713000  0.830900  1.0  0.112
  H  H201  1  0.292700  0.715100  0.880800  1.0  0.152
  H  H202  1  0.265900  0.904800  0.797700  1.0  0.0963
  H  H203  1  0.295600  0.880600  0.754000  1.0  0.098
  H  H204  1  0.091900  0.554700  0.963200  1.0  0.0922
  H  H205  1  0.115800  0.677400  0.941600  1.0  0.116
  H  H206  1  0.170500  0.557800  0.014100  1.0  0.1137
  H  H207  1  0.144800  0.439000  0.031900  1.0  0.0986
  H  H208  1  0.207400  0.012000  0.874200  1.0  0.0968
  H  H209  1  0.217600  0.739900  0.905200  1.0  0.12
  H  H210  1  0.165100  0.889800  0.964100  1.0  0.1062
  H  H211  1  0.431500  0.753700  0.875900  1.0  0.2681
  H  H212  1  0.525300  0.008700  0.970100  1.0  0.2033
  H  H213  1  0.529000  0.748400  0.926900  1.0  0.2967
  H  H214  1  0.355400  0.889600  0.814000  1.0  0.0682
  H  H215  1  0.384100  0.911900  0.861600  1.0  0.1238
  H  H216  1  0.411700  0.666900  0.827700  1.0  0.0947
  H  H217  1  0.382300  0.642800  0.780100  1.0  0.1244
  H  H218  1  0.576700  0.207600  0.025000  1.0  0.0727
  H  H219  1  0.553600  0.083400  0.009100  1.0  0.0971
  H  H220  1  0.530400  0.216600  0.904800  1.0  0.1198
  H  H221  1  0.558900  0.333000  0.922200  1.0  0.0923
  H  H222  1  0.590600  0.545800  0.930500  1.0  0.0781
  H  H223  1  0.565300  0.663100  0.910000  1.0  0.1268
  H  H224  1  0.515500  0.553800  0.988300  1.0  0.1027
  H  H225  1  0.545500  0.435500  0.008200  1.0  0.0968
  H  H226  1  0.463200  0.016900  0.893200  1.0  0.1096
  H  H227  1  0.517800  0.878400  0.943800  1.0  0.1089
  H  H228  1  0.460800  0.733700  0.909100  1.0  0.1184
  H  H229  1  0.664400  0.478200  0.476400  1.0  0.351
  H  H230  1  0.756900  0.716600  0.393800  1.0  0.1458
  H  H231  1  0.651100  0.749500  0.448200  1.0  0.2426
  H  H232  1  0.623700  0.165900  0.435700  1.0  0.1068
  H  H233  1  0.648500  0.292400  0.415900  1.0  0.1174
  H  H234  1  0.642900  0.402500  0.541900  1.0  0.1562
  H  H235  1  0.615000  0.271000  0.549900  1.0  0.1298
  H  H236  1  0.825200  0.787000  0.330900  1.0  0.1116
  H  H237  1  0.792700  0.784900  0.380800  1.0  0.1522
  H  H238  1  0.765900  0.595200  0.297700  1.0  0.0956
  H  H239  1  0.795600  0.619400  0.254000  1.0  0.0983
  H  H240  1  0.591900  0.945300  0.463200  1.0  0.0924
  H  H241  1  0.615800  0.822600  0.441600  1.0  0.1153
  H  H242  1  0.670500  0.942200  0.514100  1.0  0.1135
  H  H243  1  0.644800  0.061000  0.531900  1.0  0.0986
  H  H244  1  0.707400  0.488000  0.374200  1.0  0.0973
  H  H245  1  0.717600  0.760100  0.405200  1.0  0.1199
  H  H246  1  0.665100  0.610200  0.464100  1.0  0.1063
  H  H247  1  0.931500  0.746300  0.375900  1.0  0.2661
  H  H248  1  0.025300  0.491300  0.470100  1.0  0.2035
  H  H249  1  0.029000  0.751600  0.426900  1.0  0.2968
  H  H250  1  0.855400  0.610400  0.314000  1.0  0.0695
  H  H251  1  0.884100  0.588100  0.361600  1.0  0.1245
  H  H252  1  0.911700  0.833100  0.327700  1.0  0.0948
  H  H253  1  0.882300  0.857200  0.280100  1.0  0.1229
  H  H254  1  0.076700  0.292400  0.525000  1.0  0.0723
  H  H255  1  0.053600  0.416600  0.509100  1.0  0.0978
  H  H256  1  0.030400  0.283400  0.404800  1.0  0.1195
  H  H257  1  0.058900  0.167000  0.422200  1.0  0.0919
  H  H258  1  0.090600  0.954200  0.430500  1.0  0.0782
  H  H259  1  0.065300  0.836900  0.410000  1.0  0.1266
  H  H260  1  0.015500  0.946200  0.488300  1.0  0.1024
  H  H261  1  0.045500  0.064500  0.508200  1.0  0.0965
  H  H262  1  0.963200  0.483100  0.393200  1.0  0.1088
  H  H263  1  0.017800  0.621600  0.443800  1.0  0.1088
  H  H264  1  0.960800  0.766300  0.409100  1.0  0.1193
  H  H265  1  0.664400  0.021800  0.023600  1.0  0.3511
  H  H266  1  0.756900  0.783400  0.106200  1.0  0.1474
  H  H267  1  0.651100  0.750500  0.051800  1.0  0.2433
  H  H268  1  0.623700  0.334100  0.064300  1.0  0.1071
  H  H269  1  0.648500  0.207600  0.084100  1.0  0.1173
  H  H270  1  0.642900  0.097500  0.958100  1.0  0.1554
  H  H271  1  0.615000  0.229000  0.950100  1.0  0.1313
  H  H272  1  0.825200  0.713000  0.169100  1.0  0.1118
  H  H273  1  0.792700  0.715100  0.119200  1.0  0.1512
  H  H274  1  0.765900  0.904800  0.202300  1.0  0.0966
  H  H275  1  0.795600  0.880600  0.246000  1.0  0.0984
  H  H276  1  0.591900  0.554700  0.036800  1.0  0.0925
  H  H277  1  0.615800  0.677400  0.058400  1.0  0.1159
  H  H278  1  0.670500  0.557800  0.985900  1.0  0.1134
  H  H279  1  0.644800  0.439000  0.968100  1.0  0.0983
  H  H280  1  0.707400  0.012000  0.125800  1.0  0.097
  H  H281  1  0.717600  0.739900  0.094800  1.0  0.1204
  H  H282  1  0.665100  0.889800  0.035900  1.0  0.1057
  H  H283  1  0.931500  0.753700  0.124100  1.0  0.2678
  H  H284  1  0.025300  0.008700  0.029900  1.0  0.2033
  H  H285  1  0.029000  0.748400  0.073100  1.0  0.2959
  H  H286  1  0.855400  0.889600  0.186000  1.0  0.0682
  H  H287  1  0.884100  0.911900  0.138400  1.0  0.124
  H  H288  1  0.911700  0.666900  0.172300  1.0  0.0951
  H  H289  1  0.882300  0.642800  0.219900  1.0  0.1247
  H  H290  1  0.076700  0.207600  0.975000  1.0  0.0729
  H  H291  1  0.053600  0.083400  0.990900  1.0  0.0971
  H  H292  1  0.030400  0.216600  0.095200  1.0  0.1206
  H  H293  1  0.058900  0.333000  0.077800  1.0  0.0921
  H  H294  1  0.090600  0.545800  0.069500  1.0  0.0779
  H  H295  1  0.065300  0.663100  0.090000  1.0  0.1266
  H  H296  1  0.015500  0.553800  0.011700  1.0  0.103
  H  H297  1  0.045500  0.435500  0.991800  1.0  0.0967
  H  H298  1  0.963200  0.016900  0.106800  1.0  0.1095
  H  H299  1  0.017800  0.878400  0.056200  1.0  0.1091
  H  H300  1  0.960800  0.733700  0.090900  1.0  0.1182
  C  C301  1  0.372830  0.785900  0.545000  1.0  0.1528
  C  C302  1  0.357790  0.712600  0.556800  1.0  -0.1366
  C  C303  1  0.352540  0.645200  0.524500  1.0  -0.0744
  C  C304  1  0.361140  0.641200  0.479100  1.0  -0.1638
  C  C305  1  0.377260  0.722200  0.476100  1.0  0.147
  C  C306  1  0.328430  0.558500  0.578800  1.0  0.2876
  C  C307  1  0.187940  0.248800  0.678000  1.0  0.0443
  C  C308  1  0.207190  0.249400  0.644400  1.0  -0.1522
  C  C309  1  0.224990  0.312600  0.659100  1.0  0.0604
  C  C310  1  0.222480  0.359900  0.695000  1.0  -0.1258
  C  C311  1  0.204560  0.346400  0.720700  1.0  0.1225
  C  C312  1  0.262400  0.375000  0.633500  1.0  0.2325
  C  C313  1  0.392340  0.057500  0.526900  1.0  0.1334
  C  C314  1  0.378700  0.129800  0.540400  1.0  -0.1089
  C  C315  1  0.354400  0.126100  0.523800  1.0  0.0676
  C  C316  1  0.345170  0.056300  0.496000  1.0  -0.1102
  C  C317  1  0.360770  0.988000  0.485500  1.0  0.1465
  C  C318  1  0.317510  0.213600  0.538800  1.0  0.4767
  C  C319  1  0.314410  0.462600  0.579100  1.0  -0.0903
  C  C320  1  0.296000  0.461900  0.607400  1.0  -0.0946
  C  C321  1  0.283020  0.379000  0.605900  1.0  -0.0077
  C  C322  1  0.289940  0.297100  0.588000  1.0  -0.1603
  C  C323  1  0.308820  0.299900  0.559000  1.0  -0.0534
  C  C324  1  0.321920  0.385100  0.554400  1.0  -0.1598
  C  C325  1  0.133180  0.341700  0.683200  1.0  0.1604
  C  C326  1  0.115780  0.357900  0.655500  1.0  -0.2331
  C  C327  1  0.097450  0.292500  0.652800  1.0  0.153
  C  C328  1  0.099880  0.214300  0.675700  1.0  -0.1287
  C  C329  1  0.117540  0.197700  0.703400  1.0  0.0949
  C  C330  1  0.067090  0.378500  0.615500  1.0  0.5302
  C  C331  1  0.932140  0.709400  0.500000  1.0  0.1511
  C  C332  1  0.946540  0.636000  0.509000  1.0  -0.1529
  C  C333  1  0.961450  0.634700  0.543600  1.0  0.1379
  C  C334  1  0.960070  0.711700  0.571000  1.0  -0.1151
  C  C335  1  0.943280  0.781800  0.559400  1.0  0.1365
  C  C336  1  0.995520  0.553900  0.572900  1.0  0.5579
  C  C337  1  0.924930  0.046300  0.558500  1.0  0.1326
  C  C338  1  0.939310  0.118500  0.569700  1.0  -0.1255
  C  C339  1  0.961620  0.123200  0.549300  1.0  0.0284
  C  C340  1  0.969000  0.054500  0.522900  1.0  -0.1221
  C  C341  1  0.951260  0.980300  0.512800  1.0  0.1288
  C  C342  1  0.000920  0.203600  0.554300  1.0  0.4478
  C  C343  1  0.042910  0.379100  0.597400  1.0  -0.0603
  C  C344  1  0.030490  0.461600  0.594800  1.0  -0.031
  C  C345  1  0.008730  0.464500  0.574400  1.0  -0.0721
  C  C346  1  0.998250  0.379300  0.564200  1.0  -0.1313
  C  C347  1  0.010840  0.294800  0.565400  1.0  0.0165
  C  C348  1  0.031800  0.291700  0.585200  1.0  -0.0565
  C  C349  1  0.372830  0.714100  0.955000  1.0  0.1524
  C  C350  1  0.357790  0.787400  0.943200  1.0  -0.1354
  C  C351  1  0.352540  0.854800  0.975500  1.0  -0.0734
  C  C352  1  0.361140  0.858800  0.020900  1.0  -0.1628
  C  C353  1  0.377260  0.777800  0.023900  1.0  0.1462
  C  C354  1  0.328430  0.941500  0.921200  1.0  0.2865
  C  C355  1  0.187940  0.251200  0.822000  1.0  0.0431
  C  C356  1  0.207190  0.250600  0.855600  1.0  -0.1537
  C  C357  1  0.224990  0.187400  0.840900  1.0  0.0605
  C  C358  1  0.222480  0.140100  0.805000  1.0  -0.1256
  C  C359  1  0.204560  0.153600  0.779300  1.0  0.121
  C  C360  1  0.262400  0.125000  0.866500  1.0  0.2315
  C  C361  1  0.392340  0.442500  0.973100  1.0  0.1314
  C  C362  1  0.378700  0.370200  0.959600  1.0  -0.1101
  C  C363  1  0.354400  0.373900  0.976200  1.0  0.0676
  C  C364  1  0.345170  0.443700  0.004000  1.0  -0.1105
  C  C365  1  0.360770  0.512000  0.014500  1.0  0.1472
  C  C366  1  0.317510  0.286400  0.961200  1.0  0.4776
  C  C367  1  0.314410  0.037400  0.920900  1.0  -0.0901
  C  C368  1  0.296000  0.038100  0.892600  1.0  -0.0951
  C  C369  1  0.283020  0.121000  0.894100  1.0  -0.0069
  C  C370  1  0.289940  0.202900  0.912000  1.0  -0.1614
  C  C371  1  0.308820  0.200100  0.941000  1.0  -0.0523
  C  C372  1  0.321920  0.114900  0.945600  1.0  -0.1598
  C  C373  1  0.133180  0.158300  0.816800  1.0  0.1613
  C  C374  1  0.115780  0.142100  0.844500  1.0  -0.233
  C  C375  1  0.097450  0.207500  0.847200  1.0  0.1533
  C  C376  1  0.099880  0.285700  0.824300  1.0  -0.1302
  C  C377  1  0.117540  0.302300  0.796600  1.0  0.0937
  C  C378  1  0.067090  0.121500  0.884500  1.0  0.5303
  C  C379  1  0.932140  0.790600  0.000000  1.0  0.1499
  C  C380  1  0.946540  0.864000  0.991000  1.0  -0.1524
  C  C381  1  0.961450  0.865300  0.956400  1.0  0.1351
  C  C382  1  0.960070  0.788300  0.929000  1.0  -0.117
  C  C383  1  0.943280  0.718200  0.940600  1.0  0.1373
  C  C384  1  0.995520  0.946100  0.927100  1.0  0.5549
  C  C385  1  0.924930  0.453700  0.941500  1.0  0.1353
  C  C386  1  0.939310  0.381500  0.930300  1.0  -0.1242
  C  C387  1  0.961620  0.376800  0.950700  1.0  0.0291
  C  C388  1  0.969000  0.445500  0.977100  1.0  -0.1222
  C  C389  1  0.951260  0.519700  0.987200  1.0  0.1277
  C  C390  1  0.000920  0.296400  0.945700  1.0  0.445
  C  C391  1  0.042910  0.120900  0.902600  1.0  -0.0664
  C  C392  1  0.030490  0.038400  0.905200  1.0  -0.0317
  C  C393  1  0.008730  0.035500  0.925600  1.0  -0.0731
  C  C394  1  0.998250  0.120700  0.935800  1.0  -0.1304
  C  C395  1  0.010840  0.205200  0.934600  1.0  0.0155
  C  C396  1  0.031800  0.208300  0.914800  1.0  -0.058
  C  C397  1  0.872830  0.785900  0.455000  1.0  0.1531
  C  C398  1  0.857790  0.712600  0.443200  1.0  -0.136
  C  C399  1  0.852540  0.645200  0.475500  1.0  -0.0734
  C  C400  1  0.861140  0.641200  0.520900  1.0  -0.1631
  C  C401  1  0.877260  0.722200  0.523900  1.0  0.1457
  C  C402  1  0.828430  0.558500  0.421200  1.0  0.2863
  C  C403  1  0.687940  0.248800  0.322000  1.0  0.0447
  C  C404  1  0.707190  0.249400  0.355600  1.0  -0.1523
  C  C405  1  0.724990  0.312600  0.340900  1.0  0.0603
  C  C406  1  0.722480  0.359900  0.305000  1.0  -0.1268
  C  C407  1  0.704560  0.346400  0.279300  1.0  0.1221
  C  C408  1  0.762400  0.375000  0.366500  1.0  0.2325
  C  C409  1  0.892340  0.057500  0.473100  1.0  0.1317
  C  C410  1  0.878700  0.129800  0.459600  1.0  -0.1095
  C  C411  1  0.854400  0.126100  0.476200  1.0  0.0676
  C  C412  1  0.845170  0.056300  0.504000  1.0  -0.1101
  C  C413  1  0.860770  0.988000  0.514500  1.0  0.1466
  C  C414  1  0.817510  0.213600  0.461200  1.0  0.4779
  C  C415  1  0.814410  0.462600  0.420900  1.0  -0.0904
  C  C416  1  0.796000  0.461900  0.392600  1.0  -0.0943
  C  C417  1  0.783020  0.379000  0.394100  1.0  -0.0079
  C  C418  1  0.789940  0.297100  0.412000  1.0  -0.1605
  C  C419  1  0.808820  0.299900  0.441000  1.0  -0.0531
  C  C420  1  0.821920  0.385100  0.445600  1.0  -0.16
  C  C421  1  0.633180  0.341700  0.316800  1.0  0.1601
  C  C422  1  0.615780  0.357900  0.344500  1.0  -0.233
  C  C423  1  0.597450  0.292500  0.347200  1.0  0.1536
  C  C424  1  0.599880  0.214300  0.324300  1.0  -0.129
  C  C425  1  0.617540  0.197700  0.296600  1.0  0.0948
  C  C426  1  0.567090  0.378500  0.384500  1.0  0.5301
  C  C427  1  0.432140  0.709400  0.500000  1.0  0.1498
  C  C428  1  0.446540  0.636000  0.491000  1.0  -0.153
  C  C429  1  0.461450  0.634700  0.456400  1.0  0.135
  C  C430  1  0.460070  0.711700  0.429000  1.0  -0.1172
  C  C431  1  0.443280  0.781800  0.440600  1.0  0.1371
  C  C432  1  0.495520  0.553900  0.427100  1.0  0.5544
  C  C433  1  0.424930  0.046300  0.441500  1.0  0.135
  C  C434  1  0.439310  0.118500  0.430300  1.0  -0.1243
  C  C435  1  0.461620  0.123200  0.450700  1.0  0.0289
  C  C436  1  0.469000  0.054500  0.477100  1.0  -0.1219
  C  C437  1  0.451260  0.980300  0.487200  1.0  0.1279
  C  C438  1  0.500920  0.203600  0.445700  1.0  0.4472
  C  C439  1  0.542910  0.379100  0.402600  1.0  -0.0666
  C  C440  1  0.530490  0.461600  0.405200  1.0  -0.0325
  C  C441  1  0.508730  0.464500  0.425600  1.0  -0.0718
  C  C442  1  0.498250  0.379300  0.435800  1.0  -0.1304
  C  C443  1  0.510840  0.294800  0.434600  1.0  0.0156
  C  C444  1  0.531800  0.291700  0.414800  1.0  -0.0593
  C  C445  1  0.872830  0.714100  0.045000  1.0  0.1535
  C  C446  1  0.857790  0.787400  0.056800  1.0  -0.1362
  C  C447  1  0.852540  0.854800  0.024500  1.0  -0.0745
  C  C448  1  0.861140  0.858800  0.979100  1.0  -0.1626
  C  C449  1  0.877260  0.777800  0.976100  1.0  0.1477
  C  C450  1  0.828430  0.941500  0.078800  1.0  0.2876
  C  C451  1  0.687940  0.251200  0.178000  1.0  0.0435
  C  C452  1  0.707190  0.250600  0.144400  1.0  -0.1537
  C  C453  1  0.724990  0.187400  0.159100  1.0  0.0605
  C  C454  1  0.722480  0.140100  0.195000  1.0  -0.1251
  C  C455  1  0.704560  0.153600  0.220700  1.0  0.1214
  C  C456  1  0.762400  0.125000  0.133500  1.0  0.2313
  C  C457  1  0.892340  0.442500  0.026900  1.0  0.1334
  C  C458  1  0.878700  0.370200  0.040400  1.0  -0.1094
  C  C459  1  0.854400  0.373900  0.023800  1.0  0.0675
  C  C460  1  0.845170  0.443700  0.996000  1.0  -0.1109
  C  C461  1  0.860770  0.512000  0.985500  1.0  0.1471
  C  C462  1  0.817510  0.286400  0.038800  1.0  0.4781
  C  C463  1  0.814410  0.037400  0.079100  1.0  -0.0904
  C  C464  1  0.796000  0.038100  0.107400  1.0  -0.0951
  C  C465  1  0.783020  0.121000  0.105900  1.0  -0.0067
  C  C466  1  0.789940  0.202900  0.088000  1.0  -0.1614
  C  C467  1  0.808820  0.200100  0.059000  1.0  -0.0521
  C  C468  1  0.821920  0.114900  0.054400  1.0  -0.1595
  C  C469  1  0.633180  0.158300  0.183200  1.0  0.1614
  C  C470  1  0.615780  0.142100  0.155500  1.0  -0.233
  C  C471  1  0.597450  0.207500  0.152800  1.0  0.153
  C  C472  1  0.599880  0.285700  0.175700  1.0  -0.1301
  C  C473  1  0.617540  0.302300  0.203400  1.0  0.0935
  C  C474  1  0.567090  0.121500  0.115500  1.0  0.5303
  C  C475  1  0.432140  0.790600  0.000000  1.0  0.1505
  C  C476  1  0.446540  0.864000  0.009000  1.0  -0.1534
  C  C477  1  0.461450  0.865300  0.043600  1.0  0.1375
  C  C478  1  0.460070  0.788300  0.071000  1.0  -0.1153
  C  C479  1  0.443280  0.718200  0.059400  1.0  0.1366
  C  C480  1  0.495520  0.946100  0.072900  1.0  0.5579
  C  C481  1  0.424930  0.453700  0.058500  1.0  0.1331
  C  C482  1  0.439310  0.381500  0.069700  1.0  -0.1238
  C  C483  1  0.461620  0.376800  0.049300  1.0  0.0285
  C  C484  1  0.469000  0.445500  0.022900  1.0  -0.1226
  C  C485  1  0.451260  0.519700  0.012800  1.0  0.1281
  C  C486  1  0.500920  0.296400  0.054300  1.0  0.4458
  C  C487  1  0.542910  0.120900  0.097400  1.0  -0.0606
  C  C488  1  0.530490  0.038400  0.094800  1.0  -0.0324
  C  C489  1  0.508730  0.035500  0.074400  1.0  -0.0721
  C  C490  1  0.498250  0.120700  0.064200  1.0  -0.1314
  C  C491  1  0.510840  0.205200  0.065400  1.0  0.0168
  C  C492  1  0.531800  0.208300  0.085200  1.0  -0.057
  C  C493  1  0.127170  0.214100  0.545000  1.0  0.1536
  C  C494  1  0.142210  0.287400  0.556800  1.0  -0.1359
  C  C495  1  0.147460  0.354800  0.524500  1.0  -0.0743
  C  C496  1  0.138860  0.358800  0.479100  1.0  -0.1633
  C  C497  1  0.122740  0.277800  0.476100  1.0  0.1473
  C  C498  1  0.171570  0.441500  0.578800  1.0  0.2866
  C  C499  1  0.312060  0.751200  0.678000  1.0  0.0431
  C  C500  1  0.292810  0.750600  0.644400  1.0  -0.1536
  C  C501  1  0.275010  0.687400  0.659100  1.0  0.0607
  C  C502  1  0.277520  0.640100  0.695000  1.0  -0.1257
  C  C503  1  0.295440  0.653600  0.720700  1.0  0.1216
  C  C504  1  0.237600  0.625000  0.633500  1.0  0.2312
  C  C505  1  0.107660  0.942500  0.526900  1.0  0.1347
  C  C506  1  0.121300  0.870200  0.540400  1.0  -0.1124
  C  C507  1  0.145600  0.873900  0.523800  1.0  0.0674
  C  C508  1  0.154830  0.943700  0.496000  1.0  -0.1105
  C  C509  1  0.139230  0.012000  0.485500  1.0  0.147
  C  C510  1  0.182490  0.786400  0.538800  1.0  0.4773
  C  C511  1  0.185590  0.537400  0.579100  1.0  -0.0907
  C  C512  1  0.204000  0.538100  0.607400  1.0  -0.0941
  C  C513  1  0.216980  0.621000  0.605900  1.0  -0.007
  C  C514  1  0.210060  0.702900  0.588000  1.0  -0.1616
  C  C515  1  0.191180  0.700100  0.559000  1.0  -0.0526
  C  C516  1  0.178080  0.614900  0.554400  1.0  -0.1603
  C  C517  1  0.366820  0.658300  0.683200  1.0  0.1622
  C  C518  1  0.384220  0.642100  0.655500  1.0  -0.2329
  C  C519  1  0.402550  0.707500  0.652800  1.0  0.1519
  C  C520  1  0.400120  0.785700  0.675700  1.0  -0.1289
  C  C521  1  0.382460  0.802300  0.703400  1.0  0.0938
  C  C522  1  0.432910  0.621500  0.615500  1.0  0.5314
  C  C523  1  0.567860  0.290600  0.500000  1.0  0.1506
  C  C524  1  0.553460  0.364000  0.509000  1.0  -0.1514
  C  C525  1  0.538550  0.365300  0.543600  1.0  0.1376
  C  C526  1  0.539930  0.288300  0.571000  1.0  -0.1174
  C  C527  1  0.556720  0.218200  0.559400  1.0  0.1369
  C  C528  1  0.504480  0.446100  0.572900  1.0  0.5568
  C  C529  1  0.575070  0.953700  0.558500  1.0  0.1317
  C  C530  1  0.560690  0.881500  0.569700  1.0  -0.1226
  C  C531  1  0.538380  0.876800  0.549300  1.0  0.0282
  C  C532  1  0.531000  0.945500  0.522900  1.0  -0.1236
  C  C533  1  0.548740  0.019700  0.512800  1.0  0.1289
  C  C534  1  0.499080  0.796400  0.554300  1.0  0.4456
  C  C535  1  0.457090  0.620900  0.597400  1.0  -0.0599
  C  C536  1  0.469510  0.538400  0.594800  1.0  -0.033
  C  C537  1  0.491270  0.535500  0.574400  1.0  -0.0715
  C  C538  1  0.501750  0.620700  0.564200  1.0  -0.1327
  C  C539  1  0.489160  0.705200  0.565400  1.0  0.017
  C  C540  1  0.468200  0.708300  0.585200  1.0  -0.0574
  C  C541  1  0.127170  0.285900  0.955000  1.0  0.153
  C  C542  1  0.142210  0.212600  0.943200  1.0  -0.1361
  C  C543  1  0.147460  0.145200  0.975500  1.0  -0.0725
  C  C544  1  0.138860  0.141200  0.020900  1.0  -0.1612
  C  C545  1  0.122740  0.222200  0.023900  1.0  0.1462
  C  C546  1  0.171570  0.058500  0.921200  1.0  0.2852
  C  C547  1  0.312060  0.748800  0.822000  1.0  0.0439
  C  C548  1  0.292810  0.749400  0.855600  1.0  -0.1524
  C  C549  1  0.275010  0.812600  0.840900  1.0  0.0608
  C  C550  1  0.277520  0.859900  0.805000  1.0  -0.1262
  C  C551  1  0.295440  0.846400  0.779300  1.0  0.1219
  C  C552  1  0.237600  0.875000  0.866500  1.0  0.2325
  C  C553  1  0.107660  0.557500  0.973100  1.0  0.1333
  C  C554  1  0.121300  0.629800  0.959600  1.0  -0.1108
  C  C555  1  0.145600  0.626100  0.976200  1.0  0.0674
  C  C556  1  0.154830  0.556300  0.004000  1.0  -0.1096
  C  C557  1  0.139230  0.488000  0.014500  1.0  0.1467
  C  C558  1  0.182490  0.713600  0.961200  1.0  0.478
  C  C559  1  0.185590  0.962600  0.920900  1.0  -0.0907
  C  C560  1  0.204000  0.961900  0.892600  1.0  -0.0937
  C  C561  1  0.216980  0.879000  0.894100  1.0  -0.0076
  C  C562  1  0.210060  0.797100  0.912000  1.0  -0.1612
  C  C563  1  0.191180  0.799900  0.941000  1.0  -0.054
  C  C564  1  0.178080  0.885100  0.945600  1.0  -0.1612
  C  C565  1  0.366820  0.841700  0.816800  1.0  0.1592
  C  C566  1  0.384220  0.857900  0.844500  1.0  -0.2324
  C  C567  1  0.402550  0.792500  0.847200  1.0  0.1523
  C  C568  1  0.400120  0.714300  0.824300  1.0  -0.1286
  C  C569  1  0.382460  0.697700  0.796600  1.0  0.0943
  C  C570  1  0.432910  0.878500  0.884500  1.0  0.5314
  C  C571  1  0.567860  0.209400  0.000000  1.0  0.1494
  C  C572  1  0.553460  0.136000  0.991000  1.0  -0.1519
  C  C573  1  0.538550  0.134700  0.956400  1.0  0.1341
  C  C574  1  0.539930  0.211700  0.929000  1.0  -0.1171
  C  C575  1  0.556720  0.281800  0.940600  1.0  0.1368
  C  C576  1  0.504480  0.053900  0.927100  1.0  0.5548
  C  C577  1  0.575070  0.546300  0.941500  1.0  0.1327
  C  C578  1  0.560690  0.618500  0.930300  1.0  -0.1242
  C  C579  1  0.538380  0.623200  0.950700  1.0  0.0286
  C  C580  1  0.531000  0.554500  0.977100  1.0  -0.1231
  C  C581  1  0.548740  0.480300  0.987200  1.0  0.1287
  C  C582  1  0.499080  0.703600  0.945700  1.0  0.4466
  C  C583  1  0.457090  0.879100  0.902600  1.0  -0.066
  C  C584  1  0.469510  0.961600  0.905200  1.0  -0.0322
  C  C585  1  0.491270  0.964500  0.925600  1.0  -0.0717
  C  C586  1  0.501750  0.879300  0.935800  1.0  -0.1319
  C  C587  1  0.489160  0.794800  0.934600  1.0  0.016
  C  C588  1  0.468200  0.791700  0.914800  1.0  -0.06
  C  C589  1  0.627170  0.214100  0.455000  1.0  0.1526
  C  C590  1  0.642210  0.287400  0.443200  1.0  -0.1355
  C  C591  1  0.647460  0.354800  0.475500  1.0  -0.0727
  C  C592  1  0.638860  0.358800  0.520900  1.0  -0.1608
  C  C593  1  0.622740  0.277800  0.523900  1.0  0.1464
  C  C594  1  0.671570  0.441500  0.421200  1.0  0.2855
  C  C595  1  0.812060  0.751200  0.322000  1.0  0.0428
  C  C596  1  0.792810  0.750600  0.355600  1.0  -0.1541
  C  C597  1  0.775010  0.687400  0.340900  1.0  0.0611
  C  C598  1  0.777520  0.640100  0.305000  1.0  -0.1259
  C  C599  1  0.795440  0.653600  0.279300  1.0  0.1213
  C  C600  1  0.737600  0.625000  0.366500  1.0  0.2314
  C  C601  1  0.607660  0.942500  0.473100  1.0  0.1333
  C  C602  1  0.621300  0.870200  0.459600  1.0  -0.1113
  C  C603  1  0.645600  0.873900  0.476200  1.0  0.0674
  C  C604  1  0.654830  0.943700  0.504000  1.0  -0.1103
  C  C605  1  0.639230  0.012000  0.514500  1.0  0.1477
  C  C606  1  0.682490  0.786400  0.461200  1.0  0.4774
  C  C607  1  0.685590  0.537400  0.420900  1.0  -0.0904
  C  C608  1  0.704000  0.538100  0.392600  1.0  -0.0943
  C  C609  1  0.716980  0.621000  0.394100  1.0  -0.0072
  C  C610  1  0.710060  0.702900  0.412000  1.0  -0.1616
  C  C611  1  0.691180  0.700100  0.441000  1.0  -0.0534
  C  C612  1  0.678080  0.614900  0.445600  1.0  -0.161
  C  C613  1  0.866820  0.658300  0.316800  1.0  0.1617
  C  C614  1  0.884220  0.642100  0.344500  1.0  -0.2329
  C  C615  1  0.902550  0.707500  0.347200  1.0  0.1525
  C  C616  1  0.900120  0.785700  0.324300  1.0  -0.1288
  C  C617  1  0.882460  0.802300  0.296600  1.0  0.094
  C  C618  1  0.932910  0.621500  0.384500  1.0  0.5324
  C  C619  1  0.067860  0.290600  0.500000  1.0  0.1495
  C  C620  1  0.053460  0.364000  0.491000  1.0  -0.1513
  C  C621  1  0.038550  0.365300  0.456400  1.0  0.1341
  C  C622  1  0.039930  0.288300  0.429000  1.0  -0.1169
  C  C623  1  0.056720  0.218200  0.440600  1.0  0.1372
  C  C624  1  0.004480  0.446100  0.427100  1.0  0.5553
  C  C625  1  0.075070  0.953700  0.441500  1.0  0.1329
  C  C626  1  0.060690  0.881500  0.430300  1.0  -0.1247
  C  C627  1  0.038380  0.876800  0.450700  1.0  0.0289
  C  C628  1  0.031000  0.945500  0.477100  1.0  -0.1232
  C  C629  1  0.048740  0.019700  0.487200  1.0  0.1285
  C  C630  1  0.999080  0.796400  0.445700  1.0  0.4447
  C  C631  1  0.957090  0.620900  0.402600  1.0  -0.0658
  C  C632  1  0.969510  0.538400  0.405200  1.0  -0.0309
  C  C633  1  0.991270  0.535500  0.425600  1.0  -0.0728
  C  C634  1  0.001750  0.620700  0.435800  1.0  -0.1319
  C  C635  1  0.989160  0.705200  0.434600  1.0  0.0157
  C  C636  1  0.968200  0.708300  0.414800  1.0  -0.0586
  C  C637  1  0.627170  0.285900  0.045000  1.0  0.153
  C  C638  1  0.642210  0.212600  0.056800  1.0  -0.1364
  C  C639  1  0.647460  0.145200  0.024500  1.0  -0.0742
  C  C640  1  0.638860  0.141200  0.979100  1.0  -0.165
  C  C641  1  0.622740  0.222200  0.976100  1.0  0.1466
  C  C642  1  0.671570  0.058500  0.078800  1.0  0.2865
  C  C643  1  0.812060  0.748800  0.178000  1.0  0.0438
  C  C644  1  0.792810  0.749400  0.144400  1.0  -0.1524
  C  C645  1  0.775010  0.812600  0.159100  1.0  0.0605
  C  C646  1  0.777520  0.859900  0.195000  1.0  -0.1258
  C  C647  1  0.795440  0.846400  0.220700  1.0  0.1221
  C  C648  1  0.737600  0.875000  0.133500  1.0  0.2324
  C  C649  1  0.607660  0.557500  0.026900  1.0  0.1347
  C  C650  1  0.621300  0.629800  0.040400  1.0  -0.1121
  C  C651  1  0.645600  0.626100  0.023800  1.0  0.0674
  C  C652  1  0.654830  0.556300  0.996000  1.0  -0.1096
  C  C653  1  0.639230  0.488000  0.985500  1.0  0.1465
  C  C654  1  0.682490  0.713600  0.038800  1.0  0.4765
  C  C655  1  0.685590  0.962600  0.079100  1.0  -0.0906
  C  C656  1  0.704000  0.961900  0.107400  1.0  -0.0939
  C  C657  1  0.716980  0.879000  0.105900  1.0  -0.0074
  C  C658  1  0.710060  0.797100  0.088000  1.0  -0.161
  C  C659  1  0.691180  0.799900  0.059000  1.0  -0.0537
  C  C660  1  0.678080  0.885100  0.054400  1.0  -0.1605
  C  C661  1  0.866820  0.841700  0.183200  1.0  0.1599
  C  C662  1  0.884220  0.857900  0.155500  1.0  -0.2325
  C  C663  1  0.902550  0.792500  0.152800  1.0  0.1517
  C  C664  1  0.900120  0.714300  0.175700  1.0  -0.1283
  C  C665  1  0.882460  0.697700  0.203400  1.0  0.0944
  C  C666  1  0.932910  0.878500  0.115500  1.0  0.5307
  C  C667  1  0.067860  0.209400  0.000000  1.0  0.1511
  C  C668  1  0.053460  0.136000  0.009000  1.0  -0.1514
  C  C669  1  0.038550  0.134700  0.043600  1.0  0.1382
  C  C670  1  0.039930  0.211700  0.071000  1.0  -0.117
  C  C671  1  0.056720  0.281800  0.059400  1.0  0.1369
  C  C672  1  0.004480  0.053900  0.072900  1.0  0.5569
  C  C673  1  0.075070  0.546300  0.058500  1.0  0.1316
  C  C674  1  0.060690  0.618500  0.069700  1.0  -0.1235
  C  C675  1  0.038380  0.623200  0.049300  1.0  0.028
  C  C676  1  0.031000  0.554500  0.022900  1.0  -0.1232
  C  C677  1  0.048740  0.480300  0.012800  1.0  0.1296
  C  C678  1  0.999080  0.703600  0.054300  1.0  0.4472
  C  C679  1  0.957090  0.879100  0.097400  1.0  -0.0596
  C  C680  1  0.969510  0.961600  0.094800  1.0  -0.0327
  C  C681  1  0.991270  0.964500  0.074400  1.0  -0.0715
  C  C682  1  0.001750  0.879300  0.064200  1.0  -0.1327
  C  C683  1  0.989160  0.794800  0.065400  1.0  0.0168
  C  C684  1  0.968200  0.791700  0.085200  1.0  -0.0574
  N  N685  1  0.382770  0.788900  0.505100  1.0  -0.3247
  N  N686  1  0.184390  0.280100  0.712390  1.0  -0.2915
  N  N687  1  0.384760  0.984200  0.498500  1.0  -0.3321
  N  N688  1  0.338150  0.568100  0.541000  1.0  -0.4167
  N  N689  1  0.243910  0.318400  0.628600  1.0  -0.4068
  N  N690  1  0.340890  0.204900  0.540100  1.0  -0.4154
  N  N691  1  0.136180  0.266800  0.706810  1.0  -0.3362
  N  N692  1  0.930020  0.779900  0.523400  1.0  -0.3245
  N  N693  1  0.930860  0.977800  0.533600  1.0  -0.3152
  N  N694  1  0.076330  0.305300  0.629500  1.0  -0.3754
  N  N695  1  0.977140  0.556900  0.546300  1.0  -0.3997
  N  N696  1  0.977470  0.200000  0.560800  1.0  -0.4205
  N  N697  1  0.382770  0.711100  0.994900  1.0  -0.325
  N  N698  1  0.184390  0.219900  0.787610  1.0  -0.2908
  N  N699  1  0.384760  0.515800  0.001500  1.0  -0.3317
  N  N700  1  0.338150  0.931900  0.959000  1.0  -0.4169
  N  N701  1  0.243910  0.181600  0.871400  1.0  -0.4073
  N  N702  1  0.340890  0.295100  0.959900  1.0  -0.4159
  N  N703  1  0.136180  0.233200  0.793190  1.0  -0.3363
  N  N704  1  0.930020  0.720100  0.976600  1.0  -0.3252
  N  N705  1  0.930860  0.522200  0.966400  1.0  -0.3152
  N  N706  1  0.076330  0.194700  0.870500  1.0  -0.3732
  N  N707  1  0.977140  0.943100  0.953700  1.0  -0.3979
  N  N708  1  0.977470  0.300000  0.939200  1.0  -0.4195
  N  N709  1  0.882770  0.788900  0.494900  1.0  -0.3243
  N  N710  1  0.684390  0.280100  0.287610  1.0  -0.2903
  N  N711  1  0.884760  0.984200  0.501500  1.0  -0.3319
  N  N712  1  0.838150  0.568100  0.459000  1.0  -0.4181
  N  N713  1  0.743910  0.318400  0.371400  1.0  -0.4074
  N  N714  1  0.840890  0.204900  0.459900  1.0  -0.4152
  N  N715  1  0.636180  0.266800  0.293190  1.0  -0.3365
  N  N716  1  0.430020  0.779900  0.476600  1.0  -0.3243
  N  N717  1  0.430860  0.977800  0.466400  1.0  -0.316
  N  N718  1  0.576330  0.305300  0.370500  1.0  -0.3741
  N  N719  1  0.477140  0.556900  0.453700  1.0  -0.3983
  N  N720  1  0.477470  0.200000  0.439200  1.0  -0.4201
  N  N721  1  0.882770  0.711100  0.005100  1.0  -0.3254
  N  N722  1  0.684390  0.219900  0.212390  1.0  -0.2916
  N  N723  1  0.884760  0.515800  0.998500  1.0  -0.3321
  N  N724  1  0.838150  0.931900  0.041000  1.0  -0.4166
  N  N725  1  0.743910  0.181600  0.128600  1.0  -0.407
  N  N726  1  0.840890  0.295100  0.040100  1.0  -0.4158
  N  N727  1  0.636180  0.233200  0.206810  1.0  -0.3365
  N  N728  1  0.430020  0.720100  0.023400  1.0  -0.3252
  N  N729  1  0.430860  0.522200  0.033600  1.0  -0.3143
  N  N730  1  0.576330  0.194700  0.129500  1.0  -0.3744
  N  N731  1  0.477140  0.943100  0.046300  1.0  -0.3991
  N  N732  1  0.477470  0.300000  0.060800  1.0  -0.4202
  N  N733  1  0.117230  0.211100  0.505100  1.0  -0.3256
  N  N734  1  0.315610  0.719900  0.712390  1.0  -0.2895
  N  N735  1  0.115240  0.015800  0.498500  1.0  -0.3325
  N  N736  1  0.161850  0.431900  0.541000  1.0  -0.4164
  N  N737  1  0.256090  0.681600  0.628600  1.0  -0.4069
  N  N738  1  0.159110  0.795100  0.540100  1.0  -0.4163
  N  N739  1  0.363820  0.733200  0.706810  1.0  -0.3364
  N  N740  1  0.569980  0.220100  0.523400  1.0  -0.3241
  N  N741  1  0.569140  0.022200  0.533600  1.0  -0.314
  N  N742  1  0.423670  0.694700  0.629500  1.0  -0.3726
  N  N743  1  0.522860  0.443100  0.546300  1.0  -0.3982
  N  N744  1  0.522530  0.800000  0.560800  1.0  -0.4192
  N  N745  1  0.117230  0.288900  0.994900  1.0  -0.3245
  N  N746  1  0.315610  0.780100  0.787610  1.0  -0.2884
  N  N747  1  0.115240  0.484200  0.001500  1.0  -0.3325
  N  N748  1  0.161850  0.068100  0.959000  1.0  -0.4164
  N  N749  1  0.256090  0.818400  0.871400  1.0  -0.407
  N  N750  1  0.159110  0.704900  0.959900  1.0  -0.4152
  N  N751  1  0.363820  0.766800  0.793190  1.0  -0.3365
  N  N752  1  0.569980  0.279900  0.976600  1.0  -0.324
  N  N753  1  0.569140  0.477800  0.966400  1.0  -0.3159
  N  N754  1  0.423670  0.805300  0.870500  1.0  -0.3731
  N  N755  1  0.522860  0.056900  0.953700  1.0  -0.3982
  N  N756  1  0.522530  0.700000  0.939200  1.0  -0.42
  N  N757  1  0.617230  0.211100  0.494900  1.0  -0.3251
  N  N758  1  0.815610  0.719900  0.287610  1.0  -0.2888
  N  N759  1  0.615240  0.015800  0.501500  1.0  -0.3321
  N  N760  1  0.661850  0.431900  0.459000  1.0  -0.4157
  N  N761  1  0.756090  0.681600  0.371400  1.0  -0.4071
  N  N762  1  0.659110  0.795100  0.459900  1.0  -0.4164
  N  N763  1  0.863820  0.733200  0.293190  1.0  -0.3364
  N  N764  1  0.069980  0.220100  0.476600  1.0  -0.3244
  N  N765  1  0.069140  0.022200  0.466400  1.0  -0.315
  N  N766  1  0.923670  0.694700  0.370500  1.0  -0.3722
  N  N767  1  0.022860  0.443100  0.453700  1.0  -0.3976
  N  N768  1  0.022530  0.800000  0.439200  1.0  -0.4191
  N  N769  1  0.617230  0.288900  0.005100  1.0  -0.325
  N  N770  1  0.815610  0.780100  0.212390  1.0  -0.2893
  N  N771  1  0.615240  0.484200  0.998500  1.0  -0.3327
  N  N772  1  0.661850  0.068100  0.041000  1.0  -0.416
  N  N773  1  0.756090  0.818400  0.128600  1.0  -0.4069
  N  N774  1  0.659110  0.704900  0.040100  1.0  -0.4153
  N  N775  1  0.863820  0.766800  0.206810  1.0  -0.336
  N  N776  1  0.069980  0.279900  0.023400  1.0  -0.3239
  N  N777  1  0.069140  0.477800  0.033600  1.0  -0.3153
  N  N778  1  0.923670  0.805300  0.129500  1.0  -0.374
  N  N779  1  0.022860  0.056900  0.046300  1.0  -0.3993
  N  N780  1  0.022530  0.700000  0.060800  1.0  -0.4204
  O  O781  1  0.329160  0.607300  0.606100  1.0  -0.4704
  O  O782  1  0.267770  0.412200  0.675700  1.0  -0.6065
  O  O783  1  0.303190  0.153500  0.524600  1.0  -0.5114
  O  O784  1  0.077930  0.457800  0.618300  1.0  -0.4803
  O  O785  1  0.002940  0.621600  0.593200  1.0  -0.5093
  O  O786  1  0.012260  0.145800  0.536800  1.0  -0.4731
  O  O787  1  0.329160  0.892700  0.893900  1.0  -0.4688
  O  O788  1  0.267770  0.087800  0.824300  1.0  -0.6035
  O  O789  1  0.303190  0.346500  0.975400  1.0  -0.5103
  O  O790  1  0.077930  0.042200  0.881700  1.0  -0.4807
  O  O791  1  0.002940  0.878400  0.906800  1.0  -0.5129
  O  O792  1  0.012260  0.354200  0.963200  1.0  -0.474
  O  O793  1  0.829160  0.607300  0.393900  1.0  -0.4687
  O  O794  1  0.767770  0.412200  0.324300  1.0  -0.6036
  O  O795  1  0.803190  0.153500  0.475400  1.0  -0.5105
  O  O796  1  0.577930  0.457800  0.381700  1.0  -0.4798
  O  O797  1  0.502940  0.621600  0.406800  1.0  -0.5142
  O  O798  1  0.512260  0.145800  0.463200  1.0  -0.4735
  O  O799  1  0.829160  0.892700  0.106100  1.0  -0.4706
  O  O800  1  0.767770  0.087800  0.175700  1.0  -0.607
  O  O801  1  0.803190  0.346500  0.024600  1.0  -0.5113
  O  O802  1  0.577930  0.042200  0.118300  1.0  -0.4819
  O  O803  1  0.502940  0.878400  0.093200  1.0  -0.513
  O  O804  1  0.512260  0.354200  0.036800  1.0  -0.4742
  O  O805  1  0.170840  0.392700  0.606100  1.0  -0.4707
  O  O806  1  0.232230  0.587800  0.675700  1.0  -0.6074
  O  O807  1  0.196810  0.846500  0.524600  1.0  -0.5108
  O  O808  1  0.422070  0.542200  0.618300  1.0  -0.4868
  O  O809  1  0.497060  0.378400  0.593200  1.0  -0.5132
  O  O810  1  0.487740  0.854200  0.536800  1.0  -0.4746
  O  O811  1  0.170840  0.107300  0.893900  1.0  -0.4689
  O  O812  1  0.232230  0.912200  0.824300  1.0  -0.6034
  O  O813  1  0.196810  0.653500  0.975400  1.0  -0.5113
  O  O814  1  0.422070  0.957800  0.881700  1.0  -0.4759
  O  O815  1  0.497060  0.121600  0.906800  1.0  -0.513
  O  O816  1  0.487740  0.645800  0.963200  1.0  -0.4749
  O  O817  1  0.670840  0.392700  0.393900  1.0  -0.469
  O  O818  1  0.732230  0.587800  0.324300  1.0  -0.6033
  O  O819  1  0.696810  0.846500  0.475400  1.0  -0.5108
  O  O820  1  0.922070  0.542200  0.381700  1.0  -0.486
  O  O821  1  0.997060  0.378400  0.406800  1.0  -0.5113
  O  O822  1  0.987740  0.854200  0.463200  1.0  -0.4751
  O  O823  1  0.670840  0.107300  0.106100  1.0  -0.4705
  O  O824  1  0.732230  0.912200  0.175700  1.0  -0.6064
  O  O825  1  0.696810  0.653500  0.024600  1.0  -0.511
  O  O826  1  0.922070  0.957800  0.118300  1.0  -0.4759
  O  O827  1  0.997060  0.121600  0.093200  1.0  -0.5108
  O  O828  1  0.987740  0.645800  0.036800  1.0  -0.474
