# generated using pymatgen
data_ZnH16(C5N2)4
_symmetry_space_group_name_H-M   'P 1'
_cell_length_a   32.70200000
_cell_length_b   32.70200000
_cell_length_c   32.70200000
_cell_angle_alpha   90.00000000
_cell_angle_beta   90.00000000
_cell_angle_gamma   90.00000000
_symmetry_Int_Tables_number   1
_chemical_formula_structural   ZnH16(C5N2)4
_chemical_formula_sum   'Zn48 H768 C960 N384'
_cell_volume   34972.19913241
_cell_formula_units_Z   48
loop_
 _symmetry_equiv_pos_site_id
 _symmetry_equiv_pos_as_xyz
  1  'x, y, z'
loop_
 _atom_site_type_symbol
 _atom_site_label
 _atom_site_symmetry_multiplicity
 _atom_site_fract_x
 _atom_site_fract_y
 _atom_site_fract_z
 _atom_site_occupancy
 _atom_site_charge
  Zn  Zn1  1  0.625000  0.375000  0.125000  1.0  0.793
  Zn  Zn2  1  0.625000  0.875000  0.625000  1.0  0.793
  Zn  Zn3  1  0.625000  0.375000  0.625000  1.0  0.793
  Zn  Zn4  1  0.125000  0.875000  0.125000  1.0  0.793
  Zn  Zn5  1  0.125000  0.875000  0.625000  1.0  0.793
  Zn  Zn6  1  0.125000  0.375000  0.125000  1.0  0.793
  Zn  Zn7  1  0.125000  0.625000  0.375000  1.0  0.793
  Zn  Zn8  1  0.625000  0.625000  0.875000  1.0  0.793
  Zn  Zn9  1  0.625000  0.625000  0.375000  1.0  0.793
  Zn  Zn10  1  0.125000  0.125000  0.875000  1.0  0.793
  Zn  Zn11  1  0.625000  0.125000  0.875000  1.0  0.793
  Zn  Zn12  1  0.375000  0.125000  0.625000  1.0  0.793
  Zn  Zn13  1  0.875000  0.625000  0.625000  1.0  0.793
  Zn  Zn14  1  0.375000  0.625000  0.625000  1.0  0.793
  Zn  Zn15  1  0.375000  0.125000  0.125000  1.0  0.793
  Zn  Zn16  1  0.875000  0.125000  0.125000  1.0  0.793
  Zn  Zn17  1  0.875000  0.625000  0.125000  1.0  0.793
  Zn  Zn18  1  0.375000  0.625000  0.125000  1.0  0.793
  Zn  Zn19  1  0.875000  0.125000  0.625000  1.0  0.793
  Zn  Zn20  1  0.625000  0.125000  0.375000  1.0  0.793
  Zn  Zn21  1  0.125000  0.625000  0.875000  1.0  0.793
  Zn  Zn22  1  0.125000  0.125000  0.375000  1.0  0.793
  Zn  Zn23  1  0.125000  0.375000  0.625000  1.0  0.793
  Zn  Zn24  1  0.625000  0.875000  0.125000  1.0  0.793
  Zn  Zn25  1  0.125000  0.875000  0.875000  1.0  0.793
  Zn  Zn26  1  0.125000  0.375000  0.375000  1.0  0.793
  Zn  Zn27  1  0.125000  0.875000  0.375000  1.0  0.793
  Zn  Zn28  1  0.625000  0.375000  0.875000  1.0  0.793
  Zn  Zn29  1  0.625000  0.375000  0.375000  1.0  0.793
  Zn  Zn30  1  0.625000  0.875000  0.875000  1.0  0.793
  Zn  Zn31  1  0.375000  0.375000  0.625000  1.0  0.793
  Zn  Zn32  1  0.375000  0.875000  0.625000  1.0  0.793
  Zn  Zn33  1  0.375000  0.375000  0.125000  1.0  0.793
  Zn  Zn34  1  0.875000  0.375000  0.125000  1.0  0.793
  Zn  Zn35  1  0.875000  0.875000  0.625000  1.0  0.793
  Zn  Zn36  1  0.875000  0.875000  0.125000  1.0  0.793
  Zn  Zn37  1  0.875000  0.625000  0.375000  1.0  0.793
  Zn  Zn38  1  0.375000  0.625000  0.375000  1.0  0.793
  Zn  Zn39  1  0.875000  0.125000  0.875000  1.0  0.793
  Zn  Zn40  1  0.375000  0.125000  0.875000  1.0  0.793
  Zn  Zn41  1  0.375000  0.625000  0.875000  1.0  0.793
  Zn  Zn42  1  0.375000  0.125000  0.375000  1.0  0.793
  Zn  Zn43  1  0.875000  0.125000  0.375000  1.0  0.793
  Zn  Zn44  1  0.875000  0.625000  0.875000  1.0  0.793
  Zn  Zn45  1  0.875000  0.375000  0.625000  1.0  0.793
  Zn  Zn46  1  0.375000  0.875000  0.125000  1.0  0.793
  Zn  Zn47  1  0.625000  0.875000  0.375000  1.0  0.793
  Zn  Zn48  1  0.125000  0.375000  0.875000  1.0  0.793
  H  H49  1  0.711800  0.343100  0.156100  1.0  0.0726
  H  H50  1  0.752500  0.290300  0.120900  1.0  0.0954
  H  H51  1  0.648100  0.307500  0.061600  1.0  0.0749
  H  H52  1  0.663400  0.261700  0.016900  1.0  0.0906
  H  H53  1  0.711800  0.843100  0.656100  1.0  0.0726
  H  H54  1  0.752500  0.790300  0.620900  1.0  0.0954
  H  H55  1  0.648100  0.807500  0.561600  1.0  0.0749
  H  H56  1  0.663400  0.761700  0.516900  1.0  0.0906
  H  H57  1  0.211800  0.343100  0.656100  1.0  0.0726
  H  H58  1  0.252500  0.290300  0.620900  1.0  0.0954
  H  H59  1  0.148100  0.307500  0.561600  1.0  0.0749
  H  H60  1  0.163400  0.261700  0.516900  1.0  0.0906
  H  H61  1  0.211800  0.843100  0.156100  1.0  0.0726
  H  H62  1  0.252500  0.790300  0.120900  1.0  0.0954
  H  H63  1  0.148100  0.807500  0.061600  1.0  0.0749
  H  H64  1  0.163400  0.761700  0.016900  1.0  0.0906
  H  H65  1  0.538200  0.406900  0.656100  1.0  0.0729
  H  H66  1  0.497500  0.459700  0.620900  1.0  0.0949
  H  H67  1  0.601900  0.442500  0.561600  1.0  0.075
  H  H68  1  0.586600  0.488300  0.516900  1.0  0.0923
  H  H69  1  0.538200  0.906900  0.156100  1.0  0.0729
  H  H70  1  0.497500  0.959700  0.120900  1.0  0.0949
  H  H71  1  0.601900  0.942500  0.061600  1.0  0.075
  H  H72  1  0.586600  0.988300  0.016900  1.0  0.0923
  H  H73  1  0.038200  0.406900  0.156100  1.0  0.0729
  H  H74  1  0.997500  0.459700  0.120900  1.0  0.0949
  H  H75  1  0.101900  0.442500  0.061600  1.0  0.075
  H  H76  1  0.086600  0.488300  0.016900  1.0  0.0923
  H  H77  1  0.038200  0.906900  0.656100  1.0  0.0729
  H  H78  1  0.997500  0.959700  0.620900  1.0  0.0949
  H  H79  1  0.101900  0.942500  0.561600  1.0  0.075
  H  H80  1  0.086600  0.988300  0.516900  1.0  0.0923
  H  H81  1  0.038200  0.843100  0.093900  1.0  0.0725
  H  H82  1  0.997500  0.790300  0.129100  1.0  0.0951
  H  H83  1  0.101900  0.807500  0.188400  1.0  0.0755
  H  H84  1  0.086600  0.761700  0.233100  1.0  0.0911
  H  H85  1  0.038200  0.343100  0.593900  1.0  0.0725
  H  H86  1  0.997500  0.290300  0.629100  1.0  0.0951
  H  H87  1  0.101900  0.307500  0.688400  1.0  0.0755
  H  H88  1  0.086600  0.261700  0.733100  1.0  0.0911
  H  H89  1  0.538200  0.843100  0.593900  1.0  0.0725
  H  H90  1  0.497500  0.790300  0.629100  1.0  0.0951
  H  H91  1  0.601900  0.807500  0.688400  1.0  0.0755
  H  H92  1  0.586600  0.761700  0.733100  1.0  0.0911
  H  H93  1  0.538200  0.343100  0.093900  1.0  0.0725
  H  H94  1  0.497500  0.290300  0.129100  1.0  0.0951
  H  H95  1  0.601900  0.307500  0.188400  1.0  0.0755
  H  H96  1  0.586600  0.261700  0.233100  1.0  0.0911
  H  H97  1  0.211800  0.906900  0.593900  1.0  0.0731
  H  H98  1  0.252500  0.959700  0.629100  1.0  0.0953
  H  H99  1  0.148100  0.942500  0.688400  1.0  0.0754
  H  H100  1  0.163400  0.988300  0.733100  1.0  0.0899
  H  H101  1  0.211800  0.406900  0.093900  1.0  0.0731
  H  H102  1  0.252500  0.459700  0.129100  1.0  0.0953
  H  H103  1  0.148100  0.442500  0.188400  1.0  0.0754
  H  H104  1  0.163400  0.488300  0.233100  1.0  0.0899
  H  H105  1  0.711800  0.906900  0.093900  1.0  0.0731
  H  H106  1  0.752500  0.959700  0.129100  1.0  0.0953
  H  H107  1  0.648100  0.942500  0.188400  1.0  0.0754
  H  H108  1  0.663400  0.988300  0.233100  1.0  0.0899
  H  H109  1  0.711800  0.406900  0.593900  1.0  0.0731
  H  H110  1  0.752500  0.459700  0.629100  1.0  0.0953
  H  H111  1  0.648100  0.442500  0.688400  1.0  0.0754
  H  H112  1  0.663400  0.488300  0.733100  1.0  0.0899
  H  H113  1  0.156100  0.711800  0.343100  1.0  0.0705
  H  H114  1  0.120900  0.752500  0.290300  1.0  0.0941
  H  H115  1  0.061600  0.648100  0.307500  1.0  0.0761
  H  H116  1  0.016900  0.663400  0.261700  1.0  0.0887
  H  H117  1  0.156100  0.211800  0.843100  1.0  0.0705
  H  H118  1  0.120900  0.252500  0.790300  1.0  0.0941
  H  H119  1  0.061600  0.148100  0.807500  1.0  0.0761
  H  H120  1  0.016900  0.163400  0.761700  1.0  0.0887
  H  H121  1  0.656100  0.711800  0.843100  1.0  0.0705
  H  H122  1  0.620900  0.752500  0.790300  1.0  0.0941
  H  H123  1  0.561600  0.648100  0.807500  1.0  0.0761
  H  H124  1  0.516900  0.663400  0.761700  1.0  0.0887
  H  H125  1  0.656100  0.211800  0.343100  1.0  0.0705
  H  H126  1  0.620900  0.252500  0.290300  1.0  0.0941
  H  H127  1  0.561600  0.148100  0.307500  1.0  0.0761
  H  H128  1  0.516900  0.163400  0.261700  1.0  0.0887
  H  H129  1  0.656100  0.538200  0.406900  1.0  0.07
  H  H130  1  0.620900  0.497500  0.459700  1.0  0.0942
  H  H131  1  0.561600  0.601900  0.442500  1.0  0.0764
  H  H132  1  0.516900  0.586600  0.488300  1.0  0.0885
  H  H133  1  0.656100  0.038200  0.906900  1.0  0.07
  H  H134  1  0.620900  0.997500  0.959700  1.0  0.0942
  H  H135  1  0.561600  0.101900  0.942500  1.0  0.0764
  H  H136  1  0.516900  0.086600  0.988300  1.0  0.0885
  H  H137  1  0.156100  0.538200  0.906900  1.0  0.07
  H  H138  1  0.120900  0.497500  0.959700  1.0  0.0942
  H  H139  1  0.061600  0.601900  0.942500  1.0  0.0764
  H  H140  1  0.016900  0.586600  0.988300  1.0  0.0885
  H  H141  1  0.156100  0.038200  0.406900  1.0  0.07
  H  H142  1  0.120900  0.997500  0.459700  1.0  0.0942
  H  H143  1  0.061600  0.101900  0.442500  1.0  0.0764
  H  H144  1  0.016900  0.086600  0.488300  1.0  0.0885
  H  H145  1  0.093900  0.038200  0.843100  1.0  0.0706
  H  H146  1  0.129100  0.997500  0.790300  1.0  0.0946
  H  H147  1  0.188400  0.101900  0.807500  1.0  0.0763
  H  H148  1  0.233100  0.086600  0.761700  1.0  0.0883
  H  H149  1  0.093900  0.538200  0.343100  1.0  0.0706
  H  H150  1  0.129100  0.497500  0.290300  1.0  0.0946
  H  H151  1  0.188400  0.601900  0.307500  1.0  0.0763
  H  H152  1  0.233100  0.586600  0.261700  1.0  0.0883
  H  H153  1  0.593900  0.038200  0.343100  1.0  0.0706
  H  H154  1  0.629100  0.997500  0.290300  1.0  0.0946
  H  H155  1  0.688400  0.101900  0.307500  1.0  0.0763
  H  H156  1  0.733100  0.086600  0.261700  1.0  0.0883
  H  H157  1  0.593900  0.538200  0.843100  1.0  0.0706
  H  H158  1  0.629100  0.497500  0.790300  1.0  0.0946
  H  H159  1  0.688400  0.601900  0.807500  1.0  0.0763
  H  H160  1  0.733100  0.586600  0.761700  1.0  0.0883
  H  H161  1  0.593900  0.211800  0.906900  1.0  0.0694
  H  H162  1  0.629100  0.252500  0.959700  1.0  0.0946
  H  H163  1  0.688400  0.148100  0.942500  1.0  0.0763
  H  H164  1  0.733100  0.163400  0.988300  1.0  0.0885
  H  H165  1  0.593900  0.711800  0.406900  1.0  0.0694
  H  H166  1  0.629100  0.752500  0.459700  1.0  0.0946
  H  H167  1  0.688400  0.648100  0.442500  1.0  0.0763
  H  H168  1  0.733100  0.663400  0.488300  1.0  0.0885
  H  H169  1  0.093900  0.211800  0.406900  1.0  0.0694
  H  H170  1  0.129100  0.252500  0.459700  1.0  0.0946
  H  H171  1  0.188400  0.148100  0.442500  1.0  0.0763
  H  H172  1  0.233100  0.163400  0.488300  1.0  0.0885
  H  H173  1  0.093900  0.711800  0.906900  1.0  0.0694
  H  H174  1  0.129100  0.752500  0.959700  1.0  0.0946
  H  H175  1  0.188400  0.648100  0.942500  1.0  0.0763
  H  H176  1  0.233100  0.663400  0.988300  1.0  0.0885
  H  H177  1  0.343100  0.156100  0.711800  1.0  0.0717
  H  H178  1  0.290300  0.120900  0.752500  1.0  0.093
  H  H179  1  0.307500  0.061600  0.648100  1.0  0.0755
  H  H180  1  0.261700  0.016900  0.663400  1.0  0.0892
  H  H181  1  0.343100  0.656100  0.211800  1.0  0.0717
  H  H182  1  0.290300  0.620900  0.252500  1.0  0.093
  H  H183  1  0.307500  0.561600  0.148100  1.0  0.0755
  H  H184  1  0.261700  0.516900  0.163400  1.0  0.0892
  H  H185  1  0.843100  0.156100  0.211800  1.0  0.0717
  H  H186  1  0.790300  0.120900  0.252500  1.0  0.093
  H  H187  1  0.807500  0.061600  0.148100  1.0  0.0755
  H  H188  1  0.761700  0.016900  0.163400  1.0  0.0892
  H  H189  1  0.843100  0.656100  0.711800  1.0  0.0717
  H  H190  1  0.790300  0.620900  0.752500  1.0  0.093
  H  H191  1  0.807500  0.561600  0.648100  1.0  0.0755
  H  H192  1  0.761700  0.516900  0.663400  1.0  0.0892
  H  H193  1  0.406900  0.656100  0.538200  1.0  0.0722
  H  H194  1  0.459700  0.620900  0.497500  1.0  0.0952
  H  H195  1  0.442500  0.561600  0.601900  1.0  0.0758
  H  H196  1  0.488300  0.516900  0.586600  1.0  0.09
  H  H197  1  0.406900  0.156100  0.038200  1.0  0.0722
  H  H198  1  0.459700  0.120900  0.997500  1.0  0.0952
  H  H199  1  0.442500  0.061600  0.101900  1.0  0.0758
  H  H200  1  0.488300  0.016900  0.086600  1.0  0.09
  H  H201  1  0.906900  0.656100  0.038200  1.0  0.0722
  H  H202  1  0.959700  0.620900  0.997500  1.0  0.0952
  H  H203  1  0.942500  0.561600  0.101900  1.0  0.0758
  H  H204  1  0.988300  0.516900  0.086600  1.0  0.09
  H  H205  1  0.906900  0.156100  0.538200  1.0  0.0722
  H  H206  1  0.959700  0.120900  0.497500  1.0  0.0952
  H  H207  1  0.942500  0.061600  0.601900  1.0  0.0758
  H  H208  1  0.988300  0.016900  0.586600  1.0  0.09
  H  H209  1  0.843100  0.093900  0.038200  1.0  0.0711
  H  H210  1  0.790300  0.129100  0.997500  1.0  0.0951
  H  H211  1  0.807500  0.188400  0.101900  1.0  0.076
  H  H212  1  0.761700  0.233100  0.086600  1.0  0.0894
  H  H213  1  0.843100  0.593900  0.538200  1.0  0.0711
  H  H214  1  0.790300  0.629100  0.497500  1.0  0.0951
  H  H215  1  0.807500  0.688400  0.601900  1.0  0.076
  H  H216  1  0.761700  0.733100  0.586600  1.0  0.0894
  H  H217  1  0.343100  0.093900  0.538200  1.0  0.0711
  H  H218  1  0.290300  0.129100  0.497500  1.0  0.0951
  H  H219  1  0.307500  0.188400  0.601900  1.0  0.076
  H  H220  1  0.261700  0.233100  0.586600  1.0  0.0894
  H  H221  1  0.343100  0.593900  0.038200  1.0  0.0711
  H  H222  1  0.290300  0.629100  0.997500  1.0  0.0951
  H  H223  1  0.307500  0.688400  0.101900  1.0  0.076
  H  H224  1  0.261700  0.733100  0.086600  1.0  0.0894
  H  H225  1  0.906900  0.593900  0.211800  1.0  0.071
  H  H226  1  0.959700  0.629100  0.252500  1.0  0.0936
  H  H227  1  0.942500  0.688400  0.148100  1.0  0.0755
  H  H228  1  0.988300  0.733100  0.163400  1.0  0.0897
  H  H229  1  0.906900  0.093900  0.711800  1.0  0.071
  H  H230  1  0.959700  0.129100  0.752500  1.0  0.0936
  H  H231  1  0.942500  0.188400  0.648100  1.0  0.0755
  H  H232  1  0.988300  0.233100  0.663400  1.0  0.0897
  H  H233  1  0.406900  0.593900  0.711800  1.0  0.071
  H  H234  1  0.459700  0.629100  0.752500  1.0  0.0936
  H  H235  1  0.442500  0.688400  0.648100  1.0  0.0755
  H  H236  1  0.488300  0.733100  0.663400  1.0  0.0897
  H  H237  1  0.406900  0.093900  0.211800  1.0  0.071
  H  H238  1  0.459700  0.129100  0.252500  1.0  0.0936
  H  H239  1  0.442500  0.188400  0.148100  1.0  0.0755
  H  H240  1  0.488300  0.233100  0.163400  1.0  0.0897
  H  H241  1  0.906900  0.038200  0.156100  1.0  0.073
  H  H242  1  0.959700  0.997500  0.120900  1.0  0.0949
  H  H243  1  0.942500  0.101900  0.061600  1.0  0.0751
  H  H244  1  0.988300  0.086600  0.016900  1.0  0.0902
  H  H245  1  0.906900  0.538200  0.656100  1.0  0.073
  H  H246  1  0.959700  0.497500  0.620900  1.0  0.0949
  H  H247  1  0.942500  0.601900  0.561600  1.0  0.0751
  H  H248  1  0.988300  0.586600  0.516900  1.0  0.0902
  H  H249  1  0.406900  0.038200  0.656100  1.0  0.073
  H  H250  1  0.459700  0.997500  0.620900  1.0  0.0949
  H  H251  1  0.442500  0.101900  0.561600  1.0  0.0751
  H  H252  1  0.488300  0.086600  0.516900  1.0  0.0902
  H  H253  1  0.406900  0.538200  0.156100  1.0  0.073
  H  H254  1  0.459700  0.497500  0.120900  1.0  0.0949
  H  H255  1  0.442500  0.601900  0.061600  1.0  0.0751
  H  H256  1  0.488300  0.586600  0.016900  1.0  0.0902
  H  H257  1  0.843100  0.211800  0.656100  1.0  0.0725
  H  H258  1  0.790300  0.252500  0.620900  1.0  0.0946
  H  H259  1  0.807500  0.148100  0.561600  1.0  0.0748
  H  H260  1  0.761700  0.163400  0.516900  1.0  0.0906
  H  H261  1  0.843100  0.711800  0.156100  1.0  0.0725
  H  H262  1  0.790300  0.752500  0.120900  1.0  0.0946
  H  H263  1  0.807500  0.648100  0.061600  1.0  0.0748
  H  H264  1  0.761700  0.663400  0.016900  1.0  0.0906
  H  H265  1  0.343100  0.211800  0.156100  1.0  0.0725
  H  H266  1  0.290300  0.252500  0.120900  1.0  0.0946
  H  H267  1  0.307500  0.148100  0.061600  1.0  0.0748
  H  H268  1  0.261700  0.163400  0.016900  1.0  0.0906
  H  H269  1  0.343100  0.711800  0.656100  1.0  0.0725
  H  H270  1  0.290300  0.752500  0.620900  1.0  0.0946
  H  H271  1  0.307500  0.648100  0.561600  1.0  0.0748
  H  H272  1  0.261700  0.663400  0.516900  1.0  0.0906
  H  H273  1  0.406900  0.711800  0.093900  1.0  0.0731
  H  H274  1  0.459700  0.752500  0.129100  1.0  0.0949
  H  H275  1  0.442500  0.648100  0.188400  1.0  0.0758
  H  H276  1  0.488300  0.663400  0.233100  1.0  0.0902
  H  H277  1  0.406900  0.211800  0.593900  1.0  0.0731
  H  H278  1  0.459700  0.252500  0.629100  1.0  0.0949
  H  H279  1  0.442500  0.148100  0.688400  1.0  0.0758
  H  H280  1  0.488300  0.163400  0.733100  1.0  0.0902
  H  H281  1  0.906900  0.711800  0.593900  1.0  0.0731
  H  H282  1  0.959700  0.752500  0.629100  1.0  0.0949
  H  H283  1  0.942500  0.648100  0.688400  1.0  0.0758
  H  H284  1  0.988300  0.663400  0.733100  1.0  0.0902
  H  H285  1  0.906900  0.211800  0.093900  1.0  0.0731
  H  H286  1  0.959700  0.252500  0.129100  1.0  0.0949
  H  H287  1  0.942500  0.148100  0.188400  1.0  0.0758
  H  H288  1  0.988300  0.163400  0.233100  1.0  0.0902
  H  H289  1  0.343100  0.538200  0.593900  1.0  0.0729
  H  H290  1  0.290300  0.497500  0.629100  1.0  0.095
  H  H291  1  0.307500  0.601900  0.688400  1.0  0.0757
  H  H292  1  0.261700  0.586600  0.733100  1.0  0.0893
  H  H293  1  0.343100  0.038200  0.093900  1.0  0.0729
  H  H294  1  0.290300  0.997500  0.129100  1.0  0.095
  H  H295  1  0.307500  0.101900  0.188400  1.0  0.0757
  H  H296  1  0.261700  0.086600  0.233100  1.0  0.0893
  H  H297  1  0.843100  0.538200  0.093900  1.0  0.0729
  H  H298  1  0.790300  0.497500  0.129100  1.0  0.095
  H  H299  1  0.807500  0.601900  0.188400  1.0  0.0757
  H  H300  1  0.761700  0.586600  0.233100  1.0  0.0893
  H  H301  1  0.843100  0.038200  0.593900  1.0  0.0729
  H  H302  1  0.790300  0.997500  0.629100  1.0  0.095
  H  H303  1  0.807500  0.101900  0.688400  1.0  0.0757
  H  H304  1  0.761700  0.086600  0.733100  1.0  0.0893
  H  H305  1  0.538200  0.593900  0.343100  1.0  0.0716
  H  H306  1  0.497500  0.629100  0.290300  1.0  0.0946
  H  H307  1  0.601900  0.688400  0.307500  1.0  0.0757
  H  H308  1  0.586600  0.733100  0.261700  1.0  0.0909
  H  H309  1  0.538200  0.093900  0.843100  1.0  0.0716
  H  H310  1  0.497500  0.129100  0.790300  1.0  0.0946
  H  H311  1  0.601900  0.188400  0.807500  1.0  0.0757
  H  H312  1  0.586600  0.233100  0.761700  1.0  0.0909
  H  H313  1  0.038200  0.593900  0.843100  1.0  0.0716
  H  H314  1  0.997500  0.629100  0.790300  1.0  0.0946
  H  H315  1  0.101900  0.688400  0.807500  1.0  0.0757
  H  H316  1  0.086600  0.733100  0.761700  1.0  0.0909
  H  H317  1  0.038200  0.093900  0.343100  1.0  0.0716
  H  H318  1  0.997500  0.129100  0.290300  1.0  0.0946
  H  H319  1  0.101900  0.188400  0.307500  1.0  0.0757
  H  H320  1  0.086600  0.233100  0.261700  1.0  0.0909
  H  H321  1  0.711800  0.093900  0.406900  1.0  0.0708
  H  H322  1  0.752500  0.129100  0.459700  1.0  0.0949
  H  H323  1  0.648100  0.188400  0.442500  1.0  0.076
  H  H324  1  0.663400  0.233100  0.488300  1.0  0.0892
  H  H325  1  0.711800  0.593900  0.906900  1.0  0.0708
  H  H326  1  0.752500  0.629100  0.959700  1.0  0.0949
  H  H327  1  0.648100  0.688400  0.942500  1.0  0.076
  H  H328  1  0.663400  0.733100  0.988300  1.0  0.0892
  H  H329  1  0.211800  0.093900  0.906900  1.0  0.0708
  H  H330  1  0.252500  0.129100  0.959700  1.0  0.0949
  H  H331  1  0.148100  0.188400  0.942500  1.0  0.076
  H  H332  1  0.163400  0.233100  0.988300  1.0  0.0892
  H  H333  1  0.211800  0.593900  0.406900  1.0  0.0708
  H  H334  1  0.252500  0.629100  0.459700  1.0  0.0949
  H  H335  1  0.148100  0.688400  0.442500  1.0  0.076
  H  H336  1  0.163400  0.733100  0.488300  1.0  0.0892
  H  H337  1  0.211800  0.656100  0.843100  1.0  0.0723
  H  H338  1  0.252500  0.620900  0.790300  1.0  0.0949
  H  H339  1  0.148100  0.561600  0.807500  1.0  0.0754
  H  H340  1  0.163400  0.516900  0.761700  1.0  0.0893
  H  H341  1  0.211800  0.156100  0.343100  1.0  0.0723
  H  H342  1  0.252500  0.120900  0.290300  1.0  0.0949
  H  H343  1  0.148100  0.061600  0.307500  1.0  0.0754
  H  H344  1  0.163400  0.016900  0.261700  1.0  0.0893
  H  H345  1  0.711800  0.656100  0.343100  1.0  0.0723
  H  H346  1  0.752500  0.620900  0.290300  1.0  0.0949
  H  H347  1  0.648100  0.561600  0.307500  1.0  0.0754
  H  H348  1  0.663400  0.516900  0.261700  1.0  0.0893
  H  H349  1  0.711800  0.156100  0.843100  1.0  0.0723
  H  H350  1  0.752500  0.120900  0.790300  1.0  0.0949
  H  H351  1  0.648100  0.061600  0.807500  1.0  0.0754
  H  H352  1  0.663400  0.016900  0.761700  1.0  0.0893
  H  H353  1  0.038200  0.156100  0.906900  1.0  0.0714
  H  H354  1  0.997500  0.120900  0.959700  1.0  0.0947
  H  H355  1  0.101900  0.061600  0.942500  1.0  0.0759
  H  H356  1  0.086600  0.016900  0.988300  1.0  0.0907
  H  H357  1  0.038200  0.656100  0.406900  1.0  0.0714
  H  H358  1  0.997500  0.620900  0.459700  1.0  0.0947
  H  H359  1  0.101900  0.561600  0.442500  1.0  0.0759
  H  H360  1  0.086600  0.516900  0.488300  1.0  0.0907
  H  H361  1  0.538200  0.156100  0.406900  1.0  0.0714
  H  H362  1  0.497500  0.120900  0.459700  1.0  0.0947
  H  H363  1  0.601900  0.061600  0.442500  1.0  0.0759
  H  H364  1  0.586600  0.016900  0.488300  1.0  0.0907
  H  H365  1  0.538200  0.656100  0.906900  1.0  0.0714
  H  H366  1  0.497500  0.620900  0.959700  1.0  0.0947
  H  H367  1  0.601900  0.561600  0.942500  1.0  0.0759
  H  H368  1  0.586600  0.516900  0.988300  1.0  0.0907
  H  H369  1  0.093900  0.406900  0.711800  1.0  0.0702
  H  H370  1  0.129100  0.459700  0.752500  1.0  0.0934
  H  H371  1  0.188400  0.442500  0.648100  1.0  0.0756
  H  H372  1  0.233100  0.488300  0.663400  1.0  0.0883
  H  H373  1  0.093900  0.906900  0.211800  1.0  0.0702
  H  H374  1  0.129100  0.959700  0.252500  1.0  0.0934
  H  H375  1  0.188400  0.942500  0.148100  1.0  0.0756
  H  H376  1  0.233100  0.988300  0.163400  1.0  0.0883
  H  H377  1  0.593900  0.406900  0.211800  1.0  0.0702
  H  H378  1  0.629100  0.459700  0.252500  1.0  0.0934
  H  H379  1  0.688400  0.442500  0.148100  1.0  0.0756
  H  H380  1  0.733100  0.488300  0.163400  1.0  0.0883
  H  H381  1  0.593900  0.906900  0.711800  1.0  0.0702
  H  H382  1  0.629100  0.959700  0.752500  1.0  0.0934
  H  H383  1  0.688400  0.942500  0.648100  1.0  0.0756
  H  H384  1  0.733100  0.988300  0.663400  1.0  0.0883
  H  H385  1  0.593900  0.343100  0.538200  1.0  0.0696
  H  H386  1  0.629100  0.290300  0.497500  1.0  0.0952
  H  H387  1  0.688400  0.307500  0.601900  1.0  0.076
  H  H388  1  0.733100  0.261700  0.586600  1.0  0.089
  H  H389  1  0.593900  0.843100  0.038200  1.0  0.0696
  H  H390  1  0.629100  0.790300  0.997500  1.0  0.0952
  H  H391  1  0.688400  0.807500  0.101900  1.0  0.076
  H  H392  1  0.733100  0.761700  0.086600  1.0  0.089
  H  H393  1  0.093900  0.343100  0.038200  1.0  0.0696
  H  H394  1  0.129100  0.290300  0.997500  1.0  0.0952
  H  H395  1  0.188400  0.307500  0.101900  1.0  0.076
  H  H396  1  0.233100  0.261700  0.086600  1.0  0.089
  H  H397  1  0.093900  0.843100  0.538200  1.0  0.0696
  H  H398  1  0.129100  0.790300  0.497500  1.0  0.0952
  H  H399  1  0.188400  0.807500  0.601900  1.0  0.076
  H  H400  1  0.233100  0.761700  0.586600  1.0  0.089
  H  H401  1  0.156100  0.906900  0.038200  1.0  0.0708
  H  H402  1  0.120900  0.959700  0.997500  1.0  0.0951
  H  H403  1  0.061600  0.942500  0.101900  1.0  0.0756
  H  H404  1  0.016900  0.988300  0.086600  1.0  0.0894
  H  H405  1  0.156100  0.406900  0.538200  1.0  0.0708
  H  H406  1  0.120900  0.459700  0.497500  1.0  0.0951
  H  H407  1  0.061600  0.442500  0.601900  1.0  0.0756
  H  H408  1  0.016900  0.488300  0.586600  1.0  0.0894
  H  H409  1  0.656100  0.906900  0.538200  1.0  0.0708
  H  H410  1  0.620900  0.959700  0.497500  1.0  0.0951
  H  H411  1  0.561600  0.942500  0.601900  1.0  0.0756
  H  H412  1  0.516900  0.988300  0.586600  1.0  0.0894
  H  H413  1  0.656100  0.406900  0.038200  1.0  0.0708
  H  H414  1  0.620900  0.459700  0.997500  1.0  0.0951
  H  H415  1  0.561600  0.442500  0.101900  1.0  0.0756
  H  H416  1  0.516900  0.488300  0.086600  1.0  0.0894
  H  H417  1  0.656100  0.843100  0.211800  1.0  0.0698
  H  H418  1  0.620900  0.790300  0.252500  1.0  0.0929
  H  H419  1  0.561600  0.807500  0.148100  1.0  0.0754
  H  H420  1  0.516900  0.761700  0.163400  1.0  0.0884
  H  H421  1  0.656100  0.343100  0.711800  1.0  0.0698
  H  H422  1  0.620900  0.290300  0.752500  1.0  0.0929
  H  H423  1  0.561600  0.307500  0.648100  1.0  0.0754
  H  H424  1  0.516900  0.261700  0.663400  1.0  0.0884
  H  H425  1  0.156100  0.843100  0.711800  1.0  0.0698
  H  H426  1  0.120900  0.790300  0.752500  1.0  0.0929
  H  H427  1  0.061600  0.807500  0.648100  1.0  0.0754
  H  H428  1  0.016900  0.761700  0.663400  1.0  0.0884
  H  H429  1  0.156100  0.343100  0.211800  1.0  0.0698
  H  H430  1  0.120900  0.290300  0.252500  1.0  0.0929
  H  H431  1  0.061600  0.307500  0.148100  1.0  0.0754
  H  H432  1  0.016900  0.261700  0.163400  1.0  0.0884
  H  H433  1  0.093100  0.961800  0.843900  1.0  0.0726
  H  H434  1  0.040300  0.002500  0.879100  1.0  0.095
  H  H435  1  0.057500  0.898100  0.938400  1.0  0.0757
  H  H436  1  0.011700  0.913400  0.983100  1.0  0.09
  H  H437  1  0.093100  0.461800  0.343900  1.0  0.0726
  H  H438  1  0.040300  0.502500  0.379100  1.0  0.095
  H  H439  1  0.057500  0.398100  0.438400  1.0  0.0757
  H  H440  1  0.011700  0.413400  0.483100  1.0  0.09
  H  H441  1  0.593100  0.961800  0.343900  1.0  0.0726
  H  H442  1  0.540300  0.002500  0.379100  1.0  0.095
  H  H443  1  0.557500  0.898100  0.438400  1.0  0.0757
  H  H444  1  0.511700  0.913400  0.483100  1.0  0.09
  H  H445  1  0.593100  0.461800  0.843900  1.0  0.0726
  H  H446  1  0.540300  0.502500  0.879100  1.0  0.095
  H  H447  1  0.557500  0.398100  0.938400  1.0  0.0757
  H  H448  1  0.511700  0.413400  0.983100  1.0  0.09
  H  H449  1  0.156900  0.788200  0.343900  1.0  0.0731
  H  H450  1  0.209700  0.747500  0.379100  1.0  0.0953
  H  H451  1  0.192500  0.851900  0.438400  1.0  0.0756
  H  H452  1  0.238300  0.836600  0.483100  1.0  0.0903
  H  H453  1  0.156900  0.288200  0.843900  1.0  0.0731
  H  H454  1  0.209700  0.247500  0.879100  1.0  0.0953
  H  H455  1  0.192500  0.351900  0.938400  1.0  0.0756
  H  H456  1  0.238300  0.336600  0.983100  1.0  0.0903
  H  H457  1  0.656900  0.788200  0.843900  1.0  0.0731
  H  H458  1  0.709700  0.747500  0.879100  1.0  0.0953
  H  H459  1  0.692500  0.851900  0.938400  1.0  0.0756
  H  H460  1  0.738300  0.836600  0.983100  1.0  0.0903
  H  H461  1  0.656900  0.288200  0.343900  1.0  0.0731
  H  H462  1  0.709700  0.247500  0.379100  1.0  0.0953
  H  H463  1  0.692500  0.351900  0.438400  1.0  0.0756
  H  H464  1  0.738300  0.336600  0.483100  1.0  0.0903
  H  H465  1  0.593100  0.288200  0.906100  1.0  0.0728
  H  H466  1  0.540300  0.247500  0.870900  1.0  0.0952
  H  H467  1  0.557500  0.351900  0.811600  1.0  0.0752
  H  H468  1  0.511700  0.336600  0.766900  1.0  0.0893
  H  H469  1  0.593100  0.788200  0.406100  1.0  0.0728
  H  H470  1  0.540300  0.747500  0.370900  1.0  0.0952
  H  H471  1  0.557500  0.851900  0.311600  1.0  0.0752
  H  H472  1  0.511700  0.836600  0.266900  1.0  0.0893
  H  H473  1  0.093100  0.288200  0.406100  1.0  0.0728
  H  H474  1  0.040300  0.247500  0.370900  1.0  0.0952
  H  H475  1  0.057500  0.351900  0.311600  1.0  0.0752
  H  H476  1  0.011700  0.336600  0.266900  1.0  0.0893
  H  H477  1  0.093100  0.788200  0.906100  1.0  0.0728
  H  H478  1  0.040300  0.747500  0.870900  1.0  0.0952
  H  H479  1  0.057500  0.851900  0.811600  1.0  0.0752
  H  H480  1  0.011700  0.836600  0.766900  1.0  0.0893
  H  H481  1  0.656900  0.461800  0.406100  1.0  0.0727
  H  H482  1  0.709700  0.502500  0.370900  1.0  0.0945
  H  H483  1  0.692500  0.398100  0.311600  1.0  0.0751
  H  H484  1  0.738300  0.413400  0.266900  1.0  0.0911
  H  H485  1  0.656900  0.961800  0.906100  1.0  0.0727
  H  H486  1  0.709700  0.002500  0.870900  1.0  0.0945
  H  H487  1  0.692500  0.898100  0.811600  1.0  0.0751
  H  H488  1  0.738300  0.913400  0.766900  1.0  0.0911
  H  H489  1  0.156900  0.461800  0.906100  1.0  0.0727
  H  H490  1  0.209700  0.502500  0.870900  1.0  0.0945
  H  H491  1  0.192500  0.398100  0.811600  1.0  0.0751
  H  H492  1  0.238300  0.413400  0.766900  1.0  0.0911
  H  H493  1  0.156900  0.961800  0.406100  1.0  0.0727
  H  H494  1  0.209700  0.002500  0.370900  1.0  0.0945
  H  H495  1  0.192500  0.898100  0.311600  1.0  0.0751
  H  H496  1  0.238300  0.913400  0.266900  1.0  0.0911
  H  H497  1  0.461800  0.406100  0.656900  1.0  0.0714
  H  H498  1  0.502500  0.370900  0.709700  1.0  0.0948
  H  H499  1  0.398100  0.311600  0.692500  1.0  0.0758
  H  H500  1  0.413400  0.266900  0.738300  1.0  0.0896
  H  H501  1  0.461800  0.906100  0.156900  1.0  0.0714
  H  H502  1  0.502500  0.870900  0.209700  1.0  0.0948
  H  H503  1  0.398100  0.811600  0.192500  1.0  0.0758
  H  H504  1  0.413400  0.766900  0.238300  1.0  0.0896
  H  H505  1  0.961800  0.406100  0.156900  1.0  0.0714
  H  H506  1  0.002500  0.370900  0.209700  1.0  0.0948
  H  H507  1  0.898100  0.311600  0.192500  1.0  0.0758
  H  H508  1  0.913400  0.266900  0.238300  1.0  0.0896
  H  H509  1  0.961800  0.906100  0.656900  1.0  0.0714
  H  H510  1  0.002500  0.870900  0.709700  1.0  0.0948
  H  H511  1  0.898100  0.811600  0.692500  1.0  0.0758
  H  H512  1  0.913400  0.766900  0.738300  1.0  0.0896
  H  H513  1  0.288200  0.906100  0.593100  1.0  0.0722
  H  H514  1  0.247500  0.870900  0.540300  1.0  0.0948
  H  H515  1  0.351900  0.811600  0.557500  1.0  0.0757
  H  H516  1  0.336600  0.766900  0.511700  1.0  0.0906
  H  H517  1  0.288200  0.406100  0.093100  1.0  0.0722
  H  H518  1  0.247500  0.370900  0.040300  1.0  0.0948
  H  H519  1  0.351900  0.311600  0.057500  1.0  0.0757
  H  H520  1  0.336600  0.266900  0.011700  1.0  0.0906
  H  H521  1  0.788200  0.906100  0.093100  1.0  0.0722
  H  H522  1  0.747500  0.870900  0.040300  1.0  0.0948
  H  H523  1  0.851900  0.811600  0.057500  1.0  0.0757
  H  H524  1  0.836600  0.766900  0.011700  1.0  0.0906
  H  H525  1  0.788200  0.406100  0.593100  1.0  0.0722
  H  H526  1  0.747500  0.370900  0.540300  1.0  0.0948
  H  H527  1  0.851900  0.311600  0.557500  1.0  0.0757
  H  H528  1  0.836600  0.266900  0.511700  1.0  0.0906
  H  H529  1  0.788200  0.343900  0.156900  1.0  0.0706
  H  H530  1  0.747500  0.379100  0.209700  1.0  0.0946
  H  H531  1  0.851900  0.438400  0.192500  1.0  0.0758
  H  H532  1  0.836600  0.483100  0.238300  1.0  0.0904
  H  H533  1  0.788200  0.843900  0.656900  1.0  0.0706
  H  H534  1  0.747500  0.879100  0.709700  1.0  0.0946
  H  H535  1  0.851900  0.938400  0.692500  1.0  0.0758
  H  H536  1  0.836600  0.983100  0.738300  1.0  0.0904
  H  H537  1  0.288200  0.343900  0.656900  1.0  0.0706
  H  H538  1  0.247500  0.379100  0.709700  1.0  0.0946
  H  H539  1  0.351900  0.438400  0.692500  1.0  0.0758
  H  H540  1  0.336600  0.483100  0.738300  1.0  0.0904
  H  H541  1  0.288200  0.843900  0.156900  1.0  0.0706
  H  H542  1  0.247500  0.879100  0.209700  1.0  0.0946
  H  H543  1  0.351900  0.938400  0.192500  1.0  0.0758
  H  H544  1  0.336600  0.983100  0.238300  1.0  0.0904
  H  H545  1  0.961800  0.843900  0.093100  1.0  0.0715
  H  H546  1  0.002500  0.879100  0.040300  1.0  0.0949
  H  H547  1  0.898100  0.938400  0.057500  1.0  0.0757
  H  H548  1  0.913400  0.983100  0.011700  1.0  0.0893
  H  H549  1  0.961800  0.343900  0.593100  1.0  0.0715
  H  H550  1  0.002500  0.379100  0.540300  1.0  0.0949
  H  H551  1  0.898100  0.438400  0.557500  1.0  0.0757
  H  H552  1  0.913400  0.483100  0.511700  1.0  0.0893
  H  H553  1  0.461800  0.843900  0.593100  1.0  0.0715
  H  H554  1  0.502500  0.879100  0.540300  1.0  0.0949
  H  H555  1  0.398100  0.938400  0.557500  1.0  0.0757
  H  H556  1  0.413400  0.983100  0.511700  1.0  0.0893
  H  H557  1  0.461800  0.343900  0.093100  1.0  0.0715
  H  H558  1  0.502500  0.379100  0.040300  1.0  0.0949
  H  H559  1  0.398100  0.438400  0.057500  1.0  0.0757
  H  H560  1  0.413400  0.483100  0.011700  1.0  0.0893
  H  H561  1  0.906100  0.593100  0.288200  1.0  0.0701
  H  H562  1  0.870900  0.540300  0.247500  1.0  0.095
  H  H563  1  0.811600  0.557500  0.351900  1.0  0.0755
  H  H564  1  0.766900  0.511700  0.336600  1.0  0.0886
  H  H565  1  0.906100  0.093100  0.788200  1.0  0.0701
  H  H566  1  0.870900  0.040300  0.747500  1.0  0.095
  H  H567  1  0.811600  0.057500  0.851900  1.0  0.0755
  H  H568  1  0.766900  0.011700  0.836600  1.0  0.0886
  H  H569  1  0.406100  0.593100  0.788200  1.0  0.0701
  H  H570  1  0.370900  0.540300  0.747500  1.0  0.095
  H  H571  1  0.311600  0.557500  0.851900  1.0  0.0755
  H  H572  1  0.266900  0.511700  0.836600  1.0  0.0886
  H  H573  1  0.406100  0.093100  0.288200  1.0  0.0701
  H  H574  1  0.370900  0.040300  0.247500  1.0  0.095
  H  H575  1  0.311600  0.057500  0.351900  1.0  0.0755
  H  H576  1  0.266900  0.011700  0.336600  1.0  0.0886
  H  H577  1  0.406100  0.656900  0.461800  1.0  0.0704
  H  H578  1  0.370900  0.709700  0.502500  1.0  0.0926
  H  H579  1  0.311600  0.692500  0.398100  1.0  0.0755
  H  H580  1  0.266900  0.738300  0.413400  1.0  0.0888
  H  H581  1  0.406100  0.156900  0.961800  1.0  0.0704
  H  H582  1  0.370900  0.209700  0.002500  1.0  0.0926
  H  H583  1  0.311600  0.192500  0.898100  1.0  0.0755
  H  H584  1  0.266900  0.238300  0.913400  1.0  0.0888
  H  H585  1  0.906100  0.656900  0.961800  1.0  0.0704
  H  H586  1  0.870900  0.709700  0.002500  1.0  0.0926
  H  H587  1  0.811600  0.692500  0.898100  1.0  0.0755
  H  H588  1  0.766900  0.738300  0.913400  1.0  0.0888
  H  H589  1  0.906100  0.156900  0.461800  1.0  0.0704
  H  H590  1  0.870900  0.209700  0.502500  1.0  0.0926
  H  H591  1  0.811600  0.192500  0.398100  1.0  0.0755
  H  H592  1  0.766900  0.238300  0.413400  1.0  0.0888
  H  H593  1  0.843900  0.093100  0.961800  1.0  0.0697
  H  H594  1  0.879100  0.040300  0.002500  1.0  0.0939
  H  H595  1  0.938400  0.057500  0.898100  1.0  0.0756
  H  H596  1  0.983100  0.011700  0.913400  1.0  0.088
  H  H597  1  0.843900  0.593100  0.461800  1.0  0.0697
  H  H598  1  0.879100  0.540300  0.502500  1.0  0.0939
  H  H599  1  0.938400  0.557500  0.398100  1.0  0.0756
  H  H600  1  0.983100  0.511700  0.413400  1.0  0.088
  H  H601  1  0.343900  0.093100  0.461800  1.0  0.0697
  H  H602  1  0.379100  0.040300  0.502500  1.0  0.0939
  H  H603  1  0.438400  0.057500  0.398100  1.0  0.0756
  H  H604  1  0.483100  0.011700  0.413400  1.0  0.088
  H  H605  1  0.343900  0.593100  0.961800  1.0  0.0697
  H  H606  1  0.379100  0.540300  0.002500  1.0  0.0939
  H  H607  1  0.438400  0.557500  0.898100  1.0  0.0756
  H  H608  1  0.483100  0.511700  0.913400  1.0  0.088
  H  H609  1  0.343900  0.156900  0.788200  1.0  0.0702
  H  H610  1  0.379100  0.209700  0.747500  1.0  0.0951
  H  H611  1  0.438400  0.192500  0.851900  1.0  0.0759
  H  H612  1  0.483100  0.238300  0.836600  1.0  0.0896
  H  H613  1  0.343900  0.656900  0.288200  1.0  0.0702
  H  H614  1  0.379100  0.709700  0.247500  1.0  0.0951
  H  H615  1  0.438400  0.692500  0.351900  1.0  0.0759
  H  H616  1  0.483100  0.738300  0.336600  1.0  0.0896
  H  H617  1  0.843900  0.156900  0.288200  1.0  0.0702
  H  H618  1  0.879100  0.209700  0.247500  1.0  0.0951
  H  H619  1  0.938400  0.192500  0.351900  1.0  0.0759
  H  H620  1  0.983100  0.238300  0.336600  1.0  0.0896
  H  H621  1  0.843900  0.656900  0.788200  1.0  0.0702
  H  H622  1  0.879100  0.709700  0.747500  1.0  0.0951
  H  H623  1  0.938400  0.692500  0.851900  1.0  0.0759
  H  H624  1  0.983100  0.738300  0.836600  1.0  0.0896
  H  H625  1  0.288200  0.656900  0.843900  1.0  0.0731
  H  H626  1  0.247500  0.709700  0.879100  1.0  0.0955
  H  H627  1  0.351900  0.692500  0.938400  1.0  0.0754
  H  H628  1  0.336600  0.738300  0.983100  1.0  0.0914
  H  H629  1  0.288200  0.156900  0.343900  1.0  0.0731
  H  H630  1  0.247500  0.209700  0.379100  1.0  0.0955
  H  H631  1  0.351900  0.192500  0.438400  1.0  0.0754
  H  H632  1  0.336600  0.238300  0.483100  1.0  0.0914
  H  H633  1  0.788200  0.656900  0.343900  1.0  0.0731
  H  H634  1  0.747500  0.709700  0.379100  1.0  0.0955
  H  H635  1  0.851900  0.692500  0.438400  1.0  0.0754
  H  H636  1  0.836600  0.738300  0.483100  1.0  0.0914
  H  H637  1  0.788200  0.156900  0.843900  1.0  0.0731
  H  H638  1  0.747500  0.209700  0.879100  1.0  0.0955
  H  H639  1  0.851900  0.192500  0.938400  1.0  0.0754
  H  H640  1  0.836600  0.238300  0.983100  1.0  0.0914
  H  H641  1  0.461800  0.593100  0.343900  1.0  0.0726
  H  H642  1  0.502500  0.540300  0.379100  1.0  0.0954
  H  H643  1  0.398100  0.557500  0.438400  1.0  0.0756
  H  H644  1  0.413400  0.511700  0.483100  1.0  0.09
  H  H645  1  0.461800  0.093100  0.843900  1.0  0.0726
  H  H646  1  0.502500  0.040300  0.879100  1.0  0.0954
  H  H647  1  0.398100  0.057500  0.938400  1.0  0.0756
  H  H648  1  0.413400  0.011700  0.983100  1.0  0.09
  H  H649  1  0.961800  0.593100  0.843900  1.0  0.0726
  H  H650  1  0.002500  0.540300  0.879100  1.0  0.0954
  H  H651  1  0.898100  0.557500  0.938400  1.0  0.0756
  H  H652  1  0.913400  0.511700  0.983100  1.0  0.09
  H  H653  1  0.961800  0.093100  0.343900  1.0  0.0726
  H  H654  1  0.002500  0.040300  0.379100  1.0  0.0954
  H  H655  1  0.898100  0.057500  0.438400  1.0  0.0756
  H  H656  1  0.913400  0.011700  0.483100  1.0  0.09
  H  H657  1  0.961800  0.156900  0.906100  1.0  0.0729
  H  H658  1  0.002500  0.209700  0.870900  1.0  0.0952
  H  H659  1  0.898100  0.192500  0.811600  1.0  0.075
  H  H660  1  0.913400  0.238300  0.766900  1.0  0.0906
  H  H661  1  0.961800  0.656900  0.406100  1.0  0.0729
  H  H662  1  0.002500  0.709700  0.370900  1.0  0.0952
  H  H663  1  0.898100  0.692500  0.311600  1.0  0.075
  H  H664  1  0.913400  0.738300  0.266900  1.0  0.0906
  H  H665  1  0.461800  0.156900  0.406100  1.0  0.0729
  H  H666  1  0.502500  0.209700  0.370900  1.0  0.0952
  H  H667  1  0.398100  0.192500  0.311600  1.0  0.075
  H  H668  1  0.413400  0.238300  0.266900  1.0  0.0906
  H  H669  1  0.461800  0.656900  0.906100  1.0  0.0729
  H  H670  1  0.502500  0.709700  0.870900  1.0  0.0952
  H  H671  1  0.398100  0.692500  0.811600  1.0  0.075
  H  H672  1  0.413400  0.738300  0.766900  1.0  0.0906
  H  H673  1  0.788200  0.093100  0.406100  1.0  0.0723
  H  H674  1  0.747500  0.040300  0.370900  1.0  0.0953
  H  H675  1  0.851900  0.057500  0.311600  1.0  0.0748
  H  H676  1  0.836600  0.011700  0.266900  1.0  0.0918
  H  H677  1  0.788200  0.593100  0.906100  1.0  0.0723
  H  H678  1  0.747500  0.540300  0.870900  1.0  0.0953
  H  H679  1  0.851900  0.557500  0.811600  1.0  0.0748
  H  H680  1  0.836600  0.511700  0.766900  1.0  0.0918
  H  H681  1  0.288200  0.093100  0.906100  1.0  0.0723
  H  H682  1  0.247500  0.040300  0.870900  1.0  0.0953
  H  H683  1  0.351900  0.057500  0.811600  1.0  0.0748
  H  H684  1  0.336600  0.011700  0.766900  1.0  0.0918
  H  H685  1  0.288200  0.593100  0.406100  1.0  0.0723
  H  H686  1  0.247500  0.540300  0.370900  1.0  0.0953
  H  H687  1  0.351900  0.557500  0.311600  1.0  0.0748
  H  H688  1  0.336600  0.511700  0.266900  1.0  0.0918
  H  H689  1  0.843900  0.288200  0.656900  1.0  0.0693
  H  H690  1  0.879100  0.247500  0.709700  1.0  0.0946
  H  H691  1  0.938400  0.351900  0.692500  1.0  0.0763
  H  H692  1  0.983100  0.336600  0.738300  1.0  0.0887
  H  H693  1  0.843900  0.788200  0.156900  1.0  0.0693
  H  H694  1  0.879100  0.747500  0.209700  1.0  0.0946
  H  H695  1  0.938400  0.851900  0.192500  1.0  0.0763
  H  H696  1  0.983100  0.836600  0.238300  1.0  0.0887
  H  H697  1  0.343900  0.288200  0.156900  1.0  0.0693
  H  H698  1  0.379100  0.247500  0.209700  1.0  0.0946
  H  H699  1  0.438400  0.351900  0.192500  1.0  0.0763
  H  H700  1  0.483100  0.336600  0.238300  1.0  0.0887
  H  H701  1  0.343900  0.788200  0.656900  1.0  0.0693
  H  H702  1  0.379100  0.747500  0.709700  1.0  0.0946
  H  H703  1  0.438400  0.851900  0.692500  1.0  0.0763
  H  H704  1  0.483100  0.836600  0.738300  1.0  0.0887
  H  H705  1  0.343900  0.461800  0.593100  1.0  0.0704
  H  H706  1  0.379100  0.502500  0.540300  1.0  0.0948
  H  H707  1  0.438400  0.398100  0.557500  1.0  0.0761
  H  H708  1  0.483100  0.413400  0.511700  1.0  0.0887
  H  H709  1  0.343900  0.961800  0.093100  1.0  0.0704
  H  H710  1  0.379100  0.002500  0.040300  1.0  0.0948
  H  H711  1  0.438400  0.898100  0.057500  1.0  0.0761
  H  H712  1  0.483100  0.913400  0.011700  1.0  0.0887
  H  H713  1  0.843900  0.461800  0.093100  1.0  0.0704
  H  H714  1  0.879100  0.502500  0.040300  1.0  0.0948
  H  H715  1  0.938400  0.398100  0.057500  1.0  0.0761
  H  H716  1  0.983100  0.413400  0.011700  1.0  0.0887
  H  H717  1  0.843900  0.961800  0.593100  1.0  0.0704
  H  H718  1  0.879100  0.002500  0.540300  1.0  0.0948
  H  H719  1  0.938400  0.898100  0.557500  1.0  0.0761
  H  H720  1  0.983100  0.913400  0.511700  1.0  0.0887
  H  H721  1  0.906100  0.961800  0.156900  1.0  0.0697
  H  H722  1  0.870900  0.002500  0.209700  1.0  0.0934
  H  H723  1  0.811600  0.898100  0.192500  1.0  0.0765
  H  H724  1  0.766900  0.913400  0.238300  1.0  0.0886
  H  H725  1  0.906100  0.461800  0.656900  1.0  0.0697
  H  H726  1  0.870900  0.502500  0.709700  1.0  0.0934
  H  H727  1  0.811600  0.398100  0.692500  1.0  0.0765
  H  H728  1  0.766900  0.413400  0.738300  1.0  0.0886
  H  H729  1  0.406100  0.961800  0.656900  1.0  0.0697
  H  H730  1  0.370900  0.002500  0.709700  1.0  0.0934
  H  H731  1  0.311600  0.898100  0.692500  1.0  0.0765
  H  H732  1  0.266900  0.913400  0.738300  1.0  0.0886
  H  H733  1  0.406100  0.461800  0.156900  1.0  0.0697
  H  H734  1  0.370900  0.502500  0.209700  1.0  0.0934
  H  H735  1  0.311600  0.398100  0.192500  1.0  0.0765
  H  H736  1  0.266900  0.413400  0.238300  1.0  0.0886
  H  H737  1  0.406100  0.788200  0.093100  1.0  0.0705
  H  H738  1  0.370900  0.747500  0.040300  1.0  0.0946
  H  H739  1  0.311600  0.851900  0.057500  1.0  0.0762
  H  H740  1  0.266900  0.836600  0.011700  1.0  0.0879
  H  H741  1  0.406100  0.288200  0.593100  1.0  0.0705
  H  H742  1  0.370900  0.247500  0.540300  1.0  0.0946
  H  H743  1  0.311600  0.351900  0.557500  1.0  0.0762
  H  H744  1  0.266900  0.336600  0.511700  1.0  0.0879
  H  H745  1  0.906100  0.788200  0.593100  1.0  0.0705
  H  H746  1  0.870900  0.747500  0.540300  1.0  0.0946
  H  H747  1  0.811600  0.851900  0.557500  1.0  0.0762
  H  H748  1  0.766900  0.836600  0.511700  1.0  0.0879
  H  H749  1  0.906100  0.288200  0.093100  1.0  0.0705
  H  H750  1  0.870900  0.247500  0.040300  1.0  0.0946
  H  H751  1  0.811600  0.351900  0.057500  1.0  0.0762
  H  H752  1  0.766900  0.336600  0.011700  1.0  0.0879
  H  H753  1  0.656900  0.843900  0.288200  1.0  0.0711
  H  H754  1  0.709700  0.879100  0.247500  1.0  0.0952
  H  H755  1  0.692500  0.938400  0.351900  1.0  0.0758
  H  H756  1  0.738300  0.983100  0.336600  1.0  0.0899
  H  H757  1  0.656900  0.343900  0.788200  1.0  0.0711
  H  H758  1  0.709700  0.379100  0.747500  1.0  0.0952
  H  H759  1  0.692500  0.438400  0.851900  1.0  0.0758
  H  H760  1  0.738300  0.483100  0.836600  1.0  0.0899
  H  H761  1  0.156900  0.843900  0.788200  1.0  0.0711
  H  H762  1  0.209700  0.879100  0.747500  1.0  0.0952
  H  H763  1  0.192500  0.938400  0.851900  1.0  0.0758
  H  H764  1  0.238300  0.983100  0.836600  1.0  0.0899
  H  H765  1  0.156900  0.343900  0.288200  1.0  0.0711
  H  H766  1  0.209700  0.379100  0.247500  1.0  0.0952
  H  H767  1  0.192500  0.438400  0.351900  1.0  0.0758
  H  H768  1  0.238300  0.483100  0.336600  1.0  0.0899
  H  H769  1  0.593100  0.343900  0.461800  1.0  0.071
  H  H770  1  0.540300  0.379100  0.502500  1.0  0.0936
  H  H771  1  0.557500  0.438400  0.398100  1.0  0.0756
  H  H772  1  0.511700  0.483100  0.413400  1.0  0.0891
  H  H773  1  0.593100  0.843900  0.961800  1.0  0.071
  H  H774  1  0.540300  0.879100  0.002500  1.0  0.0936
  H  H775  1  0.557500  0.938400  0.898100  1.0  0.0756
  H  H776  1  0.511700  0.983100  0.913400  1.0  0.0891
  H  H777  1  0.093100  0.343900  0.961800  1.0  0.071
  H  H778  1  0.040300  0.379100  0.002500  1.0  0.0936
  H  H779  1  0.057500  0.438400  0.898100  1.0  0.0756
  H  H780  1  0.011700  0.483100  0.913400  1.0  0.0891
  H  H781  1  0.093100  0.843900  0.461800  1.0  0.071
  H  H782  1  0.040300  0.879100  0.502500  1.0  0.0936
  H  H783  1  0.057500  0.938400  0.398100  1.0  0.0756
  H  H784  1  0.011700  0.983100  0.413400  1.0  0.0891
  H  H785  1  0.156900  0.906100  0.961800  1.0  0.0721
  H  H786  1  0.209700  0.870900  0.002500  1.0  0.093
  H  H787  1  0.192500  0.811600  0.898100  1.0  0.0756
  H  H788  1  0.238300  0.766900  0.913400  1.0  0.0901
  H  H789  1  0.156900  0.406100  0.461800  1.0  0.0721
  H  H790  1  0.209700  0.370900  0.502500  1.0  0.093
  H  H791  1  0.192500  0.311600  0.398100  1.0  0.0756
  H  H792  1  0.238300  0.266900  0.413400  1.0  0.0901
  H  H793  1  0.656900  0.906100  0.461800  1.0  0.0721
  H  H794  1  0.709700  0.870900  0.502500  1.0  0.093
  H  H795  1  0.692500  0.811600  0.398100  1.0  0.0756
  H  H796  1  0.738300  0.766900  0.413400  1.0  0.0901
  H  H797  1  0.656900  0.406100  0.961800  1.0  0.0721
  H  H798  1  0.709700  0.370900  0.002500  1.0  0.093
  H  H799  1  0.692500  0.311600  0.898100  1.0  0.0756
  H  H800  1  0.738300  0.266900  0.913400  1.0  0.0901
  H  H801  1  0.093100  0.406100  0.788200  1.0  0.0716
  H  H802  1  0.040300  0.370900  0.747500  1.0  0.095
  H  H803  1  0.057500  0.311600  0.851900  1.0  0.076
  H  H804  1  0.011700  0.266900  0.836600  1.0  0.0893
  H  H805  1  0.093100  0.906100  0.288200  1.0  0.0716
  H  H806  1  0.040300  0.870900  0.247500  1.0  0.095
  H  H807  1  0.057500  0.811600  0.351900  1.0  0.076
  H  H808  1  0.011700  0.766900  0.336600  1.0  0.0893
  H  H809  1  0.593100  0.406100  0.288200  1.0  0.0716
  H  H810  1  0.540300  0.370900  0.247500  1.0  0.095
  H  H811  1  0.557500  0.311600  0.351900  1.0  0.076
  H  H812  1  0.511700  0.266900  0.336600  1.0  0.0893
  H  H813  1  0.593100  0.906100  0.788200  1.0  0.0716
  H  H814  1  0.540300  0.870900  0.747500  1.0  0.095
  H  H815  1  0.557500  0.811600  0.851900  1.0  0.076
  H  H816  1  0.511700  0.766900  0.836600  1.0  0.0893
  C  C817  1  0.704100  0.329500  0.131600  1.0  -0.0214
  C  C818  1  0.726000  0.299700  0.113300  1.0  -0.142
  C  C819  1  0.669500  0.310010  0.081130  1.0  0.101
  C  C820  1  0.711300  0.252200  0.055800  1.0  0.1159
  C  C821  1  0.686100  0.244370  0.022500  1.0  -0.1824
  C  C822  1  0.704100  0.829500  0.631600  1.0  -0.0214
  C  C823  1  0.726000  0.799700  0.613300  1.0  -0.142
  C  C824  1  0.669500  0.810010  0.581130  1.0  0.101
  C  C825  1  0.711300  0.752200  0.555800  1.0  0.1159
  C  C826  1  0.686100  0.744370  0.522500  1.0  -0.1824
  C  C827  1  0.204100  0.329500  0.631600  1.0  -0.0214
  C  C828  1  0.226000  0.299700  0.613300  1.0  -0.142
  C  C829  1  0.169500  0.310010  0.581130  1.0  0.101
  C  C830  1  0.211300  0.252200  0.555800  1.0  0.1159
  C  C831  1  0.186100  0.244370  0.522500  1.0  -0.1824
  C  C832  1  0.204100  0.829500  0.131600  1.0  -0.0214
  C  C833  1  0.226000  0.799700  0.113300  1.0  -0.142
  C  C834  1  0.169500  0.810010  0.081130  1.0  0.101
  C  C835  1  0.211300  0.752200  0.055800  1.0  0.1159
  C  C836  1  0.186100  0.744370  0.022500  1.0  -0.1824
  C  C837  1  0.545900  0.420500  0.631600  1.0  -0.0228
  C  C838  1  0.524000  0.450300  0.613300  1.0  -0.1436
  C  C839  1  0.580500  0.439990  0.581130  1.0  0.103
  C  C840  1  0.538700  0.497800  0.555800  1.0  0.1144
  C  C841  1  0.563900  0.505630  0.522500  1.0  -0.1816
  C  C842  1  0.545900  0.920500  0.131600  1.0  -0.0228
  C  C843  1  0.524000  0.950300  0.113300  1.0  -0.1436
  C  C844  1  0.580500  0.939990  0.081130  1.0  0.103
  C  C845  1  0.538700  0.997800  0.055800  1.0  0.1144
  C  C846  1  0.563900  0.005630  0.022500  1.0  -0.1816
  C  C847  1  0.045900  0.420500  0.131600  1.0  -0.0228
  C  C848  1  0.024000  0.450300  0.113300  1.0  -0.1436
  C  C849  1  0.080500  0.439990  0.081130  1.0  0.103
  C  C850  1  0.038700  0.497800  0.055800  1.0  0.1144
  C  C851  1  0.063900  0.505630  0.022500  1.0  -0.1816
  C  C852  1  0.045900  0.920500  0.631600  1.0  -0.0228
  C  C853  1  0.024000  0.950300  0.613300  1.0  -0.1436
  C  C854  1  0.080500  0.939990  0.581130  1.0  0.103
  C  C855  1  0.038700  0.997800  0.555800  1.0  0.1144
  C  C856  1  0.063900  0.005630  0.522500  1.0  -0.1816
  C  C857  1  0.045900  0.829500  0.118400  1.0  -0.0215
  C  C858  1  0.024000  0.799700  0.136700  1.0  -0.1433
  C  C859  1  0.080500  0.810010  0.168870  1.0  0.1036
  C  C860  1  0.038700  0.752200  0.194200  1.0  0.1136
  C  C861  1  0.063900  0.744370  0.227500  1.0  -0.1809
  C  C862  1  0.045900  0.329500  0.618400  1.0  -0.0215
  C  C863  1  0.024000  0.299700  0.636700  1.0  -0.1433
  C  C864  1  0.080500  0.310010  0.668870  1.0  0.1036
  C  C865  1  0.038700  0.252200  0.694200  1.0  0.1136
  C  C866  1  0.063900  0.244370  0.727500  1.0  -0.1809
  C  C867  1  0.545900  0.829500  0.618400  1.0  -0.0215
  C  C868  1  0.524000  0.799700  0.636700  1.0  -0.1433
  C  C869  1  0.580500  0.810010  0.668870  1.0  0.1036
  C  C870  1  0.538700  0.752200  0.694200  1.0  0.1136
  C  C871  1  0.563900  0.744370  0.727500  1.0  -0.1809
  C  C872  1  0.545900  0.329500  0.118400  1.0  -0.0215
  C  C873  1  0.524000  0.299700  0.136700  1.0  -0.1433
  C  C874  1  0.580500  0.310010  0.168870  1.0  0.1036
  C  C875  1  0.538700  0.252200  0.194200  1.0  0.1136
  C  C876  1  0.563900  0.244370  0.227500  1.0  -0.1809
  C  C877  1  0.204100  0.920500  0.618400  1.0  -0.0219
  C  C878  1  0.226000  0.950300  0.636700  1.0  -0.1437
  C  C879  1  0.169500  0.939990  0.668870  1.0  0.1012
  C  C880  1  0.211300  0.997800  0.694200  1.0  0.1134
  C  C881  1  0.186100  0.005630  0.727500  1.0  -0.1814
  C  C882  1  0.204100  0.420500  0.118400  1.0  -0.0219
  C  C883  1  0.226000  0.450300  0.136700  1.0  -0.1437
  C  C884  1  0.169500  0.439990  0.168870  1.0  0.1012
  C  C885  1  0.211300  0.497800  0.194200  1.0  0.1134
  C  C886  1  0.186100  0.505630  0.227500  1.0  -0.1814
  C  C887  1  0.704100  0.920500  0.118400  1.0  -0.0219
  C  C888  1  0.726000  0.950300  0.136700  1.0  -0.1437
  C  C889  1  0.669500  0.939990  0.168870  1.0  0.1012
  C  C890  1  0.711300  0.997800  0.194200  1.0  0.1134
  C  C891  1  0.686100  0.005630  0.227500  1.0  -0.1814
  C  C892  1  0.704100  0.420500  0.618400  1.0  -0.0219
  C  C893  1  0.726000  0.450300  0.636700  1.0  -0.1437
  C  C894  1  0.669500  0.439990  0.668870  1.0  0.1012
  C  C895  1  0.711300  0.497800  0.694200  1.0  0.1134
  C  C896  1  0.686100  0.505630  0.727500  1.0  -0.1814
  C  C897  1  0.131600  0.704100  0.329500  1.0  -0.0222
  C  C898  1  0.113300  0.726000  0.299700  1.0  -0.143
  C  C899  1  0.081130  0.669500  0.310010  1.0  0.1
  C  C900  1  0.055800  0.711300  0.252200  1.0  0.1171
  C  C901  1  0.022500  0.686100  0.244370  1.0  -0.1817
  C  C902  1  0.131600  0.204100  0.829500  1.0  -0.0222
  C  C903  1  0.113300  0.226000  0.799700  1.0  -0.143
  C  C904  1  0.081130  0.169500  0.810010  1.0  0.1
  C  C905  1  0.055800  0.211300  0.752200  1.0  0.1171
  C  C906  1  0.022500  0.186100  0.744370  1.0  -0.1817
  C  C907  1  0.631600  0.704100  0.829500  1.0  -0.0222
  C  C908  1  0.613300  0.726000  0.799700  1.0  -0.143
  C  C909  1  0.581130  0.669500  0.810010  1.0  0.1
  C  C910  1  0.555800  0.711300  0.752200  1.0  0.1171
  C  C911  1  0.522500  0.686100  0.744370  1.0  -0.1817
  C  C912  1  0.631600  0.204100  0.329500  1.0  -0.0222
  C  C913  1  0.613300  0.226000  0.299700  1.0  -0.143
  C  C914  1  0.581130  0.169500  0.310010  1.0  0.1
  C  C915  1  0.555800  0.211300  0.252200  1.0  0.1171
  C  C916  1  0.522500  0.186100  0.244370  1.0  -0.1817
  C  C917  1  0.631600  0.545900  0.420500  1.0  -0.0219
  C  C918  1  0.613300  0.524000  0.450300  1.0  -0.1439
  C  C919  1  0.581130  0.580500  0.439990  1.0  0.1011
  C  C920  1  0.555800  0.538700  0.497800  1.0  0.1162
  C  C921  1  0.522500  0.563900  0.505630  1.0  -0.18
  C  C922  1  0.631600  0.045900  0.920500  1.0  -0.0219
  C  C923  1  0.613300  0.024000  0.950300  1.0  -0.1439
  C  C924  1  0.581130  0.080500  0.939990  1.0  0.1011
  C  C925  1  0.555800  0.038700  0.997800  1.0  0.1162
  C  C926  1  0.522500  0.063900  0.005630  1.0  -0.18
  C  C927  1  0.131600  0.545900  0.920500  1.0  -0.0219
  C  C928  1  0.113300  0.524000  0.950300  1.0  -0.1439
  C  C929  1  0.081130  0.580500  0.939990  1.0  0.1011
  C  C930  1  0.055800  0.538700  0.997800  1.0  0.1162
  C  C931  1  0.022500  0.563900  0.005630  1.0  -0.18
  C  C932  1  0.131600  0.045900  0.420500  1.0  -0.0219
  C  C933  1  0.113300  0.024000  0.450300  1.0  -0.1439
  C  C934  1  0.081130  0.080500  0.439990  1.0  0.1011
  C  C935  1  0.055800  0.038700  0.497800  1.0  0.1162
  C  C936  1  0.022500  0.063900  0.505630  1.0  -0.18
  C  C937  1  0.118400  0.045900  0.829500  1.0  -0.022
  C  C938  1  0.136700  0.024000  0.799700  1.0  -0.1429
  C  C939  1  0.168870  0.080500  0.810010  1.0  0.1027
  C  C940  1  0.194200  0.038700  0.752200  1.0  0.1163
  C  C941  1  0.227500  0.063900  0.744370  1.0  -0.1784
  C  C942  1  0.118400  0.545900  0.329500  1.0  -0.022
  C  C943  1  0.136700  0.524000  0.299700  1.0  -0.1429
  C  C944  1  0.168870  0.580500  0.310010  1.0  0.1027
  C  C945  1  0.194200  0.538700  0.252200  1.0  0.1163
  C  C946  1  0.227500  0.563900  0.244370  1.0  -0.1784
  C  C947  1  0.618400  0.045900  0.329500  1.0  -0.022
  C  C948  1  0.636700  0.024000  0.299700  1.0  -0.1429
  C  C949  1  0.668870  0.080500  0.310010  1.0  0.1027
  C  C950  1  0.694200  0.038700  0.252200  1.0  0.1163
  C  C951  1  0.727500  0.063900  0.244370  1.0  -0.1784
  C  C952  1  0.618400  0.545900  0.829500  1.0  -0.022
  C  C953  1  0.636700  0.524000  0.799700  1.0  -0.1429
  C  C954  1  0.668870  0.580500  0.810010  1.0  0.1027
  C  C955  1  0.694200  0.538700  0.752200  1.0  0.1163
  C  C956  1  0.727500  0.563900  0.744370  1.0  -0.1784
  C  C957  1  0.618400  0.204100  0.920500  1.0  -0.0214
  C  C958  1  0.636700  0.226000  0.950300  1.0  -0.1435
  C  C959  1  0.668870  0.169500  0.939990  1.0  0.1016
  C  C960  1  0.694200  0.211300  0.997800  1.0  0.118
  C  C961  1  0.727500  0.186100  0.005630  1.0  -0.1807
  C  C962  1  0.618400  0.704100  0.420500  1.0  -0.0214
  C  C963  1  0.636700  0.726000  0.450300  1.0  -0.1435
  C  C964  1  0.668870  0.669500  0.439990  1.0  0.1016
  C  C965  1  0.694200  0.711300  0.497800  1.0  0.118
  C  C966  1  0.727500  0.686100  0.505630  1.0  -0.1807
  C  C967  1  0.118400  0.204100  0.420500  1.0  -0.0214
  C  C968  1  0.136700  0.226000  0.450300  1.0  -0.1435
  C  C969  1  0.168870  0.169500  0.439990  1.0  0.1016
  C  C970  1  0.194200  0.211300  0.497800  1.0  0.118
  C  C971  1  0.227500  0.186100  0.505630  1.0  -0.1807
  C  C972  1  0.118400  0.704100  0.920500  1.0  -0.0214
  C  C973  1  0.136700  0.726000  0.950300  1.0  -0.1435
  C  C974  1  0.168870  0.669500  0.939990  1.0  0.1016
  C  C975  1  0.194200  0.711300  0.997800  1.0  0.118
  C  C976  1  0.227500  0.686100  0.005630  1.0  -0.1807
  C  C977  1  0.329500  0.131600  0.704100  1.0  -0.0258
  C  C978  1  0.299700  0.113300  0.726000  1.0  -0.1423
  C  C979  1  0.310010  0.081130  0.669500  1.0  0.1056
  C  C980  1  0.252200  0.055800  0.711300  1.0  0.113
  C  C981  1  0.244370  0.022500  0.686100  1.0  -0.1834
  C  C982  1  0.329500  0.631600  0.204100  1.0  -0.0258
  C  C983  1  0.299700  0.613300  0.226000  1.0  -0.1423
  C  C984  1  0.310010  0.581130  0.169500  1.0  0.1056
  C  C985  1  0.252200  0.555800  0.211300  1.0  0.113
  C  C986  1  0.244370  0.522500  0.186100  1.0  -0.1834
  C  C987  1  0.829500  0.131600  0.204100  1.0  -0.0258
  C  C988  1  0.799700  0.113300  0.226000  1.0  -0.1423
  C  C989  1  0.810010  0.081130  0.169500  1.0  0.1056
  C  C990  1  0.752200  0.055800  0.211300  1.0  0.113
  C  C991  1  0.744370  0.022500  0.186100  1.0  -0.1834
  C  C992  1  0.829500  0.631600  0.704100  1.0  -0.0258
  C  C993  1  0.799700  0.613300  0.726000  1.0  -0.1423
  C  C994  1  0.810010  0.581130  0.669500  1.0  0.1056
  C  C995  1  0.752200  0.555800  0.711300  1.0  0.113
  C  C996  1  0.744370  0.522500  0.686100  1.0  -0.1834
  C  C997  1  0.420500  0.631600  0.545900  1.0  -0.0257
  C  C998  1  0.450300  0.613300  0.524000  1.0  -0.1428
  C  C999  1  0.439990  0.581130  0.580500  1.0  0.1053
  C  C1000  1  0.497800  0.555800  0.538700  1.0  0.1148
  C  C1001  1  0.505630  0.522500  0.563900  1.0  -0.1828
  C  C1002  1  0.420500  0.131600  0.045900  1.0  -0.0257
  C  C1003  1  0.450300  0.113300  0.024000  1.0  -0.1428
  C  C1004  1  0.439990  0.081130  0.080500  1.0  0.1053
  C  C1005  1  0.497800  0.055800  0.038700  1.0  0.1148
  C  C1006  1  0.505630  0.022500  0.063900  1.0  -0.1828
  C  C1007  1  0.920500  0.631600  0.045900  1.0  -0.0257
  C  C1008  1  0.950300  0.613300  0.024000  1.0  -0.1428
  C  C1009  1  0.939990  0.581130  0.080500  1.0  0.1053
  C  C1010  1  0.997800  0.555800  0.038700  1.0  0.1148
  C  C1011  1  0.005630  0.522500  0.063900  1.0  -0.1828
  C  C1012  1  0.920500  0.131600  0.545900  1.0  -0.0257
  C  C1013  1  0.950300  0.113300  0.524000  1.0  -0.1428
  C  C1014  1  0.939990  0.081130  0.580500  1.0  0.1053
  C  C1015  1  0.997800  0.055800  0.538700  1.0  0.1148
  C  C1016  1  0.005630  0.022500  0.563900  1.0  -0.1828
  C  C1017  1  0.829500  0.118400  0.045900  1.0  -0.0251
  C  C1018  1  0.799700  0.136700  0.024000  1.0  -0.1414
  C  C1019  1  0.810010  0.168870  0.080500  1.0  0.1068
  C  C1020  1  0.752200  0.194200  0.038700  1.0  0.1145
  C  C1021  1  0.744370  0.227500  0.063900  1.0  -0.1826
  C  C1022  1  0.829500  0.618400  0.545900  1.0  -0.0251
  C  C1023  1  0.799700  0.636700  0.524000  1.0  -0.1414
  C  C1024  1  0.810010  0.668870  0.580500  1.0  0.1068
  C  C1025  1  0.752200  0.694200  0.538700  1.0  0.1145
  C  C1026  1  0.744370  0.727500  0.563900  1.0  -0.1826
  C  C1027  1  0.329500  0.118400  0.545900  1.0  -0.0251
  C  C1028  1  0.299700  0.136700  0.524000  1.0  -0.1414
  C  C1029  1  0.310010  0.168870  0.580500  1.0  0.1068
  C  C1030  1  0.252200  0.194200  0.538700  1.0  0.1145
  C  C1031  1  0.244370  0.227500  0.563900  1.0  -0.1826
  C  C1032  1  0.329500  0.618400  0.045900  1.0  -0.0251
  C  C1033  1  0.299700  0.636700  0.024000  1.0  -0.1414
  C  C1034  1  0.310010  0.668870  0.080500  1.0  0.1068
  C  C1035  1  0.252200  0.694200  0.038700  1.0  0.1145
  C  C1036  1  0.244370  0.727500  0.063900  1.0  -0.1826
  C  C1037  1  0.920500  0.618400  0.204100  1.0  -0.0257
  C  C1038  1  0.950300  0.636700  0.226000  1.0  -0.1419
  C  C1039  1  0.939990  0.668870  0.169500  1.0  0.1055
  C  C1040  1  0.997800  0.694200  0.211300  1.0  0.1152
  C  C1041  1  0.005630  0.727500  0.186100  1.0  -0.1845
  C  C1042  1  0.920500  0.118400  0.704100  1.0  -0.0257
  C  C1043  1  0.950300  0.136700  0.726000  1.0  -0.1419
  C  C1044  1  0.939990  0.168870  0.669500  1.0  0.1055
  C  C1045  1  0.997800  0.194200  0.711300  1.0  0.1152
  C  C1046  1  0.005630  0.227500  0.686100  1.0  -0.1845
  C  C1047  1  0.420500  0.618400  0.704100  1.0  -0.0257
  C  C1048  1  0.450300  0.636700  0.726000  1.0  -0.1419
  C  C1049  1  0.439990  0.668870  0.669500  1.0  0.1055
  C  C1050  1  0.497800  0.694200  0.711300  1.0  0.1152
  C  C1051  1  0.505630  0.727500  0.686100  1.0  -0.1845
  C  C1052  1  0.420500  0.118400  0.204100  1.0  -0.0257
  C  C1053  1  0.450300  0.136700  0.226000  1.0  -0.1419
  C  C1054  1  0.439990  0.168870  0.169500  1.0  0.1055
  C  C1055  1  0.497800  0.194200  0.211300  1.0  0.1152
  C  C1056  1  0.505630  0.227500  0.186100  1.0  -0.1845
  C  C1057  1  0.920500  0.045900  0.131600  1.0  -0.0239
  C  C1058  1  0.950300  0.024000  0.113300  1.0  -0.1443
  C  C1059  1  0.939990  0.080500  0.081130  1.0  0.1032
  C  C1060  1  0.997800  0.038700  0.055800  1.0  0.1147
  C  C1061  1  0.005630  0.063900  0.022500  1.0  -0.1813
  C  C1062  1  0.920500  0.545900  0.631600  1.0  -0.0239
  C  C1063  1  0.950300  0.524000  0.613300  1.0  -0.1443
  C  C1064  1  0.939990  0.580500  0.581130  1.0  0.1032
  C  C1065  1  0.997800  0.538700  0.555800  1.0  0.1147
  C  C1066  1  0.005630  0.563900  0.522500  1.0  -0.1813
  C  C1067  1  0.420500  0.045900  0.631600  1.0  -0.0239
  C  C1068  1  0.450300  0.024000  0.613300  1.0  -0.1443
  C  C1069  1  0.439990  0.080500  0.581130  1.0  0.1032
  C  C1070  1  0.497800  0.038700  0.555800  1.0  0.1147
  C  C1071  1  0.505630  0.063900  0.522500  1.0  -0.1813
  C  C1072  1  0.420500  0.545900  0.131600  1.0  -0.0239
  C  C1073  1  0.450300  0.524000  0.113300  1.0  -0.1443
  C  C1074  1  0.439990  0.580500  0.081130  1.0  0.1032
  C  C1075  1  0.497800  0.538700  0.055800  1.0  0.1147
  C  C1076  1  0.505630  0.563900  0.022500  1.0  -0.1813
  C  C1077  1  0.829500  0.204100  0.631600  1.0  -0.0235
  C  C1078  1  0.799700  0.226000  0.613300  1.0  -0.145
  C  C1079  1  0.810010  0.169500  0.581130  1.0  0.1027
  C  C1080  1  0.752200  0.211300  0.555800  1.0  0.1143
  C  C1081  1  0.744370  0.186100  0.522500  1.0  -0.182
  C  C1082  1  0.829500  0.704100  0.131600  1.0  -0.0235
  C  C1083  1  0.799700  0.726000  0.113300  1.0  -0.145
  C  C1084  1  0.810010  0.669500  0.081130  1.0  0.1027
  C  C1085  1  0.752200  0.711300  0.055800  1.0  0.1143
  C  C1086  1  0.744370  0.686100  0.022500  1.0  -0.182
  C  C1087  1  0.329500  0.204100  0.131600  1.0  -0.0235
  C  C1088  1  0.299700  0.226000  0.113300  1.0  -0.145
  C  C1089  1  0.310010  0.169500  0.081130  1.0  0.1027
  C  C1090  1  0.252200  0.211300  0.055800  1.0  0.1143
  C  C1091  1  0.244370  0.186100  0.022500  1.0  -0.182
  C  C1092  1  0.329500  0.704100  0.631600  1.0  -0.0235
  C  C1093  1  0.299700  0.726000  0.613300  1.0  -0.145
  C  C1094  1  0.310010  0.669500  0.581130  1.0  0.1027
  C  C1095  1  0.252200  0.711300  0.555800  1.0  0.1143
  C  C1096  1  0.244370  0.686100  0.522500  1.0  -0.182
  C  C1097  1  0.420500  0.704100  0.118400  1.0  -0.0233
  C  C1098  1  0.450300  0.726000  0.136700  1.0  -0.1461
  C  C1099  1  0.439990  0.669500  0.168870  1.0  0.1021
  C  C1100  1  0.497800  0.711300  0.194200  1.0  0.1143
  C  C1101  1  0.505630  0.686100  0.227500  1.0  -0.1825
  C  C1102  1  0.420500  0.204100  0.618400  1.0  -0.0233
  C  C1103  1  0.450300  0.226000  0.636700  1.0  -0.1461
  C  C1104  1  0.439990  0.169500  0.668870  1.0  0.1021
  C  C1105  1  0.497800  0.211300  0.694200  1.0  0.1143
  C  C1106  1  0.505630  0.186100  0.727500  1.0  -0.1825
  C  C1107  1  0.920500  0.704100  0.618400  1.0  -0.0233
  C  C1108  1  0.950300  0.726000  0.636700  1.0  -0.1461
  C  C1109  1  0.939990  0.669500  0.668870  1.0  0.1021
  C  C1110  1  0.997800  0.711300  0.694200  1.0  0.1143
  C  C1111  1  0.005630  0.686100  0.727500  1.0  -0.1825
  C  C1112  1  0.920500  0.204100  0.118400  1.0  -0.0233
  C  C1113  1  0.950300  0.226000  0.136700  1.0  -0.1461
  C  C1114  1  0.939990  0.169500  0.168870  1.0  0.1021
  C  C1115  1  0.997800  0.211300  0.194200  1.0  0.1143
  C  C1116  1  0.005630  0.186100  0.227500  1.0  -0.1825
  C  C1117  1  0.329500  0.545900  0.618400  1.0  -0.023
  C  C1118  1  0.299700  0.524000  0.636700  1.0  -0.1447
  C  C1119  1  0.310010  0.580500  0.668870  1.0  0.1034
  C  C1120  1  0.252200  0.538700  0.694200  1.0  0.1126
  C  C1121  1  0.244370  0.563900  0.727500  1.0  -0.179
  C  C1122  1  0.329500  0.045900  0.118400  1.0  -0.023
  C  C1123  1  0.299700  0.024000  0.136700  1.0  -0.1447
  C  C1124  1  0.310010  0.080500  0.168870  1.0  0.1034
  C  C1125  1  0.252200  0.038700  0.194200  1.0  0.1126
  C  C1126  1  0.244370  0.063900  0.227500  1.0  -0.179
  C  C1127  1  0.829500  0.545900  0.118400  1.0  -0.023
  C  C1128  1  0.799700  0.524000  0.136700  1.0  -0.1447
  C  C1129  1  0.810010  0.580500  0.168870  1.0  0.1034
  C  C1130  1  0.752200  0.538700  0.194200  1.0  0.1126
  C  C1131  1  0.744370  0.563900  0.227500  1.0  -0.179
  C  C1132  1  0.829500  0.045900  0.618400  1.0  -0.023
  C  C1133  1  0.799700  0.024000  0.636700  1.0  -0.1447
  C  C1134  1  0.810010  0.080500  0.668870  1.0  0.1034
  C  C1135  1  0.752200  0.038700  0.694200  1.0  0.1126
  C  C1136  1  0.744370  0.063900  0.727500  1.0  -0.179
  C  C1137  1  0.545900  0.618400  0.329500  1.0  -0.0225
  C  C1138  1  0.524000  0.636700  0.299700  1.0  -0.1416
  C  C1139  1  0.580500  0.668870  0.310010  1.0  0.103
  C  C1140  1  0.538700  0.694200  0.252200  1.0  0.1167
  C  C1141  1  0.563900  0.727500  0.244370  1.0  -0.1797
  C  C1142  1  0.545900  0.118400  0.829500  1.0  -0.0225
  C  C1143  1  0.524000  0.136700  0.799700  1.0  -0.1416
  C  C1144  1  0.580500  0.168870  0.810010  1.0  0.103
  C  C1145  1  0.538700  0.194200  0.752200  1.0  0.1167
  C  C1146  1  0.563900  0.227500  0.744370  1.0  -0.1797
  C  C1147  1  0.045900  0.618400  0.829500  1.0  -0.0225
  C  C1148  1  0.024000  0.636700  0.799700  1.0  -0.1416
  C  C1149  1  0.080500  0.668870  0.810010  1.0  0.103
  C  C1150  1  0.038700  0.694200  0.752200  1.0  0.1167
  C  C1151  1  0.063900  0.727500  0.744370  1.0  -0.1797
  C  C1152  1  0.045900  0.118400  0.329500  1.0  -0.0225
  C  C1153  1  0.024000  0.136700  0.299700  1.0  -0.1416
  C  C1154  1  0.080500  0.168870  0.310010  1.0  0.103
  C  C1155  1  0.038700  0.194200  0.252200  1.0  0.1167
  C  C1156  1  0.063900  0.227500  0.244370  1.0  -0.1797
  C  C1157  1  0.704100  0.118400  0.420500  1.0  -0.0225
  C  C1158  1  0.726000  0.136700  0.450300  1.0  -0.142
  C  C1159  1  0.669500  0.168870  0.439990  1.0  0.1011
  C  C1160  1  0.711300  0.194200  0.497800  1.0  0.1171
  C  C1161  1  0.686100  0.227500  0.505630  1.0  -0.1805
  C  C1162  1  0.704100  0.618400  0.920500  1.0  -0.0225
  C  C1163  1  0.726000  0.636700  0.950300  1.0  -0.142
  C  C1164  1  0.669500  0.668870  0.939990  1.0  0.1011
  C  C1165  1  0.711300  0.694200  0.997800  1.0  0.1171
  C  C1166  1  0.686100  0.727500  0.005630  1.0  -0.1805
  C  C1167  1  0.204100  0.118400  0.920500  1.0  -0.0225
  C  C1168  1  0.226000  0.136700  0.950300  1.0  -0.142
  C  C1169  1  0.169500  0.168870  0.939990  1.0  0.1011
  C  C1170  1  0.211300  0.194200  0.997800  1.0  0.1171
  C  C1171  1  0.186100  0.227500  0.005630  1.0  -0.1805
  C  C1172  1  0.204100  0.618400  0.420500  1.0  -0.0225
  C  C1173  1  0.226000  0.636700  0.450300  1.0  -0.142
  C  C1174  1  0.169500  0.668870  0.439990  1.0  0.1011
  C  C1175  1  0.211300  0.694200  0.497800  1.0  0.1171
  C  C1176  1  0.186100  0.727500  0.505630  1.0  -0.1805
  C  C1177  1  0.204100  0.631600  0.829500  1.0  -0.0231
  C  C1178  1  0.226000  0.613300  0.799700  1.0  -0.1426
  C  C1179  1  0.169500  0.581130  0.810010  1.0  0.1
  C  C1180  1  0.211300  0.555800  0.752200  1.0  0.1154
  C  C1181  1  0.186100  0.522500  0.744370  1.0  -0.1807
  C  C1182  1  0.204100  0.131600  0.329500  1.0  -0.0231
  C  C1183  1  0.226000  0.113300  0.299700  1.0  -0.1426
  C  C1184  1  0.169500  0.081130  0.310010  1.0  0.1
  C  C1185  1  0.211300  0.055800  0.252200  1.0  0.1154
  C  C1186  1  0.186100  0.022500  0.244370  1.0  -0.1807
  C  C1187  1  0.704100  0.631600  0.329500  1.0  -0.0231
  C  C1188  1  0.726000  0.613300  0.299700  1.0  -0.1426
  C  C1189  1  0.669500  0.581130  0.310010  1.0  0.1
  C  C1190  1  0.711300  0.555800  0.252200  1.0  0.1154
  C  C1191  1  0.686100  0.522500  0.244370  1.0  -0.1807
  C  C1192  1  0.704100  0.131600  0.829500  1.0  -0.0231
  C  C1193  1  0.726000  0.113300  0.799700  1.0  -0.1426
  C  C1194  1  0.669500  0.081130  0.810010  1.0  0.1
  C  C1195  1  0.711300  0.055800  0.752200  1.0  0.1154
  C  C1196  1  0.686100  0.022500  0.744370  1.0  -0.1807
  C  C1197  1  0.045900  0.131600  0.920500  1.0  -0.0226
  C  C1198  1  0.024000  0.113300  0.950300  1.0  -0.1434
  C  C1199  1  0.080500  0.081130  0.939990  1.0  0.1026
  C  C1200  1  0.038700  0.055800  0.997800  1.0  0.1158
  C  C1201  1  0.063900  0.022500  0.005630  1.0  -0.1809
  C  C1202  1  0.045900  0.631600  0.420500  1.0  -0.0226
  C  C1203  1  0.024000  0.613300  0.450300  1.0  -0.1434
  C  C1204  1  0.080500  0.581130  0.439990  1.0  0.1026
  C  C1205  1  0.038700  0.555800  0.497800  1.0  0.1158
  C  C1206  1  0.063900  0.522500  0.505630  1.0  -0.1809
  C  C1207  1  0.545900  0.131600  0.420500  1.0  -0.0226
  C  C1208  1  0.524000  0.113300  0.450300  1.0  -0.1434
  C  C1209  1  0.580500  0.081130  0.439990  1.0  0.1026
  C  C1210  1  0.538700  0.055800  0.497800  1.0  0.1158
  C  C1211  1  0.563900  0.022500  0.505630  1.0  -0.1809
  C  C1212  1  0.545900  0.631600  0.920500  1.0  -0.0226
  C  C1213  1  0.524000  0.613300  0.950300  1.0  -0.1434
  C  C1214  1  0.580500  0.581130  0.939990  1.0  0.1026
  C  C1215  1  0.538700  0.555800  0.997800  1.0  0.1158
  C  C1216  1  0.563900  0.522500  0.005630  1.0  -0.1809
  C  C1217  1  0.118400  0.420500  0.704100  1.0  -0.0243
  C  C1218  1  0.136700  0.450300  0.726000  1.0  -0.1417
  C  C1219  1  0.168870  0.439990  0.669500  1.0  0.1054
  C  C1220  1  0.194200  0.497800  0.711300  1.0  0.114
  C  C1221  1  0.227500  0.505630  0.686100  1.0  -0.1826
  C  C1222  1  0.118400  0.920500  0.204100  1.0  -0.0243
  C  C1223  1  0.136700  0.950300  0.226000  1.0  -0.1417
  C  C1224  1  0.168870  0.939990  0.169500  1.0  0.1054
  C  C1225  1  0.194200  0.997800  0.211300  1.0  0.114
  C  C1226  1  0.227500  0.005630  0.186100  1.0  -0.1826
  C  C1227  1  0.618400  0.420500  0.204100  1.0  -0.0243
  C  C1228  1  0.636700  0.450300  0.226000  1.0  -0.1417
  C  C1229  1  0.668870  0.439990  0.169500  1.0  0.1054
  C  C1230  1  0.694200  0.497800  0.211300  1.0  0.114
  C  C1231  1  0.727500  0.505630  0.186100  1.0  -0.1826
  C  C1232  1  0.618400  0.920500  0.704100  1.0  -0.0243
  C  C1233  1  0.636700  0.950300  0.726000  1.0  -0.1417
  C  C1234  1  0.668870  0.939990  0.669500  1.0  0.1054
  C  C1235  1  0.694200  0.997800  0.711300  1.0  0.114
  C  C1236  1  0.727500  0.005630  0.686100  1.0  -0.1826
  C  C1237  1  0.618400  0.329500  0.545900  1.0  -0.0234
  C  C1238  1  0.636700  0.299700  0.524000  1.0  -0.1409
  C  C1239  1  0.668870  0.310010  0.580500  1.0  0.1059
  C  C1240  1  0.694200  0.252200  0.538700  1.0  0.1167
  C  C1241  1  0.727500  0.244370  0.563900  1.0  -0.1824
  C  C1242  1  0.618400  0.829500  0.045900  1.0  -0.0234
  C  C1243  1  0.636700  0.799700  0.024000  1.0  -0.1409
  C  C1244  1  0.668870  0.810010  0.080500  1.0  0.1059
  C  C1245  1  0.694200  0.752200  0.038700  1.0  0.1167
  C  C1246  1  0.727500  0.744370  0.063900  1.0  -0.1824
  C  C1247  1  0.118400  0.329500  0.045900  1.0  -0.0234
  C  C1248  1  0.136700  0.299700  0.024000  1.0  -0.1409
  C  C1249  1  0.168870  0.310010  0.080500  1.0  0.1059
  C  C1250  1  0.194200  0.252200  0.038700  1.0  0.1167
  C  C1251  1  0.227500  0.244370  0.063900  1.0  -0.1824
  C  C1252  1  0.118400  0.829500  0.545900  1.0  -0.0234
  C  C1253  1  0.136700  0.799700  0.524000  1.0  -0.1409
  C  C1254  1  0.168870  0.810010  0.580500  1.0  0.1059
  C  C1255  1  0.194200  0.752200  0.538700  1.0  0.1167
  C  C1256  1  0.227500  0.744370  0.563900  1.0  -0.1824
  C  C1257  1  0.131600  0.920500  0.045900  1.0  -0.0244
  C  C1258  1  0.113300  0.950300  0.024000  1.0  -0.1413
  C  C1259  1  0.081130  0.939990  0.080500  1.0  0.1041
  C  C1260  1  0.055800  0.997800  0.038700  1.0  0.1148
  C  C1261  1  0.022500  0.005630  0.063900  1.0  -0.182
  C  C1262  1  0.131600  0.420500  0.545900  1.0  -0.0244
  C  C1263  1  0.113300  0.450300  0.524000  1.0  -0.1413
  C  C1264  1  0.081130  0.439990  0.580500  1.0  0.1041
  C  C1265  1  0.055800  0.497800  0.538700  1.0  0.1148
  C  C1266  1  0.022500  0.505630  0.563900  1.0  -0.182
  C  C1267  1  0.631600  0.920500  0.545900  1.0  -0.0244
  C  C1268  1  0.613300  0.950300  0.524000  1.0  -0.1413
  C  C1269  1  0.581130  0.939990  0.580500  1.0  0.1041
  C  C1270  1  0.555800  0.997800  0.538700  1.0  0.1148
  C  C1271  1  0.522500  0.005630  0.563900  1.0  -0.182
  C  C1272  1  0.631600  0.420500  0.045900  1.0  -0.0244
  C  C1273  1  0.613300  0.450300  0.024000  1.0  -0.1413
  C  C1274  1  0.581130  0.439990  0.080500  1.0  0.1041
  C  C1275  1  0.555800  0.497800  0.038700  1.0  0.1148
  C  C1276  1  0.522500  0.505630  0.063900  1.0  -0.182
  C  C1277  1  0.631600  0.829500  0.204100  1.0  -0.0233
  C  C1278  1  0.613300  0.799700  0.226000  1.0  -0.1409
  C  C1279  1  0.581130  0.810010  0.169500  1.0  0.1039
  C  C1280  1  0.555800  0.752200  0.211300  1.0  0.1154
  C  C1281  1  0.522500  0.744370  0.186100  1.0  -0.184
  C  C1282  1  0.631600  0.329500  0.704100  1.0  -0.0233
  C  C1283  1  0.613300  0.299700  0.726000  1.0  -0.1409
  C  C1284  1  0.581130  0.310010  0.669500  1.0  0.1039
  C  C1285  1  0.555800  0.252200  0.711300  1.0  0.1154
  C  C1286  1  0.522500  0.244370  0.686100  1.0  -0.184
  C  C1287  1  0.131600  0.829500  0.704100  1.0  -0.0233
  C  C1288  1  0.113300  0.799700  0.726000  1.0  -0.1409
  C  C1289  1  0.081130  0.810010  0.669500  1.0  0.1039
  C  C1290  1  0.055800  0.752200  0.711300  1.0  0.1154
  C  C1291  1  0.022500  0.744370  0.686100  1.0  -0.184
  C  C1292  1  0.131600  0.329500  0.204100  1.0  -0.0233
  C  C1293  1  0.113300  0.299700  0.226000  1.0  -0.1409
  C  C1294  1  0.081130  0.310010  0.169500  1.0  0.1039
  C  C1295  1  0.055800  0.252200  0.211300  1.0  0.1154
  C  C1296  1  0.022500  0.244370  0.186100  1.0  -0.184
  C  C1297  1  0.079500  0.954100  0.868400  1.0  -0.0231
  C  C1298  1  0.049700  0.976000  0.886700  1.0  -0.1451
  C  C1299  1  0.060010  0.919500  0.918870  1.0  0.1029
  C  C1300  1  0.002200  0.961300  0.944200  1.0  0.1127
  C  C1301  1  0.994370  0.936100  0.977500  1.0  -0.1812
  C  C1302  1  0.079500  0.454100  0.368400  1.0  -0.0231
  C  C1303  1  0.049700  0.476000  0.386700  1.0  -0.1451
  C  C1304  1  0.060010  0.419500  0.418870  1.0  0.1029
  C  C1305  1  0.002200  0.461300  0.444200  1.0  0.1127
  C  C1306  1  0.994370  0.436100  0.477500  1.0  -0.1812
  C  C1307  1  0.579500  0.954100  0.368400  1.0  -0.0231
  C  C1308  1  0.549700  0.976000  0.386700  1.0  -0.1451
  C  C1309  1  0.560010  0.919500  0.418870  1.0  0.1029
  C  C1310  1  0.502200  0.961300  0.444200  1.0  0.1127
  C  C1311  1  0.494370  0.936100  0.477500  1.0  -0.1812
  C  C1312  1  0.579500  0.454100  0.868400  1.0  -0.0231
  C  C1313  1  0.549700  0.476000  0.886700  1.0  -0.1451
  C  C1314  1  0.560010  0.419500  0.918870  1.0  0.1029
  C  C1315  1  0.502200  0.461300  0.944200  1.0  0.1127
  C  C1316  1  0.494370  0.436100  0.977500  1.0  -0.1812
  C  C1317  1  0.170500  0.795900  0.368400  1.0  -0.0235
  C  C1318  1  0.200300  0.774000  0.386700  1.0  -0.1461
  C  C1319  1  0.189990  0.830500  0.418870  1.0  0.1031
  C  C1320  1  0.247800  0.788700  0.444200  1.0  0.1139
  C  C1321  1  0.255630  0.813900  0.477500  1.0  -0.1802
  C  C1322  1  0.170500  0.295900  0.868400  1.0  -0.0235
  C  C1323  1  0.200300  0.274000  0.886700  1.0  -0.1461
  C  C1324  1  0.189990  0.330500  0.918870  1.0  0.1031
  C  C1325  1  0.247800  0.288700  0.944200  1.0  0.1139
  C  C1326  1  0.255630  0.313900  0.977500  1.0  -0.1802
  C  C1327  1  0.670500  0.795900  0.868400  1.0  -0.0235
  C  C1328  1  0.700300  0.774000  0.886700  1.0  -0.1461
  C  C1329  1  0.689990  0.830500  0.918870  1.0  0.1031
  C  C1330  1  0.747800  0.788700  0.944200  1.0  0.1139
  C  C1331  1  0.755630  0.813900  0.977500  1.0  -0.1802
  C  C1332  1  0.670500  0.295900  0.368400  1.0  -0.0235
  C  C1333  1  0.700300  0.274000  0.386700  1.0  -0.1461
  C  C1334  1  0.689990  0.330500  0.418870  1.0  0.1031
  C  C1335  1  0.747800  0.288700  0.444200  1.0  0.1139
  C  C1336  1  0.755630  0.313900  0.477500  1.0  -0.1802
  C  C1337  1  0.579500  0.295900  0.881600  1.0  -0.0233
  C  C1338  1  0.549700  0.274000  0.863300  1.0  -0.145
  C  C1339  1  0.560010  0.330500  0.831130  1.0  0.1036
  C  C1340  1  0.502200  0.288700  0.805800  1.0  0.1128
  C  C1341  1  0.494370  0.313900  0.772500  1.0  -0.1808
  C  C1342  1  0.579500  0.795900  0.381600  1.0  -0.0233
  C  C1343  1  0.549700  0.774000  0.363300  1.0  -0.145
  C  C1344  1  0.560010  0.830500  0.331130  1.0  0.1036
  C  C1345  1  0.502200  0.788700  0.305800  1.0  0.1128
  C  C1346  1  0.494370  0.813900  0.272500  1.0  -0.1808
  C  C1347  1  0.079500  0.295900  0.381600  1.0  -0.0233
  C  C1348  1  0.049700  0.274000  0.363300  1.0  -0.145
  C  C1349  1  0.060010  0.330500  0.331130  1.0  0.1036
  C  C1350  1  0.002200  0.288700  0.305800  1.0  0.1128
  C  C1351  1  0.994370  0.313900  0.272500  1.0  -0.1808
  C  C1352  1  0.079500  0.795900  0.881600  1.0  -0.0233
  C  C1353  1  0.049700  0.774000  0.863300  1.0  -0.145
  C  C1354  1  0.060010  0.830500  0.831130  1.0  0.1036
  C  C1355  1  0.002200  0.788700  0.805800  1.0  0.1128
  C  C1356  1  0.994370  0.813900  0.772500  1.0  -0.1808
  C  C1357  1  0.670500  0.454100  0.381600  1.0  -0.0238
  C  C1358  1  0.700300  0.476000  0.363300  1.0  -0.1444
  C  C1359  1  0.689990  0.419500  0.331130  1.0  0.102
  C  C1360  1  0.747800  0.461300  0.305800  1.0  0.1163
  C  C1361  1  0.755630  0.436100  0.272500  1.0  -0.1822
  C  C1362  1  0.670500  0.954100  0.881600  1.0  -0.0238
  C  C1363  1  0.700300  0.976000  0.863300  1.0  -0.1444
  C  C1364  1  0.689990  0.919500  0.831130  1.0  0.102
  C  C1365  1  0.747800  0.961300  0.805800  1.0  0.1163
  C  C1366  1  0.755630  0.936100  0.772500  1.0  -0.1822
  C  C1367  1  0.170500  0.454100  0.881600  1.0  -0.0238
  C  C1368  1  0.200300  0.476000  0.863300  1.0  -0.1444
  C  C1369  1  0.189990  0.419500  0.831130  1.0  0.102
  C  C1370  1  0.247800  0.461300  0.805800  1.0  0.1163
  C  C1371  1  0.255630  0.436100  0.772500  1.0  -0.1822
  C  C1372  1  0.170500  0.954100  0.381600  1.0  -0.0238
  C  C1373  1  0.200300  0.976000  0.363300  1.0  -0.1444
  C  C1374  1  0.189990  0.919500  0.331130  1.0  0.102
  C  C1375  1  0.247800  0.961300  0.305800  1.0  0.1163
  C  C1376  1  0.255630  0.936100  0.272500  1.0  -0.1822
  C  C1377  1  0.454100  0.381600  0.670500  1.0  -0.0217
  C  C1378  1  0.476000  0.363300  0.700300  1.0  -0.1425
  C  C1379  1  0.419500  0.331130  0.689990  1.0  0.1003
  C  C1380  1  0.461300  0.305800  0.747800  1.0  0.1161
  C  C1381  1  0.436100  0.272500  0.755630  1.0  -0.1814
  C  C1382  1  0.454100  0.881600  0.170500  1.0  -0.0217
  C  C1383  1  0.476000  0.863300  0.200300  1.0  -0.1425
  C  C1384  1  0.419500  0.831130  0.189990  1.0  0.1003
  C  C1385  1  0.461300  0.805800  0.247800  1.0  0.1161
  C  C1386  1  0.436100  0.772500  0.255630  1.0  -0.1814
  C  C1387  1  0.954100  0.381600  0.170500  1.0  -0.0217
  C  C1388  1  0.976000  0.363300  0.200300  1.0  -0.1425
  C  C1389  1  0.919500  0.331130  0.189990  1.0  0.1003
  C  C1390  1  0.961300  0.305800  0.247800  1.0  0.1161
  C  C1391  1  0.936100  0.272500  0.255630  1.0  -0.1814
  C  C1392  1  0.954100  0.881600  0.670500  1.0  -0.0217
  C  C1393  1  0.976000  0.863300  0.700300  1.0  -0.1425
  C  C1394  1  0.919500  0.831130  0.689990  1.0  0.1003
  C  C1395  1  0.961300  0.805800  0.747800  1.0  0.1161
  C  C1396  1  0.936100  0.772500  0.755630  1.0  -0.1814
  C  C1397  1  0.295900  0.881600  0.579500  1.0  -0.0241
  C  C1398  1  0.274000  0.863300  0.549700  1.0  -0.1434
  C  C1399  1  0.330500  0.831130  0.560010  1.0  0.1023
  C  C1400  1  0.288700  0.805800  0.502200  1.0  0.1154
  C  C1401  1  0.313900  0.772500  0.494370  1.0  -0.1803
  C  C1402  1  0.295900  0.381600  0.079500  1.0  -0.0241
  C  C1403  1  0.274000  0.363300  0.049700  1.0  -0.1434
  C  C1404  1  0.330500  0.331130  0.060010  1.0  0.1023
  C  C1405  1  0.288700  0.305800  0.002200  1.0  0.1154
  C  C1406  1  0.313900  0.272500  0.994370  1.0  -0.1803
  C  C1407  1  0.795900  0.881600  0.079500  1.0  -0.0241
  C  C1408  1  0.774000  0.863300  0.049700  1.0  -0.1434
  C  C1409  1  0.830500  0.831130  0.060010  1.0  0.1023
  C  C1410  1  0.788700  0.805800  0.002200  1.0  0.1154
  C  C1411  1  0.813900  0.772500  0.994370  1.0  -0.1803
  C  C1412  1  0.795900  0.381600  0.579500  1.0  -0.0241
  C  C1413  1  0.774000  0.363300  0.549700  1.0  -0.1434
  C  C1414  1  0.830500  0.331130  0.560010  1.0  0.1023
  C  C1415  1  0.788700  0.305800  0.502200  1.0  0.1154
  C  C1416  1  0.813900  0.272500  0.494370  1.0  -0.1803
  C  C1417  1  0.795900  0.368400  0.170500  1.0  -0.0227
  C  C1418  1  0.774000  0.386700  0.200300  1.0  -0.1419
  C  C1419  1  0.830500  0.418870  0.189990  1.0  0.1034
  C  C1420  1  0.788700  0.444200  0.247800  1.0  0.1169
  C  C1421  1  0.813900  0.477500  0.255630  1.0  -0.1802
  C  C1422  1  0.795900  0.868400  0.670500  1.0  -0.0227
  C  C1423  1  0.774000  0.886700  0.700300  1.0  -0.1419
  C  C1424  1  0.830500  0.918870  0.689990  1.0  0.1034
  C  C1425  1  0.788700  0.944200  0.747800  1.0  0.1169
  C  C1426  1  0.813900  0.977500  0.755630  1.0  -0.1802
  C  C1427  1  0.295900  0.368400  0.670500  1.0  -0.0227
  C  C1428  1  0.274000  0.386700  0.700300  1.0  -0.1419
  C  C1429  1  0.330500  0.418870  0.689990  1.0  0.1034
  C  C1430  1  0.288700  0.444200  0.747800  1.0  0.1169
  C  C1431  1  0.313900  0.477500  0.755630  1.0  -0.1802
  C  C1432  1  0.295900  0.868400  0.170500  1.0  -0.0227
  C  C1433  1  0.274000  0.886700  0.200300  1.0  -0.1419
  C  C1434  1  0.330500  0.918870  0.189990  1.0  0.1034
  C  C1435  1  0.288700  0.944200  0.247800  1.0  0.1169
  C  C1436  1  0.313900  0.977500  0.255630  1.0  -0.1802
  C  C1437  1  0.954100  0.868400  0.079500  1.0  -0.0222
  C  C1438  1  0.976000  0.886700  0.049700  1.0  -0.1419
  C  C1439  1  0.919500  0.918870  0.060010  1.0  0.1006
  C  C1440  1  0.961300  0.944200  0.002200  1.0  0.1168
  C  C1441  1  0.936100  0.977500  0.994370  1.0  -0.1802
  C  C1442  1  0.954100  0.368400  0.579500  1.0  -0.0222
  C  C1443  1  0.976000  0.386700  0.549700  1.0  -0.1419
  C  C1444  1  0.919500  0.418870  0.560010  1.0  0.1006
  C  C1445  1  0.961300  0.444200  0.502200  1.0  0.1168
  C  C1446  1  0.936100  0.477500  0.494370  1.0  -0.1802
  C  C1447  1  0.454100  0.868400  0.579500  1.0  -0.0222
  C  C1448  1  0.476000  0.886700  0.549700  1.0  -0.1419
  C  C1449  1  0.419500  0.918870  0.560010  1.0  0.1006
  C  C1450  1  0.461300  0.944200  0.502200  1.0  0.1168
  C  C1451  1  0.436100  0.977500  0.494370  1.0  -0.1802
  C  C1452  1  0.454100  0.368400  0.079500  1.0  -0.0222
  C  C1453  1  0.476000  0.386700  0.049700  1.0  -0.1419
  C  C1454  1  0.419500  0.418870  0.060010  1.0  0.1006
  C  C1455  1  0.461300  0.444200  0.002200  1.0  0.1168
  C  C1456  1  0.436100  0.477500  0.994370  1.0  -0.1802
  C  C1457  1  0.881600  0.579500  0.295900  1.0  -0.0233
  C  C1458  1  0.863300  0.549700  0.274000  1.0  -0.1415
  C  C1459  1  0.831130  0.560010  0.330500  1.0  0.1043
  C  C1460  1  0.805800  0.502200  0.288700  1.0  0.1153
  C  C1461  1  0.772500  0.494370  0.313900  1.0  -0.1831
  C  C1462  1  0.881600  0.079500  0.795900  1.0  -0.0233
  C  C1463  1  0.863300  0.049700  0.774000  1.0  -0.1415
  C  C1464  1  0.831130  0.060010  0.830500  1.0  0.1043
  C  C1465  1  0.805800  0.002200  0.788700  1.0  0.1153
  C  C1466  1  0.772500  0.994370  0.813900  1.0  -0.1831
  C  C1467  1  0.381600  0.579500  0.795900  1.0  -0.0233
  C  C1468  1  0.363300  0.549700  0.774000  1.0  -0.1415
  C  C1469  1  0.331130  0.560010  0.830500  1.0  0.1043
  C  C1470  1  0.305800  0.502200  0.788700  1.0  0.1153
  C  C1471  1  0.272500  0.494370  0.813900  1.0  -0.1831
  C  C1472  1  0.381600  0.079500  0.295900  1.0  -0.0233
  C  C1473  1  0.363300  0.049700  0.274000  1.0  -0.1415
  C  C1474  1  0.331130  0.060010  0.330500  1.0  0.1043
  C  C1475  1  0.305800  0.002200  0.288700  1.0  0.1153
  C  C1476  1  0.272500  0.994370  0.313900  1.0  -0.1831
  C  C1477  1  0.381600  0.670500  0.454100  1.0  -0.0245
  C  C1478  1  0.363300  0.700300  0.476000  1.0  -0.1412
  C  C1479  1  0.331130  0.689990  0.419500  1.0  0.1039
  C  C1480  1  0.305800  0.747800  0.461300  1.0  0.1149
  C  C1481  1  0.272500  0.755630  0.436100  1.0  -0.1839
  C  C1482  1  0.381600  0.170500  0.954100  1.0  -0.0245
  C  C1483  1  0.363300  0.200300  0.976000  1.0  -0.1412
  C  C1484  1  0.331130  0.189990  0.919500  1.0  0.1039
  C  C1485  1  0.305800  0.247800  0.961300  1.0  0.1149
  C  C1486  1  0.272500  0.255630  0.936100  1.0  -0.1839
  C  C1487  1  0.881600  0.670500  0.954100  1.0  -0.0245
  C  C1488  1  0.863300  0.700300  0.976000  1.0  -0.1412
  C  C1489  1  0.831130  0.689990  0.919500  1.0  0.1039
  C  C1490  1  0.805800  0.747800  0.961300  1.0  0.1149
  C  C1491  1  0.772500  0.755630  0.936100  1.0  -0.1839
  C  C1492  1  0.881600  0.170500  0.454100  1.0  -0.0245
  C  C1493  1  0.863300  0.200300  0.476000  1.0  -0.1412
  C  C1494  1  0.831130  0.189990  0.419500  1.0  0.1039
  C  C1495  1  0.805800  0.247800  0.461300  1.0  0.1149
  C  C1496  1  0.772500  0.255630  0.436100  1.0  -0.1839
  C  C1497  1  0.868400  0.079500  0.954100  1.0  -0.0237
  C  C1498  1  0.886700  0.049700  0.976000  1.0  -0.1409
  C  C1499  1  0.918870  0.060010  0.919500  1.0  0.1051
  C  C1500  1  0.944200  0.002200  0.961300  1.0  0.115
  C  C1501  1  0.977500  0.994370  0.936100  1.0  -0.1826
  C  C1502  1  0.868400  0.579500  0.454100  1.0  -0.0237
  C  C1503  1  0.886700  0.549700  0.476000  1.0  -0.1409
  C  C1504  1  0.918870  0.560010  0.419500  1.0  0.1051
  C  C1505  1  0.944200  0.502200  0.461300  1.0  0.115
  C  C1506  1  0.977500  0.494370  0.436100  1.0  -0.1826
  C  C1507  1  0.368400  0.079500  0.454100  1.0  -0.0237
  C  C1508  1  0.386700  0.049700  0.476000  1.0  -0.1409
  C  C1509  1  0.418870  0.060010  0.419500  1.0  0.1051
  C  C1510  1  0.444200  0.002200  0.461300  1.0  0.115
  C  C1511  1  0.477500  0.994370  0.436100  1.0  -0.1826
  C  C1512  1  0.368400  0.579500  0.954100  1.0  -0.0237
  C  C1513  1  0.386700  0.549700  0.976000  1.0  -0.1409
  C  C1514  1  0.418870  0.560010  0.919500  1.0  0.1051
  C  C1515  1  0.444200  0.502200  0.961300  1.0  0.115
  C  C1516  1  0.477500  0.494370  0.936100  1.0  -0.1826
  C  C1517  1  0.368400  0.170500  0.795900  1.0  -0.024
  C  C1518  1  0.386700  0.200300  0.774000  1.0  -0.1411
  C  C1519  1  0.418870  0.189990  0.830500  1.0  0.1061
  C  C1520  1  0.444200  0.247800  0.788700  1.0  0.1155
  C  C1521  1  0.477500  0.255630  0.813900  1.0  -0.1813
  C  C1522  1  0.368400  0.670500  0.295900  1.0  -0.024
  C  C1523  1  0.386700  0.700300  0.274000  1.0  -0.1411
  C  C1524  1  0.418870  0.689990  0.330500  1.0  0.1061
  C  C1525  1  0.444200  0.747800  0.288700  1.0  0.1155
  C  C1526  1  0.477500  0.755630  0.313900  1.0  -0.1813
  C  C1527  1  0.868400  0.170500  0.295900  1.0  -0.024
  C  C1528  1  0.886700  0.200300  0.274000  1.0  -0.1411
  C  C1529  1  0.918870  0.189990  0.330500  1.0  0.1061
  C  C1530  1  0.944200  0.247800  0.288700  1.0  0.1155
  C  C1531  1  0.977500  0.255630  0.313900  1.0  -0.1813
  C  C1532  1  0.868400  0.670500  0.795900  1.0  -0.024
  C  C1533  1  0.886700  0.700300  0.774000  1.0  -0.1411
  C  C1534  1  0.918870  0.689990  0.830500  1.0  0.1061
  C  C1535  1  0.944200  0.747800  0.788700  1.0  0.1155
  C  C1536  1  0.977500  0.755630  0.813900  1.0  -0.1813
  C  C1537  1  0.295900  0.670500  0.868400  1.0  -0.0221
  C  C1538  1  0.274000  0.700300  0.886700  1.0  -0.1434
  C  C1539  1  0.330500  0.689990  0.918870  1.0  0.1035
  C  C1540  1  0.288700  0.747800  0.944200  1.0  0.1136
  C  C1541  1  0.313900  0.755630  0.977500  1.0  -0.181
  C  C1542  1  0.295900  0.170500  0.368400  1.0  -0.0221
  C  C1543  1  0.274000  0.200300  0.386700  1.0  -0.1434
  C  C1544  1  0.330500  0.189990  0.418870  1.0  0.1035
  C  C1545  1  0.288700  0.247800  0.444200  1.0  0.1136
  C  C1546  1  0.313900  0.255630  0.477500  1.0  -0.181
  C  C1547  1  0.795900  0.670500  0.368400  1.0  -0.0221
  C  C1548  1  0.774000  0.700300  0.386700  1.0  -0.1434
  C  C1549  1  0.830500  0.689990  0.418870  1.0  0.1035
  C  C1550  1  0.788700  0.747800  0.444200  1.0  0.1136
  C  C1551  1  0.813900  0.755630  0.477500  1.0  -0.181
  C  C1552  1  0.795900  0.170500  0.868400  1.0  -0.0221
  C  C1553  1  0.774000  0.200300  0.886700  1.0  -0.1434
  C  C1554  1  0.830500  0.189990  0.918870  1.0  0.1035
  C  C1555  1  0.788700  0.247800  0.944200  1.0  0.1136
  C  C1556  1  0.813900  0.255630  0.977500  1.0  -0.181
  C  C1557  1  0.454100  0.579500  0.368400  1.0  -0.0211
  C  C1558  1  0.476000  0.549700  0.386700  1.0  -0.1438
  C  C1559  1  0.419500  0.560010  0.418870  1.0  0.1009
  C  C1560  1  0.461300  0.502200  0.444200  1.0  0.1137
  C  C1561  1  0.436100  0.494370  0.477500  1.0  -0.1815
  C  C1562  1  0.454100  0.079500  0.868400  1.0  -0.0211
  C  C1563  1  0.476000  0.049700  0.886700  1.0  -0.1438
  C  C1564  1  0.419500  0.060010  0.918870  1.0  0.1009
  C  C1565  1  0.461300  0.002200  0.944200  1.0  0.1137
  C  C1566  1  0.436100  0.994370  0.977500  1.0  -0.1815
  C  C1567  1  0.954100  0.579500  0.868400  1.0  -0.0211
  C  C1568  1  0.976000  0.549700  0.886700  1.0  -0.1438
  C  C1569  1  0.919500  0.560010  0.918870  1.0  0.1009
  C  C1570  1  0.961300  0.502200  0.944200  1.0  0.1137
  C  C1571  1  0.936100  0.494370  0.977500  1.0  -0.1815
  C  C1572  1  0.954100  0.079500  0.368400  1.0  -0.0211
  C  C1573  1  0.976000  0.049700  0.386700  1.0  -0.1438
  C  C1574  1  0.919500  0.060010  0.418870  1.0  0.1009
  C  C1575  1  0.961300  0.002200  0.444200  1.0  0.1137
  C  C1576  1  0.936100  0.994370  0.477500  1.0  -0.1815
  C  C1577  1  0.954100  0.170500  0.881600  1.0  -0.0222
  C  C1578  1  0.976000  0.200300  0.863300  1.0  -0.1421
  C  C1579  1  0.919500  0.189990  0.831130  1.0  0.1011
  C  C1580  1  0.961300  0.247800  0.805800  1.0  0.115
  C  C1581  1  0.936100  0.255630  0.772500  1.0  -0.1823
  C  C1582  1  0.954100  0.670500  0.381600  1.0  -0.0222
  C  C1583  1  0.976000  0.700300  0.363300  1.0  -0.1421
  C  C1584  1  0.919500  0.689990  0.331130  1.0  0.1011
  C  C1585  1  0.961300  0.747800  0.305800  1.0  0.115
  C  C1586  1  0.936100  0.755630  0.272500  1.0  -0.1823
  C  C1587  1  0.454100  0.170500  0.381600  1.0  -0.0222
  C  C1588  1  0.476000  0.200300  0.363300  1.0  -0.1421
  C  C1589  1  0.419500  0.189990  0.331130  1.0  0.1011
  C  C1590  1  0.461300  0.247800  0.305800  1.0  0.115
  C  C1591  1  0.436100  0.255630  0.272500  1.0  -0.1823
  C  C1592  1  0.454100  0.670500  0.881600  1.0  -0.0222
  C  C1593  1  0.476000  0.700300  0.863300  1.0  -0.1421
  C  C1594  1  0.419500  0.689990  0.831130  1.0  0.1011
  C  C1595  1  0.461300  0.747800  0.805800  1.0  0.115
  C  C1596  1  0.436100  0.755630  0.772500  1.0  -0.1823
  C  C1597  1  0.795900  0.079500  0.381600  1.0  -0.0223
  C  C1598  1  0.774000  0.049700  0.363300  1.0  -0.1432
  C  C1599  1  0.830500  0.060010  0.331130  1.0  0.1031
  C  C1600  1  0.788700  0.002200  0.305800  1.0  0.1148
  C  C1601  1  0.813900  0.994370  0.272500  1.0  -0.1816
  C  C1602  1  0.795900  0.579500  0.881600  1.0  -0.0223
  C  C1603  1  0.774000  0.549700  0.863300  1.0  -0.1432
  C  C1604  1  0.830500  0.560010  0.831130  1.0  0.1031
  C  C1605  1  0.788700  0.502200  0.805800  1.0  0.1148
  C  C1606  1  0.813900  0.494370  0.772500  1.0  -0.1816
  C  C1607  1  0.295900  0.079500  0.881600  1.0  -0.0223
  C  C1608  1  0.274000  0.049700  0.863300  1.0  -0.1432
  C  C1609  1  0.330500  0.060010  0.831130  1.0  0.1031
  C  C1610  1  0.288700  0.002200  0.805800  1.0  0.1148
  C  C1611  1  0.313900  0.994370  0.772500  1.0  -0.1816
  C  C1612  1  0.295900  0.579500  0.381600  1.0  -0.0223
  C  C1613  1  0.274000  0.549700  0.363300  1.0  -0.1432
  C  C1614  1  0.330500  0.560010  0.331130  1.0  0.1031
  C  C1615  1  0.288700  0.502200  0.305800  1.0  0.1148
  C  C1616  1  0.313900  0.494370  0.272500  1.0  -0.1816
  C  C1617  1  0.868400  0.295900  0.670500  1.0  -0.0215
  C  C1618  1  0.886700  0.274000  0.700300  1.0  -0.1433
  C  C1619  1  0.918870  0.330500  0.689990  1.0  0.1029
  C  C1620  1  0.944200  0.288700  0.747800  1.0  0.1171
  C  C1621  1  0.977500  0.313900  0.755630  1.0  -0.1797
  C  C1622  1  0.868400  0.795900  0.170500  1.0  -0.0215
  C  C1623  1  0.886700  0.774000  0.200300  1.0  -0.1433
  C  C1624  1  0.918870  0.830500  0.189990  1.0  0.1029
  C  C1625  1  0.944200  0.788700  0.247800  1.0  0.1171
  C  C1626  1  0.977500  0.813900  0.255630  1.0  -0.1797
  C  C1627  1  0.368400  0.295900  0.170500  1.0  -0.0215
  C  C1628  1  0.386700  0.274000  0.200300  1.0  -0.1433
  C  C1629  1  0.418870  0.330500  0.189990  1.0  0.1029
  C  C1630  1  0.444200  0.288700  0.247800  1.0  0.1171
  C  C1631  1  0.477500  0.313900  0.255630  1.0  -0.1797
  C  C1632  1  0.368400  0.795900  0.670500  1.0  -0.0215
  C  C1633  1  0.386700  0.774000  0.700300  1.0  -0.1433
  C  C1634  1  0.418870  0.830500  0.689990  1.0  0.1029
  C  C1635  1  0.444200  0.788700  0.747800  1.0  0.1171
  C  C1636  1  0.477500  0.813900  0.755630  1.0  -0.1797
  C  C1637  1  0.368400  0.454100  0.579500  1.0  -0.0219
  C  C1638  1  0.386700  0.476000  0.549700  1.0  -0.1435
  C  C1639  1  0.418870  0.419500  0.560010  1.0  0.1013
  C  C1640  1  0.444200  0.461300  0.502200  1.0  0.1173
  C  C1641  1  0.477500  0.436100  0.494370  1.0  -0.1801
  C  C1642  1  0.368400  0.954100  0.079500  1.0  -0.0219
  C  C1643  1  0.386700  0.976000  0.049700  1.0  -0.1435
  C  C1644  1  0.418870  0.919500  0.060010  1.0  0.1013
  C  C1645  1  0.444200  0.961300  0.002200  1.0  0.1173
  C  C1646  1  0.477500  0.936100  0.994370  1.0  -0.1801
  C  C1647  1  0.868400  0.454100  0.079500  1.0  -0.0219
  C  C1648  1  0.886700  0.476000  0.049700  1.0  -0.1435
  C  C1649  1  0.918870  0.419500  0.060010  1.0  0.1013
  C  C1650  1  0.944200  0.461300  0.002200  1.0  0.1173
  C  C1651  1  0.977500  0.436100  0.994370  1.0  -0.1801
  C  C1652  1  0.868400  0.954100  0.579500  1.0  -0.0219
  C  C1653  1  0.886700  0.976000  0.549700  1.0  -0.1435
  C  C1654  1  0.918870  0.919500  0.560010  1.0  0.1013
  C  C1655  1  0.944200  0.961300  0.502200  1.0  0.1173
  C  C1656  1  0.977500  0.936100  0.494370  1.0  -0.1801
  C  C1657  1  0.881600  0.954100  0.170500  1.0  -0.0219
  C  C1658  1  0.863300  0.976000  0.200300  1.0  -0.1431
  C  C1659  1  0.831130  0.919500  0.189990  1.0  0.1003
  C  C1660  1  0.805800  0.961300  0.247800  1.0  0.117
  C  C1661  1  0.772500  0.936100  0.255630  1.0  -0.1812
  C  C1662  1  0.881600  0.454100  0.670500  1.0  -0.0219
  C  C1663  1  0.863300  0.476000  0.700300  1.0  -0.1431
  C  C1664  1  0.831130  0.419500  0.689990  1.0  0.1003
  C  C1665  1  0.805800  0.461300  0.747800  1.0  0.117
  C  C1666  1  0.772500  0.436100  0.755630  1.0  -0.1812
  C  C1667  1  0.381600  0.954100  0.670500  1.0  -0.0219
  C  C1668  1  0.363300  0.976000  0.700300  1.0  -0.1431
  C  C1669  1  0.331130  0.919500  0.689990  1.0  0.1003
  C  C1670  1  0.305800  0.961300  0.747800  1.0  0.117
  C  C1671  1  0.272500  0.936100  0.755630  1.0  -0.1812
  C  C1672  1  0.381600  0.454100  0.170500  1.0  -0.0219
  C  C1673  1  0.363300  0.476000  0.200300  1.0  -0.1431
  C  C1674  1  0.331130  0.419500  0.189990  1.0  0.1003
  C  C1675  1  0.305800  0.461300  0.247800  1.0  0.117
  C  C1676  1  0.272500  0.436100  0.255630  1.0  -0.1812
  C  C1677  1  0.381600  0.795900  0.079500  1.0  -0.0222
  C  C1678  1  0.363300  0.774000  0.049700  1.0  -0.1437
  C  C1679  1  0.331130  0.830500  0.060010  1.0  0.1009
  C  C1680  1  0.305800  0.788700  0.002200  1.0  0.1164
  C  C1681  1  0.272500  0.813900  0.994370  1.0  -0.1799
  C  C1682  1  0.381600  0.295900  0.579500  1.0  -0.0222
  C  C1683  1  0.363300  0.274000  0.549700  1.0  -0.1437
  C  C1684  1  0.331130  0.330500  0.560010  1.0  0.1009
  C  C1685  1  0.305800  0.288700  0.502200  1.0  0.1164
  C  C1686  1  0.272500  0.313900  0.494370  1.0  -0.1799
  C  C1687  1  0.881600  0.795900  0.579500  1.0  -0.0222
  C  C1688  1  0.863300  0.774000  0.549700  1.0  -0.1437
  C  C1689  1  0.831130  0.830500  0.560010  1.0  0.1009
  C  C1690  1  0.805800  0.788700  0.502200  1.0  0.1164
  C  C1691  1  0.772500  0.813900  0.494370  1.0  -0.1799
  C  C1692  1  0.881600  0.295900  0.079500  1.0  -0.0222
  C  C1693  1  0.863300  0.274000  0.049700  1.0  -0.1437
  C  C1694  1  0.831130  0.330500  0.060010  1.0  0.1009
  C  C1695  1  0.805800  0.288700  0.002200  1.0  0.1164
  C  C1696  1  0.772500  0.313900  0.994370  1.0  -0.1799
  C  C1697  1  0.670500  0.868400  0.295900  1.0  -0.0257
  C  C1698  1  0.700300  0.886700  0.274000  1.0  -0.1426
  C  C1699  1  0.689990  0.918870  0.330500  1.0  0.1064
  C  C1700  1  0.747800  0.944200  0.288700  1.0  0.1165
  C  C1701  1  0.755630  0.977500  0.313900  1.0  -0.1822
  C  C1702  1  0.670500  0.368400  0.795900  1.0  -0.0257
  C  C1703  1  0.700300  0.386700  0.774000  1.0  -0.1426
  C  C1704  1  0.689990  0.418870  0.830500  1.0  0.1064
  C  C1705  1  0.747800  0.444200  0.788700  1.0  0.1165
  C  C1706  1  0.755630  0.477500  0.813900  1.0  -0.1822
  C  C1707  1  0.170500  0.868400  0.795900  1.0  -0.0257
  C  C1708  1  0.200300  0.886700  0.774000  1.0  -0.1426
  C  C1709  1  0.189990  0.918870  0.830500  1.0  0.1064
  C  C1710  1  0.247800  0.944200  0.788700  1.0  0.1165
  C  C1711  1  0.255630  0.977500  0.813900  1.0  -0.1822
  C  C1712  1  0.170500  0.368400  0.295900  1.0  -0.0257
  C  C1713  1  0.200300  0.386700  0.274000  1.0  -0.1426
  C  C1714  1  0.189990  0.418870  0.330500  1.0  0.1064
  C  C1715  1  0.247800  0.444200  0.288700  1.0  0.1165
  C  C1716  1  0.255630  0.477500  0.313900  1.0  -0.1822
  C  C1717  1  0.579500  0.368400  0.454100  1.0  -0.0251
  C  C1718  1  0.549700  0.386700  0.476000  1.0  -0.1413
  C  C1719  1  0.560010  0.418870  0.419500  1.0  0.106
  C  C1720  1  0.502200  0.444200  0.461300  1.0  0.1134
  C  C1721  1  0.494370  0.477500  0.436100  1.0  -0.1835
  C  C1722  1  0.579500  0.868400  0.954100  1.0  -0.0251
  C  C1723  1  0.549700  0.886700  0.976000  1.0  -0.1413
  C  C1724  1  0.560010  0.918870  0.919500  1.0  0.106
  C  C1725  1  0.502200  0.944200  0.961300  1.0  0.1134
  C  C1726  1  0.494370  0.977500  0.936100  1.0  -0.1835
  C  C1727  1  0.079500  0.368400  0.954100  1.0  -0.0251
  C  C1728  1  0.049700  0.386700  0.976000  1.0  -0.1413
  C  C1729  1  0.060010  0.418870  0.919500  1.0  0.106
  C  C1730  1  0.002200  0.444200  0.961300  1.0  0.1134
  C  C1731  1  0.994370  0.477500  0.936100  1.0  -0.1835
  C  C1732  1  0.079500  0.868400  0.454100  1.0  -0.0251
  C  C1733  1  0.049700  0.886700  0.476000  1.0  -0.1413
  C  C1734  1  0.060010  0.918870  0.419500  1.0  0.106
  C  C1735  1  0.002200  0.944200  0.461300  1.0  0.1134
  C  C1736  1  0.994370  0.977500  0.436100  1.0  -0.1835
  C  C1737  1  0.170500  0.881600  0.954100  1.0  -0.0263
  C  C1738  1  0.200300  0.863300  0.976000  1.0  -0.1421
  C  C1739  1  0.189990  0.831130  0.919500  1.0  0.1049
  C  C1740  1  0.247800  0.805800  0.961300  1.0  0.1141
  C  C1741  1  0.255630  0.772500  0.936100  1.0  -0.1845
  C  C1742  1  0.170500  0.381600  0.454100  1.0  -0.0263
  C  C1743  1  0.200300  0.363300  0.476000  1.0  -0.1421
  C  C1744  1  0.189990  0.331130  0.419500  1.0  0.1049
  C  C1745  1  0.247800  0.305800  0.461300  1.0  0.1141
  C  C1746  1  0.255630  0.272500  0.436100  1.0  -0.1845
  C  C1747  1  0.670500  0.881600  0.454100  1.0  -0.0263
  C  C1748  1  0.700300  0.863300  0.476000  1.0  -0.1421
  C  C1749  1  0.689990  0.831130  0.419500  1.0  0.1049
  C  C1750  1  0.747800  0.805800  0.461300  1.0  0.1141
  C  C1751  1  0.755630  0.772500  0.436100  1.0  -0.1845
  C  C1752  1  0.670500  0.381600  0.954100  1.0  -0.0263
  C  C1753  1  0.700300  0.363300  0.976000  1.0  -0.1421
  C  C1754  1  0.689990  0.331130  0.919500  1.0  0.1049
  C  C1755  1  0.747800  0.305800  0.961300  1.0  0.1141
  C  C1756  1  0.755630  0.272500  0.936100  1.0  -0.1845
  C  C1757  1  0.079500  0.381600  0.795900  1.0  -0.0255
  C  C1758  1  0.049700  0.363300  0.774000  1.0  -0.1422
  C  C1759  1  0.060010  0.331130  0.830500  1.0  0.1058
  C  C1760  1  0.002200  0.305800  0.788700  1.0  0.1133
  C  C1761  1  0.994370  0.272500  0.813900  1.0  -0.1827
  C  C1762  1  0.079500  0.881600  0.295900  1.0  -0.0255
  C  C1763  1  0.049700  0.863300  0.274000  1.0  -0.1422
  C  C1764  1  0.060010  0.831130  0.330500  1.0  0.1058
  C  C1765  1  0.002200  0.805800  0.288700  1.0  0.1133
  C  C1766  1  0.994370  0.772500  0.313900  1.0  -0.1827
  C  C1767  1  0.579500  0.381600  0.295900  1.0  -0.0255
  C  C1768  1  0.549700  0.363300  0.274000  1.0  -0.1422
  C  C1769  1  0.560010  0.331130  0.330500  1.0  0.1058
  C  C1770  1  0.502200  0.305800  0.288700  1.0  0.1133
  C  C1771  1  0.494370  0.272500  0.313900  1.0  -0.1827
  C  C1772  1  0.579500  0.881600  0.795900  1.0  -0.0255
  C  C1773  1  0.549700  0.863300  0.774000  1.0  -0.1422
  C  C1774  1  0.560010  0.831130  0.830500  1.0  0.1058
  C  C1775  1  0.502200  0.805800  0.788700  1.0  0.1133
  C  C1776  1  0.494370  0.772500  0.813900  1.0  -0.1827
  N  N1777  1  0.669810  0.337070  0.110300  1.0  -0.4154
  N  N1778  1  0.702840  0.286040  0.081900  1.0  0.0148
  N  N1779  1  0.669810  0.837070  0.610300  1.0  -0.4154
  N  N1780  1  0.702840  0.786040  0.581900  1.0  0.0148
  N  N1781  1  0.169810  0.337070  0.610300  1.0  -0.4154
  N  N1782  1  0.202840  0.286040  0.581900  1.0  0.0148
  N  N1783  1  0.169810  0.837070  0.110300  1.0  -0.4154
  N  N1784  1  0.202840  0.786040  0.081900  1.0  0.0148
  N  N1785  1  0.580190  0.412930  0.610300  1.0  -0.4138
  N  N1786  1  0.547160  0.463960  0.581900  1.0  0.0136
  N  N1787  1  0.580190  0.912930  0.110300  1.0  -0.4138
  N  N1788  1  0.547160  0.963960  0.081900  1.0  0.0136
  N  N1789  1  0.080190  0.412930  0.110300  1.0  -0.4138
  N  N1790  1  0.047160  0.463960  0.081900  1.0  0.0136
  N  N1791  1  0.080190  0.912930  0.610300  1.0  -0.4138
  N  N1792  1  0.047160  0.963960  0.581900  1.0  0.0136
  N  N1793  1  0.080190  0.837070  0.139700  1.0  -0.4151
  N  N1794  1  0.047160  0.786040  0.168100  1.0  0.0132
  N  N1795  1  0.080190  0.337070  0.639700  1.0  -0.4151
  N  N1796  1  0.047160  0.286040  0.668100  1.0  0.0132
  N  N1797  1  0.580190  0.837070  0.639700  1.0  -0.4151
  N  N1798  1  0.547160  0.786040  0.668100  1.0  0.0132
  N  N1799  1  0.580190  0.337070  0.139700  1.0  -0.4151
  N  N1800  1  0.547160  0.286040  0.168100  1.0  0.0132
  N  N1801  1  0.169810  0.912930  0.639700  1.0  -0.4154
  N  N1802  1  0.202840  0.963960  0.668100  1.0  0.0138
  N  N1803  1  0.169810  0.412930  0.139700  1.0  -0.4154
  N  N1804  1  0.202840  0.463960  0.168100  1.0  0.0138
  N  N1805  1  0.669810  0.912930  0.139700  1.0  -0.4154
  N  N1806  1  0.702840  0.963960  0.168100  1.0  0.0138
  N  N1807  1  0.669810  0.412930  0.639700  1.0  -0.4154
  N  N1808  1  0.702840  0.463960  0.668100  1.0  0.0138
  N  N1809  1  0.110300  0.669810  0.337070  1.0  -0.4136
  N  N1810  1  0.081900  0.702840  0.286040  1.0  0.0139
  N  N1811  1  0.110300  0.169810  0.837070  1.0  -0.4136
  N  N1812  1  0.081900  0.202840  0.786040  1.0  0.0139
  N  N1813  1  0.610300  0.669810  0.837070  1.0  -0.4136
  N  N1814  1  0.581900  0.702840  0.786040  1.0  0.0139
  N  N1815  1  0.610300  0.169810  0.337070  1.0  -0.4136
  N  N1816  1  0.581900  0.202840  0.286040  1.0  0.0139
  N  N1817  1  0.610300  0.580190  0.412930  1.0  -0.4145
  N  N1818  1  0.581900  0.547160  0.463960  1.0  0.0138
  N  N1819  1  0.610300  0.080190  0.912930  1.0  -0.4145
  N  N1820  1  0.581900  0.047160  0.963960  1.0  0.0138
  N  N1821  1  0.110300  0.580190  0.912930  1.0  -0.4145
  N  N1822  1  0.081900  0.547160  0.963960  1.0  0.0138
  N  N1823  1  0.110300  0.080190  0.412930  1.0  -0.4145
  N  N1824  1  0.081900  0.047160  0.463960  1.0  0.0138
  N  N1825  1  0.139700  0.080190  0.837070  1.0  -0.4143
  N  N1826  1  0.168100  0.047160  0.786040  1.0  0.0145
  N  N1827  1  0.139700  0.580190  0.337070  1.0  -0.4143
  N  N1828  1  0.168100  0.547160  0.286040  1.0  0.0145
  N  N1829  1  0.639700  0.080190  0.337070  1.0  -0.4143
  N  N1830  1  0.668100  0.047160  0.286040  1.0  0.0145
  N  N1831  1  0.639700  0.580190  0.837070  1.0  -0.4143
  N  N1832  1  0.668100  0.547160  0.786040  1.0  0.0145
  N  N1833  1  0.639700  0.169810  0.912930  1.0  -0.4146
  N  N1834  1  0.668100  0.202840  0.963960  1.0  0.0139
  N  N1835  1  0.639700  0.669810  0.412930  1.0  -0.4146
  N  N1836  1  0.668100  0.702840  0.463960  1.0  0.0139
  N  N1837  1  0.139700  0.169810  0.412930  1.0  -0.4146
  N  N1838  1  0.168100  0.202840  0.463960  1.0  0.0139
  N  N1839  1  0.139700  0.669810  0.912930  1.0  -0.4146
  N  N1840  1  0.168100  0.702840  0.963960  1.0  0.0139
  N  N1841  1  0.337070  0.110300  0.669810  1.0  -0.4158
  N  N1842  1  0.286040  0.081900  0.702840  1.0  0.017
  N  N1843  1  0.337070  0.610300  0.169810  1.0  -0.4158
  N  N1844  1  0.286040  0.581900  0.202840  1.0  0.017
  N  N1845  1  0.837070  0.110300  0.169810  1.0  -0.4158
  N  N1846  1  0.786040  0.081900  0.202840  1.0  0.017
  N  N1847  1  0.837070  0.610300  0.669810  1.0  -0.4158
  N  N1848  1  0.786040  0.581900  0.702840  1.0  0.017
  N  N1849  1  0.412930  0.610300  0.580190  1.0  -0.4153
  N  N1850  1  0.463960  0.581900  0.547160  1.0  0.0155
  N  N1851  1  0.412930  0.110300  0.080190  1.0  -0.4153
  N  N1852  1  0.463960  0.081900  0.047160  1.0  0.0155
  N  N1853  1  0.912930  0.610300  0.080190  1.0  -0.4153
  N  N1854  1  0.963960  0.581900  0.047160  1.0  0.0155
  N  N1855  1  0.912930  0.110300  0.580190  1.0  -0.4153
  N  N1856  1  0.963960  0.081900  0.547160  1.0  0.0155
  N  N1857  1  0.837070  0.139700  0.080190  1.0  -0.4153
  N  N1858  1  0.786040  0.168100  0.047160  1.0  0.0162
  N  N1859  1  0.837070  0.639700  0.580190  1.0  -0.4153
  N  N1860  1  0.786040  0.668100  0.547160  1.0  0.0162
  N  N1861  1  0.337070  0.139700  0.580190  1.0  -0.4153
  N  N1862  1  0.286040  0.168100  0.547160  1.0  0.0162
  N  N1863  1  0.337070  0.639700  0.080190  1.0  -0.4153
  N  N1864  1  0.286040  0.668100  0.047160  1.0  0.0162
  N  N1865  1  0.912930  0.639700  0.169810  1.0  -0.4163
  N  N1866  1  0.963960  0.668100  0.202840  1.0  0.0166
  N  N1867  1  0.912930  0.139700  0.669810  1.0  -0.4163
  N  N1868  1  0.963960  0.168100  0.702840  1.0  0.0166
  N  N1869  1  0.412930  0.639700  0.669810  1.0  -0.4163
  N  N1870  1  0.463960  0.668100  0.702840  1.0  0.0166
  N  N1871  1  0.412930  0.139700  0.169810  1.0  -0.4163
  N  N1872  1  0.463960  0.168100  0.202840  1.0  0.0166
  N  N1873  1  0.912930  0.080190  0.110300  1.0  -0.4154
  N  N1874  1  0.963960  0.047160  0.081900  1.0  0.0147
  N  N1875  1  0.912930  0.580190  0.610300  1.0  -0.4154
  N  N1876  1  0.963960  0.547160  0.581900  1.0  0.0147
  N  N1877  1  0.412930  0.080190  0.610300  1.0  -0.4154
  N  N1878  1  0.463960  0.047160  0.581900  1.0  0.0147
  N  N1879  1  0.412930  0.580190  0.110300  1.0  -0.4154
  N  N1880  1  0.463960  0.547160  0.081900  1.0  0.0147
  N  N1881  1  0.837070  0.169810  0.610300  1.0  -0.4146
  N  N1882  1  0.786040  0.202840  0.581900  1.0  0.0149
  N  N1883  1  0.837070  0.669810  0.110300  1.0  -0.4146
  N  N1884  1  0.786040  0.702840  0.081900  1.0  0.0149
  N  N1885  1  0.337070  0.169810  0.110300  1.0  -0.4146
  N  N1886  1  0.286040  0.202840  0.081900  1.0  0.0149
  N  N1887  1  0.337070  0.669810  0.610300  1.0  -0.4146
  N  N1888  1  0.286040  0.702840  0.581900  1.0  0.0149
  N  N1889  1  0.412930  0.669810  0.139700  1.0  -0.4154
  N  N1890  1  0.463960  0.702840  0.168100  1.0  0.0141
  N  N1891  1  0.412930  0.169810  0.639700  1.0  -0.4154
  N  N1892  1  0.463960  0.202840  0.668100  1.0  0.0141
  N  N1893  1  0.912930  0.669810  0.639700  1.0  -0.4154
  N  N1894  1  0.963960  0.702840  0.668100  1.0  0.0141
  N  N1895  1  0.912930  0.169810  0.139700  1.0  -0.4154
  N  N1896  1  0.963960  0.202840  0.168100  1.0  0.0141
  N  N1897  1  0.337070  0.580190  0.639700  1.0  -0.4157
  N  N1898  1  0.286040  0.547160  0.668100  1.0  0.0147
  N  N1899  1  0.337070  0.080190  0.139700  1.0  -0.4157
  N  N1900  1  0.286040  0.047160  0.168100  1.0  0.0147
  N  N1901  1  0.837070  0.580190  0.139700  1.0  -0.4157
  N  N1902  1  0.786040  0.547160  0.168100  1.0  0.0147
  N  N1903  1  0.837070  0.080190  0.639700  1.0  -0.4157
  N  N1904  1  0.786040  0.047160  0.668100  1.0  0.0147
  N  N1905  1  0.580190  0.639700  0.337070  1.0  -0.4142
  N  N1906  1  0.547160  0.668100  0.286040  1.0  0.0144
  N  N1907  1  0.580190  0.139700  0.837070  1.0  -0.4142
  N  N1908  1  0.547160  0.168100  0.786040  1.0  0.0144
  N  N1909  1  0.080190  0.639700  0.837070  1.0  -0.4142
  N  N1910  1  0.047160  0.668100  0.786040  1.0  0.0144
  N  N1911  1  0.080190  0.139700  0.337070  1.0  -0.4142
  N  N1912  1  0.047160  0.168100  0.286040  1.0  0.0144
  N  N1913  1  0.669810  0.139700  0.412930  1.0  -0.4161
  N  N1914  1  0.702840  0.168100  0.463960  1.0  0.0136
  N  N1915  1  0.669810  0.639700  0.912930  1.0  -0.4161
  N  N1916  1  0.702840  0.668100  0.963960  1.0  0.0136
  N  N1917  1  0.169810  0.139700  0.912930  1.0  -0.4161
  N  N1918  1  0.202840  0.168100  0.963960  1.0  0.0136
  N  N1919  1  0.169810  0.639700  0.412930  1.0  -0.4161
  N  N1920  1  0.202840  0.668100  0.463960  1.0  0.0136
  N  N1921  1  0.169810  0.610300  0.837070  1.0  -0.4153
  N  N1922  1  0.202840  0.581900  0.786040  1.0  0.0146
  N  N1923  1  0.169810  0.110300  0.337070  1.0  -0.4153
  N  N1924  1  0.202840  0.081900  0.286040  1.0  0.0146
  N  N1925  1  0.669810  0.610300  0.337070  1.0  -0.4153
  N  N1926  1  0.702840  0.581900  0.286040  1.0  0.0146
  N  N1927  1  0.669810  0.110300  0.837070  1.0  -0.4153
  N  N1928  1  0.702840  0.081900  0.786040  1.0  0.0146
  N  N1929  1  0.080190  0.110300  0.912930  1.0  -0.415
  N  N1930  1  0.047160  0.081900  0.963960  1.0  0.0135
  N  N1931  1  0.080190  0.610300  0.412930  1.0  -0.415
  N  N1932  1  0.047160  0.581900  0.463960  1.0  0.0135
  N  N1933  1  0.580190  0.110300  0.412930  1.0  -0.415
  N  N1934  1  0.547160  0.081900  0.463960  1.0  0.0135
  N  N1935  1  0.580190  0.610300  0.912930  1.0  -0.415
  N  N1936  1  0.547160  0.581900  0.963960  1.0  0.0135
  N  N1937  1  0.139700  0.412930  0.669810  1.0  -0.4148
  N  N1938  1  0.168100  0.463960  0.702840  1.0  0.0164
  N  N1939  1  0.139700  0.912930  0.169810  1.0  -0.4148
  N  N1940  1  0.168100  0.963960  0.202840  1.0  0.0164
  N  N1941  1  0.639700  0.412930  0.169810  1.0  -0.4148
  N  N1942  1  0.668100  0.463960  0.202840  1.0  0.0164
  N  N1943  1  0.639700  0.912930  0.669810  1.0  -0.4148
  N  N1944  1  0.668100  0.963960  0.702840  1.0  0.0164
  N  N1945  1  0.639700  0.337070  0.580190  1.0  -0.415
  N  N1946  1  0.668100  0.286040  0.547160  1.0  0.0157
  N  N1947  1  0.639700  0.837070  0.080190  1.0  -0.415
  N  N1948  1  0.668100  0.786040  0.047160  1.0  0.0157
  N  N1949  1  0.139700  0.337070  0.080190  1.0  -0.415
  N  N1950  1  0.168100  0.286040  0.047160  1.0  0.0157
  N  N1951  1  0.139700  0.837070  0.580190  1.0  -0.415
  N  N1952  1  0.168100  0.786040  0.547160  1.0  0.0157
  N  N1953  1  0.110300  0.912930  0.080190  1.0  -0.4138
  N  N1954  1  0.081900  0.963960  0.047160  1.0  0.0154
  N  N1955  1  0.110300  0.412930  0.580190  1.0  -0.4138
  N  N1956  1  0.081900  0.463960  0.547160  1.0  0.0154
  N  N1957  1  0.610300  0.912930  0.580190  1.0  -0.4138
  N  N1958  1  0.581900  0.963960  0.547160  1.0  0.0154
  N  N1959  1  0.610300  0.412930  0.080190  1.0  -0.4138
  N  N1960  1  0.581900  0.463960  0.047160  1.0  0.0154
  N  N1961  1  0.610300  0.837070  0.169810  1.0  -0.4149
  N  N1962  1  0.581900  0.786040  0.202840  1.0  0.0158
  N  N1963  1  0.610300  0.337070  0.669810  1.0  -0.4149
  N  N1964  1  0.581900  0.286040  0.702840  1.0  0.0158
  N  N1965  1  0.110300  0.837070  0.669810  1.0  -0.4149
  N  N1966  1  0.081900  0.786040  0.702840  1.0  0.0158
  N  N1967  1  0.110300  0.337070  0.169810  1.0  -0.4149
  N  N1968  1  0.081900  0.286040  0.202840  1.0  0.0158
  N  N1969  1  0.087070  0.919810  0.889700  1.0  -0.4152
  N  N1970  1  0.036040  0.952840  0.918100  1.0  0.0143
  N  N1971  1  0.087070  0.419810  0.389700  1.0  -0.4152
  N  N1972  1  0.036040  0.452840  0.418100  1.0  0.0143
  N  N1973  1  0.587070  0.919810  0.389700  1.0  -0.4152
  N  N1974  1  0.536040  0.952840  0.418100  1.0  0.0143
  N  N1975  1  0.587070  0.419810  0.889700  1.0  -0.4152
  N  N1976  1  0.536040  0.452840  0.918100  1.0  0.0143
  N  N1977  1  0.162930  0.830190  0.389700  1.0  -0.4156
  N  N1978  1  0.213960  0.797160  0.418100  1.0  0.0141
  N  N1979  1  0.162930  0.330190  0.889700  1.0  -0.4156
  N  N1980  1  0.213960  0.297160  0.918100  1.0  0.0141
  N  N1981  1  0.662930  0.830190  0.889700  1.0  -0.4156
  N  N1982  1  0.713960  0.797160  0.918100  1.0  0.0141
  N  N1983  1  0.662930  0.330190  0.389700  1.0  -0.4156
  N  N1984  1  0.713960  0.297160  0.418100  1.0  0.0141
  N  N1985  1  0.587070  0.330190  0.860300  1.0  -0.4156
  N  N1986  1  0.536040  0.297160  0.831900  1.0  0.0157
  N  N1987  1  0.587070  0.830190  0.360300  1.0  -0.4156
  N  N1988  1  0.536040  0.797160  0.331900  1.0  0.0157
  N  N1989  1  0.087070  0.330190  0.360300  1.0  -0.4156
  N  N1990  1  0.036040  0.297160  0.331900  1.0  0.0157
  N  N1991  1  0.087070  0.830190  0.860300  1.0  -0.4156
  N  N1992  1  0.036040  0.797160  0.831900  1.0  0.0157
  N  N1993  1  0.662930  0.419810  0.360300  1.0  -0.415
  N  N1994  1  0.713960  0.452840  0.331900  1.0  0.0145
  N  N1995  1  0.662930  0.919810  0.860300  1.0  -0.415
  N  N1996  1  0.713960  0.952840  0.831900  1.0  0.0145
  N  N1997  1  0.162930  0.419810  0.860300  1.0  -0.415
  N  N1998  1  0.213960  0.452840  0.831900  1.0  0.0145
  N  N1999  1  0.162930  0.919810  0.360300  1.0  -0.415
  N  N2000  1  0.213960  0.952840  0.331900  1.0  0.0145
  N  N2001  1  0.419810  0.360300  0.662930  1.0  -0.4153
  N  N2002  1  0.452840  0.331900  0.713960  1.0  0.0145
  N  N2003  1  0.419810  0.860300  0.162930  1.0  -0.4153
  N  N2004  1  0.452840  0.831900  0.213960  1.0  0.0145
  N  N2005  1  0.919810  0.360300  0.162930  1.0  -0.4153
  N  N2006  1  0.952840  0.331900  0.213960  1.0  0.0145
  N  N2007  1  0.919810  0.860300  0.662930  1.0  -0.4153
  N  N2008  1  0.952840  0.831900  0.713960  1.0  0.0145
  N  N2009  1  0.330190  0.860300  0.587070  1.0  -0.4145
  N  N2010  1  0.297160  0.831900  0.536040  1.0  0.0142
  N  N2011  1  0.330190  0.360300  0.087070  1.0  -0.4145
  N  N2012  1  0.297160  0.331900  0.036040  1.0  0.0142
  N  N2013  1  0.830190  0.860300  0.087070  1.0  -0.4145
  N  N2014  1  0.797160  0.831900  0.036040  1.0  0.0142
  N  N2015  1  0.830190  0.360300  0.587070  1.0  -0.4145
  N  N2016  1  0.797160  0.331900  0.536040  1.0  0.0142
  N  N2017  1  0.830190  0.389700  0.162930  1.0  -0.4156
  N  N2018  1  0.797160  0.418100  0.213960  1.0  0.013
  N  N2019  1  0.830190  0.889700  0.662930  1.0  -0.4156
  N  N2020  1  0.797160  0.918100  0.713960  1.0  0.013
  N  N2021  1  0.330190  0.389700  0.662930  1.0  -0.4156
  N  N2022  1  0.297160  0.418100  0.713960  1.0  0.013
  N  N2023  1  0.330190  0.889700  0.162930  1.0  -0.4156
  N  N2024  1  0.297160  0.918100  0.213960  1.0  0.013
  N  N2025  1  0.919810  0.889700  0.087070  1.0  -0.4152
  N  N2026  1  0.952840  0.918100  0.036040  1.0  0.0145
  N  N2027  1  0.919810  0.389700  0.587070  1.0  -0.4152
  N  N2028  1  0.952840  0.418100  0.536040  1.0  0.0145
  N  N2029  1  0.419810  0.889700  0.587070  1.0  -0.4152
  N  N2030  1  0.452840  0.918100  0.536040  1.0  0.0145
  N  N2031  1  0.419810  0.389700  0.087070  1.0  -0.4152
  N  N2032  1  0.452840  0.418100  0.036040  1.0  0.0145
  N  N2033  1  0.860300  0.587070  0.330190  1.0  -0.4149
  N  N2034  1  0.831900  0.536040  0.297160  1.0  0.0159
  N  N2035  1  0.860300  0.087070  0.830190  1.0  -0.4149
  N  N2036  1  0.831900  0.036040  0.797160  1.0  0.0159
  N  N2037  1  0.360300  0.587070  0.830190  1.0  -0.4149
  N  N2038  1  0.331900  0.536040  0.797160  1.0  0.0159
  N  N2039  1  0.360300  0.087070  0.330190  1.0  -0.4149
  N  N2040  1  0.331900  0.036040  0.297160  1.0  0.0159
  N  N2041  1  0.360300  0.662930  0.419810  1.0  -0.4144
  N  N2042  1  0.331900  0.713960  0.452840  1.0  0.0157
  N  N2043  1  0.360300  0.162930  0.919810  1.0  -0.4144
  N  N2044  1  0.331900  0.213960  0.952840  1.0  0.0157
  N  N2045  1  0.860300  0.662930  0.919810  1.0  -0.4144
  N  N2046  1  0.831900  0.713960  0.952840  1.0  0.0157
  N  N2047  1  0.860300  0.162930  0.419810  1.0  -0.4144
  N  N2048  1  0.831900  0.213960  0.452840  1.0  0.0157
  N  N2049  1  0.889700  0.087070  0.919810  1.0  -0.415
  N  N2050  1  0.918100  0.036040  0.952840  1.0  0.0162
  N  N2051  1  0.889700  0.587070  0.419810  1.0  -0.415
  N  N2052  1  0.918100  0.536040  0.452840  1.0  0.0162
  N  N2053  1  0.389700  0.087070  0.419810  1.0  -0.415
  N  N2054  1  0.418100  0.036040  0.452840  1.0  0.0162
  N  N2055  1  0.389700  0.587070  0.919810  1.0  -0.415
  N  N2056  1  0.418100  0.536040  0.952840  1.0  0.0162
  N  N2057  1  0.389700  0.162930  0.830190  1.0  -0.4142
  N  N2058  1  0.418100  0.213960  0.797160  1.0  0.0156
  N  N2059  1  0.389700  0.662930  0.330190  1.0  -0.4142
  N  N2060  1  0.418100  0.713960  0.297160  1.0  0.0156
  N  N2061  1  0.889700  0.162930  0.330190  1.0  -0.4142
  N  N2062  1  0.918100  0.213960  0.297160  1.0  0.0156
  N  N2063  1  0.889700  0.662930  0.830190  1.0  -0.4142
  N  N2064  1  0.918100  0.713960  0.797160  1.0  0.0156
  N  N2065  1  0.330190  0.662930  0.889700  1.0  -0.4143
  N  N2066  1  0.297160  0.713960  0.918100  1.0  0.0132
  N  N2067  1  0.330190  0.162930  0.389700  1.0  -0.4143
  N  N2068  1  0.297160  0.213960  0.418100  1.0  0.0132
  N  N2069  1  0.830190  0.662930  0.389700  1.0  -0.4143
  N  N2070  1  0.797160  0.713960  0.418100  1.0  0.0132
  N  N2071  1  0.830190  0.162930  0.889700  1.0  -0.4143
  N  N2072  1  0.797160  0.213960  0.918100  1.0  0.0132
  N  N2073  1  0.419810  0.587070  0.389700  1.0  -0.4155
  N  N2074  1  0.452840  0.536040  0.418100  1.0  0.0134
  N  N2075  1  0.419810  0.087070  0.889700  1.0  -0.4155
  N  N2076  1  0.452840  0.036040  0.918100  1.0  0.0134
  N  N2077  1  0.919810  0.587070  0.889700  1.0  -0.4155
  N  N2078  1  0.952840  0.536040  0.918100  1.0  0.0134
  N  N2079  1  0.919810  0.087070  0.389700  1.0  -0.4155
  N  N2080  1  0.952840  0.036040  0.418100  1.0  0.0134
  N  N2081  1  0.919810  0.162930  0.860300  1.0  -0.415
  N  N2082  1  0.952840  0.213960  0.831900  1.0  0.0141
  N  N2083  1  0.919810  0.662930  0.360300  1.0  -0.415
  N  N2084  1  0.952840  0.713960  0.331900  1.0  0.0141
  N  N2085  1  0.419810  0.162930  0.360300  1.0  -0.415
  N  N2086  1  0.452840  0.213960  0.331900  1.0  0.0141
  N  N2087  1  0.419810  0.662930  0.860300  1.0  -0.415
  N  N2088  1  0.452840  0.713960  0.831900  1.0  0.0141
  N  N2089  1  0.830190  0.087070  0.360300  1.0  -0.4152
  N  N2090  1  0.797160  0.036040  0.331900  1.0  0.0147
  N  N2091  1  0.830190  0.587070  0.860300  1.0  -0.4152
  N  N2092  1  0.797160  0.536040  0.831900  1.0  0.0147
  N  N2093  1  0.330190  0.087070  0.860300  1.0  -0.4152
  N  N2094  1  0.297160  0.036040  0.831900  1.0  0.0147
  N  N2095  1  0.330190  0.587070  0.360300  1.0  -0.4152
  N  N2096  1  0.297160  0.536040  0.331900  1.0  0.0147
  N  N2097  1  0.889700  0.330190  0.662930  1.0  -0.4145
  N  N2098  1  0.918100  0.297160  0.713960  1.0  0.014
  N  N2099  1  0.889700  0.830190  0.162930  1.0  -0.4145
  N  N2100  1  0.918100  0.797160  0.213960  1.0  0.014
  N  N2101  1  0.389700  0.330190  0.162930  1.0  -0.4145
  N  N2102  1  0.418100  0.297160  0.213960  1.0  0.014
  N  N2103  1  0.389700  0.830190  0.662930  1.0  -0.4145
  N  N2104  1  0.418100  0.797160  0.713960  1.0  0.014
  N  N2105  1  0.389700  0.419810  0.587070  1.0  -0.414
  N  N2106  1  0.418100  0.452840  0.536040  1.0  0.014
  N  N2107  1  0.389700  0.919810  0.087070  1.0  -0.414
  N  N2108  1  0.418100  0.952840  0.036040  1.0  0.014
  N  N2109  1  0.889700  0.419810  0.087070  1.0  -0.414
  N  N2110  1  0.918100  0.452840  0.036040  1.0  0.014
  N  N2111  1  0.889700  0.919810  0.587070  1.0  -0.414
  N  N2112  1  0.918100  0.952840  0.536040  1.0  0.014
  N  N2113  1  0.860300  0.919810  0.162930  1.0  -0.4145
  N  N2114  1  0.831900  0.952840  0.213960  1.0  0.0129
  N  N2115  1  0.860300  0.419810  0.662930  1.0  -0.4145
  N  N2116  1  0.831900  0.452840  0.713960  1.0  0.0129
  N  N2117  1  0.360300  0.919810  0.662930  1.0  -0.4145
  N  N2118  1  0.331900  0.952840  0.713960  1.0  0.0129
  N  N2119  1  0.360300  0.419810  0.162930  1.0  -0.4145
  N  N2120  1  0.331900  0.452840  0.213960  1.0  0.0129
  N  N2121  1  0.360300  0.830190  0.087070  1.0  -0.414
  N  N2122  1  0.331900  0.797160  0.036040  1.0  0.0151
  N  N2123  1  0.360300  0.330190  0.587070  1.0  -0.414
  N  N2124  1  0.331900  0.297160  0.536040  1.0  0.0151
  N  N2125  1  0.860300  0.830190  0.587070  1.0  -0.414
  N  N2126  1  0.831900  0.797160  0.536040  1.0  0.0151
  N  N2127  1  0.860300  0.330190  0.087070  1.0  -0.414
  N  N2128  1  0.831900  0.297160  0.036040  1.0  0.0151
  N  N2129  1  0.662930  0.889700  0.330190  1.0  -0.4154
  N  N2130  1  0.713960  0.918100  0.297160  1.0  0.0159
  N  N2131  1  0.662930  0.389700  0.830190  1.0  -0.4154
  N  N2132  1  0.713960  0.418100  0.797160  1.0  0.0159
  N  N2133  1  0.162930  0.889700  0.830190  1.0  -0.4154
  N  N2134  1  0.213960  0.918100  0.797160  1.0  0.0159
  N  N2135  1  0.162930  0.389700  0.330190  1.0  -0.4154
  N  N2136  1  0.213960  0.418100  0.297160  1.0  0.0159
  N  N2137  1  0.587070  0.389700  0.419810  1.0  -0.4166
  N  N2138  1  0.536040  0.418100  0.452840  1.0  0.0164
  N  N2139  1  0.587070  0.889700  0.919810  1.0  -0.4166
  N  N2140  1  0.536040  0.918100  0.952840  1.0  0.0164
  N  N2141  1  0.087070  0.389700  0.919810  1.0  -0.4166
  N  N2142  1  0.036040  0.418100  0.952840  1.0  0.0164
  N  N2143  1  0.087070  0.889700  0.419810  1.0  -0.4166
  N  N2144  1  0.036040  0.918100  0.452840  1.0  0.0164
  N  N2145  1  0.162930  0.860300  0.919810  1.0  -0.4154
  N  N2146  1  0.213960  0.831900  0.952840  1.0  0.0167
  N  N2147  1  0.162930  0.360300  0.419810  1.0  -0.4154
  N  N2148  1  0.213960  0.331900  0.452840  1.0  0.0167
  N  N2149  1  0.662930  0.860300  0.419810  1.0  -0.4154
  N  N2150  1  0.713960  0.831900  0.452840  1.0  0.0167
  N  N2151  1  0.662930  0.360300  0.919810  1.0  -0.4154
  N  N2152  1  0.713960  0.331900  0.952840  1.0  0.0167
  N  N2153  1  0.087070  0.360300  0.830190  1.0  -0.4155
  N  N2154  1  0.036040  0.331900  0.797160  1.0  0.0166
  N  N2155  1  0.087070  0.860300  0.330190  1.0  -0.4155
  N  N2156  1  0.036040  0.831900  0.297160  1.0  0.0166
  N  N2157  1  0.587070  0.360300  0.330190  1.0  -0.4155
  N  N2158  1  0.536040  0.331900  0.297160  1.0  0.0166
  N  N2159  1  0.587070  0.860300  0.830190  1.0  -0.4155
  N  N2160  1  0.536040  0.831900  0.797160  1.0  0.0166
