# generated using pymatgen
data_Eu3H20C44(NO10)2
_symmetry_space_group_name_H-M   'P 1'
_cell_length_a   32.89390000
_cell_length_b   32.89390000
_cell_length_c   32.89390000
_cell_angle_alpha   109.47100000
_cell_angle_beta   109.47100000
_cell_angle_gamma   109.47100000
_symmetry_Int_Tables_number   1
_chemical_formula_structural   Eu3H20C44(NO10)2
_chemical_formula_sum   'Eu36 H240 C528 N24 O240'
_cell_volume   27398.56140462
_cell_formula_units_Z   12
loop_
 _symmetry_equiv_pos_site_id
 _symmetry_equiv_pos_as_xyz
  1  'x, y, z'
loop_
 _atom_site_type_symbol
 _atom_site_label
 _atom_site_symmetry_multiplicity
 _atom_site_fract_x
 _atom_site_fract_y
 _atom_site_fract_z
 _atom_site_occupancy
 _atom_site_charge
  Eu  Eu1  1  0.154800  0.655160  0.987380  1.0  2.1387
  Eu  Eu2  1  0.186000  0.689620  0.875620  1.0  2.1435
  Eu  Eu3  1  0.500360  0.667780  0.655160  1.0  2.1277
  Eu  Eu4  1  0.499640  0.332220  0.344840  1.0  2.1309
  Eu  Eu5  1  0.332220  0.344840  0.499640  1.0  2.1378
  Eu  Eu6  1  0.814000  0.689620  0.503620  1.0  2.14
  Eu  Eu7  1  0.689620  0.875620  0.186000  1.0  2.1457
  Eu  Eu8  1  0.496380  0.186000  0.310380  1.0  2.1362
  Eu  Eu9  1  0.154800  0.167420  0.499640  1.0  2.1405
  Eu  Eu10  1  0.875620  0.186000  0.689620  1.0  2.1398
  Eu  Eu11  1  0.667780  0.655160  0.500360  1.0  2.1394
  Eu  Eu12  1  0.186000  0.310380  0.496380  1.0  2.1358
  Eu  Eu13  1  0.167420  0.012620  0.667780  1.0  2.1394
  Eu  Eu14  1  0.332220  0.832580  0.987380  1.0  2.1281
  Eu  Eu15  1  0.832580  0.500360  0.845200  1.0  2.1299
  Eu  Eu16  1  0.814000  0.310380  0.124380  1.0  2.1465
  Eu  Eu17  1  0.987380  0.154800  0.655160  1.0  2.1369
  Eu  Eu18  1  0.012620  0.845200  0.344840  1.0  2.1389
  Eu  Eu19  1  0.845200  0.344840  0.012620  1.0  2.138
  Eu  Eu20  1  0.500360  0.845200  0.832580  1.0  2.1391
  Eu  Eu21  1  0.499640  0.154800  0.167420  1.0  2.1389
  Eu  Eu22  1  0.655160  0.500360  0.667780  1.0  2.1407
  Eu  Eu23  1  0.832580  0.987380  0.332220  1.0  2.1392
  Eu  Eu24  1  0.344840  0.012620  0.845200  1.0  2.1392
  Eu  Eu25  1  0.689620  0.503620  0.814000  1.0  2.1368
  Eu  Eu26  1  0.012620  0.667780  0.167420  1.0  2.1394
  Eu  Eu27  1  0.344840  0.499640  0.332220  1.0  2.1392
  Eu  Eu28  1  0.310380  0.124380  0.814000  1.0  2.1474
  Eu  Eu29  1  0.987380  0.332220  0.832580  1.0  2.141
  Eu  Eu30  1  0.655160  0.987380  0.154800  1.0  2.1394
  Eu  Eu31  1  0.310380  0.496380  0.186000  1.0  2.139
  Eu  Eu32  1  0.503620  0.814000  0.689620  1.0  2.1354
  Eu  Eu33  1  0.124380  0.814000  0.310380  1.0  2.14
  Eu  Eu34  1  0.167420  0.499640  0.154800  1.0  2.1287
  Eu  Eu35  1  0.667780  0.167420  0.012620  1.0  2.1311
  Eu  Eu36  1  0.845200  0.832580  0.500360  1.0  2.1388
  H  H37  1  0.593800  0.628200  0.965600  1.0  0.1193
  H  H38  1  0.892300  0.488900  0.296600  1.0  0.1172
  H  H39  1  0.538700  0.381000  0.919700  1.0  0.1271
  H  H40  1  0.240700  0.104200  0.426900  1.0  0.1128
  H  H41  1  0.104200  0.426900  0.240700  1.0  0.1138
  H  H42  1  0.322700  0.895800  0.136500  1.0  0.1141
  H  H43  1  0.999300  0.593900  0.702800  1.0  0.1327
  H  H44  1  0.239600  0.978000  0.738400  1.0  0.0963
  H  H45  1  0.724300  0.110000  0.105700  1.0  0.12
  H  H46  1  0.381000  0.842300  0.461300  1.0  0.1244
  H  H47  1  0.245100  0.206100  0.845400  1.0  0.1165
  H  H48  1  0.245100  0.399700  0.039000  1.0  0.1165
  H  H49  1  0.102800  0.220100  0.598500  1.0  0.1196
  H  H50  1  0.511100  0.703400  0.107700  1.0  0.117
  H  H51  1  0.677300  0.104200  0.863500  1.0  0.1139
  H  H52  1  0.390800  0.489700  0.098900  1.0  0.3205
  H  H53  1  0.157700  0.538700  0.619000  1.0  0.1251
  H  H54  1  0.618600  0.614300  0.724300  1.0  0.12
  H  H55  1  0.406100  0.405400  0.108900  1.0  0.1289
  H  H56  1  0.401400  0.859200  0.650400  1.0  0.1121
  H  H57  1  0.724300  0.618600  0.614300  1.0  0.1201
  H  H58  1  0.488900  0.296600  0.892300  1.0  0.1179
  H  H59  1  0.315400  0.667700  0.065700  1.0  0.1206
  H  H60  1  0.297200  0.891100  0.296500  1.0  0.1285
  H  H61  1  0.039000  0.639300  0.793900  1.0  0.1149
  H  H62  1  0.461300  0.381000  0.842300  1.0  0.1264
  H  H63  1  0.600300  0.961000  0.754900  1.0  0.1154
  H  H64  1  0.371800  0.965600  0.337400  1.0  0.12
  H  H65  1  0.426900  0.322700  0.186200  1.0  0.1151
  H  H66  1  0.154600  0.754900  0.793900  1.0  0.1149
  H  H67  1  0.598500  0.102800  0.220100  1.0  0.1178
  H  H68  1  0.381400  0.385700  0.275700  1.0  0.1198
  H  H69  1  0.426900  0.240700  0.104200  1.0  0.1137
  H  H70  1  0.845400  0.639300  0.600300  1.0  0.1158
  H  H71  1  0.791200  0.249000  0.650400  1.0  0.1132
  H  H72  1  0.621600  0.220100  0.117300  1.0  0.118
  H  H73  1  0.489700  0.098900  0.390800  1.0  0.322
  H  H74  1  0.807700  0.404300  0.296600  1.0  0.116
  H  H75  1  0.352300  0.684600  0.750300  1.0  0.1218
  H  H76  1  0.662600  0.628200  0.034400  1.0  0.1186
  H  H77  1  0.897200  0.495700  0.117300  1.0  0.1174
  H  H78  1  0.378400  0.779900  0.882700  1.0  0.1184
  H  H79  1  0.609200  0.510300  0.901100  1.0  0.32
  H  H80  1  0.332300  0.647700  0.398000  1.0  0.1219
  H  H81  1  0.813800  0.136500  0.240700  1.0  0.1176
  H  H82  1  0.598600  0.140800  0.349600  1.0  0.1121
  H  H83  1  0.039000  0.245100  0.399700  1.0  0.116
  H  H84  1  0.703500  0.702800  0.108900  1.0  0.129
  H  H85  1  0.614300  0.724300  0.618600  1.0  0.1197
  H  H86  1  0.845400  0.245100  0.206100  1.0  0.1154
  H  H87  1  0.593900  0.702800  0.999300  1.0  0.1322
  H  H88  1  0.542200  0.401400  0.751000  1.0  0.1134
  H  H89  1  0.619000  0.157700  0.538700  1.0  0.1267
  H  H90  1  0.117300  0.897200  0.495700  1.0  0.118
  H  H91  1  0.403400  0.807700  0.511100  1.0  0.1146
  H  H92  1  0.965600  0.337400  0.371800  1.0  0.1174
  H  H93  1  0.894300  0.275700  0.890000  1.0  0.1199
  H  H94  1  0.249700  0.647700  0.315400  1.0  0.1204
  H  H95  1  0.104200  0.863500  0.677300  1.0  0.1141
  H  H96  1  0.791200  0.140800  0.542200  1.0  0.1126
  H  H97  1  0.594600  0.000700  0.703500  1.0  0.1291
  H  H98  1  0.677300  0.813800  0.573100  1.0  0.1164
  H  H99  1  0.684600  0.750300  0.352300  1.0  0.1195
  H  H100  1  0.406200  0.371800  0.034400  1.0  0.1203
  H  H101  1  0.628200  0.965600  0.593800  1.0  0.1205
  H  H102  1  0.934300  0.684600  0.332300  1.0  0.1208
  H  H103  1  0.249700  0.934300  0.602000  1.0  0.1208
  H  H104  1  0.275700  0.381400  0.385700  1.0  0.1198
  H  H105  1  0.192300  0.595700  0.703400  1.0  0.1145
  H  H106  1  0.406100  0.297200  0.000700  1.0  0.1328
  H  H107  1  0.750300  0.352300  0.684600  1.0  0.1203
  H  H108  1  0.495700  0.117300  0.897200  1.0  0.1193
  H  H109  1  0.501200  0.261600  0.239600  1.0  0.0961
  H  H110  1  0.504300  0.882700  0.102800  1.0  0.1185
  H  H111  1  0.403400  0.892300  0.595700  1.0  0.1138
  H  H112  1  0.995700  0.890000  0.614300  1.0  0.1196
  H  H113  1  0.105700  0.724300  0.110000  1.0  0.1193
  H  H114  1  0.240700  0.813800  0.136500  1.0  0.1166
  H  H115  1  0.261600  0.239600  0.501200  1.0  0.0946
  H  H116  1  0.249000  0.650400  0.791200  1.0  0.1131
  H  H117  1  0.595700  0.403400  0.892300  1.0  0.1153
  H  H118  1  0.208800  0.751000  0.349600  1.0  0.1135
  H  H119  1  0.360700  0.206100  0.961000  1.0  0.1151
  H  H120  1  0.859200  0.457800  0.208800  1.0  0.1121
  H  H121  1  0.457800  0.208800  0.859200  1.0  0.1141
  H  H122  1  0.703400  0.107700  0.511100  1.0  0.1191
  H  H123  1  0.999300  0.296500  0.405400  1.0  0.1289
  H  H124  1  0.105700  0.995700  0.381400  1.0  0.1243
  H  H125  1  0.110000  0.385700  0.004300  1.0  0.1204
  H  H126  1  0.609200  0.708100  0.098900  1.0  0.328
  H  H127  1  0.337400  0.371800  0.965600  1.0  0.1189
  H  H128  1  0.297200  0.000700  0.406100  1.0  0.1317
  H  H129  1  0.919700  0.538700  0.381000  1.0  0.1266
  H  H130  1  0.573100  0.677300  0.813800  1.0  0.1147
  H  H131  1  0.738400  0.760400  0.498800  1.0  0.0954
  H  H132  1  0.628200  0.034400  0.662600  1.0  0.121
  H  H133  1  0.891100  0.593900  0.594600  1.0  0.1293
  H  H134  1  0.504300  0.401500  0.621600  1.0  0.1172
  H  H135  1  0.593900  0.594600  0.891100  1.0  0.1283
  H  H136  1  0.401500  0.897200  0.779900  1.0  0.1188
  H  H137  1  0.404300  0.296600  0.807700  1.0  0.1174
  H  H138  1  0.647700  0.398000  0.332300  1.0  0.1218
  H  H139  1  0.813800  0.573100  0.677300  1.0  0.1161
  H  H140  1  0.965600  0.593800  0.628200  1.0  0.1208
  H  H141  1  0.405400  0.999300  0.296500  1.0  0.1291
  H  H142  1  0.495700  0.598500  0.378400  1.0  0.1181
  H  H143  1  0.000700  0.703500  0.594600  1.0  0.1283
  H  H144  1  0.600300  0.845400  0.639300  1.0  0.1161
  H  H145  1  0.488900  0.596600  0.192300  1.0  0.1159
  H  H146  1  0.754900  0.793900  0.154600  1.0  0.1162
  H  H147  1  0.398000  0.750300  0.065700  1.0  0.119
  H  H148  1  0.107700  0.404300  0.596600  1.0  0.1153
  H  H149  1  0.750300  0.065700  0.398000  1.0  0.1203
  H  H150  1  0.602000  0.667700  0.352300  1.0  0.121
  H  H151  1  0.108900  0.703500  0.702800  1.0  0.1281
  H  H152  1  0.863500  0.677300  0.104200  1.0  0.1152
  H  H153  1  0.882700  0.102800  0.504300  1.0  0.1186
  H  H154  1  0.538700  0.619000  0.157700  1.0  0.1265
  H  H155  1  0.457800  0.598600  0.249000  1.0  0.1141
  H  H156  1  0.961000  0.754900  0.600300  1.0  0.1159
  H  H157  1  0.315400  0.249700  0.647700  1.0  0.1197
  H  H158  1  0.807700  0.511100  0.403400  1.0  0.1163
  H  H159  1  0.667700  0.065700  0.315400  1.0  0.1207
  H  H160  1  0.703500  0.594600  0.000700  1.0  0.1292
  H  H161  1  0.405400  0.108900  0.406100  1.0  0.1288
  H  H162  1  0.650400  0.401400  0.859200  1.0  0.1121
  H  H163  1  0.702800  0.999300  0.593900  1.0  0.1316
  H  H164  1  0.647700  0.315400  0.249700  1.0  0.122
  H  H165  1  0.702800  0.108900  0.703500  1.0  0.129
  H  H166  1  0.759300  0.186200  0.863500  1.0  0.1167
  H  H167  1  0.602000  0.249700  0.934300  1.0  0.1191
  H  H168  1  0.961000  0.360700  0.206100  1.0  0.1143
  H  H169  1  0.738400  0.239600  0.978000  1.0  0.0958
  H  H170  1  0.511100  0.403400  0.807700  1.0  0.1165
  H  H171  1  0.291900  0.901100  0.390800  1.0  0.3204
  H  H172  1  0.618600  0.894300  0.004300  1.0  0.1249
  H  H173  1  0.349600  0.208800  0.751000  1.0  0.1129
  H  H174  1  0.684600  0.332300  0.934300  1.0  0.1214
  H  H175  1  0.192300  0.488900  0.596600  1.0  0.1165
  H  H176  1  0.895800  0.573100  0.759300  1.0  0.1141
  H  H177  1  0.667700  0.352300  0.602000  1.0  0.1223
  H  H178  1  0.596600  0.107700  0.404300  1.0  0.1147
  H  H179  1  0.065700  0.398000  0.750300  1.0  0.1206
  H  H180  1  0.296500  0.297200  0.891100  1.0  0.129
  H  H181  1  0.510300  0.901100  0.609200  1.0  0.3223
  H  H182  1  0.901100  0.609200  0.510300  1.0  0.3215
  H  H183  1  0.332300  0.934300  0.684600  1.0  0.1203
  H  H184  1  0.859200  0.650400  0.401400  1.0  0.1119
  H  H185  1  0.385700  0.275700  0.381400  1.0  0.1203
  H  H186  1  0.779900  0.882700  0.378400  1.0  0.1196
  H  H187  1  0.890000  0.614300  0.995700  1.0  0.1198
  H  H188  1  0.594600  0.891100  0.593900  1.0  0.1289
  H  H189  1  0.542200  0.791200  0.140800  1.0  0.1139
  H  H190  1  0.154600  0.360700  0.399700  1.0  0.1157
  H  H191  1  0.639300  0.600300  0.845400  1.0  0.1149
  H  H192  1  0.360700  0.399700  0.154600  1.0  0.1153
  H  H193  1  0.650400  0.791200  0.249000  1.0  0.1132
  H  H194  1  0.186200  0.863500  0.759300  1.0  0.1172
  H  H195  1  0.136500  0.322700  0.895800  1.0  0.1149
  H  H196  1  0.107700  0.511100  0.703400  1.0  0.1171
  H  H197  1  0.378400  0.495700  0.598500  1.0  0.1187
  H  H198  1  0.751000  0.349600  0.208800  1.0  0.1131
  H  H199  1  0.995700  0.381400  0.105700  1.0  0.1246
  H  H200  1  0.890000  0.894300  0.275700  1.0  0.1202
  H  H201  1  0.098900  0.390800  0.489700  1.0  0.3199
  H  H202  1  0.220100  0.598500  0.102800  1.0  0.1182
  H  H203  1  0.206100  0.961000  0.360700  1.0  0.1151
  H  H204  1  0.891100  0.296500  0.297200  1.0  0.1287
  H  H205  1  0.022000  0.261600  0.760400  1.0  0.0956
  H  H206  1  0.098900  0.609200  0.708100  1.0  0.3219
  H  H207  1  0.239600  0.501200  0.261600  1.0  0.0954
  H  H208  1  0.404300  0.596600  0.107700  1.0  0.1139
  H  H209  1  0.779900  0.401500  0.897200  1.0  0.1184
  H  H210  1  0.754900  0.600300  0.961000  1.0  0.1165
  H  H211  1  0.249000  0.457800  0.598600  1.0  0.1142
  H  H212  1  0.322700  0.186200  0.426900  1.0  0.1169
  H  H213  1  0.596600  0.192300  0.488900  1.0  0.1151
  H  H214  1  0.760400  0.022000  0.261600  1.0  0.0972
  H  H215  1  0.371800  0.034400  0.406200  1.0  0.12
  H  H216  1  0.619000  0.080300  0.461300  1.0  0.127
  H  H217  1  0.573100  0.759300  0.895800  1.0  0.1134
  H  H218  1  0.703400  0.192300  0.595700  1.0  0.1177
  H  H219  1  0.598600  0.249000  0.457800  1.0  0.1131
  H  H220  1  0.275700  0.890000  0.894300  1.0  0.1203
  H  H221  1  0.399700  0.154600  0.360700  1.0  0.1163
  H  H222  1  0.793900  0.039000  0.639300  1.0  0.1151
  H  H223  1  0.004300  0.618600  0.894300  1.0  0.1238
  H  H224  1  0.206100  0.845400  0.245100  1.0  0.1151
  H  H225  1  0.793900  0.154600  0.754900  1.0  0.1159
  H  H226  1  0.978000  0.738400  0.239600  1.0  0.0958
  H  H227  1  0.863500  0.759300  0.186200  1.0  0.1154
  H  H228  1  0.759300  0.895800  0.573100  1.0  0.1135
  H  H229  1  0.498800  0.738400  0.760400  1.0  0.0955
  H  H230  1  0.140800  0.349600  0.598600  1.0  0.1122
  H  H231  1  0.401400  0.751000  0.542200  1.0  0.113
  H  H232  1  0.842300  0.461300  0.381000  1.0  0.1254
  H  H233  1  0.110000  0.105700  0.724300  1.0  0.1199
  H  H234  1  0.034400  0.406200  0.371800  1.0  0.1215
  H  H235  1  0.261600  0.760400  0.022000  1.0  0.096
  H  H236  1  0.381400  0.105700  0.995700  1.0  0.1251
  H  H237  1  0.639300  0.793900  0.039000  1.0  0.1146
  H  H238  1  0.065700  0.315400  0.667700  1.0  0.1214
  H  H239  1  0.108900  0.406100  0.405400  1.0  0.1299
  H  H240  1  0.034400  0.662600  0.628200  1.0  0.1183
  H  H241  1  0.461300  0.619000  0.080300  1.0  0.1263
  H  H242  1  0.894300  0.004300  0.618600  1.0  0.1238
  H  H243  1  0.621600  0.504300  0.401500  1.0  0.1188
  H  H244  1  0.352300  0.602000  0.667700  1.0  0.1214
  H  H245  1  0.385700  0.004300  0.110000  1.0  0.12
  H  H246  1  0.901100  0.390800  0.291900  1.0  0.3206
  H  H247  1  0.140800  0.542200  0.791200  1.0  0.1123
  H  H248  1  0.398000  0.332300  0.647700  1.0  0.1213
  H  H249  1  0.296600  0.807700  0.404300  1.0  0.1166
  H  H250  1  0.882700  0.378400  0.779900  1.0  0.1196
  H  H251  1  0.000700  0.406100  0.297200  1.0  0.1342
  H  H252  1  0.220100  0.117300  0.621600  1.0  0.1182
  H  H253  1  0.296500  0.405400  0.999300  1.0  0.129
  H  H254  1  0.895800  0.136500  0.322700  1.0  0.1146
  H  H255  1  0.401500  0.621600  0.504300  1.0  0.1185
  H  H256  1  0.751000  0.542200  0.401400  1.0  0.1138
  H  H257  1  0.136500  0.240700  0.813800  1.0  0.1151
  H  H258  1  0.399700  0.039000  0.245100  1.0  0.1142
  H  H259  1  0.708100  0.098900  0.609200  1.0  0.3202
  H  H260  1  0.381000  0.919700  0.538700  1.0  0.1272
  H  H261  1  0.595700  0.703400  0.192300  1.0  0.1174
  H  H262  1  0.614300  0.995700  0.890000  1.0  0.1193
  H  H263  1  0.208800  0.859200  0.457800  1.0  0.1131
  H  H264  1  0.080300  0.461300  0.619000  1.0  0.125
  H  H265  1  0.390800  0.291900  0.901100  1.0  0.3277
  H  H266  1  0.349600  0.598600  0.140800  1.0  0.1117
  H  H267  1  0.897200  0.779900  0.401500  1.0  0.1192
  H  H268  1  0.186200  0.426900  0.322700  1.0  0.1156
  H  H269  1  0.102800  0.504300  0.882700  1.0  0.1179
  H  H270  1  0.296600  0.892300  0.488900  1.0  0.1187
  H  H271  1  0.760400  0.498800  0.738400  1.0  0.0952
  H  H272  1  0.117300  0.621600  0.220100  1.0  0.1182
  H  H273  1  0.598500  0.378400  0.495700  1.0  0.1182
  H  H274  1  0.892300  0.595700  0.403400  1.0  0.1144
  H  H275  1  0.004300  0.110000  0.385700  1.0  0.1189
  H  H276  1  0.934300  0.602000  0.249700  1.0  0.1192
  C  C277  1  0.102900  0.495100  0.852800  1.0  0.0254
  C  C278  1  0.095800  0.434400  0.162600  1.0  0.6391
  C  C279  1  0.080500  0.445100  0.818200  1.0  -0.136
  C  C280  1  0.339900  0.635400  0.103300  1.0  0.0252
  C  C281  1  0.582100  0.226900  0.178600  1.0  0.7319
  C  C282  1  0.435000  0.236700  0.352700  1.0  0.7662
  C  C283  1  0.611200  0.348400  0.896000  1.0  0.108
  C  C284  1  0.763400  0.295500  0.660100  1.0  0.0255
  C  C285  1  0.357700  0.749900  0.852800  1.0  0.0236
  C  C286  1  0.226900  0.178600  0.582100  1.0  0.7294
  C  C287  1  0.352700  0.116000  0.917700  1.0  0.7573
  C  C288  1  0.339900  0.236600  0.704500  1.0  0.0257
  C  C289  1  0.280100  0.672300  0.798000  1.0  -0.0576
  C  C290  1  0.104000  0.388800  0.651600  1.0  0.1147
  C  C291  1  0.612500  0.825000  0.627700  1.0  -0.0493
  C  C292  1  0.094400  0.402800  0.374000  1.0  -0.1178
  C  C293  1  0.005600  0.384800  0.137200  1.0  0.0131
  C  C294  1  0.082300  0.198300  0.435000  1.0  0.7615
  C  C295  1  0.593000  0.829000  0.944200  1.0  -0.129
  C  C296  1  0.917700  0.352700  0.116000  1.0  0.7594
  C  C297  1  0.452200  0.358300  0.810500  1.0  -0.0769
  C  C298  1  0.737700  0.818200  0.373100  1.0  -0.1387
  C  C299  1  0.175000  0.372300  0.387500  1.0  -0.0483
  C  C300  1  0.359600  0.965000  0.196200  1.0  -0.0133
  C  C301  1  0.364600  0.919500  0.737700  1.0  -0.1358
  C  C302  1  0.773500  0.342100  0.692800  1.0  -0.0067
  C  C303  1  0.782000  0.929500  0.588100  1.0  -0.0255
  C  C304  1  0.028800  0.402800  0.308400  1.0  -0.1132
  C  C305  1  0.819800  0.849700  0.217100  1.0  -0.1328
  C  C306  1  0.431400  0.773500  0.080700  1.0  -0.0066
  C  C307  1  0.615200  0.620800  0.752400  1.0  -0.0081
  C  C308  1  0.178600  0.582100  0.226900  1.0  0.7325
  C  C309  1  0.402800  0.374000  0.094400  1.0  -0.1189
  C  C310  1  0.015200  0.212500  0.387500  1.0  -0.0514
  C  C311  1  0.197300  0.825000  0.212500  1.0  -0.048
  C  C312  1  0.837400  0.904200  0.565600  1.0  0.64
  C  C313  1  0.565600  0.837400  0.904200  1.0  0.639
  C  C314  1  0.157300  0.874500  0.468400  1.0  -0.1548
  C  C315  1  0.588100  0.658600  0.806100  1.0  -0.0281
  C  C316  1  0.842700  0.125500  0.531600  1.0  -0.1541
  C  C317  1  0.350700  0.657900  0.431400  1.0  -0.0067
  C  C318  1  0.806100  0.147500  0.218000  1.0  -0.0249
  C  C319  1  0.837400  0.271800  0.933200  1.0  0.641
  C  C320  1  0.104000  0.452400  0.715200  1.0  0.1142
  C  C321  1  0.882900  0.374500  0.257400  1.0  0.2469
  C  C322  1  0.660100  0.763400  0.295500  1.0  0.0257
  C  C323  1  0.984800  0.787500  0.612500  1.0  -0.0505
  C  C324  1  0.737200  0.452400  0.348400  1.0  0.1149
  C  C325  1  0.093900  0.452200  0.641700  1.0  -0.0851
  C  C326  1  0.115200  0.351200  0.944200  1.0  -0.1281
  C  C327  1  0.413100  0.623800  0.102900  1.0  -0.0796
  C  C328  1  0.262800  0.547600  0.651600  1.0  0.1145
  C  C329  1  0.933200  0.837400  0.271800  1.0  0.6388
  C  C330  1  0.532100  0.635400  0.295500  1.0  0.0287
  C  C331  1  0.884000  0.082300  0.647300  1.0  0.7587
  C  C332  1  0.417900  0.773100  0.821400  1.0  0.7318
  C  C333  1  0.272400  0.571100  0.156300  1.0  0.7712
  C  C334  1  0.965000  0.605400  0.768800  1.0  -0.0126
  C  C335  1  0.728200  0.066800  0.162600  1.0  0.6396
  C  C336  1  0.282800  0.593900  0.125500  1.0  -0.1546
  C  C337  1  0.156300  0.585200  0.883900  1.0  0.7553
  C  C338  1  0.607800  0.125700  0.327700  1.0  -0.0548
  C  C339  1  0.282800  0.157300  0.688900  1.0  -0.1514
  C  C340  1  0.627700  0.802700  0.015200  1.0  -0.0414
  C  C341  1  0.803800  0.768800  0.163400  1.0  -0.0136
  C  C342  1  0.949400  0.595800  0.646400  1.0  -0.1355
  C  C343  1  0.752400  0.615200  0.620800  1.0  -0.0105
  C  C344  1  0.782000  0.193900  0.852500  1.0  -0.0274
  C  C345  1  0.810500  0.452200  0.358300  1.0  -0.0781
  C  C346  1  0.626000  0.028800  0.720400  1.0  -0.1046
  C  C347  1  0.280100  0.482100  0.607800  1.0  -0.0564
  C  C348  1  0.373100  0.554900  0.635400  1.0  -0.1356
  C  C349  1  0.055800  0.407000  0.171000  1.0  -0.13
  C  C350  1  0.586900  0.689800  0.210700  1.0  -0.083
  C  C351  1  0.691600  0.094400  0.720400  1.0  -0.1088
  C  C352  1  0.384800  0.137200  0.005600  1.0  0.0143
  C  C353  1  0.048300  0.226900  0.644800  1.0  0.732
  C  C354  1  0.196200  0.231200  0.836600  1.0  -0.0133
  C  C355  1  0.338600  0.271800  0.434400  1.0  0.639
  C  C356  1  0.571100  0.298700  0.414800  1.0  0.7709
  C  C357  1  0.595800  0.646400  0.949400  1.0  -0.1275
  C  C358  1  0.821400  0.048300  0.403500  1.0  0.7332
  C  C359  1  0.798000  0.125700  0.517900  1.0  -0.0562
  C  C360  1  0.495100  0.392200  0.642300  1.0  0.0282
  C  C361  1  0.701300  0.585200  0.428900  1.0  0.7675
  C  C362  1  0.719900  0.517900  0.392200  1.0  -0.0555
  C  C363  1  0.212500  0.197300  0.825000  1.0  -0.0471
  C  C364  1  0.787500  0.802700  0.175000  1.0  -0.0482
  C  C365  1  0.397300  0.029900  0.180200  1.0  -0.1306
  C  C366  1  0.005600  0.868400  0.620800  1.0  -0.0099
  C  C367  1  0.050600  0.404200  0.353600  1.0  -0.1279
  C  C368  1  0.364600  0.704500  0.467900  1.0  0.0273
  C  C369  1  0.341400  0.929500  0.147500  1.0  -0.02
  C  C370  1  0.884000  0.236700  0.801700  1.0  0.7586
  C  C371  1  0.715200  0.104000  0.452400  1.0  0.114
  C  C372  1  0.625500  0.508400  0.882900  1.0  0.249
  C  C373  1  0.593900  0.311100  0.468400  1.0  -0.1543
  C  C374  1  0.717200  0.842700  0.311100  1.0  -0.1519
  C  C375  1  0.849700  0.217100  0.819800  1.0  -0.132
  C  C376  1  0.175000  0.787500  0.802700  1.0  -0.0479
  C  C377  1  0.744000  0.987400  0.243400  1.0  0.5622
  C  C378  1  0.517900  0.798000  0.125700  1.0  -0.0569
  C  C379  1  0.156300  0.272400  0.571100  1.0  0.7527
  C  C380  1  0.193900  0.411900  0.341400  1.0  -0.0301
  C  C381  1  0.597200  0.691600  0.971200  1.0  -0.1117
  C  C382  1  0.607800  0.102900  0.250100  1.0  0.0256
  C  C383  1  0.080700  0.431400  0.773500  1.0  -0.0036
  C  C384  1  0.372300  0.387500  0.175000  1.0  -0.0498
  C  C385  1  0.749900  0.392200  0.897100  1.0  0.0242
  C  C386  1  0.103300  0.339900  0.635400  1.0  0.0257
  C  C387  1  0.951700  0.773100  0.355200  1.0  0.7326
  C  C388  1  0.635400  0.103300  0.339900  1.0  0.025
  C  C389  1  0.704500  0.339900  0.236600  1.0  0.0251
  C  C390  1  0.641700  0.189500  0.547800  1.0  -0.0785
  C  C391  1  0.341400  0.193900  0.411900  1.0  -0.0305
  C  C392  1  0.131600  0.379200  0.994400  1.0  -0.0099
  C  C393  1  0.080700  0.307200  0.649300  1.0  -0.0078
  C  C394  1  0.627700  0.612500  0.825000  1.0  -0.049
  C  C395  1  0.818200  0.080500  0.445100  1.0  -0.1382
  C  C396  1  0.504900  0.147200  0.897100  1.0  0.0274
  C  C397  1  0.798000  0.280100  0.672300  1.0  -0.0533
  C  C398  1  0.256000  0.499400  0.243400  1.0  0.5544
  C  C399  1  0.623800  0.210700  0.520900  1.0  -0.0823
  C  C400  1  0.646400  0.050600  0.697000  1.0  -0.1274
  C  C401  1  0.603900  0.718000  0.946300  1.0  0.0638
  C  C402  1  0.727600  0.883900  0.298700  1.0  0.7664
  C  C403  1  0.196200  0.359600  0.965000  1.0  -0.013
  C  C404  1  0.897100  0.586900  0.376200  1.0  -0.0864
  C  C405  1  0.116000  0.763300  0.198300  1.0  0.7605
  C  C406  1  0.102900  0.250100  0.607800  1.0  0.0261
  C  C407  1  0.247600  0.384800  0.379200  1.0  -0.0083
  C  C408  1  0.452200  0.641700  0.093900  1.0  -0.0861
  C  C409  1  0.596500  0.644800  0.417900  1.0  0.7333
  C  C410  1  0.949400  0.303000  0.353600  1.0  -0.1289
  C  C411  1  0.836600  0.196200  0.231200  1.0  -0.0134
  C  C412  1  0.407000  0.171000  0.055800  1.0  -0.1313
  C  C413  1  0.035000  0.803800  0.640400  1.0  -0.0134
  C  C414  1  0.547800  0.358300  0.906100  1.0  -0.0847
  C  C415  1  0.353600  0.050600  0.404200  1.0  -0.1272
  C  C416  1  0.364600  0.896700  0.660100  1.0  0.0252
  C  C417  1  0.801700  0.565000  0.917700  1.0  0.7595
  C  C418  1  0.586900  0.376200  0.897100  1.0  -0.0813
  C  C419  1  0.374000  0.094400  0.402800  1.0  -0.1163
  C  C420  1  0.532100  0.236600  0.896700  1.0  0.0278
  C  C421  1  0.499400  0.243400  0.256000  1.0  0.5554
  C  C422  1  0.620800  0.005600  0.868400  1.0  -0.0073
  C  C423  1  0.970100  0.367400  0.150300  1.0  -0.1365
  C  C424  1  0.517900  0.392200  0.719900  1.0  -0.0572
  C  C425  1  0.452400  0.715200  0.104000  1.0  0.1077
  C  C426  1  0.929500  0.588100  0.782000  1.0  -0.0281
  C  C427  1  0.897100  0.749900  0.392200  1.0  0.0236
  C  C428  1  0.491600  0.117100  0.374500  1.0  0.2508
  C  C429  1  0.704500  0.467900  0.364600  1.0  0.0275
  C  C430  1  0.308400  0.028800  0.402800  1.0  -0.1002
  C  C431  1  0.284800  0.737200  0.388800  1.0  0.1092
  C  C432  1  0.692800  0.350700  0.919300  1.0  -0.0069
  C  C433  1  0.596500  0.178600  0.951700  1.0  0.7315
  C  C434  1  0.520900  0.623800  0.210700  1.0  -0.0845
  C  C435  1  0.198300  0.435000  0.082300  1.0  0.759
  C  C436  1  0.602700  0.970100  0.819800  1.0  -0.1305
  C  C437  1  0.620800  0.752400  0.615200  1.0  -0.0067
  C  C438  1  0.355200  0.582100  0.403500  1.0  0.7312
  C  C439  1  0.944200  0.115200  0.351200  1.0  -0.1269
  C  C440  1  0.406100  0.874500  0.717200  1.0  -0.1528
  C  C441  1  0.868400  0.862800  0.247600  1.0  -0.0009
  C  C442  1  0.768800  0.163400  0.803800  1.0  -0.0135
  C  C443  1  0.243400  0.744000  0.987400  1.0  0.5604
  C  C444  1  0.284800  0.896000  0.547600  1.0  0.1131
  C  C445  1  0.843700  0.414800  0.116100  1.0  0.7677
  C  C446  1  0.180200  0.150300  0.782900  1.0  -0.1342
  C  C447  1  0.657900  0.431400  0.350700  1.0  -0.0029
  C  C448  1  0.482100  0.607800  0.280100  1.0  -0.0558
  C  C449  1  0.763400  0.103300  0.467900  1.0  0.0283
  C  C450  1  0.327700  0.202000  0.719900  1.0  -0.0577
  C  C451  1  0.388800  0.651600  0.104000  1.0  0.1139
  C  C452  1  0.756600  0.256000  0.012600  1.0  0.5612
  C  C453  1  0.852500  0.658600  0.070500  1.0  -0.0237
  C  C454  1  0.131600  0.137200  0.752400  1.0  1e-04
  C  C455  1  0.217100  0.367400  0.397300  1.0  -0.1327
  C  C456  1  0.374500  0.257400  0.882900  1.0  0.2499
  C  C457  1  0.649300  0.342100  0.568600  1.0  -0.0071
  C  C458  1  0.571100  0.156300  0.272400  1.0  0.7525
  C  C459  1  0.257400  0.882900  0.374500  1.0  0.2477
  C  C460  1  0.147200  0.897100  0.504900  1.0  0.024
  C  C461  1  0.279600  0.308400  0.905600  1.0  -0.1079
  C  C462  1  0.115200  0.171000  0.764000  1.0  -0.1295
  C  C463  1  0.353600  0.949400  0.303000  1.0  -0.1241
  C  C464  1  0.150300  0.782900  0.180200  1.0  -0.1317
  C  C465  1  0.692800  0.773500  0.342100  1.0  -0.0065
  C  C466  1  0.374000  0.971200  0.279600  1.0  -0.1045
  C  C467  1  0.307200  0.649300  0.080700  1.0  -0.0064
  C  C468  1  0.372300  0.197300  0.984800  1.0  -0.0423
  C  C469  1  0.298700  0.414800  0.571100  1.0  0.7685
  C  C470  1  0.236600  0.896700  0.532100  1.0  0.0277
  C  C471  1  0.742600  0.117100  0.625500  1.0  0.2526
  C  C472  1  0.282000  0.885900  0.228300  1.0  0.0617
  C  C473  1  0.387500  0.175000  0.372300  1.0  -0.0502
  C  C474  1  0.407000  0.351200  0.236000  1.0  -0.1305
  C  C475  1  0.697000  0.646400  0.050600  1.0  -0.1315
  C  C476  1  0.764000  0.593000  0.648800  1.0  -0.1321
  C  C477  1  0.147200  0.642300  0.250100  1.0  0.0253
  C  C478  1  0.396100  0.282000  0.053700  1.0  0.0629
  C  C479  1  0.868400  0.620800  0.005600  1.0  -0.0087
  C  C480  1  0.756600  0.744000  0.500600  1.0  0.5534
  C  C481  1  0.157300  0.688900  0.282800  1.0  -0.1522
  C  C482  1  0.782900  0.180200  0.150300  1.0  -0.1334
  C  C483  1  0.015200  0.627700  0.802700  1.0  -0.0397
  C  C484  1  0.295500  0.660100  0.763400  1.0  0.0257
  C  C485  1  0.311100  0.717200  0.842700  1.0  -0.1533
  C  C486  1  0.327700  0.607800  0.125700  1.0  -0.0564
  C  C487  1  0.946300  0.228300  0.342400  1.0  0.0637
  C  C488  1  0.919300  0.568600  0.226500  1.0  -0.0025
  C  C489  1  0.640400  0.035000  0.803800  1.0  -0.0125
  C  C490  1  0.531600  0.842700  0.125500  1.0  -0.1533
  C  C491  1  0.768800  0.965000  0.605400  1.0  -0.0133
  C  C492  1  0.874300  0.482100  0.202000  1.0  -0.0541
  C  C493  1  0.452400  0.348400  0.737200  1.0  0.1159
  C  C494  1  0.228300  0.282000  0.885900  1.0  0.0617
  C  C495  1  0.632600  0.849700  0.029900  1.0  -0.137
  C  C496  1  0.883900  0.298700  0.727600  1.0  0.7668
  C  C497  1  0.271800  0.434400  0.338600  1.0  0.6399
  C  C498  1  0.181800  0.626900  0.262300  1.0  -0.1346
  C  C499  1  0.397300  0.217100  0.367400  1.0  -0.1325
  C  C500  1  0.818200  0.373100  0.737700  1.0  -0.1347
  C  C501  1  0.355200  0.951700  0.773100  1.0  0.7327
  C  C502  1  0.080500  0.262300  0.635400  1.0  -0.1392
  C  C503  1  0.212500  0.387500  0.015200  1.0  -0.0509
  C  C504  1  0.359600  0.163400  0.394600  1.0  -0.0133
  C  C505  1  0.789300  0.413100  0.310200  1.0  -0.0818
  C  C506  1  0.825000  0.212500  0.197300  1.0  -0.0482
  C  C507  1  0.718000  0.114100  0.771700  1.0  0.0625
  C  C508  1  0.373100  0.737700  0.818200  1.0  -0.1359
  C  C509  1  0.029900  0.180200  0.397300  1.0  -0.1299
  C  C510  1  0.162600  0.095800  0.434400  1.0  0.6392
  C  C511  1  0.852500  0.782000  0.193900  1.0  -0.0249
  C  C512  1  0.987400  0.243400  0.744000  1.0  0.5615
  C  C513  1  0.388800  0.284800  0.737200  1.0  0.1107
  C  C514  1  0.445100  0.364600  0.626900  1.0  -0.1376
  C  C515  1  0.384800  0.379200  0.247600  1.0  -0.0078
  C  C516  1  0.236600  0.704500  0.339900  1.0  0.025
  C  C517  1  0.691600  0.971200  0.597200  1.0  -0.1073
  C  C518  1  0.771700  0.657600  0.053700  1.0  0.0647
  C  C519  1  0.178600  0.951700  0.596500  1.0  0.7328
  C  C520  1  0.802700  0.175000  0.787500  1.0  -0.0478
  C  C521  1  0.262300  0.635400  0.080500  1.0  -0.135
  C  C522  1  0.904200  0.066800  0.338600  1.0  0.638
  C  C523  1  0.217100  0.819800  0.849700  1.0  -0.1339
  C  C524  1  0.236700  0.801700  0.884000  1.0  0.7576
  C  C525  1  0.615200  0.862800  0.994400  1.0  0.0121
  C  C526  1  0.171000  0.055800  0.407000  1.0  -0.1284
  C  C527  1  0.181800  0.919500  0.554900  1.0  -0.138
  C  C528  1  0.984800  0.372300  0.197300  1.0  -0.0404
  C  C529  1  0.565000  0.763300  0.647300  1.0  0.7656
  C  C530  1  0.802700  0.015200  0.627700  1.0  -0.0403
  C  C531  1  0.554900  0.635400  0.373100  1.0  -0.136
  C  C532  1  0.116000  0.917700  0.352700  1.0  0.7592
  C  C533  1  0.657900  0.307200  0.226500  1.0  -0.009
  C  C534  1  0.271800  0.933200  0.837400  1.0  0.638
  C  C535  1  0.688900  0.531600  0.406100  1.0  -0.1535
  C  C536  1  0.661400  0.095800  0.933200  1.0  0.64
  C  C537  1  0.607800  0.280100  0.482100  1.0  -0.0557
  C  C538  1  0.351200  0.944200  0.115200  1.0  -0.1275
  C  C539  1  0.719900  0.327700  0.202000  1.0  -0.0562
  C  C540  1  0.125500  0.531600  0.842700  1.0  -0.1527
  C  C541  1  0.717200  0.406100  0.874500  1.0  -0.1552
  C  C542  1  0.350700  0.919300  0.692800  1.0  -0.0076
  C  C543  1  0.626900  0.445100  0.364600  1.0  -0.1356
  C  C544  1  0.554900  0.181800  0.919500  1.0  -0.1365
  C  C545  1  0.387500  0.015200  0.212500  1.0  -0.0508
  C  C546  1  0.883900  0.156300  0.585200  1.0  0.7646
  C  C547  1  0.657600  0.885900  0.603900  1.0  0.0605
  C  C548  1  0.035000  0.394600  0.231200  1.0  -0.0129
  C  C549  1  0.585200  0.883900  0.156300  1.0  0.7656
  C  C550  1  0.243400  0.256000  0.499400  1.0  0.5546
  C  C551  1  0.500600  0.756600  0.744000  1.0  0.5547
  C  C552  1  0.904200  0.565600  0.837400  1.0  0.6404
  C  C553  1  0.163400  0.803800  0.768800  1.0  -0.0135
  C  C554  1  0.651600  0.262800  0.547600  1.0  0.1079
  C  C555  1  0.256000  0.012600  0.756600  1.0  0.5625
  C  C556  1  0.404200  0.353600  0.050600  1.0  -0.1301
  C  C557  1  0.749900  0.852800  0.357700  1.0  0.0244
  C  C558  1  0.701300  0.272400  0.116100  1.0  0.7594
  C  C559  1  0.417900  0.596500  0.644800  1.0  0.7303
  C  C560  1  0.050600  0.697000  0.646400  1.0  -0.1236
  C  C561  1  0.342100  0.692800  0.773500  1.0  -0.0077
  C  C562  1  0.641700  0.093900  0.452200  1.0  -0.0842
  C  C563  1  0.728200  0.565600  0.661400  1.0  0.6407
  C  C564  1  0.843700  0.727600  0.428900  1.0  0.7537
  C  C565  1  0.919500  0.737700  0.364600  1.0  -0.1377
  C  C566  1  0.994400  0.615200  0.862800  1.0  0.0124
  C  C567  1  0.180200  0.397300  0.029900  1.0  -0.1317
  C  C568  1  0.236000  0.884800  0.829000  1.0  -0.1292
  C  C569  1  0.568600  0.226500  0.919300  1.0  -0.0069
  C  C570  1  0.231200  0.836600  0.196200  1.0  -0.0135
  C  C571  1  0.311100  0.468400  0.593900  1.0  -0.1538
  C  C572  1  0.896700  0.532100  0.236600  1.0  0.0276
  C  C573  1  0.635400  0.080500  0.262300  1.0  -0.1376
  C  C574  1  0.737200  0.388800  0.284800  1.0  0.1095
  C  C575  1  0.648800  0.764000  0.593000  1.0  -0.1293
  C  C576  1  0.970100  0.819800  0.602700  1.0  -0.1302
  C  C577  1  0.842700  0.311100  0.717200  1.0  -0.152
  C  C578  1  0.632600  0.602700  0.782900  1.0  -0.1304
  C  C579  1  0.048300  0.403500  0.821400  1.0  0.7336
  C  C580  1  0.066800  0.338600  0.904200  1.0  0.6378
  C  C581  1  0.508400  0.882900  0.625500  1.0  0.2484
  C  C582  1  0.897100  0.520900  0.310200  1.0  -0.0829
  C  C583  1  0.162600  0.728200  0.066800  1.0  0.6392
  C  C584  1  0.919500  0.554900  0.181800  1.0  -0.1373
  C  C585  1  0.376200  0.897100  0.586900  1.0  -0.0815
  C  C586  1  0.896700  0.660100  0.364600  1.0  0.0255
  C  C587  1  0.623800  0.102900  0.413100  1.0  -0.0867
  C  C588  1  0.672300  0.798000  0.280100  1.0  -0.0576
  C  C589  1  0.236700  0.352700  0.435000  1.0  0.765
  C  C590  1  0.392200  0.897100  0.749900  1.0  0.025
  C  C591  1  0.406100  0.688900  0.531600  1.0  -0.1543
  C  C592  1  0.342400  0.114100  0.396100  1.0  0.0609
  C  C593  1  0.117100  0.374500  0.491600  1.0  0.2491
  C  C594  1  0.147500  0.218000  0.806100  1.0  -0.0257
  C  C595  1  0.171000  0.764000  0.115200  1.0  -0.1293
  C  C596  1  0.862800  0.994400  0.615200  1.0  0.0117
  C  C597  1  0.718000  0.946300  0.603900  1.0  0.0659
  C  C598  1  0.374500  0.491600  0.117100  1.0  0.2488
  C  C599  1  0.906100  0.547800  0.358300  1.0  -0.083
  C  C600  1  0.125700  0.517900  0.798000  1.0  -0.0553
  C  C601  1  0.885900  0.603900  0.657600  1.0  0.0596
  C  C602  1  0.495100  0.852800  0.102900  1.0  0.0268
  C  C603  1  0.367400  0.150300  0.970100  1.0  -0.1364
  C  C604  1  0.396100  0.342400  0.114100  1.0  0.0597
  C  C605  1  0.763300  0.647300  0.565000  1.0  0.7618
  C  C606  1  0.482100  0.202000  0.874300  1.0  -0.059
  C  C607  1  0.351200  0.236000  0.407000  1.0  -0.1299
  C  C608  1  0.787500  0.612500  0.984800  1.0  -0.0508
  C  C609  1  0.479100  0.689800  0.102900  1.0  -0.0839
  C  C610  1  0.163400  0.394600  0.359600  1.0  -0.0129
  C  C611  1  0.114100  0.396100  0.342400  1.0  0.0623
  C  C612  1  0.348400  0.737200  0.452400  1.0  0.1137
  C  C613  1  0.226500  0.657900  0.307200  1.0  -0.0049
  C  C614  1  0.647300  0.884000  0.082300  1.0  0.7607
  C  C615  1  0.310200  0.897100  0.520900  1.0  -0.0834
  C  C616  1  0.402800  0.308400  0.028800  1.0  -0.1088
  C  C617  1  0.825000  0.627700  0.612500  1.0  -0.0487
  C  C618  1  0.789300  0.479100  0.376200  1.0  -0.0828
  C  C619  1  0.852800  0.102900  0.495100  1.0  0.0259
  C  C620  1  0.150300  0.970100  0.367400  1.0  -0.1373
  C  C621  1  0.189500  0.547800  0.641700  1.0  -0.0796
  C  C622  1  0.763300  0.198300  0.116000  1.0  0.7599
  C  C623  1  0.715200  0.262800  0.611200  1.0  0.1101
  C  C624  1  0.919300  0.692800  0.350700  1.0  -0.0077
  C  C625  1  0.720400  0.691600  0.094400  1.0  -0.1083
  C  C626  1  0.896000  0.611200  0.348400  1.0  0.1159
  C  C627  1  0.358300  0.906100  0.547800  1.0  -0.0853
  C  C628  1  0.611200  0.715200  0.262800  1.0  0.1099
  C  C629  1  0.198300  0.116000  0.763300  1.0  0.7581
  C  C630  1  0.348400  0.896000  0.611200  1.0  0.1157
  C  C631  1  0.116100  0.701300  0.272400  1.0  0.7559
  C  C632  1  0.917700  0.801700  0.565000  1.0  0.7607
  C  C633  1  0.210700  0.520900  0.623800  1.0  -0.0811
  C  C634  1  0.829000  0.236000  0.884800  1.0  -0.131
  C  C635  1  0.303000  0.353600  0.949400  1.0  -0.1268
  C  C636  1  0.308400  0.905600  0.279600  1.0  -0.1075
  C  C637  1  0.392200  0.642300  0.495100  1.0  0.0287
  C  C638  1  0.352700  0.435000  0.236700  1.0  0.7633
  C  C639  1  0.279600  0.374000  0.971200  1.0  -0.1071
  C  C640  1  0.053700  0.771700  0.657600  1.0  0.0633
  C  C641  1  0.582100  0.403500  0.355200  1.0  0.7302
  C  C642  1  0.884800  0.829000  0.236000  1.0  -0.1287
  C  C643  1  0.445100  0.818200  0.080500  1.0  -0.1356
  C  C644  1  0.193900  0.852500  0.782000  1.0  -0.0267
  C  C645  1  0.125700  0.327700  0.607800  1.0  -0.0567
  C  C646  1  0.971200  0.597200  0.691600  1.0  -0.1073
  C  C647  1  0.282000  0.053700  0.396100  1.0  0.0633
  C  C648  1  0.874500  0.717200  0.406100  1.0  -0.1534
  C  C649  1  0.504900  0.607800  0.357700  1.0  0.0272
  C  C650  1  0.094400  0.720400  0.691600  1.0  -0.1059
  C  C651  1  0.394600  0.231200  0.035000  1.0  -0.0133
  C  C652  1  0.612500  0.984800  0.787500  1.0  -0.0501
  C  C653  1  0.884800  0.648800  0.055800  1.0  -0.1265
  C  C654  1  0.295500  0.532100  0.635400  1.0  0.0276
  C  C655  1  0.658600  0.806100  0.588100  1.0  -0.0302
  C  C656  1  0.103300  0.467900  0.763400  1.0  0.0284
  C  C657  1  0.236000  0.407000  0.351200  1.0  -0.1299
  C  C658  1  0.771700  0.718000  0.114100  1.0  0.0622
  C  C659  1  0.651600  0.104000  0.388800  1.0  0.1165
  C  C660  1  0.226500  0.919300  0.568600  1.0  -0.0077
  C  C661  1  0.829000  0.944200  0.593000  1.0  -0.1287
  C  C662  1  0.648800  0.055800  0.884800  1.0  -0.1277
  C  C663  1  0.626900  0.262300  0.181800  1.0  -0.1359
  C  C664  1  0.012600  0.756600  0.256000  1.0  0.5602
  C  C665  1  0.752400  0.131600  0.137200  1.0  0.0006
  C  C666  1  0.379200  0.247600  0.384800  1.0  -0.0076
  C  C667  1  0.642300  0.250100  0.147200  1.0  0.0251
  C  C668  1  0.625500  0.742600  0.117100  1.0  0.2497
  C  C669  1  0.434400  0.338600  0.271800  1.0  0.6398
  C  C670  1  0.095800  0.933200  0.661400  1.0  0.6369
  C  C671  1  0.593000  0.648800  0.764000  1.0  -0.1291
  C  C672  1  0.117100  0.625500  0.742600  1.0  0.2504
  C  C673  1  0.364600  0.626900  0.445100  1.0  -0.1352
  C  C674  1  0.720400  0.626000  0.028800  1.0  -0.1054
  C  C675  1  0.635400  0.373100  0.554900  1.0  -0.134
  C  C676  1  0.392200  0.874300  0.672300  1.0  -0.056
  C  C677  1  0.773500  0.080700  0.431400  1.0  -0.0075
  C  C678  1  0.467900  0.763400  0.103300  1.0  0.0267
  C  C679  1  0.689800  0.102900  0.479100  1.0  -0.0834
  C  C680  1  0.070500  0.852500  0.658600  1.0  -0.0233
  C  C681  1  0.028800  0.720400  0.626000  1.0  -0.1072
  C  C682  1  0.403500  0.355200  0.582100  1.0  0.7304
  C  C683  1  0.944200  0.593000  0.829000  1.0  -0.13
  C  C684  1  0.413100  0.310200  0.789300  1.0  -0.0847
  C  C685  1  0.210700  0.586900  0.689800  1.0  -0.0823
  C  C686  1  0.114100  0.771700  0.718000  1.0  0.0616
  C  C687  1  0.951700  0.596500  0.178600  1.0  0.7334
  C  C688  1  0.137200  0.005600  0.384800  1.0  0.0105
  C  C689  1  0.605400  0.640400  0.836600  1.0  -0.0129
  C  C690  1  0.885900  0.228300  0.282000  1.0  0.0636
  C  C691  1  0.647300  0.565000  0.763300  1.0  0.7617
  C  C692  1  0.468400  0.593900  0.311100  1.0  -0.1523
  C  C693  1  0.250100  0.147200  0.642300  1.0  0.0244
  C  C694  1  0.262800  0.611200  0.715200  1.0  0.11
  C  C695  1  0.862800  0.247600  0.868400  1.0  0.0007
  C  C696  1  0.394600  0.359600  0.163400  1.0  -0.012
  C  C697  1  0.971200  0.279600  0.374000  1.0  -0.1073
  C  C698  1  0.946300  0.603900  0.718000  1.0  0.0629
  C  C699  1  0.821400  0.417900  0.773100  1.0  0.7323
  C  C700  1  0.029900  0.632600  0.849700  1.0  -0.136
  C  C701  1  0.531600  0.406100  0.688900  1.0  -0.1527
  C  C702  1  0.874500  0.468400  0.157300  1.0  -0.1538
  C  C703  1  0.933200  0.661400  0.095800  1.0  0.6386
  C  C704  1  0.874300  0.672300  0.392200  1.0  -0.0566
  C  C705  1  0.585200  0.428900  0.701300  1.0  0.7526
  C  C706  1  0.082300  0.647300  0.884000  1.0  0.7564
  C  C707  1  0.468400  0.157300  0.874500  1.0  -0.154
  C  C708  1  0.055800  0.884800  0.648800  1.0  -0.1269
  C  C709  1  0.358300  0.810500  0.452200  1.0  -0.08
  C  C710  1  0.250100  0.607800  0.102900  1.0  0.0248
  C  C711  1  0.644800  0.048300  0.226900  1.0  0.7317
  C  C712  1  0.568600  0.649300  0.342100  1.0  -0.0068
  C  C713  1  0.403500  0.821400  0.048300  1.0  0.729
  C  C714  1  0.626000  0.905600  0.597200  1.0  -0.1182
  C  C715  1  0.202000  0.874300  0.482100  1.0  -0.0555
  C  C716  1  0.688900  0.282800  0.157300  1.0  -0.1531
  C  C717  1  0.806100  0.588100  0.658600  1.0  -0.0302
  C  C718  1  0.272400  0.116100  0.701300  1.0  0.7669
  C  C719  1  0.434400  0.162600  0.095800  1.0  0.6407
  C  C720  1  0.649300  0.080700  0.307200  1.0  -0.0061
  C  C721  1  0.836600  0.605400  0.640400  1.0  -0.0127
  C  C722  1  0.565000  0.917700  0.801700  1.0  0.7635
  C  C723  1  0.520900  0.310200  0.897100  1.0  -0.0843
  C  C724  1  0.379200  0.994400  0.131600  1.0  -0.0092
  C  C725  1  0.896000  0.547600  0.284800  1.0  0.109
  C  C726  1  0.367400  0.397300  0.217100  1.0  -0.1309
  C  C727  1  0.066800  0.162600  0.728200  1.0  0.638
  C  C728  1  0.414800  0.116100  0.843700  1.0  0.7509
  C  C729  1  0.905600  0.597200  0.626000  1.0  -0.1175
  C  C730  1  0.218000  0.806100  0.147500  1.0  -0.0268
  C  C731  1  0.338600  0.904200  0.066800  1.0  0.6387
  C  C732  1  0.640400  0.836600  0.605400  1.0  -0.0144
  C  C733  1  0.547600  0.284800  0.896000  1.0  0.112
  C  C734  1  0.773100  0.355200  0.951700  1.0  0.7293
  C  C735  1  0.411900  0.341400  0.193900  1.0  -0.0284
  C  C736  1  0.202000  0.719900  0.327700  1.0  -0.0563
  C  C737  1  0.565600  0.661400  0.728200  1.0  0.639
  C  C738  1  0.658600  0.070500  0.852500  1.0  -0.0212
  C  C739  1  0.342100  0.568600  0.649300  1.0  -0.004
  C  C740  1  0.849700  0.029900  0.632600  1.0  -0.1369
  C  C741  1  0.635400  0.295500  0.532100  1.0  0.0273
  C  C742  1  0.661400  0.728200  0.565600  1.0  0.6394
  C  C743  1  0.137200  0.752400  0.131600  1.0  0.0003
  C  C744  1  0.102900  0.479100  0.689800  1.0  -0.0845
  C  C745  1  0.642300  0.495100  0.392200  1.0  0.0271
  C  C746  1  0.467900  0.364600  0.704500  1.0  0.0278
  C  C747  1  0.102900  0.413100  0.623800  1.0  -0.0855
  C  C748  1  0.147500  0.341400  0.929500  1.0  -0.0235
  C  C749  1  0.307200  0.226500  0.657900  1.0  -0.0066
  C  C750  1  0.897100  0.504900  0.147200  1.0  0.0284
  C  C751  1  0.603900  0.657600  0.885900  1.0  0.061
  C  C752  1  0.803800  0.640400  0.035000  1.0  -0.0132
  C  C753  1  0.247600  0.868400  0.862800  1.0  -0.0002
  C  C754  1  0.773100  0.821400  0.417900  1.0  0.7312
  C  C755  1  0.342400  0.946300  0.228300  1.0  0.0629
  C  C756  1  0.782900  0.632600  0.602700  1.0  -0.1324
  C  C757  1  0.197300  0.984800  0.372300  1.0  -0.0413
  C  C758  1  0.660100  0.364600  0.896700  1.0  0.0257
  C  C759  1  0.226900  0.644800  0.048300  1.0  0.7312
  C  C760  1  0.070500  0.411900  0.218000  1.0  -0.0266
  C  C761  1  0.262300  0.181800  0.626900  1.0  -0.1387
  C  C762  1  0.228300  0.342400  0.946300  1.0  0.0624
  C  C763  1  0.431400  0.350700  0.657900  1.0  -0.0061
  C  C764  1  0.547600  0.651600  0.262800  1.0  0.1157
  C  C765  1  0.376200  0.789300  0.479100  1.0  -0.081
  C  C766  1  0.597200  0.626000  0.905600  1.0  -0.1126
  C  C767  1  0.602700  0.782900  0.632600  1.0  -0.1327
  C  C768  1  0.428900  0.843700  0.727600  1.0  0.7644
  C  C769  1  0.801700  0.884000  0.236700  1.0  0.7586
  C  C770  1  0.414800  0.571100  0.298700  1.0  0.7546
  C  C771  1  0.310200  0.789300  0.413100  1.0  -0.0823
  C  C772  1  0.231200  0.035000  0.394600  1.0  -0.013
  C  C773  1  0.411900  0.218000  0.070500  1.0  -0.0266
  C  C774  1  0.929500  0.147500  0.341400  1.0  -0.0237
  C  C775  1  0.116100  0.843700  0.414800  1.0  0.765
  C  C776  1  0.479100  0.376200  0.789300  1.0  -0.0851
  C  C777  1  0.588100  0.782000  0.929500  1.0  -0.0269
  C  C778  1  0.744000  0.500600  0.756600  1.0  0.5556
  C  C779  1  0.125500  0.282800  0.593900  1.0  -0.1545
  C  C780  1  0.607800  0.357700  0.504900  1.0  0.0274
  C  C781  1  0.435000  0.082300  0.198300  1.0  0.7614
  C  C782  1  0.764000  0.115200  0.171000  1.0  -0.1292
  C  C783  1  0.428900  0.701300  0.585200  1.0  0.7712
  C  C784  1  0.882900  0.625500  0.508400  1.0  0.2508
  C  C785  1  0.605400  0.768800  0.965000  1.0  -0.0128
  C  C786  1  0.218000  0.070500  0.411900  1.0  -0.0239
  C  C787  1  0.994400  0.131600  0.379200  1.0  -0.0091
  C  C788  1  0.298700  0.727600  0.883900  1.0  0.76
  C  C789  1  0.689800  0.210700  0.586900  1.0  -0.0824
  C  C790  1  0.392200  0.719900  0.517900  1.0  -0.056
  C  C791  1  0.852800  0.357700  0.749900  1.0  0.0242
  C  C792  1  0.053700  0.396100  0.282000  1.0  0.0634
  C  C793  1  0.672300  0.392200  0.874300  1.0  -0.057
  C  C794  1  0.593900  0.125500  0.282800  1.0  -0.1529
  C  C795  1  0.819800  0.602700  0.970100  1.0  -0.1301
  C  C796  1  0.547800  0.641700  0.189500  1.0  -0.0788
  C  C797  1  0.737700  0.364600  0.919500  1.0  -0.1352
  C  C798  1  0.965000  0.196200  0.359600  1.0  -0.0135
  C  C799  1  0.657600  0.053700  0.771700  1.0  0.0629
  C  C800  1  0.727600  0.428900  0.843700  1.0  0.7574
  C  C801  1  0.905600  0.279600  0.308400  1.0  -0.1076
  C  C802  1  0.646400  0.949400  0.595800  1.0  -0.1284
  C  C803  1  0.644800  0.417900  0.596500  1.0  0.7325
  C  C804  1  0.357700  0.504900  0.607800  1.0  0.0278
  N  N805  1  0.715300  0.409100  0.306200  1.0  -0.4042
  N  N806  1  0.701300  0.096300  0.797600  1.0  -0.4151
  N  N807  1  0.693800  0.102900  0.409100  1.0  -0.4035
  N  N808  1  0.102900  0.409100  0.693800  1.0  -0.4042
  N  N809  1  0.298700  0.903700  0.202400  1.0  -0.4138
  N  N810  1  0.409100  0.693800  0.102900  1.0  -0.404
  N  N811  1  0.903700  0.202400  0.298700  1.0  -0.4174
  N  N812  1  0.693800  0.284700  0.590900  1.0  -0.404
  N  N813  1  0.903700  0.605000  0.701300  1.0  -0.4169
  N  N814  1  0.306200  0.715300  0.409100  1.0  -0.4059
  N  N815  1  0.284700  0.590900  0.693800  1.0  -0.4054
  N  N816  1  0.605000  0.701300  0.903700  1.0  -0.414
  N  N817  1  0.306200  0.897100  0.590900  1.0  -0.4047
  N  N818  1  0.409100  0.306200  0.715300  1.0  -0.4057
  N  N819  1  0.701300  0.903700  0.605000  1.0  -0.4134
  N  N820  1  0.590900  0.306200  0.897100  1.0  -0.4052
  N  N821  1  0.897100  0.590900  0.306200  1.0  -0.4031
  N  N822  1  0.096300  0.395000  0.298700  1.0  -0.4129
  N  N823  1  0.298700  0.096300  0.395000  1.0  -0.4167
  N  N824  1  0.202400  0.298700  0.903700  1.0  -0.4163
  N  N825  1  0.395000  0.298700  0.096300  1.0  -0.4169
  N  N826  1  0.096300  0.797600  0.701300  1.0  -0.4178
  N  N827  1  0.797600  0.701300  0.096300  1.0  -0.4158
  N  N828  1  0.590900  0.693800  0.284700  1.0  -0.4054
  O  O829  1  0.143600  0.560300  0.184100  1.0  -0.5904
  O  O830  1  0.326400  0.769100  0.919900  1.0  -0.6403
  O  O831  1  0.736600  0.542300  0.682900  1.0  -0.631
  O  O832  1  0.639800  0.205600  0.965400  1.0  -0.657
  O  O833  1  0.565800  0.360200  0.325600  1.0  -0.6579
  O  O834  1  0.849200  0.769100  0.442700  1.0  -0.6468
  O  O835  1  0.841800  0.372900  0.214700  1.0  -0.8587
  O  O836  1  0.072100  0.905100  0.339200  1.0  -0.6649
  O  O837  1  0.034600  0.360200  0.794400  1.0  -0.6571
  O  O838  1  0.639800  0.674400  0.434200  1.0  -0.6575
  O  O839  1  0.627100  0.785300  0.158200  1.0  -0.86
  O  O840  1  0.433400  0.814900  0.696700  1.0  -0.6775
  O  O841  1  0.337200  0.459700  0.122500  1.0  -0.6649
  O  O842  1  0.556400  0.874100  0.916900  1.0  -0.6211
  O  O843  1  0.583300  0.623800  0.439700  1.0  -0.5875
  O  O844  1  0.644000  0.536300  0.779900  1.0  -0.6816
  O  O845  1  0.874100  0.916900  0.556400  1.0  -0.622
  O  O846  1  0.965400  0.759800  0.325600  1.0  -0.6628
  O  O847  1  0.583300  0.143600  0.959500  1.0  -0.5901
  O  O848  1  0.502000  0.742200  0.702800  1.0  -0.6687
  O  O849  1  0.463700  0.220100  0.356000  1.0  -0.6836
  O  O850  1  0.107700  0.644000  0.864100  1.0  -0.6859
  O  O851  1  0.360500  0.916900  0.042800  1.0  -0.6188
  O  O852  1  0.230900  0.080100  0.673600  1.0  -0.6429
  O  O853  1  0.732900  0.167000  0.072100  1.0  -0.6679
  O  O854  1  0.557300  0.326400  0.406500  1.0  -0.6466
  O  O855  1  0.443600  0.125900  0.083100  1.0  -0.6176
  O  O856  1  0.042800  0.360500  0.916900  1.0  -0.6218
  O  O857  1  0.072100  0.732900  0.167000  1.0  -0.6637
  O  O858  1  0.339200  0.072100  0.905100  1.0  -0.668
  O  O859  1  0.881800  0.185100  0.618500  1.0  -0.6828
  O  O860  1  0.194300  0.736600  0.053700  1.0  -0.6249
  O  O861  1  0.230900  0.557300  0.150800  1.0  -0.6487
  O  O862  1  0.498000  0.257800  0.297200  1.0  -0.6664
  O  O863  1  0.039400  0.799200  0.297200  1.0  -0.6626
  O  O864  1  0.185100  0.303300  0.566600  1.0  -0.6779
  O  O865  1  0.080100  0.673600  0.230900  1.0  -0.6449
  O  O866  1  0.674400  0.434200  0.639800  1.0  -0.6577
  O  O867  1  0.200800  0.702800  0.960600  1.0  -0.6635
  O  O868  1  0.200800  0.240200  0.498000  1.0  -0.6608
  O  O869  1  0.682900  0.140600  0.946300  1.0  -0.6234
  O  O870  1  0.736600  0.053700  0.194300  1.0  -0.6214
  O  O871  1  0.566600  0.263300  0.381500  1.0  -0.6789
  O  O872  1  0.040500  0.416700  0.856400  1.0  -0.5852
  O  O873  1  0.240200  0.039400  0.742200  1.0  -0.6816
  O  O874  1  0.662800  0.785300  0.122500  1.0  -0.6627
  O  O875  1  0.240200  0.674400  0.034600  1.0  -0.665
  O  O876  1  0.406500  0.557300  0.326400  1.0  -0.6446
  O  O877  1  0.356000  0.463700  0.220100  1.0  -0.681
  O  O878  1  0.184100  0.143600  0.560300  1.0  -0.5855
  O  O879  1  0.833000  0.565900  0.905100  1.0  -0.6654
  O  O880  1  0.326400  0.406500  0.557300  1.0  -0.6468
  O  O881  1  0.864100  0.220100  0.756400  1.0  -0.6721
  O  O882  1  0.794400  0.434200  0.759800  1.0  -0.6615
  O  O883  1  0.040500  0.184100  0.623800  1.0  -0.5817
  O  O884  1  0.927900  0.094900  0.660800  1.0  -0.6663
  O  O885  1  0.779900  0.243600  0.135900  1.0  -0.6744
  O  O886  1  0.639500  0.083100  0.957200  1.0  -0.6174
  O  O887  1  0.736700  0.618500  0.433400  1.0  -0.6804
  O  O888  1  0.618500  0.433400  0.736700  1.0  -0.6755
  O  O889  1  0.874100  0.317700  0.957200  1.0  -0.6459
  O  O890  1  0.742200  0.240200  0.039400  1.0  -0.6798
  O  O891  1  0.540300  0.877500  0.662800  1.0  -0.6636
  O  O892  1  0.536300  0.892300  0.756400  1.0  -0.6857
  O  O893  1  0.107700  0.243600  0.463700  1.0  -0.6856
  O  O894  1  0.960600  0.200800  0.702800  1.0  -0.6635
  O  O895  1  0.673600  0.230900  0.080100  1.0  -0.6482
  O  O896  1  0.627100  0.468900  0.841800  1.0  -0.8486
  O  O897  1  0.122500  0.662800  0.785300  1.0  -0.6637
  O  O898  1  0.799200  0.297200  0.039400  1.0  -0.6598
  O  O899  1  0.257800  0.297200  0.498000  1.0  -0.6696
  O  O900  1  0.267100  0.833000  0.927900  1.0  -0.6682
  O  O901  1  0.946300  0.682900  0.140600  1.0  -0.6242
  O  O902  1  0.639500  0.682300  0.556400  1.0  -0.6448
  O  O903  1  0.143600  0.959500  0.583300  1.0  -0.5888
  O  O904  1  0.150800  0.230900  0.557300  1.0  -0.6448
  O  O905  1  0.317700  0.443600  0.360500  1.0  -0.6467
  O  O906  1  0.167000  0.072100  0.732900  1.0  -0.6648
  O  O907  1  0.881800  0.263300  0.696700  1.0  -0.675
  O  O908  1  0.877500  0.662800  0.540300  1.0  -0.6652
  O  O909  1  0.325600  0.965400  0.759800  1.0  -0.6603
  O  O910  1  0.243600  0.135900  0.779900  1.0  -0.6734
  O  O911  1  0.372900  0.214700  0.841800  1.0  -0.8607
  O  O912  1  0.457700  0.194300  0.140600  1.0  -0.6274
  O  O913  1  0.034600  0.240200  0.674400  1.0  -0.6619
  O  O914  1  0.125900  0.682300  0.042800  1.0  -0.6445
  O  O915  1  0.957200  0.639500  0.083100  1.0  -0.6227
  O  O916  1  0.957200  0.874100  0.317700  1.0  -0.6505
  O  O917  1  0.118200  0.814900  0.381500  1.0  -0.6826
  O  O918  1  0.053700  0.317100  0.859400  1.0  -0.6223
  O  O919  1  0.759800  0.960600  0.257800  1.0  -0.681
  O  O920  1  0.736700  0.303300  0.118200  1.0  -0.6774
  O  O921  1  0.959500  0.583300  0.143600  1.0  -0.5838
  O  O922  1  0.566600  0.185100  0.303300  1.0  -0.6778
  O  O923  1  0.644000  0.864100  0.107700  1.0  -0.6862
  O  O924  1  0.856400  0.040500  0.416700  1.0  -0.5871
  O  O925  1  0.892300  0.756400  0.536300  1.0  -0.6853
  O  O926  1  0.682300  0.042800  0.125900  1.0  -0.6481
  O  O927  1  0.841800  0.627100  0.468900  1.0  -0.8483
  O  O928  1  0.240200  0.205600  0.565800  1.0  -0.6646
  O  O929  1  0.381500  0.566600  0.263300  1.0  -0.6756
  O  O930  1  0.194300  0.140600  0.457700  1.0  -0.6266
  O  O931  1  0.337200  0.214700  0.877500  1.0  -0.6631
  O  O932  1  0.150800  0.593500  0.919900  1.0  -0.6453
  O  O933  1  0.805700  0.859400  0.542300  1.0  -0.626
  O  O934  1  0.434200  0.759800  0.794400  1.0  -0.6621
  O  O935  1  0.459700  0.122500  0.337200  1.0  -0.6622
  O  O936  1  0.696700  0.881800  0.263300  1.0  -0.6735
  O  O937  1  0.122500  0.337200  0.459700  1.0  -0.6652
  O  O938  1  0.682300  0.556400  0.639500  1.0  -0.6474
  O  O939  1  0.815900  0.856400  0.439700  1.0  -0.5864
  O  O940  1  0.696700  0.433400  0.814900  1.0  -0.6743
  O  O941  1  0.702800  0.502000  0.742200  1.0  -0.6678
  O  O942  1  0.919900  0.150800  0.593500  1.0  -0.6475
  O  O943  1  0.742200  0.702800  0.502000  1.0  -0.6713
  O  O944  1  0.756400  0.864100  0.220100  1.0  -0.6723
  O  O945  1  0.794400  0.034600  0.360200  1.0  -0.6562
  O  O946  1  0.457700  0.317100  0.263400  1.0  -0.632
  O  O947  1  0.769100  0.442700  0.849200  1.0  -0.647
  O  O948  1  0.053700  0.194300  0.736600  1.0  -0.6247
  O  O949  1  0.434100  0.094900  0.167000  1.0  -0.6644
  O  O950  1  0.565900  0.905100  0.833000  1.0  -0.6649
  O  O951  1  0.416700  0.856400  0.040500  1.0  -0.5893
  O  O952  1  0.919900  0.326400  0.769100  1.0  -0.6464
  O  O953  1  0.779900  0.644000  0.536300  1.0  -0.681
  O  O954  1  0.205600  0.965400  0.639800  1.0  -0.6573
  O  O955  1  0.702800  0.960600  0.200800  1.0  -0.6619
  O  O956  1  0.618500  0.881800  0.185100  1.0  -0.6816
  O  O957  1  0.946300  0.805700  0.263400  1.0  -0.6257
  O  O958  1  0.759800  0.502000  0.799200  1.0  -0.6599
  O  O959  1  0.856400  0.439700  0.815900  1.0  -0.5903
  O  O960  1  0.498000  0.200800  0.240200  1.0  -0.6629
  O  O961  1  0.732900  0.660800  0.565900  1.0  -0.6604
  O  O962  1  0.094900  0.167000  0.434100  1.0  -0.663
  O  O963  1  0.297200  0.498000  0.257800  1.0  -0.6681
  O  O964  1  0.356000  0.135900  0.892300  1.0  -0.6869
  O  O965  1  0.502000  0.799200  0.759800  1.0  -0.6621
  O  O966  1  0.805700  0.263400  0.946300  1.0  -0.6234
  O  O967  1  0.916900  0.042800  0.360500  1.0  -0.6239
  O  O968  1  0.184100  0.623800  0.040500  1.0  -0.5884
  O  O969  1  0.094900  0.660800  0.927900  1.0  -0.6705
  O  O970  1  0.682900  0.736600  0.542300  1.0  -0.6315
  O  O971  1  0.542300  0.805700  0.859400  1.0  -0.6259
  O  O972  1  0.185100  0.618500  0.881800  1.0  -0.6853
  O  O973  1  0.560300  0.416700  0.376200  1.0  -0.5883
  O  O974  1  0.214700  0.877500  0.337200  1.0  -0.6636
  O  O975  1  0.877500  0.337200  0.214700  1.0  -0.6636
  O  O976  1  0.243600  0.463700  0.107700  1.0  -0.6846
  O  O977  1  0.317700  0.957200  0.874100  1.0  -0.6461
  O  O978  1  0.303300  0.566600  0.185100  1.0  -0.6745
  O  O979  1  0.442700  0.849200  0.769100  1.0  -0.6453
  O  O980  1  0.815900  0.376200  0.959500  1.0  -0.5862
  O  O981  1  0.556400  0.639500  0.682300  1.0  -0.6439
  O  O982  1  0.439700  0.815900  0.856400  1.0  -0.585
  O  O983  1  0.118200  0.736700  0.303300  1.0  -0.6739
  O  O984  1  0.317100  0.263400  0.457700  1.0  -0.631
  O  O985  1  0.083100  0.443600  0.125900  1.0  -0.6168
  O  O986  1  0.257800  0.759800  0.960600  1.0  -0.6795
  O  O987  1  0.531100  0.158200  0.372900  1.0  -0.8473
  O  O988  1  0.859400  0.053700  0.317100  1.0  -0.622
  O  O989  1  0.240200  0.498000  0.200800  1.0  -0.6604
  O  O990  1  0.623800  0.040500  0.184100  1.0  -0.5857
  O  O991  1  0.442700  0.673600  0.593500  1.0  -0.6416
  O  O992  1  0.542300  0.682900  0.736600  1.0  -0.631
  O  O993  1  0.864100  0.107700  0.644000  1.0  -0.6863
  O  O994  1  0.339200  0.434100  0.267100  1.0  -0.6622
  O  O995  1  0.080100  0.849200  0.406500  1.0  -0.6464
  O  O996  1  0.376200  0.560300  0.416700  1.0  -0.586
  O  O997  1  0.662800  0.540300  0.877500  1.0  -0.664
  O  O998  1  0.360500  0.317700  0.443600  1.0  -0.649
  O  O999  1  0.593500  0.919900  0.150800  1.0  -0.6469
  O  O1000  1  0.849200  0.406500  0.080100  1.0  -0.6432
  O  O1001  1  0.905100  0.339200  0.072100  1.0  -0.6692
  O  O1002  1  0.660800  0.565900  0.732900  1.0  -0.6629
  O  O1003  1  0.381500  0.118200  0.814900  1.0  -0.6818
  O  O1004  1  0.297200  0.039400  0.799200  1.0  -0.6601
  O  O1005  1  0.433400  0.736700  0.618500  1.0  -0.6776
  O  O1006  1  0.042800  0.125900  0.682300  1.0  -0.6486
  O  O1007  1  0.536300  0.779900  0.644000  1.0  -0.6819
  O  O1008  1  0.927900  0.267100  0.833000  1.0  -0.6656
  O  O1009  1  0.158200  0.372900  0.531100  1.0  -0.8485
  O  O1010  1  0.859400  0.542300  0.805700  1.0  -0.6227
  O  O1011  1  0.439700  0.583300  0.623800  1.0  -0.587
  O  O1012  1  0.443600  0.360500  0.317700  1.0  -0.6436
  O  O1013  1  0.325600  0.565800  0.360200  1.0  -0.6566
  O  O1014  1  0.372900  0.531100  0.158200  1.0  -0.8491
  O  O1015  1  0.565900  0.732900  0.660800  1.0  -0.6656
  O  O1016  1  0.434200  0.639800  0.674400  1.0  -0.6587
  O  O1017  1  0.660800  0.927900  0.094900  1.0  -0.6664
  O  O1018  1  0.759800  0.794400  0.434200  1.0  -0.6645
  O  O1019  1  0.759800  0.325600  0.965400  1.0  -0.6641
  O  O1020  1  0.593500  0.442700  0.673600  1.0  -0.6428
  O  O1021  1  0.263400  0.946300  0.805700  1.0  -0.6222
  O  O1022  1  0.905100  0.833000  0.565900  1.0  -0.6616
  O  O1023  1  0.039400  0.742200  0.240200  1.0  -0.6777
  O  O1024  1  0.263300  0.696700  0.881800  1.0  -0.676
  O  O1025  1  0.673600  0.593500  0.442700  1.0  -0.6474
  O  O1026  1  0.317100  0.859400  0.053700  1.0  -0.6242
  O  O1027  1  0.083100  0.957200  0.639500  1.0  -0.627
  O  O1028  1  0.263300  0.381500  0.566600  1.0  -0.6778
  O  O1029  1  0.135900  0.892300  0.356000  1.0  -0.6862
  O  O1030  1  0.565800  0.240200  0.205600  1.0  -0.6617
  O  O1031  1  0.674400  0.034600  0.240200  1.0  -0.6613
  O  O1032  1  0.769100  0.919900  0.326400  1.0  -0.6402
  O  O1033  1  0.214700  0.841800  0.372900  1.0  -0.8604
  O  O1034  1  0.416700  0.376200  0.560300  1.0  -0.5861
  O  O1035  1  0.205600  0.565800  0.240200  1.0  -0.6618
  O  O1036  1  0.814900  0.696700  0.433400  1.0  -0.6773
  O  O1037  1  0.623800  0.439700  0.583300  1.0  -0.5881
  O  O1038  1  0.158200  0.627100  0.785300  1.0  -0.8602
  O  O1039  1  0.557300  0.150800  0.230900  1.0  -0.6448
  O  O1040  1  0.756400  0.536300  0.892300  1.0  -0.6838
  O  O1041  1  0.468900  0.841800  0.627100  1.0  -0.8477
  O  O1042  1  0.960600  0.257800  0.759800  1.0  -0.6799
  O  O1043  1  0.965400  0.639800  0.205600  1.0  -0.6577
  O  O1044  1  0.263400  0.457700  0.317100  1.0  -0.6311
  O  O1045  1  0.267100  0.339200  0.434100  1.0  -0.6606
  O  O1046  1  0.785300  0.158200  0.627100  1.0  -0.8611
  O  O1047  1  0.785300  0.122500  0.662800  1.0  -0.6639
  O  O1048  1  0.220100  0.756400  0.864100  1.0  -0.6751
  O  O1049  1  0.135900  0.779900  0.243600  1.0  -0.6721
  O  O1050  1  0.560300  0.184100  0.143600  1.0  -0.5816
  O  O1051  1  0.959500  0.815900  0.376200  1.0  -0.5838
  O  O1052  1  0.303300  0.118200  0.736700  1.0  -0.6741
  O  O1053  1  0.140600  0.457700  0.194300  1.0  -0.6225
  O  O1054  1  0.220100  0.356000  0.463700  1.0  -0.6808
  O  O1055  1  0.360200  0.325600  0.565800  1.0  -0.6582
  O  O1056  1  0.434100  0.267100  0.339200  1.0  -0.6669
  O  O1057  1  0.892300  0.356000  0.135900  1.0  -0.6855
  O  O1058  1  0.140600  0.946300  0.682900  1.0  -0.6234
  O  O1059  1  0.463700  0.107700  0.243600  1.0  -0.6867
  O  O1060  1  0.406500  0.080100  0.849200  1.0  -0.6456
  O  O1061  1  0.360200  0.794400  0.034600  1.0  -0.6579
  O  O1062  1  0.799200  0.759800  0.502000  1.0  -0.6593
  O  O1063  1  0.167000  0.434100  0.094900  1.0  -0.6647
  O  O1064  1  0.125900  0.083100  0.443600  1.0  -0.6194
  O  O1065  1  0.916900  0.556400  0.874100  1.0  -0.6137
  O  O1066  1  0.376200  0.959500  0.815900  1.0  -0.5867
  O  O1067  1  0.833000  0.927900  0.267100  1.0  -0.6649
  O  O1068  1  0.814900  0.381500  0.118200  1.0  -0.6834
