# generated using pymatgen
data_Ag2H11C30(N2O)6
_symmetry_space_group_name_H-M   'P 1'
_cell_length_a   22.68270000
_cell_length_b   22.68270000
_cell_length_c   34.36900000
_cell_angle_alpha   90.00000000
_cell_angle_beta   90.00000000
_cell_angle_gamma   120.00000000
_symmetry_Int_Tables_number   1
_chemical_formula_structural   Ag2H11C30(N2O)6
_chemical_formula_sum   'Ag24 H132 C360 N144 O72'
_cell_volume   15313.94297359
_cell_formula_units_Z   12
loop_
 _symmetry_equiv_pos_site_id
 _symmetry_equiv_pos_as_xyz
  1  'x, y, z'
loop_
 _atom_site_type_symbol
 _atom_site_label
 _atom_site_symmetry_multiplicity
 _atom_site_fract_x
 _atom_site_fract_y
 _atom_site_fract_z
 _atom_site_occupancy
 _atom_site_charge
  Ag  Ag1  1  0.370760  0.000100  0.030100  1.0  0.5055
  Ag  Ag2  1  0.568390  0.999580  0.029800  1.0  0.5092
  Ag  Ag3  1  0.542500  0.136750  0.030100  1.0  0.3873
  Ag  Ag4  1  0.542110  0.405770  0.196500  1.0  0.4102
  Ag  Ag5  1  0.629340  0.629240  0.696770  1.0  0.5055
  Ag  Ag6  1  0.431190  0.431610  0.696470  1.0  0.5095
  Ag  Ag7  1  0.594250  0.457500  0.696770  1.0  0.3865
  Ag  Ag8  1  0.863660  0.457890  0.863170  1.0  0.4099
  Ag  Ag9  1  0.999900  0.370660  0.363430  1.0  0.505
  Ag  Ag10  1  0.000420  0.568810  0.363130  1.0  0.5096
  Ag  Ag11  1  0.863250  0.405750  0.363430  1.0  0.3861
  Ag  Ag12  1  0.594230  0.136340  0.529830  1.0  0.4113
  Ag  Ag13  1  0.629240  0.999900  0.530100  1.0  0.505
  Ag  Ag14  1  0.431610  0.000420  0.529800  1.0  0.5103
  Ag  Ag15  1  0.457500  0.863250  0.530100  1.0  0.3867
  Ag  Ag16  1  0.457890  0.594230  0.696500  1.0  0.4101
  Ag  Ag17  1  0.370660  0.370760  0.196770  1.0  0.5051
  Ag  Ag18  1  0.568810  0.568390  0.196470  1.0  0.5093
  Ag  Ag19  1  0.405750  0.542500  0.196770  1.0  0.3858
  Ag  Ag20  1  0.136340  0.542110  0.363170  1.0  0.41
  Ag  Ag21  1  0.000100  0.629340  0.863430  1.0  0.5057
  Ag  Ag22  1  0.999580  0.431190  0.863130  1.0  0.5095
  Ag  Ag23  1  0.136750  0.594250  0.863430  1.0  0.3865
  Ag  Ag24  1  0.405770  0.863660  0.029830  1.0  0.4107
  H  H25  1  0.444000  0.876400  0.248400  1.0  0.142
  H  H26  1  0.437300  0.880300  0.315700  1.0  0.1379
  H  H27  1  0.533000  0.084500  0.311500  1.0  0.1469
  H  H28  1  0.539800  0.080800  0.244300  1.0  0.1367
  H  H29  1  0.349500  0.335300  0.988400  1.0  0.136
  H  H30  1  0.300800  0.397800  0.966200  1.0  0.1409
  H  H31  1  0.294700  0.328600  0.857800  1.0  0.1346
  H  H32  1  0.343400  0.266100  0.880000  1.0  0.1408
  H  H33  1  0.080400  0.731500  0.182800  1.0  0.1442
  H  H34  1  0.969100  0.669200  0.205000  1.0  0.1414
  H  H35  1  0.904300  0.612500  0.095300  1.0  0.1422
  H  H36  1  0.015600  0.674800  0.073100  1.0  0.1305
  H  H37  1  0.441500  0.092000  0.151800  1.0  0.2612
  H  H38  1  0.523300  0.920100  0.159700  1.0  0.1399
  H  H39  1  0.266100  0.123300  0.988200  1.0  0.1492
  H  H40  1  0.574200  0.265600  0.983600  1.0  0.1505
  H  H41  1  0.144500  0.877000  0.073500  1.0  0.1507
  H  H42  1  0.207900  0.685600  0.062800  1.0  0.1246
  H  H43  1  0.659000  0.081600  0.404600  1.0  0.1655
  H  H44  1  0.369200  0.942900  0.431500  1.0  0.1517
  H  H45  1  0.031900  0.323200  0.910700  1.0  0.1807
  H  H46  1  0.658400  0.389500  0.162600  1.0  0.1565
  H  H47  1  0.432400  0.556000  0.915070  1.0  0.1417
  H  H48  1  0.443000  0.562700  0.982370  1.0  0.1378
  H  H49  1  0.551500  0.467000  0.978170  1.0  0.1456
  H  H50  1  0.541000  0.460200  0.910970  1.0  0.1359
  H  H51  1  0.985800  0.650500  0.655070  1.0  0.1356
  H  H52  1  0.097000  0.699200  0.632870  1.0  0.1395
  H  H53  1  0.033900  0.705300  0.524470  1.0  0.1341
  H  H54  1  0.922700  0.656600  0.546670  1.0  0.1409
  H  H55  1  0.651100  0.919600  0.849470  1.0  0.144
  H  H56  1  0.700100  0.030900  0.871670  1.0  0.1401
  H  H57  1  0.708200  0.095700  0.761970  1.0  0.1421
  H  H58  1  0.659200  0.984400  0.739770  1.0  0.1308
  H  H59  1  0.650500  0.558500  0.818470  1.0  0.2608
  H  H60  1  0.396800  0.476700  0.826370  1.0  0.1394
  H  H61  1  0.857200  0.733900  0.654870  1.0  0.1504
  H  H62  1  0.691400  0.425800  0.650270  1.0  0.1493
  H  H63  1  0.732500  0.855500  0.740170  1.0  0.1504
  H  H64  1  0.477700  0.792100  0.729470  1.0  0.1265
  H  H65  1  0.422600  0.341000  0.071270  1.0  0.1643
  H  H66  1  0.573700  0.630800  0.098170  1.0  0.1539
  H  H67  1  0.291300  0.968100  0.577370  1.0  0.1815
  H  H68  1  0.731100  0.341600  0.829270  1.0  0.1551
  H  H69  1  0.123600  0.567600  0.581730  1.0  0.1419
  H  H70  1  0.119700  0.557000  0.649030  1.0  0.1368
  H  H71  1  0.915500  0.448500  0.644830  1.0  0.1456
  H  H72  1  0.919200  0.459000  0.577630  1.0  0.1362
  H  H73  1  0.664700  0.014200  0.321730  1.0  0.135
  H  H74  1  0.602200  0.903000  0.299530  1.0  0.1401
  H  H75  1  0.671400  0.966100  0.191130  1.0  0.1344
  H  H76  1  0.733900  0.077300  0.213330  1.0  0.1408
  H  H77  1  0.268500  0.348900  0.516130  1.0  0.1432
  H  H78  1  0.330800  0.299900  0.538330  1.0  0.141
  H  H79  1  0.387500  0.291800  0.428630  1.0  0.1425
  H  H80  1  0.325200  0.340800  0.406430  1.0  0.1307
  H  H81  1  0.908000  0.349500  0.485130  1.0  0.2592
  H  H82  1  0.079900  0.603200  0.493030  1.0  0.1389
  H  H83  1  0.876700  0.142800  0.321530  1.0  0.1495
  H  H84  1  0.734400  0.308600  0.316930  1.0  0.1486
  H  H85  1  0.123000  0.267500  0.406830  1.0  0.1527
  H  H86  1  0.314400  0.522300  0.396130  1.0  0.1288
  H  H87  1  0.918400  0.577400  0.737930  1.0  0.1663
  H  H88  1  0.057100  0.426300  0.764830  1.0  0.1516
  H  H89  1  0.676800  0.708700  0.244030  1.0  0.1824
  H  H90  1  0.610500  0.268900  0.495930  1.0  0.1573
  H  H91  1  0.556000  0.123600  0.748400  1.0  0.1419
  H  H92  1  0.562700  0.119700  0.815700  1.0  0.1383
  H  H93  1  0.467000  0.915500  0.811500  1.0  0.1468
  H  H94  1  0.460200  0.919200  0.744300  1.0  0.1359
  H  H95  1  0.650500  0.664700  0.488400  1.0  0.1358
  H  H96  1  0.699200  0.602200  0.466200  1.0  0.1402
  H  H97  1  0.705300  0.671400  0.357800  1.0  0.1344
  H  H98  1  0.656600  0.733900  0.380000  1.0  0.1417
  H  H99  1  0.919600  0.268500  0.682800  1.0  0.1447
  H  H100  1  0.030900  0.330800  0.705000  1.0  0.141
  H  H101  1  0.095700  0.387500  0.595300  1.0  0.1427
  H  H102  1  0.984400  0.325200  0.573100  1.0  0.1311
  H  H103  1  0.558500  0.908000  0.651800  1.0  0.2612
  H  H104  1  0.476700  0.079900  0.659700  1.0  0.1401
  H  H105  1  0.733900  0.876700  0.488200  1.0  0.1494
  H  H106  1  0.425800  0.734400  0.483600  1.0  0.1491
  H  H107  1  0.855500  0.123000  0.573500  1.0  0.1512
  H  H108  1  0.792100  0.314400  0.562800  1.0  0.1279
  H  H109  1  0.341000  0.918400  0.904600  1.0  0.166
  H  H110  1  0.630800  0.057100  0.931500  1.0  0.1524
  H  H111  1  0.968100  0.676800  0.410700  1.0  0.1805
  H  H112  1  0.341600  0.610500  0.662600  1.0  0.158
  H  H113  1  0.567600  0.444000  0.415070  1.0  0.1417
  H  H114  1  0.557000  0.437300  0.482370  1.0  0.138
  H  H115  1  0.448500  0.533000  0.478170  1.0  0.1454
  H  H116  1  0.459000  0.539800  0.410970  1.0  0.136
  H  H117  1  0.014200  0.349500  0.155070  1.0  0.1353
  H  H118  1  0.903000  0.300800  0.132870  1.0  0.1406
  H  H119  1  0.966100  0.294700  0.024470  1.0  0.1339
  H  H120  1  0.077300  0.343400  0.046670  1.0  0.1413
  H  H121  1  0.348900  0.080400  0.349470  1.0  0.1441
  H  H122  1  0.299900  0.969100  0.371670  1.0  0.1409
  H  H123  1  0.291800  0.904300  0.261970  1.0  0.1416
  H  H124  1  0.340800  0.015600  0.239770  1.0  0.1307
  H  H125  1  0.349500  0.441500  0.318470  1.0  0.2613
  H  H126  1  0.603200  0.523300  0.326370  1.0  0.1392
  H  H127  1  0.142800  0.266100  0.154870  1.0  0.1501
  H  H128  1  0.308600  0.574200  0.150270  1.0  0.1509
  H  H129  1  0.267500  0.144500  0.240170  1.0  0.1526
  H  H130  1  0.522300  0.207900  0.229470  1.0  0.1253
  H  H131  1  0.577400  0.659000  0.571270  1.0  0.1644
  H  H132  1  0.426300  0.369200  0.598170  1.0  0.1528
  H  H133  1  0.708700  0.031900  0.077370  1.0  0.1806
  H  H134  1  0.268900  0.658400  0.329270  1.0  0.1552
  H  H135  1  0.876400  0.432400  0.081730  1.0  0.1416
  H  H136  1  0.880300  0.443000  0.149030  1.0  0.1373
  H  H137  1  0.084500  0.551500  0.144830  1.0  0.1457
  H  H138  1  0.080800  0.541000  0.077630  1.0  0.137
  H  H139  1  0.335300  0.985800  0.821730  1.0  0.1354
  H  H140  1  0.397800  0.097000  0.799530  1.0  0.1403
  H  H141  1  0.328600  0.033900  0.691130  1.0  0.134
  H  H142  1  0.266100  0.922700  0.713330  1.0  0.1405
  H  H143  1  0.731500  0.651100  0.016130  1.0  0.1438
  H  H144  1  0.669200  0.700100  0.038330  1.0  0.1406
  H  H145  1  0.612500  0.708200  0.928630  1.0  0.1432
  H  H146  1  0.674800  0.659200  0.906430  1.0  0.1295
  H  H147  1  0.092000  0.650500  0.985130  1.0  0.2593
  H  H148  1  0.920100  0.396800  0.993030  1.0  0.1394
  H  H149  1  0.123300  0.857200  0.821530  1.0  0.1498
  H  H150  1  0.265600  0.691400  0.816930  1.0  0.149
  H  H151  1  0.877000  0.732500  0.906830  1.0  0.152
  H  H152  1  0.685600  0.477700  0.896130  1.0  0.1259
  H  H153  1  0.081600  0.422600  0.237930  1.0  0.1656
  H  H154  1  0.942900  0.573700  0.264830  1.0  0.1525
  H  H155  1  0.323200  0.291300  0.744030  1.0  0.1816
  H  H156  1  0.389500  0.731100  0.995930  1.0  0.1546
  C  C157  1  0.444600  0.033000  0.115000  1.0  0.155
  C  C158  1  0.496600  0.968200  0.116500  1.0  0.0891
  C  C159  1  0.358100  0.130400  0.002900  1.0  0.099
  C  C160  1  0.471300  0.207300  0.992600  1.0  0.0559
  C  C161  1  0.228400  0.869800  0.058600  1.0  0.1246
  C  C162  1  0.259800  0.788400  0.065500  1.0  0.119
  C  C163  1  0.589000  0.040800  0.446200  1.0  0.1267
  C  C164  1  0.472600  0.973000  0.443000  1.0  0.0791
  C  C165  1  0.117400  0.407200  0.899000  1.0  0.0769
  C  C166  1  0.205800  0.516600  0.890200  1.0  0.1869
  C  C167  1  0.695600  0.486400  0.168800  1.0  0.0969
  C  C168  1  0.717000  0.596900  0.167600  1.0  0.217
  C  C169  1  0.496300  0.975700  0.196300  1.0  0.2601
  C  C170  1  0.483800  0.985400  0.363800  1.0  0.4222
  C  C171  1  0.492600  0.978200  0.239700  1.0  0.0379
  C  C172  1  0.461900  0.918200  0.261100  1.0  -0.044
  C  C173  1  0.457800  0.920400  0.301400  1.0  -0.0461
  C  C174  1  0.484500  0.982800  0.320300  1.0  0.0148
  C  C175  1  0.515200  0.042900  0.298900  1.0  -0.0567
  C  C176  1  0.519200  0.040500  0.258600  1.0  -0.0299
  C  C177  1  0.382700  0.254100  0.950700  1.0  0.2292
  C  C178  1  0.259500  0.408500  0.895600  1.0  0.2803
  C  C179  1  0.351200  0.294400  0.936400  1.0  0.0161
  C  C180  1  0.338500  0.333900  0.962200  1.0  -0.0065
  C  C181  1  0.309400  0.371500  0.948900  1.0  -0.0216
  C  C182  1  0.293000  0.369500  0.909800  1.0  -0.0191
  C  C183  1  0.305700  0.330000  0.883900  1.0  -0.0572
  C  C184  1  0.334900  0.292500  0.897200  1.0  -0.0589
  C  C185  1  0.129700  0.755700  0.111000  1.0  0.1698
  C  C186  1  0.854000  0.593400  0.166700  1.0  0.2324
  C  C187  1  0.059000  0.709300  0.125800  1.0  0.0204
  C  C188  1  0.045100  0.707600  0.165300  1.0  -0.0616
  C  C189  1  0.978400  0.670300  0.178600  1.0  -0.0505
  C  C190  1  0.925700  0.634700  0.152300  1.0  0.015
  C  C191  1  0.939600  0.636400  0.112800  1.0  -0.012
  C  C192  1  0.006300  0.673700  0.099600  1.0  0.0024
  C  C193  1  0.412000  0.073400  0.129100  1.0  0.1328
  C  C194  1  0.350000  0.034000  0.152000  1.0  -0.0428
  C  C195  1  0.534000  0.932900  0.132400  1.0  0.121
  C  C196  1  0.610000  0.978000  0.126000  1.0  -0.0297
  C  C197  1  0.281700  0.101700  0.007100  1.0  0.1401
  C  C198  1  0.265000  0.114000  0.048700  1.0  -0.003
  C  C199  1  0.535500  0.273500  0.981600  1.0  0.1042
  C  C200  1  0.547000  0.328000  0.010000  1.0  -0.0189
  C  C201  1  0.182100  0.900500  0.055000  1.0  0.1164
  C  C202  1  0.152000  0.885000  0.013600  1.0  0.0055
  C  C203  1  0.254000  0.719000  0.071700  1.0  0.1183
  C  C204  1  0.258000  0.699000  0.109200  1.0  -0.0344
  C  C205  1  0.662700  0.083700  0.433100  1.0  0.1435
  C  C206  1  0.703000  0.050000  0.441000  1.0  -0.025
  C  C207  1  0.401900  0.927900  0.425700  1.0  0.1353
  C  C208  1  0.379000  0.855000  0.438400  1.0  -0.0214
  C  C209  1  0.079000  0.333000  0.911600  1.0  0.1023
  C  C210  1  0.088000  0.329000  0.954200  1.0  -0.0111
  C  C211  1  0.277000  0.577000  0.889300  1.0  0.0837
  C  C212  1  0.270000  0.642000  0.880000  1.0  -0.0128
  C  C213  1  0.706000  0.426000  0.163600  1.0  0.1455
  C  C214  1  0.728000  0.401000  0.193400  1.0  -0.0363
  C  C215  1  0.756000  0.674000  0.163700  1.0  0.2393
  C  C216  1  0.824000  0.704000  0.152000  1.0  0.0247
  C  C217  1  0.588400  0.555400  0.781670  1.0  0.1551
  C  C218  1  0.471600  0.503400  0.783170  1.0  0.0868
  C  C219  1  0.772300  0.641900  0.669570  1.0  0.1014
  C  C220  1  0.736000  0.528700  0.659270  1.0  0.0573
  C  C221  1  0.641400  0.771600  0.725270  1.0  0.1265
  C  C222  1  0.528600  0.740200  0.732170  1.0  0.1149
  C  C223  1  0.451800  0.411000  0.112870  1.0  0.1279
  C  C224  1  0.500400  0.527400  0.109670  1.0  0.0807
  C  C225  1  0.289800  0.882600  0.565670  1.0  0.0751
  C  C226  1  0.310800  0.794200  0.556870  1.0  0.1875
  C  C227  1  0.790800  0.304400  0.835470  1.0  0.0959
  C  C228  1  0.879900  0.283000  0.834270  1.0  0.2174
  C  C229  1  0.479400  0.503700  0.862970  1.0  0.259
  C  C230  1  0.501600  0.516200  0.030470  1.0  0.4233
  C  C231  1  0.485600  0.507400  0.906370  1.0  0.0384
  C  C232  1  0.456300  0.538100  0.927770  1.0  -0.0412
  C  C233  1  0.462600  0.542200  0.968070  1.0  -0.0437
  C  C234  1  0.498300  0.515500  0.986970  1.0  0.0148
  C  C235  1  0.527700  0.484800  0.965570  1.0  -0.0529
  C  C236  1  0.521300  0.480800  0.925270  1.0  -0.0258
  C  C237  1  0.871400  0.617300  0.617370  1.0  0.2294
  C  C238  1  0.149000  0.740500  0.562270  1.0  0.2801
  C  C239  1  0.943200  0.648800  0.603070  1.0  0.0108
  C  C240  1  0.995400  0.661500  0.628870  1.0  -0.0074
  C  C241  1  0.062100  0.690600  0.615570  1.0  -0.0198
  C  C242  1  0.076500  0.707000  0.576470  1.0  -0.0139
  C  C243  1  0.024300  0.694300  0.550570  1.0  -0.0589
  C  C244  1  0.957600  0.665100  0.563870  1.0  -0.056
  C  C245  1  0.626000  0.870300  0.777670  1.0  0.1684
  C  C246  1  0.739400  0.146000  0.833370  1.0  0.2317
  C  C247  1  0.650300  0.941000  0.792470  1.0  0.0163
  C  C248  1  0.662500  0.954900  0.831970  1.0  -0.06
  C  C249  1  0.691900  0.021600  0.845270  1.0  -0.0452
  C  C250  1  0.709000  0.074300  0.818970  1.0  0.0169
  C  C251  1  0.696800  0.060400  0.779470  1.0  -0.0109
  C  C252  1  0.667400  0.993700  0.766270  1.0  0.0062
  C  C253  1  0.661400  0.588000  0.795770  1.0  0.1327
  C  C254  1  0.684000  0.650000  0.818670  1.0  -0.0448
  C  C255  1  0.398900  0.466000  0.799070  1.0  0.1192
  C  C256  1  0.368000  0.390000  0.792670  1.0  -0.0312
  C  C257  1  0.820000  0.718300  0.673770  1.0  0.1391
  C  C258  1  0.849000  0.735000  0.715370  1.0  -0.007
  C  C259  1  0.738000  0.464500  0.648270  1.0  0.1041
  C  C260  1  0.781000  0.453000  0.676670  1.0  -0.0168
  C  C261  1  0.718400  0.817900  0.721670  1.0  0.1178
  C  C262  1  0.733000  0.848000  0.680270  1.0  0.001
  C  C263  1  0.465000  0.746000  0.738370  1.0  0.1184
  C  C264  1  0.441000  0.742000  0.775870  1.0  -0.0342
  C  C265  1  0.421000  0.337300  0.099770  1.0  0.1432
  C  C266  1  0.347000  0.297000  0.107670  1.0  -0.0235
  C  C267  1  0.526000  0.598100  0.092370  1.0  0.134
  C  C268  1  0.476000  0.621000  0.105070  1.0  -0.0161
  C  C269  1  0.254000  0.921000  0.578270  1.0  0.1013
  C  C270  1  0.241000  0.912000  0.620870  1.0  -0.0101
  C  C271  1  0.300000  0.723000  0.555970  1.0  0.0843
  C  C272  1  0.372000  0.730000  0.546670  1.0  -0.0116
  C  C273  1  0.720000  0.294000  0.830270  1.0  0.1434
  C  C274  1  0.673000  0.272000  0.860070  1.0  -0.0359
  C  C275  1  0.918000  0.244000  0.830370  1.0  0.2406
  C  C276  1  0.880000  0.176000  0.818670  1.0  0.0182
  C  C277  1  0.967000  0.411600  0.448330  1.0  0.1555
  C  C278  1  0.031800  0.528400  0.449830  1.0  0.0859
  C  C279  1  0.869600  0.227700  0.336230  1.0  0.1021
  C  C280  1  0.792700  0.264000  0.325930  1.0  0.0563
  C  C281  1  0.130200  0.358600  0.391930  1.0  0.126
  C  C282  1  0.211600  0.471400  0.398830  1.0  0.1196
  C  C283  1  0.959200  0.548200  0.779530  1.0  0.1267
  C  C284  1  0.027000  0.499600  0.776330  1.0  0.0783
  C  C285  1  0.592800  0.710200  0.232330  1.0  0.0786
  C  C286  1  0.483400  0.689200  0.223530  1.0  0.1876
  C  C287  1  0.513600  0.209200  0.502130  1.0  0.0978
  C  C288  1  0.403100  0.120100  0.500930  1.0  0.2175
  C  C289  1  0.024300  0.520600  0.529630  1.0  0.2584
  C  C290  1  0.014600  0.498400  0.697130  1.0  0.4218
  C  C291  1  0.021800  0.514400  0.573030  1.0  0.0376
  C  C292  1  0.081800  0.543700  0.594430  1.0  -0.0404
  C  C293  1  0.079600  0.537400  0.634730  1.0  -0.0468
  C  C294  1  0.017200  0.501700  0.653630  1.0  0.0149
  C  C295  1  0.957100  0.472300  0.632230  1.0  -0.0529
  C  C296  1  0.959500  0.478700  0.591930  1.0  -0.022
  C  C297  1  0.745900  0.128600  0.284030  1.0  0.2285
  C  C298  1  0.591500  0.851000  0.228930  1.0  0.2779
  C  C299  1  0.705600  0.056800  0.269730  1.0  0.0146
  C  C300  1  0.666100  0.004600  0.295530  1.0  -0.0038
  C  C301  1  0.628500  0.937900  0.282230  1.0  -0.0185
  C  C302  1  0.630500  0.923500  0.243130  1.0  -0.0165
  C  C303  1  0.670000  0.975700  0.217230  1.0  -0.0527
  C  C304  1  0.707500  0.042400  0.230530  1.0  -0.0552
  C  C305  1  0.244300  0.374000  0.444330  1.0  0.169
  C  C306  1  0.406600  0.260600  0.500030  1.0  0.2308
  C  C307  1  0.290700  0.349700  0.459130  1.0  0.015
  C  C308  1  0.292400  0.337500  0.498630  1.0  -0.064
  C  C309  1  0.329700  0.308100  0.511930  1.0  -0.0487
  C  C310  1  0.365300  0.291000  0.485630  1.0  0.0191
  C  C311  1  0.363600  0.303200  0.446130  1.0  -0.0151
  C  C312  1  0.326300  0.332600  0.432930  1.0  0.0017
  C  C313  1  0.926600  0.338600  0.462430  1.0  0.135
  C  C314  1  0.966000  0.316000  0.485330  1.0  -0.0451
  C  C315  1  0.067100  0.601100  0.465730  1.0  0.1199
  C  C316  1  0.022000  0.632000  0.459330  1.0  -0.0286
  C  C317  1  0.898300  0.180000  0.340430  1.0  0.1407
  C  C318  1  0.886000  0.151000  0.382030  1.0  -0.0056
  C  C319  1  0.726500  0.262000  0.314930  1.0  0.1045
  C  C320  1  0.672000  0.219000  0.343330  1.0  -0.0177
  C  C321  1  0.099500  0.281600  0.388330  1.0  0.1187
  C  C322  1  0.115000  0.267000  0.346930  1.0  0.0057
  C  C323  1  0.281000  0.535000  0.405030  1.0  0.1197
  C  C324  1  0.301000  0.559000  0.442530  1.0  -0.0355
  C  C325  1  0.916300  0.579000  0.766430  1.0  0.1412
  C  C326  1  0.950000  0.653000  0.774330  1.0  -0.0244
  C  C327  1  0.072100  0.474000  0.759030  1.0  0.1339
  C  C328  1  0.145000  0.524000  0.771730  1.0  -0.0199
  C  C329  1  0.667000  0.746000  0.244930  1.0  0.1033
  C  C330  1  0.671000  0.759000  0.287530  1.0  -0.0111
  C  C331  1  0.423000  0.700000  0.222630  1.0  0.083
  C  C332  1  0.358000  0.628000  0.213330  1.0  -0.0112
  C  C333  1  0.574000  0.280000  0.496930  1.0  0.144
  C  C334  1  0.599000  0.327000  0.526730  1.0  -0.036
  C  C335  1  0.326000  0.082000  0.497030  1.0  0.2436
  C  C336  1  0.296000  0.120000  0.485330  1.0  0.0247
  C  C337  1  0.555400  0.967000  0.615000  1.0  0.1558
  C  C338  1  0.503400  0.031800  0.616500  1.0  0.0895
  C  C339  1  0.641900  0.869600  0.502900  1.0  0.1002
  C  C340  1  0.528700  0.792700  0.492600  1.0  0.056
  C  C341  1  0.771600  0.130200  0.558600  1.0  0.1265
  C  C342  1  0.740200  0.211600  0.565500  1.0  0.1177
  C  C343  1  0.411000  0.959200  0.946200  1.0  0.127
  C  C344  1  0.527400  0.027000  0.943000  1.0  0.0784
  C  C345  1  0.882600  0.592800  0.399000  1.0  0.0772
  C  C346  1  0.794200  0.483400  0.390200  1.0  0.1874
  C  C347  1  0.304400  0.513600  0.668800  1.0  0.0977
  C  C348  1  0.283000  0.403100  0.667600  1.0  0.2189
  C  C349  1  0.503700  0.024300  0.696300  1.0  0.2585
  C  C350  1  0.516200  0.014600  0.863800  1.0  0.4218
  C  C351  1  0.507400  0.021800  0.739700  1.0  0.0389
  C  C352  1  0.538100  0.081800  0.761100  1.0  -0.0462
  C  C353  1  0.542200  0.079600  0.801400  1.0  -0.0474
  C  C354  1  0.515500  0.017200  0.820300  1.0  0.0142
  C  C355  1  0.484800  0.957100  0.798900  1.0  -0.0576
  C  C356  1  0.480800  0.959500  0.758600  1.0  -0.0291
  C  C357  1  0.617300  0.745900  0.450700  1.0  0.2292
  C  C358  1  0.740500  0.591500  0.395600  1.0  0.28
  C  C359  1  0.648800  0.705600  0.436400  1.0  0.0154
  C  C360  1  0.661500  0.666100  0.462200  1.0  -0.0057
  C  C361  1  0.690600  0.628500  0.448900  1.0  -0.0215
  C  C362  1  0.707000  0.630500  0.409800  1.0  -0.0172
  C  C363  1  0.694300  0.670000  0.383900  1.0  -0.0583
  C  C364  1  0.665100  0.707500  0.397200  1.0  -0.0582
  C  C365  1  0.870300  0.244300  0.611000  1.0  0.1696
  C  C366  1  0.146000  0.406600  0.666667  1.0  0.2338
  C  C367  1  0.941000  0.290700  0.625800  1.0  0.0206
  C  C368  1  0.954900  0.292400  0.665300  1.0  -0.0624
  C  C369  1  0.021600  0.329700  0.678600  1.0  -0.0511
  C  C370  1  0.074300  0.365300  0.652300  1.0  0.0162
  C  C371  1  0.060400  0.363600  0.612800  1.0  -0.0117
  C  C372  1  0.993700  0.326300  0.599600  1.0  0.0028
  C  C373  1  0.588000  0.926600  0.629100  1.0  0.132
  C  C374  1  0.650000  0.966000  0.652000  1.0  -0.0448
  C  C375  1  0.466000  0.067100  0.632400  1.0  0.1209
  C  C376  1  0.390000  0.022000  0.626000  1.0  -0.031
  C  C377  1  0.718300  0.898300  0.507100  1.0  0.1399
  C  C378  1  0.735000  0.886000  0.548700  1.0  -0.0041
  C  C379  1  0.464500  0.726500  0.481600  1.0  0.1051
  C  C380  1  0.453000  0.672000  0.510000  1.0  -0.0208
  C  C381  1  0.817900  0.099500  0.555000  1.0  0.1175
  C  C382  1  0.848000  0.115000  0.513600  1.0  0.0057
  C  C383  1  0.746000  0.281000  0.571700  1.0  0.1181
  C  C384  1  0.742000  0.301000  0.609200  1.0  -0.0343
  C  C385  1  0.337300  0.916300  0.933100  1.0  0.1426
  C  C386  1  0.297000  0.950000  0.941000  1.0  -0.0212
  C  C387  1  0.598100  0.072100  0.925700  1.0  0.1362
  C  C388  1  0.621000  0.145000  0.938400  1.0  -0.0179
  C  C389  1  0.921000  0.667000  0.411600  1.0  0.1018
  C  C390  1  0.912000  0.671000  0.454200  1.0  -0.0103
  C  C391  1  0.723000  0.423000  0.389300  1.0  0.0842
  C  C392  1  0.730000  0.358000  0.380000  1.0  -0.0156
  C  C393  1  0.294000  0.574000  0.663600  1.0  0.1447
  C  C394  1  0.272000  0.599000  0.693400  1.0  -0.0299
  C  C395  1  0.244000  0.326000  0.663700  1.0  0.2423
  C  C396  1  0.176000  0.296000  0.652000  1.0  0.0202
  C  C397  1  0.411600  0.444600  0.281670  1.0  0.1541
  C  C398  1  0.528400  0.496600  0.283170  1.0  0.0872
  C  C399  1  0.227700  0.358100  0.169570  1.0  0.1023
  C  C400  1  0.264000  0.471300  0.159270  1.0  0.0595
  C  C401  1  0.358600  0.228400  0.225270  1.0  0.1261
  C  C402  1  0.471400  0.259800  0.232170  1.0  0.1181
  C  C403  1  0.548200  0.589000  0.612870  1.0  0.1277
  C  C404  1  0.499600  0.472600  0.609670  1.0  0.0812
  C  C405  1  0.710200  0.117400  0.065670  1.0  0.0764
  C  C406  1  0.689200  0.205800  0.056870  1.0  0.1865
  C  C407  1  0.209200  0.695600  0.335470  1.0  0.0967
  C  C408  1  0.120100  0.717000  0.334270  1.0  0.219
  C  C409  1  0.520600  0.496300  0.362970  1.0  0.2603
  C  C410  1  0.498400  0.483800  0.530470  1.0  0.4268
  C  C411  1  0.514400  0.492600  0.406370  1.0  0.0385
  C  C412  1  0.543700  0.461900  0.427770  1.0  -0.0413
  C  C413  1  0.537400  0.457800  0.468070  1.0  -0.0438
  C  C414  1  0.501700  0.484500  0.486970  1.0  0.0154
  C  C415  1  0.472300  0.515200  0.465570  1.0  -0.0529
  C  C416  1  0.478700  0.519200  0.425270  1.0  -0.023
  C  C417  1  0.128600  0.382700  0.117370  1.0  0.2298
  C  C418  1  0.851000  0.259500  0.062270  1.0  0.2802
  C  C419  1  0.056800  0.351200  0.103070  1.0  0.0111
  C  C420  1  0.004600  0.338500  0.128870  1.0  -0.0076
  C  C421  1  0.937900  0.309400  0.115570  1.0  -0.0198
  C  C422  1  0.923500  0.293000  0.076470  1.0  -0.0143
  C  C423  1  0.975700  0.305700  0.050570  1.0  -0.0572
  C  C424  1  0.042400  0.334900  0.063870  1.0  -0.0559
  C  C425  1  0.374000  0.129700  0.277670  1.0  0.166
  C  C426  1  0.260600  0.854000  0.333370  1.0  0.2314
  C  C427  1  0.349700  0.059000  0.292470  1.0  0.019
  C  C428  1  0.337500  0.045100  0.331970  1.0  -0.0625
  C  C429  1  0.308100  0.978400  0.345270  1.0  -0.0424
  C  C430  1  0.291000  0.925700  0.318970  1.0  0.0168
  C  C431  1  0.303200  0.939600  0.279470  1.0  -0.0106
  C  C432  1  0.332600  0.006300  0.266270  1.0  0.007
  C  C433  1  0.338600  0.412000  0.295770  1.0  0.1336
  C  C434  1  0.316000  0.350000  0.318670  1.0  -0.0455
  C  C435  1  0.601100  0.534000  0.299070  1.0  0.121
  C  C436  1  0.632000  0.610000  0.292670  1.0  -0.0329
  C  C437  1  0.180000  0.281700  0.173770  1.0  0.1407
  C  C438  1  0.151000  0.265000  0.215370  1.0  -0.007
  C  C439  1  0.262000  0.535500  0.148270  1.0  0.1056
  C  C440  1  0.219000  0.547000  0.176670  1.0  -0.0166
  C  C441  1  0.281600  0.182100  0.221670  1.0  0.1179
  C  C442  1  0.267000  0.152000  0.180270  1.0  0.0033
  C  C443  1  0.535000  0.254000  0.238370  1.0  0.12
  C  C444  1  0.559000  0.258000  0.275870  1.0  -0.0339
  C  C445  1  0.579000  0.662700  0.599770  1.0  0.1434
  C  C446  1  0.653000  0.703000  0.607670  1.0  -0.0221
  C  C447  1  0.474000  0.401900  0.592370  1.0  0.1337
  C  C448  1  0.524000  0.379000  0.605070  1.0  -0.0189
  C  C449  1  0.746000  0.079000  0.078270  1.0  0.0976
  C  C450  1  0.759000  0.088000  0.120870  1.0  -0.0108
  C  C451  1  0.700000  0.277000  0.055970  1.0  0.0831
  C  C452  1  0.628000  0.270000  0.046670  1.0  -0.0122
  C  C453  1  0.280000  0.706000  0.330270  1.0  0.1416
  C  C454  1  0.327000  0.728000  0.360070  1.0  -0.0341
  C  C455  1  0.082000  0.756000  0.330370  1.0  0.2416
  C  C456  1  0.120000  0.824000  0.318670  1.0  0.0188
  C  C457  1  0.033000  0.588400  0.948330  1.0  0.1557
  C  C458  1  0.968200  0.471600  0.949830  1.0  0.0865
  C  C459  1  0.130400  0.772300  0.836230  1.0  0.1002
  C  C460  1  0.207300  0.736000  0.825930  1.0  0.0557
  C  C461  1  0.869800  0.641400  0.891930  1.0  0.1266
  C  C462  1  0.788400  0.528600  0.898830  1.0  0.119
  C  C463  1  0.040800  0.451800  0.279530  1.0  0.1272
  C  C464  1  0.973000  0.500400  0.276330  1.0  0.0796
  C  C465  1  0.407200  0.289800  0.732330  1.0  0.0777
  C  C466  1  0.516600  0.310800  0.723530  1.0  0.1877
  C  C467  1  0.486400  0.790800  0.002130  1.0  0.0975
  C  C468  1  0.596900  0.879900  0.000930  1.0  0.2171
  C  C469  1  0.975700  0.479400  0.029630  1.0  0.2584
  C  C470  1  0.985400  0.501600  0.197130  1.0  0.4217
  C  C471  1  0.978200  0.485600  0.073030  1.0  0.0377
  C  C472  1  0.918200  0.456300  0.094430  1.0  -0.0412
  C  C473  1  0.920400  0.462600  0.134730  1.0  -0.0447
  C  C474  1  0.982800  0.498300  0.153630  1.0  0.0146
  C  C475  1  0.042900  0.527700  0.132230  1.0  -0.0534
  C  C476  1  0.040500  0.521300  0.091930  1.0  -0.024
  C  C477  1  0.254100  0.871400  0.784030  1.0  0.2283
  C  C478  1  0.408500  0.149000  0.728930  1.0  0.2786
  C  C479  1  0.294400  0.943200  0.769730  1.0  0.0138
  C  C480  1  0.333900  0.995400  0.795530  1.0  -0.004
  C  C481  1  0.371500  0.062100  0.782230  1.0  -0.0201
  C  C482  1  0.369500  0.076500  0.743130  1.0  -0.0167
  C  C483  1  0.330000  0.024300  0.717230  1.0  -0.0506
  C  C484  1  0.292500  0.957600  0.730530  1.0  -0.0529
  C  C485  1  0.755700  0.626000  0.944330  1.0  0.1701
  C  C486  1  0.593400  0.739400  0.000030  1.0  0.2308
  C  C487  1  0.709300  0.650300  0.959130  1.0  0.0153
  C  C488  1  0.707600  0.662500  0.998630  1.0  -0.0606
  C  C489  1  0.670300  0.691900  0.011930  1.0  -0.0478
  C  C490  1  0.634700  0.709000  0.985630  1.0  0.0198
  C  C491  1  0.636400  0.696800  0.946130  1.0  -0.0145
  C  C492  1  0.673700  0.667400  0.932930  1.0  0.0004
  C  C493  1  0.073400  0.661400  0.962430  1.0  0.1338
  C  C494  1  0.034000  0.684000  0.985330  1.0  -0.0419
  C  C495  1  0.932900  0.398900  0.965730  1.0  0.1196
  C  C496  1  0.978000  0.368000  0.959330  1.0  -0.031
  C  C497  1  0.101700  0.820000  0.840430  1.0  0.1406
  C  C498  1  0.114000  0.849000  0.882030  1.0  -0.0051
  C  C499  1  0.273500  0.738000  0.814930  1.0  0.105
  C  C500  1  0.328000  0.781000  0.843330  1.0  -0.0178
  C  C501  1  0.900500  0.718400  0.888330  1.0  0.1159
  C  C502  1  0.885000  0.733000  0.846930  1.0  0.0062
  C  C503  1  0.719000  0.465000  0.905030  1.0  0.119
  C  C504  1  0.699000  0.441000  0.942530  1.0  -0.0348
  C  C505  1  0.083700  0.421000  0.266430  1.0  0.1425
  C  C506  1  0.050000  0.347000  0.274330  1.0  -0.0255
  C  C507  1  0.927900  0.526000  0.259030  1.0  0.1346
  C  C508  1  0.855000  0.476000  0.271730  1.0  -0.0189
  C  C509  1  0.333000  0.254000  0.744930  1.0  0.1032
  C  C510  1  0.329000  0.241000  0.787530  1.0  -0.0136
  C  C511  1  0.577000  0.300000  0.722630  1.0  0.0837
  C  C512  1  0.642000  0.372000  0.713330  1.0  -0.0117
  C  C513  1  0.426000  0.720000  0.996930  1.0  0.1427
  C  C514  1  0.401000  0.673000  0.026730  1.0  -0.0321
  C  C515  1  0.674000  0.918000  0.997030  1.0  0.2418
  C  C516  1  0.704000  0.880000  0.985330  1.0  0.0216
  N  N517  1  0.484600  0.978400  0.079400  1.0  -0.0881
  N  N518  1  0.452400  0.015400  0.078500  1.0  -0.1113
  N  N519  1  0.473100  0.003600  0.138600  1.0  -0.0937
  N  N520  1  0.463700  0.147400  0.004600  1.0  -0.2163
  N  N521  1  0.396700  0.102000  0.011200  1.0  -0.1886
  N  N522  1  0.405300  0.197100  0.992200  1.0  -0.0875
  N  N523  1  0.313000  0.847600  0.053200  1.0  -0.2281
  N  N524  1  0.294400  0.895900  0.048800  1.0  -0.1697
  N  N525  1  0.206200  0.801800  0.067500  1.0  -0.0234
  N  N526  1  0.493400  0.982200  0.480400  1.0  -0.1137
  N  N527  1  0.562200  0.022900  0.482300  1.0  -0.0887
  N  N528  1  0.532800  0.006500  0.421600  1.0  -0.0937
  N  N529  1  0.145700  0.512100  0.881000  1.0  -0.2114
  N  N530  1  0.093100  0.447500  0.886700  1.0  -0.2031
  N  N531  1  0.187500  0.450700  0.901900  1.0  0.0455
  N  N532  1  0.652300  0.554200  0.179200  1.0  -0.2663
  N  N533  1  0.639400  0.488600  0.179400  1.0  -0.2359
  N  N534  1  0.743500  0.554100  0.160700  1.0  -0.0439
  N  N535  1  0.476000  0.007700  0.180000  1.0  -0.1614
  N  N536  1  0.536800  0.008800  0.379500  1.0  -0.1485
  N  N537  1  0.386100  0.246500  0.983800  1.0  -0.1306
  N  N538  1  0.234600  0.430600  0.915500  1.0  -0.146
  N  N539  1  0.138200  0.757700  0.077700  1.0  -0.1398
  N  N540  1  0.809100  0.575000  0.145000  1.0  -0.185
  N  N541  1  0.493800  0.515400  0.746070  1.0  -0.0894
  N  N542  1  0.563000  0.547600  0.745170  1.0  -0.1097
  N  N543  1  0.530500  0.526900  0.805270  1.0  -0.0938
  N  N544  1  0.683700  0.536300  0.671270  1.0  -0.2167
  N  N545  1  0.705300  0.603300  0.677870  1.0  -0.1879
  N  N546  1  0.791800  0.594700  0.658870  1.0  -0.086
  N  N547  1  0.534600  0.687000  0.719870  1.0  -0.2284
  N  N548  1  0.601500  0.705600  0.715470  1.0  -0.1678
  N  N549  1  0.595600  0.793800  0.734170  1.0  -0.0235
  N  N550  1  0.488800  0.506600  0.147070  1.0  -0.114
  N  N551  1  0.460700  0.437800  0.148970  1.0  -0.0892
  N  N552  1  0.473700  0.467200  0.088270  1.0  -0.0936
  N  N553  1  0.366400  0.854300  0.547670  1.0  -0.211
  N  N554  1  0.354400  0.906900  0.553370  1.0  -0.2046
  N  N555  1  0.263200  0.812500  0.568570  1.0  0.044
  N  N556  1  0.901900  0.347700  0.845870  1.0  -0.2684
  N  N557  1  0.849200  0.360600  0.846070  1.0  -0.2391
  N  N558  1  0.810600  0.256500  0.827370  1.0  -0.0459
  N  N559  1  0.531700  0.524000  0.846670  1.0  -0.1611
  N  N560  1  0.472000  0.463200  0.046170  1.0  -0.1462
  N  N561  1  0.860400  0.613900  0.650470  1.0  -0.1281
  N  N562  1  0.196000  0.765400  0.582170  1.0  -0.1463
  N  N563  1  0.619500  0.861800  0.744370  1.0  -0.1415
  N  N564  1  0.765900  0.190900  0.811670  1.0  -0.1841
  N  N565  1  0.021600  0.506200  0.412730  1.0  -0.0896
  N  N566  1  0.984600  0.437000  0.411830  1.0  -0.1115
  N  N567  1  0.996400  0.469500  0.471930  1.0  -0.0933
  N  N568  1  0.852600  0.316300  0.337930  1.0  -0.2192
  N  N569  1  0.898000  0.294700  0.344530  1.0  -0.1888
  N  N570  1  0.802900  0.208200  0.325530  1.0  -0.0873
  N  N571  1  0.152400  0.465400  0.386530  1.0  -0.225
  N  N572  1  0.104100  0.398500  0.382130  1.0  -0.1734
  N  N573  1  0.198200  0.404400  0.400830  1.0  -0.0219
  N  N574  1  0.017800  0.511200  0.813730  1.0  -0.1133
  N  N575  1  0.977100  0.539300  0.815630  1.0  -0.0901
  N  N576  1  0.993500  0.526300  0.754930  1.0  -0.0932
  N  N577  1  0.487900  0.633600  0.214330  1.0  -0.2089
  N  N578  1  0.552500  0.645600  0.220030  1.0  -0.2087
  N  N579  1  0.549300  0.736800  0.235230  1.0  0.0446
  N  N580  1  0.445800  0.098100  0.512530  1.0  -0.2684
  N  N581  1  0.511400  0.150800  0.512730  1.0  -0.2382
  N  N582  1  0.445900  0.189400  0.494030  1.0  -0.0453
  N  N583  1  0.992300  0.468300  0.513330  1.0  -0.1601
  N  N584  1  0.991200  0.528000  0.712830  1.0  -0.1471
  N  N585  1  0.753500  0.139600  0.317130  1.0  -0.1317
  N  N586  1  0.569400  0.804000  0.248830  1.0  -0.1453
  N  N587  1  0.242300  0.380500  0.411030  1.0  -0.139
  N  N588  1  0.425000  0.234100  0.478330  1.0  -0.1853
  N  N589  1  0.515400  0.021600  0.579400  1.0  -0.0877
  N  N590  1  0.547600  0.984600  0.578500  1.0  -0.1095
  N  N591  1  0.526900  0.996400  0.638600  1.0  -0.0946
  N  N592  1  0.536300  0.852600  0.504600  1.0  -0.2179
  N  N593  1  0.603300  0.898000  0.511200  1.0  -0.1893
  N  N594  1  0.594700  0.802900  0.492200  1.0  -0.087
  N  N595  1  0.687000  0.152400  0.553200  1.0  -0.2276
  N  N596  1  0.705600  0.104100  0.548800  1.0  -0.1691
  N  N597  1  0.793800  0.198200  0.567500  1.0  -0.0233
  N  N598  1  0.506600  0.017800  0.980400  1.0  -0.1124
  N  N599  1  0.437800  0.977100  0.982300  1.0  -0.0904
  N  N600  1  0.467200  0.993500  0.921600  1.0  -0.0936
  N  N601  1  0.854300  0.487900  0.381000  1.0  -0.2094
  N  N602  1  0.906900  0.552500  0.386700  1.0  -0.203
  N  N603  1  0.812500  0.549300  0.401900  1.0  0.0454
  N  N604  1  0.347700  0.445800  0.679200  1.0  -0.2666
  N  N605  1  0.360600  0.511400  0.679400  1.0  -0.2373
  N  N606  1  0.256500  0.445900  0.660700  1.0  -0.046
  N  N607  1  0.524000  0.992300  0.680000  1.0  -0.1604
  N  N608  1  0.463200  0.991200  0.879500  1.0  -0.1477
  N  N609  1  0.613900  0.753500  0.483800  1.0  -0.1297
  N  N610  1  0.765400  0.569400  0.415500  1.0  -0.1476
  N  N611  1  0.861800  0.242300  0.577700  1.0  -0.1393
  N  N612  1  0.190900  0.425000  0.645000  1.0  -0.1846
  N  N613  1  0.506200  0.484600  0.246070  1.0  -0.0892
  N  N614  1  0.437000  0.452400  0.245170  1.0  -0.1118
  N  N615  1  0.469500  0.473100  0.305270  1.0  -0.0932
  N  N616  1  0.316300  0.463700  0.171270  1.0  -0.2167
  N  N617  1  0.294700  0.396700  0.177870  1.0  -0.1881
  N  N618  1  0.208200  0.405300  0.158870  1.0  -0.0871
  N  N619  1  0.465400  0.313000  0.219870  1.0  -0.2268
  N  N620  1  0.398500  0.294400  0.215470  1.0  -0.1705
  N  N621  1  0.404400  0.206200  0.234170  1.0  -0.0233
  N  N622  1  0.511200  0.493400  0.647070  1.0  -0.1137
  N  N623  1  0.539300  0.562200  0.648970  1.0  -0.0897
  N  N624  1  0.526300  0.532800  0.588270  1.0  -0.0939
  N  N625  1  0.633600  0.145700  0.047670  1.0  -0.2118
  N  N626  1  0.645600  0.093100  0.053370  1.0  -0.2045
  N  N627  1  0.736800  0.187500  0.068570  1.0  0.0454
  N  N628  1  0.098100  0.652300  0.345870  1.0  -0.2673
  N  N629  1  0.150800  0.639400  0.346070  1.0  -0.238
  N  N630  1  0.189400  0.743500  0.327370  1.0  -0.0443
  N  N631  1  0.468300  0.476000  0.346670  1.0  -0.1624
  N  N632  1  0.528000  0.536800  0.546170  1.0  -0.1482
  N  N633  1  0.139600  0.386100  0.150470  1.0  -0.1301
  N  N634  1  0.804000  0.234600  0.082170  1.0  -0.1454
  N  N635  1  0.380500  0.138200  0.244370  1.0  -0.1414
  N  N636  1  0.234100  0.809100  0.311670  1.0  -0.1852
  N  N637  1  0.978400  0.493800  0.912730  1.0  -0.0902
  N  N638  1  0.015400  0.563000  0.911830  1.0  -0.1112
  N  N639  1  0.003600  0.530500  0.971930  1.0  -0.093
  N  N640  1  0.147400  0.683700  0.837930  1.0  -0.2202
  N  N641  1  0.102000  0.705300  0.844530  1.0  -0.188
  N  N642  1  0.197100  0.791800  0.825530  1.0  -0.0868
  N  N643  1  0.847600  0.534600  0.886530  1.0  -0.2236
  N  N644  1  0.895900  0.601500  0.882130  1.0  -0.1726
  N  N645  1  0.801800  0.595600  0.900830  1.0  -0.023
  N  N646  1  0.982200  0.488800  0.313730  1.0  -0.1147
  N  N647  1  0.022900  0.460700  0.315630  1.0  -0.0885
  N  N648  1  0.006500  0.473700  0.254930  1.0  -0.0934
  N  N649  1  0.512100  0.366400  0.714330  1.0  -0.21
  N  N650  1  0.447500  0.354400  0.720030  1.0  -0.2093
  N  N651  1  0.450700  0.263200  0.735230  1.0  0.0438
  N  N652  1  0.554200  0.901900  0.012530  1.0  -0.2691
  N  N653  1  0.488600  0.849200  0.012730  1.0  -0.2371
  N  N654  1  0.554100  0.810600  0.994030  1.0  -0.0455
  N  N655  1  0.007700  0.531700  0.013330  1.0  -0.1624
  N  N656  1  0.008800  0.472000  0.212830  1.0  -0.1471
  N  N657  1  0.246500  0.860400  0.817130  1.0  -0.1313
  N  N658  1  0.430600  0.196000  0.748830  1.0  -0.1456
  N  N659  1  0.757700  0.619500  0.911030  1.0  -0.1396
  N  N660  1  0.575000  0.765900  0.978330  1.0  -0.1843
  O  O661  1  0.430000  0.132000  0.114000  1.0  -0.5078
  O  O662  1  0.512000  0.874000  0.107000  1.0  -0.574
  O  O663  1  0.249000  0.030000  0.999900  1.0  -0.4324
  O  O664  1  0.532000  0.292000  0.942600  1.0  -0.3924
  O  O665  1  0.215000  0.967000  0.064000  1.0  -0.4487
  O  O666  1  0.301000  0.717000  0.042200  1.0  -0.5941
  O  O667  1  0.692000  0.152000  0.441000  1.0  -0.4273
  O  O668  1  0.418000  0.928000  0.381800  1.0  -0.503
  O  O669  1  0.077000  0.288000  0.887400  1.0  -0.4814
  O  O670  1  0.314000  0.573000  0.854600  1.0  -0.5727
  O  O671  1  0.725000  0.422000  0.124600  1.0  -0.4226
  O  O672  1  0.718000  0.704000  0.161000  1.0  -0.4825
  O  O673  1  0.702000  0.570000  0.780670  1.0  -0.511
  O  O674  1  0.362000  0.488000  0.773670  1.0  -0.5734
  O  O675  1  0.781000  0.751000  0.666570  1.0  -0.4338
  O  O676  1  0.760000  0.468000  0.609270  1.0  -0.3919
  O  O677  1  0.752000  0.785000  0.730670  1.0  -0.443
  O  O678  1  0.416000  0.699000  0.708870  1.0  -0.5925
  O  O679  1  0.460000  0.308000  0.107670  1.0  -0.4317
  O  O680  1  0.510000  0.582000  0.048470  1.0  -0.5029
  O  O681  1  0.211000  0.923000  0.554070  1.0  -0.4766
  O  O682  1  0.259000  0.686000  0.521270  1.0  -0.5751
  O  O683  1  0.697000  0.275000  0.791270  1.0  -0.4226
  O  O684  1  0.986000  0.282000  0.827670  1.0  -0.4803
  O  O685  1  0.868000  0.298000  0.447330  1.0  -0.5087
  O  O686  1  0.126000  0.638000  0.440330  1.0  -0.5775
  O  O687  1  0.970000  0.219000  0.333230  1.0  -0.434
  O  O688  1  0.708000  0.240000  0.275930  1.0  -0.3931
  O  O689  1  0.033000  0.248000  0.397330  1.0  -0.4436
  O  O690  1  0.283000  0.584000  0.375530  1.0  -0.5939
  O  O691  1  0.848000  0.540000  0.774330  1.0  -0.4311
  O  O692  1  0.072000  0.490000  0.715130  1.0  -0.4997
  O  O693  1  0.712000  0.789000  0.220730  1.0  -0.4834
  O  O694  1  0.427000  0.741000  0.187930  1.0  -0.5737
  O  O695  1  0.578000  0.303000  0.457930  1.0  -0.4231
  O  O696  1  0.296000  0.014000  0.494330  1.0  -0.4776
  O  O697  1  0.570000  0.868000  0.614000  1.0  -0.5102
  O  O698  1  0.488000  0.126000  0.607000  1.0  -0.5758
  O  O699  1  0.751000  0.970000  0.499900  1.0  -0.4333
  O  O700  1  0.468000  0.708000  0.442600  1.0  -0.3944
  O  O701  1  0.785000  0.033000  0.564000  1.0  -0.4476
  O  O702  1  0.699000  0.283000  0.542200  1.0  -0.5906
  O  O703  1  0.308000  0.848000  0.941000  1.0  -0.4333
  O  O704  1  0.582000  0.072000  0.881800  1.0  -0.5032
  O  O705  1  0.923000  0.712000  0.387400  1.0  -0.4817
  O  O706  1  0.686000  0.427000  0.354600  1.0  -0.5735
  O  O707  1  0.275000  0.578000  0.624600  1.0  -0.4228
  O  O708  1  0.282000  0.296000  0.661000  1.0  -0.4812
  O  O709  1  0.298000  0.430000  0.280670  1.0  -0.5135
  O  O710  1  0.638000  0.512000  0.273670  1.0  -0.5749
  O  O711  1  0.219000  0.249000  0.166570  1.0  -0.4342
  O  O712  1  0.240000  0.532000  0.109270  1.0  -0.3926
  O  O713  1  0.248000  0.215000  0.230670  1.0  -0.4401
  O  O714  1  0.584000  0.301000  0.208870  1.0  -0.5952
  O  O715  1  0.540000  0.692000  0.607670  1.0  -0.4315
  O  O716  1  0.490000  0.418000  0.548470  1.0  -0.5001
  O  O717  1  0.789000  0.077000  0.054070  1.0  -0.4775
  O  O718  1  0.741000  0.314000  0.021270  1.0  -0.5739
  O  O719  1  0.303000  0.725000  0.291270  1.0  -0.4214
  O  O720  1  0.014000  0.718000  0.327670  1.0  -0.4773
  O  O721  1  0.132000  0.702000  0.947330  1.0  -0.5077
  O  O722  1  0.874000  0.362000  0.940330  1.0  -0.5765
  O  O723  1  0.030000  0.781000  0.833230  1.0  -0.4317
  O  O724  1  0.292000  0.760000  0.775930  1.0  -0.392
  O  O725  1  0.967000  0.752000  0.897330  1.0  -0.4433
  O  O726  1  0.717000  0.416000  0.875530  1.0  -0.5942
  O  O727  1  0.152000  0.460000  0.274330  1.0  -0.4303
  O  O728  1  0.928000  0.510000  0.215130  1.0  -0.4985
  O  O729  1  0.288000  0.211000  0.720730  1.0  -0.4807
  O  O730  1  0.573000  0.259000  0.687930  1.0  -0.5747
  O  O731  1  0.422000  0.697000  0.957930  1.0  -0.4244
  O  O732  1  0.704000  0.986000  0.994330  1.0  -0.4808
