# generated using pymatgen
data_Li3Co8C48(N3O4)12
_symmetry_space_group_name_H-M   'P 1'
_cell_length_a   17.69720000
_cell_length_b   17.69720000
_cell_length_c   76.39700000
_cell_angle_alpha   90.00000000
_cell_angle_beta   90.00000000
_cell_angle_gamma   120.00000000
_symmetry_Int_Tables_number   1
_chemical_formula_structural   Li3Co8C48(N3O4)12
_chemical_formula_sum   'Li18 Co48 C288 N216 O288'
_cell_volume   20721.25496009
_cell_formula_units_Z   6
loop_
 _symmetry_equiv_pos_site_id
 _symmetry_equiv_pos_as_xyz
  1  'x, y, z'
loop_
 _atom_site_type_symbol
 _atom_site_label
 _atom_site_symmetry_multiplicity
 _atom_site_fract_x
 _atom_site_fract_y
 _atom_site_fract_z
 _atom_site_occupancy
 _atom_site_charge
  Li  Li1  1  0.701180  0.666667  0.416670  1.0  0.8835
  Li  Li2  1  0.367850  0.000000  0.750000  1.0  0.8842
  Li  Li3  1  0.333333  0.034520  0.416670  1.0  0.8815
  Li  Li4  1  0.000000  0.367850  0.750000  1.0  0.8817
  Li  Li5  1  0.965480  0.298820  0.416670  1.0  0.8823
  Li  Li6  1  0.632150  0.632150  0.750000  1.0  0.8826
  Li  Li7  1  0.666667  0.701180  0.083330  1.0  0.8819
  Li  Li8  1  0.034520  0.333333  0.083330  1.0  0.8834
  Li  Li9  1  0.298820  0.965480  0.083330  1.0  0.8823
  Li  Li10  1  0.298820  0.333333  0.583330  1.0  0.8845
  Li  Li11  1  0.666667  0.965480  0.583330  1.0  0.8826
  Li  Li12  1  0.034520  0.701180  0.583330  1.0  0.8826
  Li  Li13  1  0.333333  0.298820  0.916670  1.0  0.8827
  Li  Li14  1  0.000000  0.632150  0.250000  1.0  0.8826
  Li  Li15  1  0.965480  0.666667  0.916670  1.0  0.8836
  Li  Li16  1  0.632150  0.000000  0.250000  1.0  0.8826
  Li  Li17  1  0.701180  0.034520  0.916670  1.0  0.8826
  Li  Li18  1  0.367850  0.367850  0.250000  1.0  0.8829
  Co  Co19  1  0.672040  0.839910  0.477170  1.0  1.0533
  Co  Co20  1  0.338710  0.173240  0.810510  1.0  1.0534
  Co  Co21  1  0.005370  0.506580  0.143840  1.0  1.0533
  Co  Co22  1  0.160090  0.832130  0.477170  1.0  1.0536
  Co  Co23  1  0.826760  0.165460  0.810510  1.0  1.0537
  Co  Co24  1  0.493420  0.498800  0.143840  1.0  1.0536
  Co  Co25  1  0.167870  0.327960  0.477170  1.0  1.0519
  Co  Co26  1  0.834540  0.661290  0.810510  1.0  1.052
  Co  Co27  1  0.501200  0.994630  0.143840  1.0  1.0519
  Co  Co28  1  0.839910  0.672040  0.022830  1.0  1.0533
  Co  Co29  1  0.506580  0.005370  0.356160  1.0  1.0533
  Co  Co30  1  0.173240  0.338710  0.689490  1.0  1.0534
  Co  Co31  1  0.832130  0.160090  0.022830  1.0  1.0519
  Co  Co32  1  0.498800  0.493420  0.356160  1.0  1.0519
  Co  Co33  1  0.165460  0.826760  0.689490  1.0  1.052
  Co  Co34  1  0.327960  0.167870  0.022830  1.0  1.0522
  Co  Co35  1  0.994630  0.501200  0.356160  1.0  1.0522
  Co  Co36  1  0.661290  0.834540  0.689490  1.0  1.0523
  Co  Co37  1  0.327960  0.160090  0.522830  1.0  1.0524
  Co  Co38  1  0.994630  0.493420  0.856160  1.0  1.0524
  Co  Co39  1  0.661290  0.826760  0.189490  1.0  1.0525
  Co  Co40  1  0.839910  0.167870  0.522830  1.0  1.0517
  Co  Co41  1  0.506580  0.501200  0.856160  1.0  1.0517
  Co  Co42  1  0.173240  0.834540  0.189490  1.0  1.0518
  Co  Co43  1  0.832130  0.672040  0.522830  1.0  1.0535
  Co  Co44  1  0.498800  0.005370  0.856160  1.0  1.0535
  Co  Co45  1  0.165460  0.338710  0.189490  1.0  1.0536
  Co  Co46  1  0.160090  0.327960  0.977170  1.0  1.052
  Co  Co47  1  0.826760  0.661290  0.310510  1.0  1.0522
  Co  Co48  1  0.493420  0.994630  0.643840  1.0  1.052
  Co  Co49  1  0.167870  0.839910  0.977170  1.0  1.0537
  Co  Co50  1  0.834540  0.173240  0.310510  1.0  1.0538
  Co  Co51  1  0.501200  0.506580  0.643840  1.0  1.0537
  Co  Co52  1  0.672040  0.832130  0.977170  1.0  1.0531
  Co  Co53  1  0.338710  0.165460  0.310510  1.0  1.0532
  Co  Co54  1  0.005370  0.498800  0.643840  1.0  1.0531
  Co  Co55  1  0.000000  0.000000  0.431200  1.0  1.0672
  Co  Co56  1  0.666667  0.333333  0.764530  1.0  1.0672
  Co  Co57  1  0.333333  0.666667  0.097860  1.0  1.0672
  Co  Co58  1  0.000000  0.000000  0.068800  1.0  1.0678
  Co  Co59  1  0.666667  0.333333  0.402140  1.0  1.0674
  Co  Co60  1  0.333333  0.666667  0.735470  1.0  1.0678
  Co  Co61  1  0.000000  0.000000  0.568800  1.0  1.0678
  Co  Co62  1  0.666667  0.333333  0.902140  1.0  1.0674
  Co  Co63  1  0.333333  0.666667  0.235470  1.0  1.0678
  Co  Co64  1  0.000000  0.000000  0.931200  1.0  1.0672
  Co  Co65  1  0.666667  0.333333  0.264530  1.0  1.0672
  Co  Co66  1  0.333333  0.666667  0.597860  1.0  1.0672
  C  C67  1  0.861100  0.835300  0.420610  1.0  0.7123
  C  C68  1  0.829900  0.858900  0.436920  1.0  0.051
  C  C69  1  0.756300  0.821900  0.447370  1.0  0.0253
  C  C70  1  0.668600  0.740400  0.448180  1.0  0.7431
  C  C71  1  0.569400  0.739500  0.505450  1.0  0.7362
  C  C72  1  0.651100  0.732900  0.506760  1.0  0.0154
  C  C73  1  0.688400  0.696300  0.516860  1.0  0.051
  C  C74  1  0.663800  0.637700  0.532630  1.0  0.6992
  C  C75  1  0.527770  0.168630  0.753940  1.0  0.7123
  C  C76  1  0.496570  0.192230  0.770250  1.0  0.0509
  C  C77  1  0.422970  0.155230  0.780700  1.0  0.0253
  C  C78  1  0.335270  0.073730  0.781510  1.0  0.7431
  C  C79  1  0.236070  0.072830  0.838780  1.0  0.7362
  C  C80  1  0.317770  0.066230  0.840090  1.0  0.0154
  C  C81  1  0.355070  0.029630  0.850190  1.0  0.051
  C  C82  1  0.330470  0.971030  0.865960  1.0  0.6992
  C  C83  1  0.194430  0.501970  0.087280  1.0  0.7124
  C  C84  1  0.163230  0.525570  0.103590  1.0  0.051
  C  C85  1  0.089630  0.488570  0.114040  1.0  0.0253
  C  C86  1  0.001930  0.407070  0.114850  1.0  0.7431
  C  C87  1  0.902730  0.406170  0.172120  1.0  0.7362
  C  C88  1  0.984430  0.399570  0.173430  1.0  0.0154
  C  C89  1  0.021730  0.362970  0.183530  1.0  0.051
  C  C90  1  0.997130  0.304370  0.199300  1.0  0.6992
  C  C91  1  0.164700  0.025800  0.420610  1.0  0.7131
  C  C92  1  0.141100  0.971000  0.436920  1.0  0.0512
  C  C93  1  0.178100  0.934400  0.447370  1.0  0.0252
  C  C94  1  0.259600  0.928200  0.448180  1.0  0.7427
  C  C95  1  0.260500  0.829900  0.505450  1.0  0.7343
  C  C96  1  0.267100  0.918200  0.506760  1.0  0.0181
  C  C97  1  0.303700  0.992100  0.516860  1.0  0.0516
  C  C98  1  0.362300  0.026100  0.532630  1.0  0.7006
  C  C99  1  0.831370  0.359130  0.753940  1.0  0.7131
  C  C100  1  0.807770  0.304330  0.770250  1.0  0.051
  C  C101  1  0.844770  0.267730  0.780700  1.0  0.0252
  C  C102  1  0.926270  0.261530  0.781510  1.0  0.7427
  C  C103  1  0.927170  0.163230  0.838780  1.0  0.7343
  C  C104  1  0.933770  0.251530  0.840090  1.0  0.0181
  C  C105  1  0.970370  0.325430  0.850190  1.0  0.0516
  C  C106  1  0.028970  0.359430  0.865960  1.0  0.7006
  C  C107  1  0.498030  0.692470  0.087280  1.0  0.7132
  C  C108  1  0.474430  0.637670  0.103590  1.0  0.0512
  C  C109  1  0.511430  0.601070  0.114040  1.0  0.0252
  C  C110  1  0.592930  0.594870  0.114850  1.0  0.7427
  C  C111  1  0.593830  0.496570  0.172120  1.0  0.7343
  C  C112  1  0.600430  0.584870  0.173430  1.0  0.0181
  C  C113  1  0.637030  0.658770  0.183530  1.0  0.0516
  C  C114  1  0.695630  0.692770  0.199300  1.0  0.7006
  C  C115  1  0.974200  0.138900  0.420610  1.0  0.7138
  C  C116  1  0.029000  0.170100  0.436920  1.0  0.05
  C  C117  1  0.065600  0.243700  0.447370  1.0  0.025
  C  C118  1  0.071800  0.331400  0.448180  1.0  0.7424
  C  C119  1  0.170100  0.430600  0.505450  1.0  0.7335
  C  C120  1  0.081800  0.348900  0.506760  1.0  0.0179
  C  C121  1  0.007900  0.311600  0.516860  1.0  0.0517
  C  C122  1  0.973900  0.336200  0.532630  1.0  0.6972
  C  C123  1  0.640870  0.472230  0.753940  1.0  0.7138
  C  C124  1  0.695670  0.503430  0.770250  1.0  0.0501
  C  C125  1  0.732270  0.577030  0.780700  1.0  0.025
  C  C126  1  0.738470  0.664730  0.781510  1.0  0.7425
  C  C127  1  0.836770  0.763930  0.838780  1.0  0.7335
  C  C128  1  0.748470  0.682230  0.840090  1.0  0.0179
  C  C129  1  0.674570  0.644930  0.850190  1.0  0.0517
  C  C130  1  0.640570  0.669530  0.865960  1.0  0.6972
  C  C131  1  0.307530  0.805570  0.087280  1.0  0.7139
  C  C132  1  0.362330  0.836770  0.103590  1.0  0.05
  C  C133  1  0.398930  0.910370  0.114040  1.0  0.025
  C  C134  1  0.405130  0.998070  0.114850  1.0  0.7423
  C  C135  1  0.503430  0.097270  0.172120  1.0  0.7335
  C  C136  1  0.415130  0.015570  0.173430  1.0  0.0179
  C  C137  1  0.341230  0.978270  0.183530  1.0  0.0517
  C  C138  1  0.307230  0.002870  0.199300  1.0  0.6971
  C  C139  1  0.835300  0.861100  0.079390  1.0  0.7118
  C  C140  1  0.858900  0.829900  0.063080  1.0  0.05
  C  C141  1  0.821900  0.756300  0.052630  1.0  0.0253
  C  C142  1  0.740400  0.668600  0.051820  1.0  0.7416
  C  C143  1  0.739500  0.569400  0.994550  1.0  0.7331
  C  C144  1  0.732900  0.651100  0.993240  1.0  0.0176
  C  C145  1  0.696300  0.688400  0.983140  1.0  0.0504
  C  C146  1  0.637700  0.663800  0.967370  1.0  0.698
  C  C147  1  0.501970  0.194430  0.412720  1.0  0.7119
  C  C148  1  0.525570  0.163230  0.396410  1.0  0.05
  C  C149  1  0.488570  0.089630  0.385960  1.0  0.0253
  C  C150  1  0.407070  0.001930  0.385150  1.0  0.7416
  C  C151  1  0.406170  0.902730  0.327880  1.0  0.7331
  C  C152  1  0.399570  0.984430  0.326570  1.0  0.0176
  C  C153  1  0.362970  0.021730  0.316470  1.0  0.0504
  C  C154  1  0.304370  0.997130  0.300700  1.0  0.6979
  C  C155  1  0.168630  0.527770  0.746060  1.0  0.7118
  C  C156  1  0.192230  0.496570  0.729750  1.0  0.0499
  C  C157  1  0.155230  0.422970  0.719300  1.0  0.0253
  C  C158  1  0.073730  0.335270  0.718490  1.0  0.7417
  C  C159  1  0.072830  0.236070  0.661220  1.0  0.7331
  C  C160  1  0.066230  0.317770  0.659910  1.0  0.0176
  C  C161  1  0.029630  0.355070  0.649810  1.0  0.0504
  C  C162  1  0.971030  0.330470  0.634040  1.0  0.698
  C  C163  1  0.025800  0.164700  0.079390  1.0  0.7125
  C  C164  1  0.971000  0.141100  0.063080  1.0  0.0506
  C  C165  1  0.934400  0.178100  0.052630  1.0  0.0247
  C  C166  1  0.928200  0.259600  0.051820  1.0  0.7433
  C  C167  1  0.829900  0.260500  0.994550  1.0  0.737
  C  C168  1  0.918200  0.267100  0.993240  1.0  0.015
  C  C169  1  0.992100  0.303700  0.983140  1.0  0.0512
  C  C170  1  0.026100  0.362300  0.967370  1.0  0.6989
  C  C171  1  0.692470  0.498030  0.412720  1.0  0.7126
  C  C172  1  0.637670  0.474430  0.396410  1.0  0.0506
  C  C173  1  0.601070  0.511430  0.385960  1.0  0.0247
  C  C174  1  0.594870  0.592930  0.385150  1.0  0.7433
  C  C175  1  0.496570  0.593830  0.327880  1.0  0.737
  C  C176  1  0.584870  0.600430  0.326570  1.0  0.015
  C  C177  1  0.658770  0.637030  0.316470  1.0  0.0512
  C  C178  1  0.692770  0.695630  0.300700  1.0  0.6989
  C  C179  1  0.359130  0.831370  0.746060  1.0  0.7125
  C  C180  1  0.304330  0.807770  0.729750  1.0  0.0504
  C  C181  1  0.267730  0.844770  0.719300  1.0  0.0247
  C  C182  1  0.261530  0.926270  0.718490  1.0  0.7433
  C  C183  1  0.163230  0.927170  0.661220  1.0  0.737
  C  C184  1  0.251530  0.933770  0.659910  1.0  0.015
  C  C185  1  0.325430  0.970370  0.649810  1.0  0.0512
  C  C186  1  0.359430  0.028970  0.634040  1.0  0.6989
  C  C187  1  0.138900  0.974200  0.079390  1.0  0.7133
  C  C188  1  0.170100  0.029000  0.063080  1.0  0.0503
  C  C189  1  0.243700  0.065600  0.052630  1.0  0.0257
  C  C190  1  0.331400  0.071800  0.051820  1.0  0.7423
  C  C191  1  0.430600  0.170100  0.994550  1.0  0.7329
  C  C192  1  0.348900  0.081800  0.993240  1.0  0.0176
  C  C193  1  0.311600  0.007900  0.983140  1.0  0.0504
  C  C194  1  0.336200  0.973900  0.967370  1.0  0.6993
  C  C195  1  0.805570  0.307530  0.412720  1.0  0.7133
  C  C196  1  0.836770  0.362330  0.396410  1.0  0.0503
  C  C197  1  0.910370  0.398930  0.385960  1.0  0.0257
  C  C198  1  0.998070  0.405130  0.385150  1.0  0.7422
  C  C199  1  0.097270  0.503430  0.327880  1.0  0.7329
  C  C200  1  0.015570  0.415130  0.326570  1.0  0.0176
  C  C201  1  0.978270  0.341230  0.316470  1.0  0.0504
  C  C202  1  0.002870  0.307230  0.300700  1.0  0.6992
  C  C203  1  0.472230  0.640870  0.746060  1.0  0.7133
  C  C204  1  0.503430  0.695670  0.729750  1.0  0.0504
  C  C205  1  0.577030  0.732270  0.719300  1.0  0.0257
  C  C206  1  0.664730  0.738470  0.718490  1.0  0.7424
  C  C207  1  0.763930  0.836770  0.661220  1.0  0.7329
  C  C208  1  0.682230  0.748470  0.659910  1.0  0.0176
  C  C209  1  0.644930  0.674570  0.649810  1.0  0.0504
  C  C210  1  0.669530  0.640570  0.634040  1.0  0.6993
  C  C211  1  0.138900  0.164700  0.579390  1.0  0.7114
  C  C212  1  0.170100  0.141100  0.563080  1.0  0.0509
  C  C213  1  0.243700  0.178100  0.552630  1.0  0.0246
  C  C214  1  0.331400  0.259600  0.551820  1.0  0.7435
  C  C215  1  0.430600  0.260500  0.494550  1.0  0.7364
  C  C216  1  0.348900  0.267100  0.493240  1.0  0.0163
  C  C217  1  0.311600  0.303700  0.483140  1.0  0.0505
  C  C218  1  0.336200  0.362300  0.467370  1.0  0.6991
  C  C219  1  0.805570  0.498030  0.912720  1.0  0.7115
  C  C220  1  0.836770  0.474430  0.896410  1.0  0.0509
  C  C221  1  0.910370  0.511430  0.885960  1.0  0.0246
  C  C222  1  0.998070  0.592930  0.885150  1.0  0.7435
  C  C223  1  0.097270  0.593830  0.827880  1.0  0.7364
  C  C224  1  0.015570  0.600430  0.826570  1.0  0.0163
  C  C225  1  0.978270  0.637030  0.816470  1.0  0.0505
  C  C226  1  0.002870  0.695630  0.800700  1.0  0.699
  C  C227  1  0.472230  0.831370  0.246060  1.0  0.7114
  C  C228  1  0.503430  0.807770  0.229750  1.0  0.0508
  C  C229  1  0.577030  0.844770  0.219300  1.0  0.0246
  C  C230  1  0.664730  0.926270  0.218490  1.0  0.7435
  C  C231  1  0.763930  0.927170  0.161220  1.0  0.7364
  C  C232  1  0.682230  0.933770  0.159910  1.0  0.0163
  C  C233  1  0.644930  0.970370  0.149810  1.0  0.0505
  C  C234  1  0.669530  0.028970  0.134040  1.0  0.6991
  C  C235  1  0.835300  0.974200  0.579390  1.0  0.7117
  C  C236  1  0.858900  0.029000  0.563080  1.0  0.0504
  C  C237  1  0.821900  0.065600  0.552630  1.0  0.0241
  C  C238  1  0.740400  0.071800  0.551820  1.0  0.7436
  C  C239  1  0.739500  0.170100  0.494550  1.0  0.7343
  C  C240  1  0.732900  0.081800  0.493240  1.0  0.0172
  C  C241  1  0.696300  0.007900  0.483140  1.0  0.0512
  C  C242  1  0.637700  0.973900  0.467370  1.0  0.7
  C  C243  1  0.501970  0.307530  0.912720  1.0  0.7118
  C  C244  1  0.525570  0.362330  0.896410  1.0  0.0504
  C  C245  1  0.488570  0.398930  0.885960  1.0  0.0241
  C  C246  1  0.407070  0.405130  0.885150  1.0  0.7436
  C  C247  1  0.406170  0.503430  0.827880  1.0  0.7343
  C  C248  1  0.399570  0.415130  0.826570  1.0  0.0172
  C  C249  1  0.362970  0.341230  0.816470  1.0  0.0512
  C  C250  1  0.304370  0.307230  0.800700  1.0  0.6999
  C  C251  1  0.168630  0.640870  0.246060  1.0  0.7117
  C  C252  1  0.192230  0.695670  0.229750  1.0  0.0502
  C  C253  1  0.155230  0.732270  0.219300  1.0  0.0241
  C  C254  1  0.073730  0.738470  0.218490  1.0  0.7437
  C  C255  1  0.072830  0.836770  0.161220  1.0  0.7343
  C  C256  1  0.066230  0.748470  0.159910  1.0  0.0172
  C  C257  1  0.029630  0.674570  0.149810  1.0  0.0512
  C  C258  1  0.971030  0.640570  0.134040  1.0  0.7
  C  C259  1  0.025800  0.861100  0.579390  1.0  0.7142
  C  C260  1  0.971000  0.829900  0.563080  1.0  0.0512
  C  C261  1  0.934400  0.756300  0.552630  1.0  0.0269
  C  C262  1  0.928200  0.668600  0.551820  1.0  0.7417
  C  C263  1  0.829900  0.569400  0.494550  1.0  0.733
  C  C264  1  0.918200  0.651100  0.493240  1.0  0.017
  C  C265  1  0.992100  0.688400  0.483140  1.0  0.0504
  C  C266  1  0.026100  0.663800  0.467370  1.0  0.6974
  C  C267  1  0.692470  0.194430  0.912720  1.0  0.7143
  C  C268  1  0.637670  0.163230  0.896410  1.0  0.0512
  C  C269  1  0.601070  0.089630  0.885960  1.0  0.0269
  C  C270  1  0.594870  0.001930  0.885150  1.0  0.7416
  C  C271  1  0.496570  0.902730  0.827880  1.0  0.733
  C  C272  1  0.584870  0.984430  0.826570  1.0  0.017
  C  C273  1  0.658770  0.021730  0.816470  1.0  0.0504
  C  C274  1  0.692770  0.997130  0.800700  1.0  0.6974
  C  C275  1  0.359130  0.527770  0.246060  1.0  0.7143
  C  C276  1  0.304330  0.496570  0.229750  1.0  0.0512
  C  C277  1  0.267730  0.422970  0.219300  1.0  0.0269
  C  C278  1  0.261530  0.335270  0.218490  1.0  0.7418
  C  C279  1  0.163230  0.236070  0.161220  1.0  0.733
  C  C280  1  0.251530  0.317770  0.159910  1.0  0.017
  C  C281  1  0.325430  0.355070  0.149810  1.0  0.0504
  C  C282  1  0.359430  0.330470  0.134040  1.0  0.6975
  C  C283  1  0.164700  0.138900  0.920610  1.0  0.714
  C  C284  1  0.141100  0.170100  0.936920  1.0  0.0511
  C  C285  1  0.178100  0.243700  0.947370  1.0  0.0264
  C  C286  1  0.259600  0.331400  0.948180  1.0  0.7423
  C  C287  1  0.260500  0.430600  0.005450  1.0  0.7327
  C  C288  1  0.267100  0.348900  0.006760  1.0  0.0177
  C  C289  1  0.303700  0.311600  0.016860  1.0  0.0517
  C  C290  1  0.362300  0.336200  0.032630  1.0  0.6986
  C  C291  1  0.831370  0.472230  0.253940  1.0  0.714
  C  C292  1  0.807770  0.503430  0.270250  1.0  0.0511
  C  C293  1  0.844770  0.577030  0.280700  1.0  0.0263
  C  C294  1  0.926270  0.664730  0.281510  1.0  0.7424
  C  C295  1  0.927170  0.763930  0.338780  1.0  0.7327
  C  C296  1  0.933770  0.682230  0.340090  1.0  0.0177
  C  C297  1  0.970370  0.644930  0.350190  1.0  0.0517
  C  C298  1  0.028970  0.669530  0.365960  1.0  0.6986
  C  C299  1  0.498030  0.805570  0.587280  1.0  0.7141
  C  C300  1  0.474430  0.836770  0.603590  1.0  0.0511
  C  C301  1  0.511430  0.910370  0.614040  1.0  0.0263
  C  C302  1  0.592930  0.998070  0.614850  1.0  0.7423
  C  C303  1  0.593830  0.097270  0.672120  1.0  0.7327
  C  C304  1  0.600430  0.015570  0.673430  1.0  0.0177
  C  C305  1  0.637030  0.978270  0.683530  1.0  0.0517
  C  C306  1  0.695630  0.002870  0.699300  1.0  0.6985
  C  C307  1  0.974200  0.835300  0.920610  1.0  0.7135
  C  C308  1  0.029000  0.858900  0.936920  1.0  0.0511
  C  C309  1  0.065600  0.821900  0.947370  1.0  0.0253
  C  C310  1  0.071800  0.740400  0.948180  1.0  0.7427
  C  C311  1  0.170100  0.739500  0.005450  1.0  0.7371
  C  C312  1  0.081800  0.732900  0.006760  1.0  0.016
  C  C313  1  0.007900  0.696300  0.016860  1.0  0.0506
  C  C314  1  0.973900  0.637700  0.032630  1.0  0.7005
  C  C315  1  0.640870  0.168630  0.253940  1.0  0.7134
  C  C316  1  0.695670  0.192230  0.270250  1.0  0.0509
  C  C317  1  0.732270  0.155230  0.280700  1.0  0.0253
  C  C318  1  0.738470  0.073730  0.281510  1.0  0.7427
  C  C319  1  0.836770  0.072830  0.338780  1.0  0.7371
  C  C320  1  0.748470  0.066230  0.340090  1.0  0.016
  C  C321  1  0.674570  0.029630  0.350190  1.0  0.0506
  C  C322  1  0.640570  0.971030  0.365960  1.0  0.7005
  C  C323  1  0.307530  0.501970  0.587280  1.0  0.7135
  C  C324  1  0.362330  0.525570  0.603590  1.0  0.0511
  C  C325  1  0.398930  0.488570  0.614040  1.0  0.0253
  C  C326  1  0.405130  0.407070  0.614850  1.0  0.7427
  C  C327  1  0.503430  0.406170  0.672120  1.0  0.7371
  C  C328  1  0.415130  0.399570  0.673430  1.0  0.016
  C  C329  1  0.341230  0.362970  0.683530  1.0  0.0507
  C  C330  1  0.307230  0.304370  0.699300  1.0  0.7004
  C  C331  1  0.861100  0.025800  0.920610  1.0  0.713
  C  C332  1  0.829900  0.971000  0.936920  1.0  0.0509
  C  C333  1  0.756300  0.934400  0.947370  1.0  0.0229
  C  C334  1  0.668600  0.928200  0.948180  1.0  0.7441
  C  C335  1  0.569400  0.829900  0.005450  1.0  0.734
  C  C336  1  0.651100  0.918200  0.006760  1.0  0.0174
  C  C337  1  0.688400  0.992100  0.016860  1.0  0.0515
  C  C338  1  0.663800  0.026100  0.032630  1.0  0.7006
  C  C339  1  0.527770  0.359130  0.253940  1.0  0.713
  C  C340  1  0.496570  0.304330  0.270250  1.0  0.051
  C  C341  1  0.422970  0.267730  0.280700  1.0  0.0229
  C  C342  1  0.335270  0.261530  0.281510  1.0  0.7443
  C  C343  1  0.236070  0.163230  0.338780  1.0  0.734
  C  C344  1  0.317770  0.251530  0.340090  1.0  0.0174
  C  C345  1  0.355070  0.325430  0.350190  1.0  0.0515
  C  C346  1  0.330470  0.359430  0.365960  1.0  0.7006
  C  C347  1  0.194430  0.692470  0.587280  1.0  0.7131
  C  C348  1  0.163230  0.637670  0.603590  1.0  0.0509
  C  C349  1  0.089630  0.601070  0.614040  1.0  0.0229
  C  C350  1  0.001930  0.594870  0.614850  1.0  0.744
  C  C351  1  0.902730  0.496570  0.672120  1.0  0.734
  C  C352  1  0.984430  0.584870  0.673430  1.0  0.0174
  C  C353  1  0.021730  0.658770  0.683530  1.0  0.0515
  C  C354  1  0.997130  0.692770  0.699300  1.0  0.7005
  N  N355  1  0.884100  0.936400  0.443890  1.0  -0.1481
  N  N356  1  0.849400  0.951500  0.457890  1.0  -0.1471
  N  N357  1  0.771700  0.882300  0.459810  1.0  -0.161
  N  N358  1  0.711300  0.776600  0.493660  1.0  -0.2223
  N  N359  1  0.779100  0.766300  0.495520  1.0  -0.094
  N  N360  1  0.766400  0.719100  0.509380  1.0  -0.1806
  N  N361  1  0.550770  0.269730  0.777220  1.0  -0.1492
  N  N362  1  0.516070  0.284830  0.791220  1.0  -0.146
  N  N363  1  0.438370  0.215630  0.793140  1.0  -0.1605
  N  N364  1  0.377970  0.109930  0.826990  1.0  -0.222
  N  N365  1  0.445770  0.099630  0.828850  1.0  -0.094
  N  N366  1  0.433070  0.052430  0.842710  1.0  -0.1806
  N  N367  1  0.217430  0.603070  0.110560  1.0  -0.1479
  N  N368  1  0.182730  0.618170  0.124560  1.0  -0.146
  N  N369  1  0.105030  0.548970  0.126480  1.0  -0.161
  N  N370  1  0.044630  0.443270  0.160330  1.0  -0.2223
  N  N371  1  0.112430  0.432970  0.162190  1.0  -0.094
  N  N372  1  0.099730  0.385770  0.176050  1.0  -0.1805
  N  N373  1  0.063600  0.947700  0.443890  1.0  -0.1457
  N  N374  1  0.048500  0.897900  0.457890  1.0  -0.1483
  N  N375  1  0.117700  0.889400  0.459810  1.0  -0.1618
  N  N376  1  0.223400  0.934700  0.493660  1.0  -0.2241
  N  N377  1  0.233700  0.012800  0.495520  1.0  -0.0936
  N  N378  1  0.280900  0.047300  0.509380  1.0  -0.1819
  N  N379  1  0.730270  0.281030  0.777220  1.0  -0.1454
  N  N380  1  0.715170  0.231230  0.791220  1.0  -0.1473
  N  N381  1  0.784370  0.222730  0.793140  1.0  -0.1613
  N  N382  1  0.890070  0.268030  0.826990  1.0  -0.2238
  N  N383  1  0.900370  0.346130  0.828850  1.0  -0.0936
  N  N384  1  0.947570  0.380630  0.842710  1.0  -0.1819
  N  N385  1  0.396930  0.614370  0.110560  1.0  -0.1457
  N  N386  1  0.381830  0.564570  0.124560  1.0  -0.1474
  N  N387  1  0.451030  0.556070  0.126480  1.0  -0.1617
  N  N388  1  0.556730  0.601370  0.160330  1.0  -0.2241
  N  N389  1  0.567030  0.679470  0.162190  1.0  -0.0936
  N  N390  1  0.614230  0.713970  0.176050  1.0  -0.1818
  N  N391  1  0.052300  0.115900  0.443890  1.0  -0.1471
  N  N392  1  0.102100  0.150600  0.457890  1.0  -0.1479
  N  N393  1  0.110600  0.228300  0.459810  1.0  -0.159
  N  N394  1  0.065300  0.288700  0.493660  1.0  -0.2237
  N  N395  1  0.987200  0.220900  0.495520  1.0  -0.0941
  N  N396  1  0.952700  0.233600  0.509380  1.0  -0.181
  N  N397  1  0.718970  0.449230  0.777220  1.0  -0.1482
  N  N398  1  0.768770  0.483930  0.791220  1.0  -0.1467
  N  N399  1  0.777270  0.561630  0.793140  1.0  -0.1585
  N  N400  1  0.731970  0.622030  0.826990  1.0  -0.2235
  N  N401  1  0.653870  0.554230  0.828850  1.0  -0.0941
  N  N402  1  0.619370  0.566930  0.842710  1.0  -0.181
  N  N403  1  0.385630  0.782570  0.110560  1.0  -0.147
  N  N404  1  0.435430  0.817270  0.124560  1.0  -0.1469
  N  N405  1  0.443930  0.894970  0.126480  1.0  -0.159
  N  N406  1  0.398630  0.955370  0.160330  1.0  -0.2237
  N  N407  1  0.320530  0.887570  0.162190  1.0  -0.0941
  N  N408  1  0.286030  0.900270  0.176050  1.0  -0.181
  N  N409  1  0.936400  0.884100  0.056110  1.0  -0.1459
  N  N410  1  0.951500  0.849400  0.042110  1.0  -0.1468
  N  N411  1  0.882300  0.771700  0.040190  1.0  -0.1603
  N  N412  1  0.776600  0.711300  0.006340  1.0  -0.2245
  N  N413  1  0.766300  0.779100  0.004480  1.0  -0.0958
  N  N414  1  0.719100  0.766400  0.990620  1.0  -0.182
  N  N415  1  0.603070  0.217430  0.389440  1.0  -0.1457
  N  N416  1  0.618170  0.182730  0.375440  1.0  -0.1456
  N  N417  1  0.548970  0.105030  0.373520  1.0  -0.1602
  N  N418  1  0.443270  0.044630  0.339670  1.0  -0.2245
  N  N419  1  0.432970  0.112430  0.337810  1.0  -0.0958
  N  N420  1  0.385770  0.099730  0.323950  1.0  -0.1819
  N  N421  1  0.269730  0.550770  0.722780  1.0  -0.147
  N  N422  1  0.284830  0.516070  0.708780  1.0  -0.1456
  N  N423  1  0.215630  0.438370  0.706860  1.0  -0.1597
  N  N424  1  0.109930  0.377970  0.673010  1.0  -0.2242
  N  N425  1  0.099630  0.445770  0.671150  1.0  -0.0959
  N  N426  1  0.052430  0.433070  0.657290  1.0  -0.182
  N  N427  1  0.947700  0.063600  0.056110  1.0  -0.1453
  N  N428  1  0.897900  0.048500  0.042110  1.0  -0.1466
  N  N429  1  0.889400  0.117700  0.040190  1.0  -0.1603
  N  N430  1  0.934700  0.223400  0.006340  1.0  -0.2221
  N  N431  1  0.012800  0.233700  0.004480  1.0  -0.0958
  N  N432  1  0.047300  0.280900  0.990620  1.0  -0.1809
  N  N433  1  0.614370  0.396930  0.389440  1.0  -0.1451
  N  N434  1  0.564570  0.381830  0.375440  1.0  -0.1457
  N  N435  1  0.556070  0.451030  0.373520  1.0  -0.1603
  N  N436  1  0.601370  0.556730  0.339670  1.0  -0.2221
  N  N437  1  0.679470  0.567030  0.337810  1.0  -0.0958
  N  N438  1  0.713970  0.614230  0.323950  1.0  -0.1808
  N  N439  1  0.281030  0.730270  0.722780  1.0  -0.1449
  N  N440  1  0.231230  0.715170  0.708780  1.0  -0.1455
  N  N441  1  0.222730  0.784370  0.706860  1.0  -0.1598
  N  N442  1  0.268030  0.890070  0.673010  1.0  -0.2219
  N  N443  1  0.346130  0.900370  0.671150  1.0  -0.0958
  N  N444  1  0.380630  0.947570  0.657290  1.0  -0.1809
  N  N445  1  0.115900  0.052300  0.056110  1.0  -0.1454
  N  N446  1  0.150600  0.102100  0.042110  1.0  -0.1457
  N  N447  1  0.228300  0.110600  0.040190  1.0  -0.1622
  N  N448  1  0.288700  0.065300  0.006340  1.0  -0.2243
  N  N449  1  0.220900  0.987200  0.004480  1.0  -0.0974
  N  N450  1  0.233600  0.952700  0.990620  1.0  -0.182
  N  N451  1  0.782570  0.385630  0.389440  1.0  -0.1453
  N  N452  1  0.817270  0.435430  0.375440  1.0  -0.1447
  N  N453  1  0.894970  0.443930  0.373520  1.0  -0.1622
  N  N454  1  0.955370  0.398630  0.339670  1.0  -0.2243
  N  N455  1  0.887570  0.320530  0.337810  1.0  -0.0974
  N  N456  1  0.900270  0.286030  0.323950  1.0  -0.182
  N  N457  1  0.449230  0.718970  0.722780  1.0  -0.1465
  N  N458  1  0.483930  0.768770  0.708780  1.0  -0.1446
  N  N459  1  0.561630  0.777270  0.706860  1.0  -0.1617
  N  N460  1  0.622030  0.731970  0.673010  1.0  -0.224
  N  N461  1  0.554230  0.653870  0.671150  1.0  -0.0975
  N  N462  1  0.566930  0.619370  0.657290  1.0  -0.182
  N  N463  1  0.115900  0.063600  0.556110  1.0  -0.1464
  N  N464  1  0.150600  0.048500  0.542110  1.0  -0.1461
  N  N465  1  0.228300  0.117700  0.540190  1.0  -0.1638
  N  N466  1  0.288700  0.223400  0.506340  1.0  -0.2229
  N  N467  1  0.220900  0.233700  0.504480  1.0  -0.0969
  N  N468  1  0.233600  0.280900  0.490620  1.0  -0.1824
  N  N469  1  0.782570  0.396930  0.889440  1.0  -0.1462
  N  N470  1  0.817270  0.381830  0.875440  1.0  -0.1451
  N  N471  1  0.894970  0.451030  0.873520  1.0  -0.1638
  N  N472  1  0.955370  0.556730  0.839670  1.0  -0.2229
  N  N473  1  0.887570  0.567030  0.837810  1.0  -0.0969
  N  N474  1  0.900270  0.614230  0.823950  1.0  -0.1824
  N  N475  1  0.449230  0.730270  0.222780  1.0  -0.1475
  N  N476  1  0.483930  0.715170  0.208780  1.0  -0.1451
  N  N477  1  0.561630  0.784370  0.206860  1.0  -0.1632
  N  N478  1  0.622030  0.890070  0.173010  1.0  -0.2226
  N  N479  1  0.554230  0.900370  0.171150  1.0  -0.0969
  N  N480  1  0.566930  0.947570  0.157290  1.0  -0.1824
  N  N481  1  0.936400  0.052300  0.556110  1.0  -0.1463
  N  N482  1  0.951500  0.102100  0.542110  1.0  -0.1467
  N  N483  1  0.882300  0.110600  0.540190  1.0  -0.1628
  N  N484  1  0.776600  0.065300  0.506340  1.0  -0.2232
  N  N485  1  0.766300  0.987200  0.504480  1.0  -0.0956
  N  N486  1  0.719100  0.952700  0.490620  1.0  -0.1838
  N  N487  1  0.603070  0.385630  0.889440  1.0  -0.1461
  N  N488  1  0.618170  0.435430  0.875440  1.0  -0.1455
  N  N489  1  0.548970  0.443930  0.873520  1.0  -0.1628
  N  N490  1  0.443270  0.398630  0.839670  1.0  -0.2232
  N  N491  1  0.432970  0.320530  0.837810  1.0  -0.0955
  N  N492  1  0.385770  0.286030  0.823950  1.0  -0.1838
  N  N493  1  0.269730  0.718970  0.222780  1.0  -0.1459
  N  N494  1  0.284830  0.768770  0.208780  1.0  -0.1455
  N  N495  1  0.215630  0.777270  0.206860  1.0  -0.1623
  N  N496  1  0.109930  0.731970  0.173010  1.0  -0.2229
  N  N497  1  0.099630  0.653870  0.171150  1.0  -0.0956
  N  N498  1  0.052430  0.619370  0.157290  1.0  -0.1838
  N  N499  1  0.947700  0.884100  0.556110  1.0  -0.1449
  N  N500  1  0.897900  0.849400  0.542110  1.0  -0.1451
  N  N501  1  0.889400  0.771700  0.540190  1.0  -0.1629
  N  N502  1  0.934700  0.711300  0.506340  1.0  -0.224
  N  N503  1  0.012800  0.779100  0.504480  1.0  -0.095
  N  N504  1  0.047300  0.766400  0.490620  1.0  -0.1863
  N  N505  1  0.614370  0.217430  0.889440  1.0  -0.1448
  N  N506  1  0.564570  0.182730  0.875440  1.0  -0.144
  N  N507  1  0.556070  0.105030  0.873520  1.0  -0.1629
  N  N508  1  0.601370  0.044630  0.839670  1.0  -0.224
  N  N509  1  0.679470  0.112430  0.837810  1.0  -0.095
  N  N510  1  0.713970  0.099730  0.823950  1.0  -0.1863
  N  N511  1  0.281030  0.550770  0.222780  1.0  -0.146
  N  N512  1  0.231230  0.516070  0.208780  1.0  -0.144
  N  N513  1  0.222730  0.438370  0.206860  1.0  -0.1623
  N  N514  1  0.268030  0.377970  0.173010  1.0  -0.2237
  N  N515  1  0.346130  0.445770  0.171150  1.0  -0.0949
  N  N516  1  0.380630  0.433070  0.157290  1.0  -0.1863
  N  N517  1  0.063600  0.115900  0.943890  1.0  -0.1472
  N  N518  1  0.048500  0.150600  0.957890  1.0  -0.1486
  N  N519  1  0.117700  0.228300  0.959810  1.0  -0.1619
  N  N520  1  0.223400  0.288700  0.993660  1.0  -0.2234
  N  N521  1  0.233700  0.220900  0.995520  1.0  -0.0933
  N  N522  1  0.280900  0.233600  0.009380  1.0  -0.1855
  N  N523  1  0.730270  0.449230  0.277220  1.0  -0.1484
  N  N524  1  0.715170  0.483930  0.291220  1.0  -0.1475
  N  N525  1  0.784370  0.561630  0.293140  1.0  -0.1613
  N  N526  1  0.890070  0.622030  0.326990  1.0  -0.2231
  N  N527  1  0.900370  0.554230  0.328850  1.0  -0.0933
  N  N528  1  0.947570  0.566930  0.342710  1.0  -0.1855
  N  N529  1  0.396930  0.782570  0.610560  1.0  -0.1471
  N  N530  1  0.381830  0.817270  0.624560  1.0  -0.1475
  N  N531  1  0.451030  0.894970  0.626480  1.0  -0.1618
  N  N532  1  0.556730  0.955370  0.660330  1.0  -0.2234
  N  N533  1  0.567030  0.887570  0.662190  1.0  -0.0934
  N  N534  1  0.614230  0.900270  0.676050  1.0  -0.1854
  N  N535  1  0.052300  0.936400  0.943890  1.0  -0.1472
  N  N536  1  0.102100  0.951500  0.957890  1.0  -0.146
  N  N537  1  0.110600  0.882300  0.959810  1.0  -0.1648
  N  N538  1  0.065300  0.776600  0.993660  1.0  -0.2228
  N  N539  1  0.987200  0.766300  0.995520  1.0  -0.0931
  N  N540  1  0.952700  0.719100  0.009380  1.0  -0.1819
  N  N541  1  0.718970  0.269730  0.277220  1.0  -0.1468
  N  N542  1  0.768770  0.284830  0.291220  1.0  -0.1449
  N  N543  1  0.777270  0.215630  0.293140  1.0  -0.1643
  N  N544  1  0.731970  0.109930  0.326990  1.0  -0.2225
  N  N545  1  0.653870  0.099630  0.328850  1.0  -0.0931
  N  N546  1  0.619370  0.052430  0.342710  1.0  -0.1819
  N  N547  1  0.385630  0.603070  0.610560  1.0  -0.1471
  N  N548  1  0.435430  0.618170  0.624560  1.0  -0.1449
  N  N549  1  0.443930  0.548970  0.626480  1.0  -0.1648
  N  N550  1  0.398630  0.443270  0.660330  1.0  -0.2228
  N  N551  1  0.320530  0.432970  0.662190  1.0  -0.0931
  N  N552  1  0.286030  0.385770  0.676050  1.0  -0.1819
  N  N553  1  0.884100  0.947700  0.943890  1.0  -0.1462
  N  N554  1  0.849400  0.897900  0.957890  1.0  -0.1476
  N  N555  1  0.771700  0.889400  0.959810  1.0  -0.1624
  N  N556  1  0.711300  0.934700  0.993660  1.0  -0.2235
  N  N557  1  0.779100  0.012800  0.995520  1.0  -0.0935
  N  N558  1  0.766400  0.047300  0.009380  1.0  -0.1841
  N  N559  1  0.550770  0.281030  0.277220  1.0  -0.1473
  N  N560  1  0.516070  0.231230  0.291220  1.0  -0.1464
  N  N561  1  0.438370  0.222730  0.293140  1.0  -0.162
  N  N562  1  0.377970  0.268030  0.326990  1.0  -0.2232
  N  N563  1  0.445770  0.346130  0.328850  1.0  -0.0935
  N  N564  1  0.433070  0.380630  0.342710  1.0  -0.1841
  N  N565  1  0.217430  0.614370  0.610560  1.0  -0.1461
  N  N566  1  0.182730  0.564570  0.624560  1.0  -0.1464
  N  N567  1  0.105030  0.556070  0.626480  1.0  -0.1624
  N  N568  1  0.044630  0.601370  0.660330  1.0  -0.2235
  N  N569  1  0.112430  0.679470  0.662190  1.0  -0.0935
  N  N570  1  0.099730  0.713970  0.676050  1.0  -0.1841
  O  O571  1  0.937500  0.893000  0.416120  1.0  -0.5133
  O  O572  1  0.814400  0.766100  0.413090  1.0  -0.545
  O  O573  1  0.647000  0.682200  0.436920  1.0  -0.5417
  O  O574  1  0.620700  0.736600  0.460830  1.0  -0.5181
  O  O575  1  0.566200  0.781700  0.492500  1.0  -0.4963
  O  O576  1  0.512600  0.703800  0.516420  1.0  -0.4501
  O  O577  1  0.593800  0.613300  0.539970  1.0  -0.38
  O  O578  1  0.721500  0.618600  0.537100  1.0  -0.4949
  O  O579  1  0.604170  0.226330  0.749450  1.0  -0.5133
  O  O580  1  0.481070  0.099430  0.746420  1.0  -0.545
  O  O581  1  0.313670  0.015530  0.770250  1.0  -0.5413
  O  O582  1  0.287370  0.069930  0.794160  1.0  -0.5182
  O  O583  1  0.232870  0.115030  0.825830  1.0  -0.4961
  O  O584  1  0.179270  0.037130  0.849750  1.0  -0.4501
  O  O585  1  0.260470  0.946630  0.873300  1.0  -0.38
  O  O586  1  0.388170  0.951930  0.870430  1.0  -0.4949
  O  O587  1  0.270830  0.559670  0.082790  1.0  -0.5134
  O  O588  1  0.147730  0.432770  0.079760  1.0  -0.5449
  O  O589  1  0.980330  0.348870  0.103590  1.0  -0.5417
  O  O590  1  0.954030  0.403270  0.127500  1.0  -0.5181
  O  O591  1  0.899530  0.448370  0.159170  1.0  -0.4963
  O  O592  1  0.845930  0.370470  0.183090  1.0  -0.4331
  O  O593  1  0.927130  0.279970  0.206640  1.0  -0.38
  O  O594  1  0.054830  0.285270  0.203770  1.0  -0.4948
  O  O595  1  0.107000  0.044500  0.416120  1.0  -0.5048
  O  O596  1  0.233900  0.048300  0.413090  1.0  -0.5435
  O  O597  1  0.317800  0.964800  0.436920  1.0  -0.5399
  O  O598  1  0.263400  0.884100  0.460830  1.0  -0.5142
  O  O599  1  0.218300  0.784500  0.492500  1.0  -0.4974
  O  O600  1  0.296200  0.808800  0.516420  1.0  -0.4325
  O  O601  1  0.386700  0.980500  0.539970  1.0  -0.3816
  O  O602  1  0.381400  0.102900  0.537100  1.0  -0.49
  O  O603  1  0.773670  0.377830  0.749450  1.0  -0.5137
  O  O604  1  0.900570  0.381630  0.746420  1.0  -0.5435
  O  O605  1  0.984470  0.298130  0.770250  1.0  -0.5403
  O  O606  1  0.930070  0.217430  0.794160  1.0  -0.5143
  O  O607  1  0.884970  0.117830  0.825830  1.0  -0.4971
  O  O608  1  0.962870  0.142130  0.849750  1.0  -0.4325
  O  O609  1  0.053370  0.313830  0.873300  1.0  -0.3816
  O  O610  1  0.048070  0.436230  0.870430  1.0  -0.49
  O  O611  1  0.440330  0.711170  0.082790  1.0  -0.5048
  O  O612  1  0.567230  0.714970  0.079760  1.0  -0.5436
  O  O613  1  0.651130  0.631470  0.103590  1.0  -0.5399
  O  O614  1  0.596730  0.550770  0.127500  1.0  -0.5142
  O  O615  1  0.551630  0.451170  0.159170  1.0  -0.4974
  O  O616  1  0.629530  0.475470  0.183090  1.0  -0.4549
  O  O617  1  0.720030  0.647170  0.206640  1.0  -0.3816
  O  O618  1  0.714730  0.769570  0.203770  1.0  -0.49
  O  O619  1  0.955500  0.062500  0.416120  1.0  -0.5143
  O  O620  1  0.951700  0.185600  0.413090  1.0  -0.5437
  O  O621  1  0.035200  0.353000  0.436920  1.0  -0.5405
  O  O622  1  0.115900  0.379300  0.460830  1.0  -0.518
  O  O623  1  0.215500  0.433800  0.492500  1.0  -0.4986
  O  O624  1  0.191200  0.487400  0.516420  1.0  -0.4489
  O  O625  1  0.019500  0.406200  0.539970  1.0  -0.3776
  O  O626  1  0.897100  0.278500  0.537100  1.0  -0.4902
  O  O627  1  0.622170  0.395830  0.749450  1.0  -0.509
  O  O628  1  0.618370  0.518930  0.746420  1.0  -0.5437
  O  O629  1  0.701870  0.686330  0.770250  1.0  -0.5406
  O  O630  1  0.782570  0.712630  0.794160  1.0  -0.5181
  O  O631  1  0.882170  0.767130  0.825830  1.0  -0.4984
  O  O632  1  0.857870  0.820730  0.849750  1.0  -0.4489
  O  O633  1  0.686170  0.739530  0.873300  1.0  -0.3776
  O  O634  1  0.563770  0.611830  0.870430  1.0  -0.4902
  O  O635  1  0.288830  0.729170  0.082790  1.0  -0.5144
  O  O636  1  0.285030  0.852270  0.079760  1.0  -0.5436
  O  O637  1  0.368530  0.019670  0.103590  1.0  -0.5405
  O  O638  1  0.449230  0.045970  0.127500  1.0  -0.518
  O  O639  1  0.548830  0.100470  0.159170  1.0  -0.4986
  O  O640  1  0.524530  0.154070  0.183090  1.0  -0.4489
  O  O641  1  0.352830  0.072870  0.206640  1.0  -0.3776
  O  O642  1  0.230430  0.945170  0.203770  1.0  -0.4901
  O  O643  1  0.893000  0.937500  0.083880  1.0  -0.5188
  O  O644  1  0.766100  0.814400  0.086910  1.0  -0.5437
  O  O645  1  0.682200  0.647000  0.063080  1.0  -0.5422
  O  O646  1  0.736600  0.620700  0.039170  1.0  -0.5202
  O  O647  1  0.781700  0.566200  0.007500  1.0  -0.4991
  O  O648  1  0.703800  0.512600  0.983580  1.0  -0.451
  O  O649  1  0.613300  0.593800  0.960030  1.0  -0.3797
  O  O650  1  0.618600  0.721500  0.962900  1.0  -0.4883
  O  O651  1  0.559670  0.270830  0.417210  1.0  -0.5189
  O  O652  1  0.432770  0.147730  0.420240  1.0  -0.5437
  O  O653  1  0.348870  0.980330  0.396410  1.0  -0.5423
  O  O654  1  0.403270  0.954030  0.372500  1.0  -0.5202
  O  O655  1  0.448370  0.899530  0.340830  1.0  -0.4991
  O  O656  1  0.370470  0.845930  0.316910  1.0  -0.4339
  O  O657  1  0.279970  0.927130  0.293360  1.0  -0.3797
  O  O658  1  0.285270  0.054830  0.296230  1.0  -0.4882
  O  O659  1  0.226330  0.604170  0.750550  1.0  -0.5188
  O  O660  1  0.099430  0.481070  0.753580  1.0  -0.5438
  O  O661  1  0.015530  0.313670  0.729750  1.0  -0.5413
  O  O662  1  0.069930  0.287370  0.705840  1.0  -0.5203
  O  O663  1  0.115030  0.232870  0.674170  1.0  -0.4989
  O  O664  1  0.037130  0.179270  0.650250  1.0  -0.451
  O  O665  1  0.946630  0.260470  0.626700  1.0  -0.3797
  O  O666  1  0.951930  0.388170  0.629570  1.0  -0.4883
  O  O667  1  0.044500  0.107000  0.083880  1.0  -0.5076
  O  O668  1  0.048300  0.233900  0.086910  1.0  -0.545
  O  O669  1  0.964800  0.317800  0.063080  1.0  -0.5407
  O  O670  1  0.884100  0.263400  0.039170  1.0  -0.5189
  O  O671  1  0.784500  0.218300  0.007500  1.0  -0.4973
  O  O672  1  0.808800  0.296200  0.983580  1.0  -0.4313
  O  O673  1  0.980500  0.386700  0.960030  1.0  -0.382
  O  O674  1  0.102900  0.381400  0.962900  1.0  -0.4936
  O  O675  1  0.711170  0.440330  0.417210  1.0  -0.5077
  O  O676  1  0.714970  0.567230  0.420240  1.0  -0.5449
  O  O677  1  0.631470  0.651130  0.396410  1.0  -0.5407
  O  O678  1  0.550770  0.596730  0.372500  1.0  -0.5189
  O  O679  1  0.451170  0.551630  0.340830  1.0  -0.4973
  O  O680  1  0.475470  0.629530  0.316910  1.0  -0.4532
  O  O681  1  0.647170  0.720030  0.293360  1.0  -0.382
  O  O682  1  0.769570  0.714730  0.296230  1.0  -0.4934
  O  O683  1  0.377830  0.773670  0.750550  1.0  -0.5176
  O  O684  1  0.381630  0.900570  0.753580  1.0  -0.545
  O  O685  1  0.298130  0.984470  0.729750  1.0  -0.542
  O  O686  1  0.217430  0.930070  0.705840  1.0  -0.5191
  O  O687  1  0.117830  0.884970  0.674170  1.0  -0.4971
  O  O688  1  0.142130  0.962870  0.650250  1.0  -0.4313
  O  O689  1  0.313830  0.053370  0.626700  1.0  -0.382
  O  O690  1  0.436230  0.048070  0.629570  1.0  -0.4936
  O  O691  1  0.062500  0.955500  0.083880  1.0  -0.5176
  O  O692  1  0.185600  0.951700  0.086910  1.0  -0.5429
  O  O693  1  0.353000  0.035200  0.063080  1.0  -0.5404
  O  O694  1  0.379300  0.115900  0.039170  1.0  -0.5153
  O  O695  1  0.433800  0.215500  0.007500  1.0  -0.4971
  O  O696  1  0.487400  0.191200  0.983580  1.0  -0.4527
  O  O697  1  0.406200  0.019500  0.960030  1.0  -0.38
  O  O698  1  0.278500  0.897100  0.962900  1.0  -0.4886
  O  O699  1  0.729170  0.288830  0.417210  1.0  -0.5177
  O  O700  1  0.852270  0.285030  0.420240  1.0  -0.5429
  O  O701  1  0.019670  0.368530  0.396410  1.0  -0.5405
  O  O702  1  0.045970  0.449230  0.372500  1.0  -0.5153
  O  O703  1  0.100470  0.548830  0.340830  1.0  -0.4971
  O  O704  1  0.154070  0.524530  0.316910  1.0  -0.4527
  O  O705  1  0.072870  0.352830  0.293360  1.0  -0.38
  O  O706  1  0.945170  0.230430  0.296230  1.0  -0.4886
  O  O707  1  0.395830  0.622170  0.750550  1.0  -0.5098
  O  O708  1  0.518930  0.618370  0.753580  1.0  -0.543
  O  O709  1  0.686330  0.701870  0.729750  1.0  -0.5407
  O  O710  1  0.712630  0.782570  0.705840  1.0  -0.5154
  O  O711  1  0.767130  0.882170  0.674170  1.0  -0.4968
  O  O712  1  0.820730  0.857870  0.650250  1.0  -0.4527
  O  O713  1  0.739530  0.686170  0.626700  1.0  -0.38
  O  O714  1  0.611830  0.563770  0.629570  1.0  -0.4886
  O  O715  1  0.062500  0.107000  0.583880  1.0  -0.5188
  O  O716  1  0.185600  0.233900  0.586910  1.0  -0.5455
  O  O717  1  0.353000  0.317800  0.563080  1.0  -0.5405
  O  O718  1  0.379300  0.263400  0.539170  1.0  -0.5167
  O  O719  1  0.433800  0.218300  0.507500  1.0  -0.4959
  O  O720  1  0.487400  0.296200  0.483580  1.0  -0.4537
  O  O721  1  0.406200  0.386700  0.460030  1.0  -0.3801
  O  O722  1  0.278500  0.381400  0.462900  1.0  -0.4913
  O  O723  1  0.729170  0.440330  0.917210  1.0  -0.5189
  O  O724  1  0.852270  0.567230  0.920240  1.0  -0.5454
  O  O725  1  0.019670  0.651130  0.896410  1.0  -0.5405
  O  O726  1  0.045970  0.596730  0.872500  1.0  -0.5167
  O  O727  1  0.100470  0.551630  0.840830  1.0  -0.4959
  O  O728  1  0.154070  0.629530  0.816910  1.0  -0.4372
  O  O729  1  0.072870  0.720030  0.793360  1.0  -0.3801
  O  O730  1  0.945170  0.714730  0.796230  1.0  -0.4912
  O  O731  1  0.395830  0.773670  0.250550  1.0  -0.5188
  O  O732  1  0.518930  0.900570  0.253580  1.0  -0.5455
  O  O733  1  0.686330  0.984470  0.229750  1.0  -0.5402
  O  O734  1  0.712630  0.930070  0.205840  1.0  -0.5168
  O  O735  1  0.767130  0.884970  0.174170  1.0  -0.4957
  O  O736  1  0.820730  0.962870  0.150250  1.0  -0.4537
  O  O737  1  0.739530  0.053370  0.126700  1.0  -0.3801
  O  O738  1  0.611830  0.048070  0.129570  1.0  -0.4913
  O  O739  1  0.893000  0.955500  0.583880  1.0  -0.507
  O  O740  1  0.766100  0.951700  0.586910  1.0  -0.5435
  O  O741  1  0.682200  0.035200  0.563080  1.0  -0.5402
  O  O742  1  0.736600  0.115900  0.539170  1.0  -0.5157
  O  O743  1  0.781700  0.215500  0.507500  1.0  -0.4997
  O  O744  1  0.703800  0.191200  0.483580  1.0  -0.4308
  O  O745  1  0.613300  0.019500  0.460030  1.0  -0.382
  O  O746  1  0.618600  0.897100  0.462900  1.0  -0.4881
  O  O747  1  0.559670  0.288830  0.917210  1.0  -0.507
  O  O748  1  0.432770  0.285030  0.920240  1.0  -0.5435
  O  O749  1  0.348870  0.368530  0.896410  1.0  -0.5402
  O  O750  1  0.403270  0.449230  0.872500  1.0  -0.5157
  O  O751  1  0.448370  0.548830  0.840830  1.0  -0.4997
  O  O752  1  0.370470  0.524530  0.816910  1.0  -0.4527
  O  O753  1  0.279970  0.352830  0.793360  1.0  -0.382
  O  O754  1  0.285270  0.230430  0.796230  1.0  -0.4881
  O  O755  1  0.226330  0.622170  0.250550  1.0  -0.5168
  O  O756  1  0.099430  0.618370  0.253580  1.0  -0.5436
  O  O757  1  0.015530  0.701870  0.229750  1.0  -0.5408
  O  O758  1  0.069930  0.782570  0.205840  1.0  -0.5158
  O  O759  1  0.115030  0.882170  0.174170  1.0  -0.4994
  O  O760  1  0.037130  0.857870  0.150250  1.0  -0.4308
  O  O761  1  0.946630  0.686170  0.126700  1.0  -0.382
  O  O762  1  0.951930  0.563770  0.129570  1.0  -0.4881
  O  O763  1  0.044500  0.937500  0.583880  1.0  -0.5164
  O  O764  1  0.048300  0.814400  0.586910  1.0  -0.5438
  O  O765  1  0.964800  0.647000  0.563080  1.0  -0.5413
  O  O766  1  0.884100  0.620700  0.539170  1.0  -0.5177
  O  O767  1  0.784500  0.566200  0.507500  1.0  -0.4996
  O  O768  1  0.808800  0.512600  0.483580  1.0  -0.4512
  O  O769  1  0.980500  0.593800  0.460030  1.0  -0.3798
  O  O770  1  0.102900  0.721500  0.462900  1.0  -0.4872
  O  O771  1  0.711170  0.270830  0.917210  1.0  -0.5165
  O  O772  1  0.714970  0.147730  0.920240  1.0  -0.5437
  O  O773  1  0.631470  0.980330  0.896410  1.0  -0.5413
  O  O774  1  0.550770  0.954030  0.872500  1.0  -0.5177
  O  O775  1  0.451170  0.899530  0.840830  1.0  -0.4996
  O  O776  1  0.475470  0.845930  0.816910  1.0  -0.4512
  O  O777  1  0.647170  0.927130  0.793360  1.0  -0.3798
  O  O778  1  0.769570  0.054830  0.796230  1.0  -0.4871
  O  O779  1  0.377830  0.604170  0.250550  1.0  -0.5082
  O  O780  1  0.381630  0.481070  0.253580  1.0  -0.5438
  O  O781  1  0.298130  0.313670  0.229750  1.0  -0.5414
  O  O782  1  0.217430  0.287370  0.205840  1.0  -0.5178
  O  O783  1  0.117830  0.232870  0.174170  1.0  -0.4994
  O  O784  1  0.142130  0.179270  0.150250  1.0  -0.4512
  O  O785  1  0.313830  0.260470  0.126700  1.0  -0.3798
  O  O786  1  0.436230  0.388170  0.129570  1.0  -0.4872
  O  O787  1  0.107000  0.062500  0.916120  1.0  -0.5137
  O  O788  1  0.233900  0.185600  0.913090  1.0  -0.544
  O  O789  1  0.317800  0.353000  0.936920  1.0  -0.5404
  O  O790  1  0.263400  0.379300  0.960830  1.0  -0.5159
  O  O791  1  0.218300  0.433800  0.992500  1.0  -0.4983
  O  O792  1  0.296200  0.487400  0.016420  1.0  -0.4486
  O  O793  1  0.386700  0.406200  0.039970  1.0  -0.3776
  O  O794  1  0.381400  0.278500  0.037100  1.0  -0.4891
  O  O795  1  0.773670  0.395830  0.249450  1.0  -0.5137
  O  O796  1  0.900570  0.518930  0.246420  1.0  -0.544
  O  O797  1  0.984470  0.686330  0.270250  1.0  -0.5403
  O  O798  1  0.930070  0.712630  0.294160  1.0  -0.5161
  O  O799  1  0.884970  0.767130  0.325830  1.0  -0.4981
  O  O800  1  0.962870  0.820730  0.349750  1.0  -0.4486
  O  O801  1  0.053370  0.739530  0.373300  1.0  -0.3776
  O  O802  1  0.048070  0.611830  0.370430  1.0  -0.4891
  O  O803  1  0.440330  0.729170  0.582790  1.0  -0.5138
  O  O804  1  0.567230  0.852270  0.579760  1.0  -0.5439
  O  O805  1  0.651130  0.019670  0.603590  1.0  -0.5404
  O  O806  1  0.596730  0.045970  0.627500  1.0  -0.5159
  O  O807  1  0.551630  0.100470  0.659170  1.0  -0.4983
  O  O808  1  0.629530  0.154070  0.683090  1.0  -0.4313
  O  O809  1  0.720030  0.072870  0.706640  1.0  -0.3776
  O  O810  1  0.714730  0.945170  0.703770  1.0  -0.4891
  O  O811  1  0.955500  0.893000  0.916120  1.0  -0.5052
  O  O812  1  0.951700  0.766100  0.913090  1.0  -0.5446
  O  O813  1  0.035200  0.682200  0.936920  1.0  -0.5411
  O  O814  1  0.115900  0.736600  0.960830  1.0  -0.5148
  O  O815  1  0.215500  0.781700  0.992500  1.0  -0.4957
  O  O816  1  0.191200  0.703800  0.016420  1.0  -0.4336
  O  O817  1  0.019500  0.613300  0.039970  1.0  -0.3796
  O  O818  1  0.897100  0.618600  0.037100  1.0  -0.493
  O  O819  1  0.622170  0.226330  0.249450  1.0  -0.5134
  O  O820  1  0.618370  0.099430  0.246420  1.0  -0.5447
  O  O821  1  0.701870  0.015530  0.270250  1.0  -0.5421
  O  O822  1  0.782570  0.069930  0.294160  1.0  -0.5151
  O  O823  1  0.882170  0.115030  0.325830  1.0  -0.4954
  O  O824  1  0.857870  0.037130  0.349750  1.0  -0.4336
  O  O825  1  0.686170  0.946630  0.373300  1.0  -0.3796
  O  O826  1  0.563770  0.951930  0.370430  1.0  -0.493
  O  O827  1  0.288830  0.559670  0.582790  1.0  -0.5052
  O  O828  1  0.285030  0.432770  0.579760  1.0  -0.5446
  O  O829  1  0.368530  0.348870  0.603590  1.0  -0.5411
  O  O830  1  0.449230  0.403270  0.627500  1.0  -0.5148
  O  O831  1  0.548830  0.448370  0.659170  1.0  -0.4957
  O  O832  1  0.524530  0.370470  0.683090  1.0  -0.4559
  O  O833  1  0.352830  0.279970  0.706640  1.0  -0.3796
  O  O834  1  0.230430  0.285270  0.703770  1.0  -0.493
  O  O835  1  0.937500  0.044500  0.916120  1.0  -0.5146
  O  O836  1  0.814400  0.048300  0.913090  1.0  -0.5437
  O  O837  1  0.647000  0.964800  0.936920  1.0  -0.54
  O  O838  1  0.620700  0.884100  0.960830  1.0  -0.5153
  O  O839  1  0.566200  0.784500  0.992500  1.0  -0.4992
  O  O840  1  0.512600  0.808800  0.016420  1.0  -0.4495
  O  O841  1  0.593800  0.980500  0.039970  1.0  -0.3801
  O  O842  1  0.721500  0.102900  0.037100  1.0  -0.491
  O  O843  1  0.604170  0.377830  0.249450  1.0  -0.508
  O  O844  1  0.481070  0.381630  0.246420  1.0  -0.5438
  O  O845  1  0.313670  0.298130  0.270250  1.0  -0.5401
  O  O846  1  0.287370  0.217430  0.294160  1.0  -0.5154
  O  O847  1  0.232870  0.117830  0.325830  1.0  -0.499
  O  O848  1  0.179270  0.142130  0.349750  1.0  -0.4495
  O  O849  1  0.260470  0.313830  0.373300  1.0  -0.3801
  O  O850  1  0.388170  0.436230  0.370430  1.0  -0.491
  O  O851  1  0.270830  0.711170  0.582790  1.0  -0.5147
  O  O852  1  0.147730  0.714970  0.579760  1.0  -0.5438
  O  O853  1  0.980330  0.631470  0.603590  1.0  -0.54
  O  O854  1  0.954030  0.550770  0.627500  1.0  -0.5153
  O  O855  1  0.899530  0.451170  0.659170  1.0  -0.4992
  O  O856  1  0.845930  0.475470  0.683090  1.0  -0.4495
  O  O857  1  0.927130  0.647170  0.706640  1.0  -0.3801
  O  O858  1  0.054830  0.769570  0.703770  1.0  -0.4909
