# generated using pymatgen
data_CuH12C28O5
_symmetry_space_group_name_H-M   'P 1'
_cell_length_a   24.50210000
_cell_length_b   24.50210000
_cell_length_c   71.80880000
_cell_angle_alpha   90.00000000
_cell_angle_beta   90.00000000
_cell_angle_gamma   90.00000000
_symmetry_Int_Tables_number   1
_chemical_formula_structural   CuH12C28O5
_chemical_formula_sum   'Cu16 H192 C448 O80'
_cell_volume   43110.62164220
_cell_formula_units_Z   16
loop_
 _symmetry_equiv_pos_site_id
 _symmetry_equiv_pos_as_xyz
  1  'x, y, z'
loop_
 _atom_site_type_symbol
 _atom_site_label
 _atom_site_symmetry_multiplicity
 _atom_site_fract_x
 _atom_site_fract_y
 _atom_site_fract_z
 _atom_site_occupancy
 _atom_site_charge
  Cu  Cu1  1  0.960260  0.964110  0.136670  1.0  0.9268
  Cu  Cu2  1  0.460260  0.464110  0.636670  1.0  0.9268
  Cu  Cu3  1  0.539740  0.535890  0.636670  1.0  0.9279
  Cu  Cu4  1  0.039740  0.035890  0.136670  1.0  0.9279
  Cu  Cu5  1  0.035890  0.460260  0.386670  1.0  0.9254
  Cu  Cu6  1  0.535890  0.960260  0.886670  1.0  0.9254
  Cu  Cu7  1  0.464110  0.039740  0.886670  1.0  0.9279
  Cu  Cu8  1  0.964110  0.539740  0.386670  1.0  0.9279
  Cu  Cu9  1  0.539740  0.964110  0.613330  1.0  0.9264
  Cu  Cu10  1  0.039740  0.464110  0.113330  1.0  0.9264
  Cu  Cu11  1  0.960260  0.535890  0.113330  1.0  0.9279
  Cu  Cu12  1  0.460260  0.035890  0.613330  1.0  0.9279
  Cu  Cu13  1  0.464110  0.460260  0.363330  1.0  0.9267
  Cu  Cu14  1  0.964110  0.960260  0.863330  1.0  0.9267
  Cu  Cu15  1  0.035890  0.039740  0.863330  1.0  0.928
  Cu  Cu16  1  0.535890  0.539740  0.363330  1.0  0.928
  H  H17  1  0.817200  0.081300  0.069600  1.0  0.118
  H  H18  1  0.860000  0.033300  0.093400  1.0  0.1134
  H  H19  1  0.981500  0.144200  0.093900  1.0  0.1115
  H  H20  1  0.938700  0.192200  0.070100  1.0  0.1153
  H  H21  1  0.805000  0.381900  0.020400  1.0  0.1161
  H  H22  1  0.867200  0.248100  0.060400  1.0  0.1071
  H  H23  1  0.814700  0.105500  0.038100  1.0  0.1264
  H  H24  1  0.770100  0.154700  0.015000  1.0  0.1002
  H  H25  1  0.800900  0.402400  0.055500  1.0  0.1172
  H  H26  1  0.849800  0.454900  0.076700  1.0  0.1109
  H  H27  1  0.982800  0.361800  0.067800  1.0  0.1098
  H  H28  1  0.933900  0.309300  0.046700  1.0  0.1128
  H  H29  1  0.317200  0.581300  0.569600  1.0  0.1187
  H  H30  1  0.360000  0.533300  0.593400  1.0  0.113
  H  H31  1  0.481500  0.644200  0.593900  1.0  0.1115
  H  H32  1  0.438700  0.692200  0.570100  1.0  0.1153
  H  H33  1  0.305000  0.881900  0.520400  1.0  0.1161
  H  H34  1  0.367200  0.748100  0.560400  1.0  0.1071
  H  H35  1  0.314700  0.605500  0.538100  1.0  0.1272
  H  H36  1  0.270100  0.654700  0.515000  1.0  0.1002
  H  H37  1  0.300900  0.902400  0.555500  1.0  0.1182
  H  H38  1  0.349800  0.954900  0.576700  1.0  0.1113
  H  H39  1  0.482800  0.861800  0.567800  1.0  0.1095
  H  H40  1  0.433900  0.809300  0.546700  1.0  0.1125
  H  H41  1  0.682800  0.418700  0.569600  1.0  0.1194
  H  H42  1  0.640000  0.466700  0.593400  1.0  0.1136
  H  H43  1  0.518500  0.355800  0.593900  1.0  0.1114
  H  H44  1  0.561300  0.307800  0.570100  1.0  0.1149
  H  H45  1  0.695000  0.118100  0.520400  1.0  0.1163
  H  H46  1  0.632800  0.251900  0.560400  1.0  0.1069
  H  H47  1  0.685300  0.394500  0.538100  1.0  0.1275
  H  H48  1  0.729900  0.345300  0.515000  1.0  0.1006
  H  H49  1  0.699100  0.097600  0.555500  1.0  0.1187
  H  H50  1  0.650200  0.045100  0.576700  1.0  0.1108
  H  H51  1  0.517200  0.138200  0.567800  1.0  0.1099
  H  H52  1  0.566100  0.190700  0.546700  1.0  0.1126
  H  H53  1  0.182800  0.918700  0.069600  1.0  0.1184
  H  H54  1  0.140000  0.966700  0.093400  1.0  0.1139
  H  H55  1  0.018500  0.855800  0.093900  1.0  0.1114
  H  H56  1  0.061300  0.807800  0.070100  1.0  0.1149
  H  H57  1  0.195000  0.618100  0.020400  1.0  0.1163
  H  H58  1  0.132800  0.751900  0.060400  1.0  0.1069
  H  H59  1  0.185300  0.894500  0.038100  1.0  0.1267
  H  H60  1  0.229900  0.845300  0.015000  1.0  0.1006
  H  H61  1  0.199100  0.597600  0.055500  1.0  0.1174
  H  H62  1  0.150200  0.545100  0.076700  1.0  0.1104
  H  H63  1  0.017200  0.638200  0.067800  1.0  0.1102
  H  H64  1  0.066100  0.690700  0.046700  1.0  0.1128
  H  H65  1  0.918700  0.317200  0.319600  1.0  0.1183
  H  H66  1  0.966700  0.360000  0.343400  1.0  0.1128
  H  H67  1  0.855800  0.481500  0.343900  1.0  0.1114
  H  H68  1  0.807800  0.438700  0.320100  1.0  0.1159
  H  H69  1  0.618100  0.305000  0.270400  1.0  0.1193
  H  H70  1  0.751900  0.367200  0.310400  1.0  0.107
  H  H71  1  0.894500  0.314700  0.288100  1.0  0.1269
  H  H72  1  0.845300  0.270100  0.265000  1.0  0.0995
  H  H73  1  0.597600  0.300900  0.305500  1.0  0.1179
  H  H74  1  0.545100  0.349800  0.326700  1.0  0.1115
  H  H75  1  0.638200  0.482800  0.317800  1.0  0.1113
  H  H76  1  0.690700  0.433900  0.296700  1.0  0.1145
  H  H77  1  0.418700  0.817200  0.819600  1.0  0.1188
  H  H78  1  0.466700  0.860000  0.843400  1.0  0.1124
  H  H79  1  0.355800  0.981500  0.843900  1.0  0.1114
  H  H80  1  0.307800  0.938700  0.820100  1.0  0.1159
  H  H81  1  0.118100  0.805000  0.770400  1.0  0.1199
  H  H82  1  0.251900  0.867200  0.810400  1.0  0.107
  H  H83  1  0.394500  0.814700  0.788100  1.0  0.1271
  H  H84  1  0.345300  0.770100  0.765000  1.0  0.0994
  H  H85  1  0.097600  0.800900  0.805500  1.0  0.1171
  H  H86  1  0.045100  0.849800  0.826700  1.0  0.112
  H  H87  1  0.138200  0.982800  0.817800  1.0  0.1111
  H  H88  1  0.190700  0.933900  0.796700  1.0  0.1143
  H  H89  1  0.581300  0.182800  0.819600  1.0  0.1184
  H  H90  1  0.533300  0.140000  0.843400  1.0  0.1127
  H  H91  1  0.644200  0.018500  0.843900  1.0  0.1113
  H  H92  1  0.692200  0.061300  0.820100  1.0  0.1152
  H  H93  1  0.881900  0.195000  0.770400  1.0  0.1179
  H  H94  1  0.748100  0.132800  0.810400  1.0  0.107
  H  H95  1  0.605500  0.185300  0.788100  1.0  0.1281
  H  H96  1  0.654700  0.229900  0.765000  1.0  0.0998
  H  H97  1  0.902400  0.199100  0.805500  1.0  0.1177
  H  H98  1  0.954900  0.150200  0.826700  1.0  0.1125
  H  H99  1  0.861800  0.017200  0.817800  1.0  0.1102
  H  H100  1  0.809300  0.066100  0.796700  1.0  0.1139
  H  H101  1  0.081300  0.682800  0.319600  1.0  0.1184
  H  H102  1  0.033300  0.640000  0.343400  1.0  0.113
  H  H103  1  0.144200  0.518500  0.343900  1.0  0.1113
  H  H104  1  0.192200  0.561300  0.320100  1.0  0.1152
  H  H105  1  0.381900  0.695000  0.270400  1.0  0.1182
  H  H106  1  0.248100  0.632800  0.310400  1.0  0.107
  H  H107  1  0.105500  0.685300  0.288100  1.0  0.1281
  H  H108  1  0.154700  0.729900  0.265000  1.0  0.1002
  H  H109  1  0.402400  0.699100  0.305500  1.0  0.1183
  H  H110  1  0.454900  0.650200  0.326700  1.0  0.1117
  H  H111  1  0.361800  0.517200  0.317800  1.0  0.1108
  H  H112  1  0.309300  0.566100  0.296700  1.0  0.1144
  H  H113  1  0.682800  0.081300  0.680400  1.0  0.118
  H  H114  1  0.640000  0.033300  0.656600  1.0  0.1126
  H  H115  1  0.518500  0.144200  0.656100  1.0  0.1112
  H  H116  1  0.561300  0.192200  0.679900  1.0  0.1152
  H  H117  1  0.695000  0.381900  0.729600  1.0  0.116
  H  H118  1  0.632800  0.248100  0.689600  1.0  0.1065
  H  H119  1  0.685300  0.105500  0.711900  1.0  0.1268
  H  H120  1  0.729900  0.154700  0.735000  1.0  0.1006
  H  H121  1  0.699100  0.402400  0.694500  1.0  0.1187
  H  H122  1  0.650200  0.454900  0.673300  1.0  0.1115
  H  H123  1  0.517200  0.361800  0.682200  1.0  0.1105
  H  H124  1  0.566100  0.309300  0.703300  1.0  0.1129
  H  H125  1  0.182800  0.581300  0.180400  1.0  0.1182
  H  H126  1  0.140000  0.533300  0.156600  1.0  0.1121
  H  H127  1  0.018500  0.644200  0.156100  1.0  0.1112
  H  H128  1  0.061300  0.692200  0.179900  1.0  0.1152
  H  H129  1  0.195000  0.881900  0.229600  1.0  0.116
  H  H130  1  0.132800  0.748100  0.189600  1.0  0.1065
  H  H131  1  0.185300  0.605500  0.211900  1.0  0.1273
  H  H132  1  0.229900  0.654700  0.235000  1.0  0.1004
  H  H133  1  0.199100  0.902400  0.194500  1.0  0.1176
  H  H134  1  0.150200  0.954900  0.173300  1.0  0.1122
  H  H135  1  0.017200  0.861800  0.182200  1.0  0.1102
  H  H136  1  0.066100  0.809300  0.203300  1.0  0.1124
  H  H137  1  0.817200  0.418700  0.180400  1.0  0.1184
  H  H138  1  0.860000  0.466700  0.156600  1.0  0.1125
  H  H139  1  0.981500  0.355800  0.156100  1.0  0.1111
  H  H140  1  0.938700  0.307800  0.179900  1.0  0.1153
  H  H141  1  0.805000  0.118100  0.229600  1.0  0.1165
  H  H142  1  0.867200  0.251900  0.189600  1.0  0.1066
  H  H143  1  0.814700  0.394500  0.211900  1.0  0.1274
  H  H144  1  0.770100  0.345300  0.235000  1.0  0.1004
  H  H145  1  0.800900  0.097600  0.194500  1.0  0.1181
  H  H146  1  0.849800  0.045100  0.173300  1.0  0.1109
  H  H147  1  0.982800  0.138200  0.182200  1.0  0.1106
  H  H148  1  0.933900  0.190700  0.203300  1.0  0.1123
  H  H149  1  0.317200  0.918700  0.680400  1.0  0.1181
  H  H150  1  0.360000  0.966700  0.656600  1.0  0.113
  H  H151  1  0.481500  0.855800  0.656100  1.0  0.1111
  H  H152  1  0.438700  0.807800  0.679900  1.0  0.1153
  H  H153  1  0.305000  0.618100  0.729600  1.0  0.1166
  H  H154  1  0.367200  0.751900  0.689600  1.0  0.1066
  H  H155  1  0.314700  0.894500  0.711900  1.0  0.1268
  H  H156  1  0.270100  0.845300  0.735000  1.0  0.1006
  H  H157  1  0.300900  0.597600  0.694500  1.0  0.1184
  H  H158  1  0.349800  0.545100  0.673300  1.0  0.1104
  H  H159  1  0.482800  0.638200  0.682200  1.0  0.1112
  H  H160  1  0.433900  0.690700  0.703300  1.0  0.1128
  H  H161  1  0.581300  0.317200  0.430400  1.0  0.1185
  H  H162  1  0.533300  0.360000  0.406600  1.0  0.1136
  H  H163  1  0.644200  0.481500  0.406100  1.0  0.1116
  H  H164  1  0.692200  0.438700  0.429900  1.0  0.1156
  H  H165  1  0.881900  0.305000  0.479600  1.0  0.1176
  H  H166  1  0.748100  0.367200  0.439600  1.0  0.1064
  H  H167  1  0.605500  0.314700  0.461900  1.0  0.128
  H  H168  1  0.654700  0.270100  0.485000  1.0  0.0998
  H  H169  1  0.902400  0.300900  0.444500  1.0  0.118
  H  H170  1  0.954900  0.349800  0.423300  1.0  0.1117
  H  H171  1  0.861800  0.482800  0.432200  1.0  0.1105
  H  H172  1  0.809300  0.433900  0.453300  1.0  0.1145
  H  H173  1  0.081300  0.817200  0.930400  1.0  0.118
  H  H174  1  0.033300  0.860000  0.906600  1.0  0.1142
  H  H175  1  0.144200  0.981500  0.906100  1.0  0.1116
  H  H176  1  0.192200  0.938700  0.929900  1.0  0.1156
  H  H177  1  0.381900  0.805000  0.979600  1.0  0.1176
  H  H178  1  0.248100  0.867200  0.939600  1.0  0.1064
  H  H179  1  0.105500  0.814700  0.961900  1.0  0.1268
  H  H180  1  0.154700  0.770100  0.985000  1.0  0.0998
  H  H181  1  0.402400  0.800900  0.944500  1.0  0.117
  H  H182  1  0.454900  0.849800  0.923300  1.0  0.1113
  H  H183  1  0.361800  0.982800  0.932200  1.0  0.1107
  H  H184  1  0.309300  0.933900  0.953300  1.0  0.1148
  H  H185  1  0.918700  0.182800  0.930400  1.0  0.1183
  H  H186  1  0.966700  0.140000  0.906600  1.0  0.1148
  H  H187  1  0.855800  0.018500  0.906100  1.0  0.1109
  H  H188  1  0.807800  0.061300  0.929900  1.0  0.1158
  H  H189  1  0.618100  0.195000  0.979600  1.0  0.1197
  H  H190  1  0.751900  0.132800  0.939600  1.0  0.1065
  H  H191  1  0.894500  0.185300  0.961900  1.0  0.1255
  H  H192  1  0.845300  0.229900  0.985000  1.0  0.0999
  H  H193  1  0.597600  0.199100  0.944500  1.0  0.1174
  H  H194  1  0.545100  0.150200  0.923300  1.0  0.1117
  H  H195  1  0.638200  0.017200  0.932200  1.0  0.1102
  H  H196  1  0.690700  0.066100  0.953300  1.0  0.1147
  H  H197  1  0.418700  0.682800  0.430400  1.0  0.119
  H  H198  1  0.466700  0.640000  0.406600  1.0  0.1143
  H  H199  1  0.355800  0.518500  0.406100  1.0  0.1109
  H  H200  1  0.307800  0.561300  0.429900  1.0  0.1158
  H  H201  1  0.118100  0.695000  0.479600  1.0  0.1197
  H  H202  1  0.251900  0.632800  0.439600  1.0  0.1065
  H  H203  1  0.394500  0.685300  0.461900  1.0  0.1263
  H  H204  1  0.345300  0.729900  0.485000  1.0  0.0999
  H  H205  1  0.097600  0.699100  0.444500  1.0  0.1183
  H  H206  1  0.045100  0.650200  0.423300  1.0  0.1122
  H  H207  1  0.138200  0.517200  0.432200  1.0  0.1097
  H  H208  1  0.190700  0.566100  0.453300  1.0  0.1144
  C  C209  1  0.949600  0.051100  0.112100  1.0  0.6769
  C  C210  1  0.873780  0.141390  0.067560  1.0  0.0402
  C  C211  1  0.850300  0.094010  0.074490  1.0  -0.1121
  C  C212  1  0.875800  0.065380  0.088670  1.0  -0.0543
  C  C213  1  0.924870  0.084120  0.095930  1.0  -0.1185
  C  C214  1  0.948340  0.131490  0.089010  1.0  -0.0517
  C  C215  1  0.922800  0.160120  0.074830  1.0  -0.1292
  C  C216  1  0.826400  0.259000  0.035810  1.0  0.0134
  C  C217  1  0.829230  0.315540  0.035080  1.0  -0.0011
  C  C218  1  0.803000  0.343640  0.020910  1.0  -0.1543
  C  C219  1  0.774050  0.315220  0.007470  1.0  0.2552
  C  C220  1  0.771230  0.258680  0.008200  1.0  -0.0516
  C  C221  1  0.797400  0.230570  0.022370  1.0  0.0444
  C  C222  1  0.849600  0.229000  0.050800  1.0  -0.1738
  C  C223  1  0.847100  0.173100  0.051750  1.0  -0.017
  C  C224  1  0.817100  0.143800  0.037770  1.0  -0.129
  C  C225  1  0.791600  0.173200  0.023760  1.0  -0.1511
  C  C226  1  0.862680  0.350810  0.049050  1.0  0.0795
  C  C227  1  0.837580  0.394250  0.058000  1.0  -0.1318
  C  C228  1  0.866750  0.425570  0.070630  1.0  -0.0606
  C  C229  1  0.921030  0.413450  0.074310  1.0  -0.1308
  C  C230  1  0.946130  0.370010  0.065350  1.0  -0.0424
  C  C231  1  0.916960  0.338690  0.052720  1.0  -0.1242
  C  C232  1  0.951900  0.446700  0.089280  1.0  0.6741
  C  C233  1  0.768300  0.398800  0.989600  1.0  0.2568
  C  C234  1  0.731500  0.427300  0.974700  1.0  -0.11
  C  C235  1  0.726500  0.395200  0.996900  1.0  0.1844
  C  C236  1  0.676000  0.392200  0.009400  1.0  -0.0291
  C  C237  1  0.449600  0.551100  0.612100  1.0  0.6769
  C  C238  1  0.373780  0.641390  0.567560  1.0  0.0402
  C  C239  1  0.350300  0.594010  0.574490  1.0  -0.1121
  C  C240  1  0.375800  0.565380  0.588670  1.0  -0.0543
  C  C241  1  0.424870  0.584120  0.595930  1.0  -0.1185
  C  C242  1  0.448340  0.631490  0.589010  1.0  -0.0517
  C  C243  1  0.422800  0.660120  0.574830  1.0  -0.1292
  C  C244  1  0.326400  0.759000  0.535810  1.0  0.0134
  C  C245  1  0.329230  0.815540  0.535080  1.0  -0.0011
  C  C246  1  0.303000  0.843640  0.520910  1.0  -0.1543
  C  C247  1  0.274050  0.815220  0.507470  1.0  0.2552
  C  C248  1  0.271230  0.758680  0.508200  1.0  -0.0516
  C  C249  1  0.297400  0.730570  0.522370  1.0  0.0444
  C  C250  1  0.349600  0.729000  0.550800  1.0  -0.1738
  C  C251  1  0.347100  0.673100  0.551750  1.0  -0.017
  C  C252  1  0.317100  0.643800  0.537770  1.0  -0.129
  C  C253  1  0.291600  0.673200  0.523760  1.0  -0.1511
  C  C254  1  0.362680  0.850810  0.549050  1.0  0.0795
  C  C255  1  0.337580  0.894250  0.558000  1.0  -0.1318
  C  C256  1  0.366750  0.925570  0.570630  1.0  -0.0606
  C  C257  1  0.421030  0.913450  0.574310  1.0  -0.1308
  C  C258  1  0.446130  0.870010  0.565350  1.0  -0.0424
  C  C259  1  0.416960  0.838690  0.552720  1.0  -0.1242
  C  C260  1  0.451900  0.946700  0.589280  1.0  0.6741
  C  C261  1  0.268300  0.898800  0.489600  1.0  0.2646
  C  C262  1  0.231500  0.927300  0.474700  1.0  -0.1031
  C  C263  1  0.226500  0.895200  0.496900  1.0  0.1844
  C  C264  1  0.176000  0.892200  0.509400  1.0  -0.021
  C  C265  1  0.550400  0.448900  0.612100  1.0  0.676
  C  C266  1  0.626220  0.358610  0.567560  1.0  0.0408
  C  C267  1  0.649700  0.405990  0.574490  1.0  -0.1108
  C  C268  1  0.624200  0.434620  0.588670  1.0  -0.0549
  C  C269  1  0.575130  0.415880  0.595930  1.0  -0.119
  C  C270  1  0.551660  0.368510  0.589010  1.0  -0.0532
  C  C271  1  0.577200  0.339880  0.574830  1.0  -0.1302
  C  C272  1  0.673600  0.241000  0.535810  1.0  0.0133
  C  C273  1  0.670770  0.184460  0.535080  1.0  -0.0007
  C  C274  1  0.697000  0.156360  0.520910  1.0  -0.1552
  C  C275  1  0.725950  0.184780  0.507470  1.0  0.2551
  C  C276  1  0.728770  0.241320  0.508200  1.0  -0.0514
  C  C277  1  0.702600  0.269430  0.522370  1.0  0.0439
  C  C278  1  0.650400  0.271000  0.550800  1.0  -0.1744
  C  C279  1  0.652900  0.326900  0.551750  1.0  -0.016
  C  C280  1  0.682900  0.356200  0.537770  1.0  -0.1318
  C  C281  1  0.708400  0.326800  0.523760  1.0  -0.1539
  C  C282  1  0.637320  0.149190  0.549050  1.0  0.0801
  C  C283  1  0.662420  0.105750  0.558000  1.0  -0.1294
  C  C284  1  0.633250  0.074430  0.570630  1.0  -0.0607
  C  C285  1  0.578970  0.086550  0.574310  1.0  -0.1317
  C  C286  1  0.553870  0.129990  0.565350  1.0  -0.0414
  C  C287  1  0.583040  0.161310  0.552720  1.0  -0.1292
  C  C288  1  0.548100  0.053300  0.589280  1.0  0.6738
  C  C289  1  0.731700  0.101200  0.489600  1.0  0.2626
  C  C290  1  0.768500  0.072700  0.474700  1.0  -0.1032
  C  C291  1  0.773500  0.104800  0.496900  1.0  0.1851
  C  C292  1  0.824000  0.107800  0.509400  1.0  -0.02
  C  C293  1  0.050400  0.948900  0.112100  1.0  0.676
  C  C294  1  0.126220  0.858610  0.067560  1.0  0.0408
  C  C295  1  0.149700  0.905990  0.074490  1.0  -0.1108
  C  C296  1  0.124200  0.934620  0.088670  1.0  -0.0549
  C  C297  1  0.075130  0.915880  0.095930  1.0  -0.119
  C  C298  1  0.051660  0.868510  0.089010  1.0  -0.0532
  C  C299  1  0.077200  0.839880  0.074830  1.0  -0.1302
  C  C300  1  0.173600  0.741000  0.035810  1.0  0.0133
  C  C301  1  0.170770  0.684460  0.035080  1.0  -0.0007
  C  C302  1  0.197000  0.656360  0.020910  1.0  -0.1552
  C  C303  1  0.225950  0.684780  0.007470  1.0  0.2551
  C  C304  1  0.228770  0.741320  0.008200  1.0  -0.0514
  C  C305  1  0.202600  0.769430  0.022370  1.0  0.0439
  C  C306  1  0.150400  0.771000  0.050800  1.0  -0.1744
  C  C307  1  0.152900  0.826900  0.051750  1.0  -0.016
  C  C308  1  0.182900  0.856200  0.037770  1.0  -0.1318
  C  C309  1  0.208400  0.826800  0.023760  1.0  -0.1539
  C  C310  1  0.137320  0.649190  0.049050  1.0  0.0801
  C  C311  1  0.162420  0.605750  0.058000  1.0  -0.1294
  C  C312  1  0.133250  0.574430  0.070630  1.0  -0.0607
  C  C313  1  0.078970  0.586550  0.074310  1.0  -0.1317
  C  C314  1  0.053870  0.629990  0.065350  1.0  -0.0414
  C  C315  1  0.083040  0.661310  0.052720  1.0  -0.1292
  C  C316  1  0.048100  0.553300  0.089280  1.0  0.6738
  C  C317  1  0.231700  0.601200  0.989600  1.0  0.2554
  C  C318  1  0.268500  0.572700  0.974700  1.0  -0.109
  C  C319  1  0.273500  0.604800  0.996900  1.0  0.1851
  C  C320  1  0.324000  0.607800  0.009400  1.0  -0.0284
  C  C321  1  0.948900  0.449600  0.362100  1.0  0.6756
  C  C322  1  0.858610  0.373780  0.317560  1.0  0.0401
  C  C323  1  0.905990  0.350300  0.324490  1.0  -0.1112
  C  C324  1  0.934620  0.375800  0.338670  1.0  -0.0537
  C  C325  1  0.915880  0.424870  0.345930  1.0  -0.118
  C  C326  1  0.868510  0.448340  0.339010  1.0  -0.0533
  C  C327  1  0.839880  0.422800  0.324830  1.0  -0.1329
  C  C328  1  0.741000  0.326400  0.285810  1.0  0.0135
  C  C329  1  0.684460  0.329230  0.285080  1.0  -0.0022
  C  C330  1  0.656360  0.303000  0.270910  1.0  -0.1549
  C  C331  1  0.684780  0.274050  0.257470  1.0  0.2545
  C  C332  1  0.741320  0.271230  0.258200  1.0  -0.0507
  C  C333  1  0.769430  0.297400  0.272370  1.0  0.0448
  C  C334  1  0.771000  0.349600  0.300800  1.0  -0.1748
  C  C335  1  0.826900  0.347100  0.301750  1.0  -0.0166
  C  C336  1  0.856200  0.317100  0.287770  1.0  -0.1303
  C  C337  1  0.826800  0.291600  0.273760  1.0  -0.1513
  C  C338  1  0.649190  0.362680  0.299050  1.0  0.0774
  C  C339  1  0.605750  0.337580  0.308000  1.0  -0.1298
  C  C340  1  0.574430  0.366750  0.320630  1.0  -0.0621
  C  C341  1  0.586550  0.421030  0.324310  1.0  -0.1314
  C  C342  1  0.629990  0.446130  0.315350  1.0  -0.0441
  C  C343  1  0.661310  0.416960  0.302720  1.0  -0.1269
  C  C344  1  0.553300  0.451900  0.339280  1.0  0.674
  C  C345  1  0.601200  0.268300  0.239600  1.0  0.2645
  C  C346  1  0.572700  0.231500  0.224700  1.0  -0.1037
  C  C347  1  0.604800  0.226500  0.246900  1.0  0.1929
  C  C348  1  0.607800  0.176000  0.259400  1.0  -0.0209
  C  C349  1  0.448900  0.949600  0.862100  1.0  0.6756
  C  C350  1  0.358610  0.873780  0.817560  1.0  0.0401
  C  C351  1  0.405990  0.850300  0.824490  1.0  -0.1112
  C  C352  1  0.434620  0.875800  0.838670  1.0  -0.0537
  C  C353  1  0.415880  0.924870  0.845930  1.0  -0.118
  C  C354  1  0.368510  0.948340  0.839010  1.0  -0.0533
  C  C355  1  0.339880  0.922800  0.824830  1.0  -0.1329
  C  C356  1  0.241000  0.826400  0.785810  1.0  0.0135
  C  C357  1  0.184460  0.829230  0.785080  1.0  -0.0022
  C  C358  1  0.156360  0.803000  0.770910  1.0  -0.1549
  C  C359  1  0.184780  0.774050  0.757470  1.0  0.2545
  C  C360  1  0.241320  0.771230  0.758200  1.0  -0.0507
  C  C361  1  0.269430  0.797400  0.772370  1.0  0.0448
  C  C362  1  0.271000  0.849600  0.800800  1.0  -0.1748
  C  C363  1  0.326900  0.847100  0.801750  1.0  -0.0166
  C  C364  1  0.356200  0.817100  0.787770  1.0  -0.1303
  C  C365  1  0.326800  0.791600  0.773760  1.0  -0.1513
  C  C366  1  0.149190  0.862680  0.799050  1.0  0.0774
  C  C367  1  0.105750  0.837580  0.808000  1.0  -0.1298
  C  C368  1  0.074430  0.866750  0.820630  1.0  -0.0621
  C  C369  1  0.086550  0.921030  0.824310  1.0  -0.1314
  C  C370  1  0.129990  0.946130  0.815350  1.0  -0.0441
  C  C371  1  0.161310  0.916960  0.802720  1.0  -0.1269
  C  C372  1  0.053300  0.951900  0.839280  1.0  0.674
  C  C373  1  0.101200  0.768300  0.739600  1.0  0.2548
  C  C374  1  0.072700  0.731500  0.724700  1.0  -0.1038
  C  C375  1  0.104800  0.726500  0.746900  1.0  0.1929
  C  C376  1  0.107800  0.676000  0.759400  1.0  -0.0209
  C  C377  1  0.551100  0.050400  0.862100  1.0  0.6753
  C  C378  1  0.641390  0.126220  0.817560  1.0  0.0389
  C  C379  1  0.594010  0.149700  0.824490  1.0  -0.1125
  C  C380  1  0.565380  0.124200  0.838670  1.0  -0.0548
  C  C381  1  0.584120  0.075130  0.845930  1.0  -0.1185
  C  C382  1  0.631490  0.051660  0.839010  1.0  -0.054
  C  C383  1  0.660120  0.077200  0.824830  1.0  -0.1319
  C  C384  1  0.759000  0.173600  0.785810  1.0  0.0136
  C  C385  1  0.815540  0.170770  0.785080  1.0  -0.0014
  C  C386  1  0.843640  0.197000  0.770910  1.0  -0.1546
  C  C387  1  0.815220  0.225950  0.757470  1.0  0.2543
  C  C388  1  0.758680  0.228770  0.758200  1.0  -0.0502
  C  C389  1  0.730570  0.202600  0.772370  1.0  0.0443
  C  C390  1  0.729000  0.150400  0.800800  1.0  -0.1741
  C  C391  1  0.673100  0.152900  0.801750  1.0  -0.0175
  C  C392  1  0.643800  0.182900  0.787770  1.0  -0.1319
  C  C393  1  0.673200  0.208400  0.773760  1.0  -0.1512
  C  C394  1  0.850810  0.137320  0.799050  1.0  0.0779
  C  C395  1  0.894250  0.162420  0.808000  1.0  -0.1302
  C  C396  1  0.925570  0.133250  0.820630  1.0  -0.0616
  C  C397  1  0.913450  0.078970  0.824310  1.0  -0.1317
  C  C398  1  0.870010  0.053870  0.815350  1.0  -0.0447
  C  C399  1  0.838690  0.083040  0.802720  1.0  -0.1301
  C  C400  1  0.946700  0.048100  0.839280  1.0  0.6734
  C  C401  1  0.898800  0.231700  0.739600  1.0  0.2615
  C  C402  1  0.927300  0.268500  0.724700  1.0  -0.1024
  C  C403  1  0.895200  0.273500  0.746900  1.0  0.1828
  C  C404  1  0.892200  0.324000  0.759400  1.0  -0.0212
  C  C405  1  0.051100  0.550400  0.362100  1.0  0.6753
  C  C406  1  0.141390  0.626220  0.317560  1.0  0.0389
  C  C407  1  0.094010  0.649700  0.324490  1.0  -0.1125
  C  C408  1  0.065380  0.624200  0.338670  1.0  -0.0548
  C  C409  1  0.084120  0.575130  0.345930  1.0  -0.1185
  C  C410  1  0.131490  0.551660  0.339010  1.0  -0.054
  C  C411  1  0.160120  0.577200  0.324830  1.0  -0.1319
  C  C412  1  0.259000  0.673600  0.285810  1.0  0.0136
  C  C413  1  0.315540  0.670770  0.285080  1.0  -0.0014
  C  C414  1  0.343640  0.697000  0.270910  1.0  -0.1546
  C  C415  1  0.315220  0.725950  0.257470  1.0  0.2543
  C  C416  1  0.258680  0.728770  0.258200  1.0  -0.0502
  C  C417  1  0.230570  0.702600  0.272370  1.0  0.0443
  C  C418  1  0.229000  0.650400  0.300800  1.0  -0.1741
  C  C419  1  0.173100  0.652900  0.301750  1.0  -0.0175
  C  C420  1  0.143800  0.682900  0.287770  1.0  -0.1319
  C  C421  1  0.173200  0.708400  0.273760  1.0  -0.1512
  C  C422  1  0.350810  0.637320  0.299050  1.0  0.0779
  C  C423  1  0.394250  0.662420  0.308000  1.0  -0.1302
  C  C424  1  0.425570  0.633250  0.320630  1.0  -0.0616
  C  C425  1  0.413450  0.578970  0.324310  1.0  -0.1317
  C  C426  1  0.370010  0.553870  0.315350  1.0  -0.0447
  C  C427  1  0.338690  0.583040  0.302720  1.0  -0.1301
  C  C428  1  0.446700  0.548100  0.339280  1.0  0.6734
  C  C429  1  0.398800  0.731700  0.239600  1.0  0.2682
  C  C430  1  0.427300  0.768500  0.224700  1.0  -0.1025
  C  C431  1  0.395200  0.773500  0.246900  1.0  0.1828
  C  C432  1  0.392200  0.824000  0.259400  1.0  -0.0212
  C  C433  1  0.550400  0.051100  0.637900  1.0  0.6758
  C  C434  1  0.626220  0.141390  0.682440  1.0  0.0405
  C  C435  1  0.649700  0.094010  0.675510  1.0  -0.1109
  C  C436  1  0.624200  0.065380  0.661330  1.0  -0.0549
  C  C437  1  0.575130  0.084120  0.654070  1.0  -0.1195
  C  C438  1  0.551660  0.131490  0.660990  1.0  -0.0532
  C  C439  1  0.577200  0.160120  0.675170  1.0  -0.1309
  C  C440  1  0.673600  0.259000  0.714190  1.0  0.0134
  C  C441  1  0.670770  0.315540  0.714920  1.0  -0.0012
  C  C442  1  0.697000  0.343640  0.729090  1.0  -0.1547
  C  C443  1  0.725950  0.315220  0.742530  1.0  0.2553
  C  C444  1  0.728770  0.258680  0.741800  1.0  -0.0517
  C  C445  1  0.702600  0.230570  0.727630  1.0  0.0442
  C  C446  1  0.650400  0.229000  0.699200  1.0  -0.1753
  C  C447  1  0.652900  0.173100  0.698250  1.0  -0.016
  C  C448  1  0.682900  0.143800  0.712230  1.0  -0.1296
  C  C449  1  0.708400  0.173200  0.726240  1.0  -0.1517
  C  C450  1  0.637320  0.350810  0.700950  1.0  0.0793
  C  C451  1  0.662420  0.394250  0.692000  1.0  -0.129
  C  C452  1  0.633250  0.425570  0.679370  1.0  -0.061
  C  C453  1  0.578970  0.413450  0.675690  1.0  -0.131
  C  C454  1  0.553870  0.370010  0.684650  1.0  -0.0411
  C  C455  1  0.583040  0.338690  0.697280  1.0  -0.1273
  C  C456  1  0.548100  0.446700  0.660720  1.0  0.6736
  C  C457  1  0.731700  0.398800  0.760400  1.0  0.2703
  C  C458  1  0.768500  0.427300  0.775300  1.0  -0.1006
  C  C459  1  0.773500  0.395200  0.753100  1.0  0.1863
  C  C460  1  0.824000  0.392200  0.740600  1.0  -0.0214
  C  C461  1  0.050400  0.551100  0.137900  1.0  0.6758
  C  C462  1  0.126220  0.641390  0.182440  1.0  0.0405
  C  C463  1  0.149700  0.594010  0.175510  1.0  -0.1109
  C  C464  1  0.124200  0.565380  0.161330  1.0  -0.0549
  C  C465  1  0.075130  0.584120  0.154070  1.0  -0.1195
  C  C466  1  0.051660  0.631490  0.160990  1.0  -0.0532
  C  C467  1  0.077200  0.660120  0.175170  1.0  -0.1309
  C  C468  1  0.173600  0.759000  0.214190  1.0  0.0134
  C  C469  1  0.170770  0.815540  0.214920  1.0  -0.0012
  C  C470  1  0.197000  0.843640  0.229090  1.0  -0.1547
  C  C471  1  0.225950  0.815220  0.242530  1.0  0.2553
  C  C472  1  0.228770  0.758680  0.241800  1.0  -0.0517
  C  C473  1  0.202600  0.730570  0.227630  1.0  0.0442
  C  C474  1  0.150400  0.729000  0.199200  1.0  -0.1753
  C  C475  1  0.152900  0.673100  0.198250  1.0  -0.016
  C  C476  1  0.182900  0.643800  0.212230  1.0  -0.1296
  C  C477  1  0.208400  0.673200  0.226240  1.0  -0.1517
  C  C478  1  0.137320  0.850810  0.200950  1.0  0.0793
  C  C479  1  0.162420  0.894250  0.192000  1.0  -0.129
  C  C480  1  0.133250  0.925570  0.179370  1.0  -0.061
  C  C481  1  0.078970  0.913450  0.175690  1.0  -0.131
  C  C482  1  0.053870  0.870010  0.184650  1.0  -0.0411
  C  C483  1  0.083040  0.838690  0.197280  1.0  -0.1273
  C  C484  1  0.048100  0.946700  0.160720  1.0  0.6736
  C  C485  1  0.231700  0.898800  0.260400  1.0  0.262
  C  C486  1  0.268500  0.927300  0.275300  1.0  -0.0993
  C  C487  1  0.273500  0.895200  0.253100  1.0  0.1863
  C  C488  1  0.324000  0.892200  0.240600  1.0  -0.0214
  C  C489  1  0.949600  0.448900  0.137900  1.0  0.6766
  C  C490  1  0.873780  0.358610  0.182440  1.0  0.0408
  C  C491  1  0.850300  0.405990  0.175510  1.0  -0.1124
  C  C492  1  0.875800  0.434620  0.161330  1.0  -0.0549
  C  C493  1  0.924870  0.415880  0.154070  1.0  -0.119
  C  C494  1  0.948340  0.368510  0.160990  1.0  -0.0522
  C  C495  1  0.922800  0.339880  0.175170  1.0  -0.129
  C  C496  1  0.826400  0.241000  0.214190  1.0  0.0134
  C  C497  1  0.829230  0.184460  0.214920  1.0  -0.0006
  C  C498  1  0.803000  0.156360  0.229090  1.0  -0.1549
  C  C499  1  0.774050  0.184780  0.242530  1.0  0.2554
  C  C500  1  0.771230  0.241320  0.241800  1.0  -0.0517
  C  C501  1  0.797400  0.269430  0.227630  1.0  0.0438
  C  C502  1  0.849600  0.271000  0.199200  1.0  -0.1747
  C  C503  1  0.847100  0.326900  0.198250  1.0  -0.0156
  C  C504  1  0.817100  0.356200  0.212230  1.0  -0.1315
  C  C505  1  0.791600  0.326800  0.226240  1.0  -0.1536
  C  C506  1  0.862680  0.149190  0.200950  1.0  0.0789
  C  C507  1  0.837580  0.105750  0.192000  1.0  -0.1328
  C  C508  1  0.866750  0.074430  0.179370  1.0  -0.0609
  C  C509  1  0.921030  0.086550  0.175690  1.0  -0.1309
  C  C510  1  0.946130  0.129990  0.184650  1.0  -0.0427
  C  C511  1  0.916960  0.161310  0.197280  1.0  -0.1264
  C  C512  1  0.951900  0.053300  0.160720  1.0  0.6736
  C  C513  1  0.768300  0.101200  0.260400  1.0  0.264
  C  C514  1  0.731500  0.072700  0.275300  1.0  -0.1064
  C  C515  1  0.726500  0.104800  0.253100  1.0  0.1897
  C  C516  1  0.676000  0.107800  0.240600  1.0  -0.0196
  C  C517  1  0.449600  0.948900  0.637900  1.0  0.6766
  C  C518  1  0.373780  0.858610  0.682440  1.0  0.0408
  C  C519  1  0.350300  0.905990  0.675510  1.0  -0.1124
  C  C520  1  0.375800  0.934620  0.661330  1.0  -0.0549
  C  C521  1  0.424870  0.915880  0.654070  1.0  -0.119
  C  C522  1  0.448340  0.868510  0.660990  1.0  -0.0522
  C  C523  1  0.422800  0.839880  0.675170  1.0  -0.129
  C  C524  1  0.326400  0.741000  0.714190  1.0  0.0134
  C  C525  1  0.329230  0.684460  0.714920  1.0  -0.0006
  C  C526  1  0.303000  0.656360  0.729090  1.0  -0.1549
  C  C527  1  0.274050  0.684780  0.742530  1.0  0.2554
  C  C528  1  0.271230  0.741320  0.741800  1.0  -0.0517
  C  C529  1  0.297400  0.769430  0.727630  1.0  0.0438
  C  C530  1  0.349600  0.771000  0.699200  1.0  -0.1747
  C  C531  1  0.347100  0.826900  0.698250  1.0  -0.0156
  C  C532  1  0.317100  0.856200  0.712230  1.0  -0.1315
  C  C533  1  0.291600  0.826800  0.726240  1.0  -0.1536
  C  C534  1  0.362680  0.649190  0.700950  1.0  0.0789
  C  C535  1  0.337580  0.605750  0.692000  1.0  -0.1328
  C  C536  1  0.366750  0.574430  0.679370  1.0  -0.0609
  C  C537  1  0.421030  0.586550  0.675690  1.0  -0.1309
  C  C538  1  0.446130  0.629990  0.684650  1.0  -0.0427
  C  C539  1  0.416960  0.661310  0.697280  1.0  -0.1264
  C  C540  1  0.451900  0.553300  0.660720  1.0  0.6736
  C  C541  1  0.268300  0.601200  0.760400  1.0  0.2702
  C  C542  1  0.231500  0.572700  0.775300  1.0  -0.1073
  C  C543  1  0.226500  0.604800  0.753100  1.0  0.1897
  C  C544  1  0.176000  0.607800  0.740600  1.0  -0.0196
  C  C545  1  0.551100  0.449600  0.387900  1.0  0.6752
  C  C546  1  0.641390  0.373780  0.432440  1.0  0.0391
  C  C547  1  0.594010  0.350300  0.425510  1.0  -0.1115
  C  C548  1  0.565380  0.375800  0.411330  1.0  -0.0546
  C  C549  1  0.584120  0.424870  0.404070  1.0  -0.1185
  C  C550  1  0.631490  0.448340  0.410990  1.0  -0.053
  C  C551  1  0.660120  0.422800  0.425170  1.0  -0.1316
  C  C552  1  0.759000  0.326400  0.464190  1.0  0.0138
  C  C553  1  0.815540  0.329230  0.464920  1.0  -0.0015
  C  C554  1  0.843640  0.303000  0.479090  1.0  -0.1545
  C  C555  1  0.815220  0.274050  0.492530  1.0  0.2542
  C  C556  1  0.758680  0.271230  0.491800  1.0  -0.0505
  C  C557  1  0.730570  0.297400  0.477630  1.0  0.0441
  C  C558  1  0.729000  0.349600  0.449200  1.0  -0.1753
  C  C559  1  0.673100  0.347100  0.448250  1.0  -0.0171
  C  C560  1  0.643800  0.317100  0.462230  1.0  -0.131
  C  C561  1  0.673200  0.291600  0.476240  1.0  -0.1511
  C  C562  1  0.850810  0.362680  0.450950  1.0  0.0769
  C  C563  1  0.894250  0.337580  0.442000  1.0  -0.1286
  C  C564  1  0.925570  0.366750  0.429370  1.0  -0.0619
  C  C565  1  0.913450  0.421030  0.425690  1.0  -0.1315
  C  C566  1  0.870010  0.446130  0.434650  1.0  -0.0445
  C  C567  1  0.838690  0.416960  0.447280  1.0  -0.1305
  C  C568  1  0.946700  0.451900  0.410720  1.0  0.6734
  C  C569  1  0.898800  0.268300  0.510400  1.0  0.261
  C  C570  1  0.927300  0.231500  0.525300  1.0  -0.1031
  C  C571  1  0.895200  0.226500  0.503100  1.0  0.1935
  C  C572  1  0.892200  0.176000  0.490600  1.0  -0.0202
  C  C573  1  0.051100  0.949600  0.887900  1.0  0.6752
  C  C574  1  0.141390  0.873780  0.932440  1.0  0.0391
  C  C575  1  0.094010  0.850300  0.925510  1.0  -0.1115
  C  C576  1  0.065380  0.875800  0.911330  1.0  -0.0546
  C  C577  1  0.084120  0.924870  0.904070  1.0  -0.1185
  C  C578  1  0.131490  0.948340  0.910990  1.0  -0.053
  C  C579  1  0.160120  0.922800  0.925170  1.0  -0.1316
  C  C580  1  0.259000  0.826400  0.964190  1.0  0.0138
  C  C581  1  0.315540  0.829230  0.964920  1.0  -0.0015
  C  C582  1  0.343640  0.803000  0.979090  1.0  -0.1545
  C  C583  1  0.315220  0.774050  0.992530  1.0  0.2542
  C  C584  1  0.258680  0.771230  0.991800  1.0  -0.0505
  C  C585  1  0.230570  0.797400  0.977630  1.0  0.0441
  C  C586  1  0.229000  0.849600  0.949200  1.0  -0.1753
  C  C587  1  0.173100  0.847100  0.948250  1.0  -0.0171
  C  C588  1  0.143800  0.817100  0.962230  1.0  -0.131
  C  C589  1  0.173200  0.791600  0.976240  1.0  -0.1511
  C  C590  1  0.350810  0.862680  0.950950  1.0  0.0769
  C  C591  1  0.394250  0.837580  0.942000  1.0  -0.1286
  C  C592  1  0.425570  0.866750  0.929370  1.0  -0.0619
  C  C593  1  0.413450  0.921030  0.925690  1.0  -0.1315
  C  C594  1  0.370010  0.946130  0.934650  1.0  -0.0445
  C  C595  1  0.338690  0.916960  0.947280  1.0  -0.1305
  C  C596  1  0.446700  0.951900  0.910720  1.0  0.6734
  C  C597  1  0.398800  0.768300  0.010400  1.0  0.2531
  C  C598  1  0.427300  0.731500  0.025300  1.0  -0.1102
  C  C599  1  0.395200  0.726500  0.003100  1.0  0.1935
  C  C600  1  0.392200  0.676000  0.990600  1.0  -0.0286
  C  C601  1  0.948900  0.050400  0.887900  1.0  0.6755
  C  C602  1  0.858610  0.126220  0.932440  1.0  0.0401
  C  C603  1  0.905990  0.149700  0.925510  1.0  -0.1117
  C  C604  1  0.934620  0.124200  0.911330  1.0  -0.0541
  C  C605  1  0.915880  0.075130  0.904070  1.0  -0.1189
  C  C606  1  0.868510  0.051660  0.910990  1.0  -0.0537
  C  C607  1  0.839880  0.077200  0.925170  1.0  -0.1323
  C  C608  1  0.741000  0.173600  0.964190  1.0  0.0136
  C  C609  1  0.684460  0.170770  0.964920  1.0  -0.0025
  C  C610  1  0.656360  0.197000  0.979090  1.0  -0.1549
  C  C611  1  0.684780  0.225950  0.992530  1.0  0.2549
  C  C612  1  0.741320  0.228770  0.991800  1.0  -0.0506
  C  C613  1  0.769430  0.202600  0.977630  1.0  0.0446
  C  C614  1  0.771000  0.150400  0.949200  1.0  -0.1755
  C  C615  1  0.826900  0.152900  0.948250  1.0  -0.0162
  C  C616  1  0.856200  0.182900  0.962230  1.0  -0.1301
  C  C617  1  0.826800  0.208400  0.976240  1.0  -0.1497
  C  C618  1  0.649190  0.137320  0.950950  1.0  0.077
  C  C619  1  0.605750  0.162420  0.942000  1.0  -0.1315
  C  C620  1  0.574430  0.133250  0.929370  1.0  -0.0627
  C  C621  1  0.586550  0.078970  0.925690  1.0  -0.1319
  C  C622  1  0.629990  0.053870  0.934650  1.0  -0.0444
  C  C623  1  0.661310  0.083040  0.947280  1.0  -0.1277
  C  C624  1  0.553300  0.048100  0.910720  1.0  0.6734
  C  C625  1  0.601200  0.231700  0.010400  1.0  0.2517
  C  C626  1  0.572700  0.268500  0.025300  1.0  -0.1099
  C  C627  1  0.604800  0.273500  0.003100  1.0  0.1871
  C  C628  1  0.607800  0.324000  0.990600  1.0  -0.0306
  C  C629  1  0.448900  0.550400  0.387900  1.0  0.6755
  C  C630  1  0.358610  0.626220  0.432440  1.0  0.0401
  C  C631  1  0.405990  0.649700  0.425510  1.0  -0.1117
  C  C632  1  0.434620  0.624200  0.411330  1.0  -0.0541
  C  C633  1  0.415880  0.575130  0.404070  1.0  -0.1189
  C  C634  1  0.368510  0.551660  0.410990  1.0  -0.0537
  C  C635  1  0.339880  0.577200  0.425170  1.0  -0.1323
  C  C636  1  0.241000  0.673600  0.464190  1.0  0.0136
  C  C637  1  0.184460  0.670770  0.464920  1.0  -0.0025
  C  C638  1  0.156360  0.697000  0.479090  1.0  -0.1549
  C  C639  1  0.184780  0.725950  0.492530  1.0  0.2549
  C  C640  1  0.241320  0.728770  0.491800  1.0  -0.0506
  C  C641  1  0.269430  0.702600  0.477630  1.0  0.0446
  C  C642  1  0.271000  0.650400  0.449200  1.0  -0.1755
  C  C643  1  0.326900  0.652900  0.448250  1.0  -0.0162
  C  C644  1  0.356200  0.682900  0.462230  1.0  -0.1301
  C  C645  1  0.326800  0.708400  0.476240  1.0  -0.1497
  C  C646  1  0.149190  0.637320  0.450950  1.0  0.077
  C  C647  1  0.105750  0.662420  0.442000  1.0  -0.1315
  C  C648  1  0.074430  0.633250  0.429370  1.0  -0.0627
  C  C649  1  0.086550  0.578970  0.425690  1.0  -0.1319
  C  C650  1  0.129990  0.553870  0.434650  1.0  -0.0444
  C  C651  1  0.161310  0.583040  0.447280  1.0  -0.1277
  C  C652  1  0.053300  0.548100  0.410720  1.0  0.6734
  C  C653  1  0.101200  0.731700  0.510400  1.0  0.2592
  C  C654  1  0.072700  0.768500  0.525300  1.0  -0.1036
  C  C655  1  0.104800  0.773500  0.503100  1.0  0.1871
  C  C656  1  0.107800  0.824000  0.490600  1.0  -0.0227
  O  O657  1  0.929800  0.007540  0.116810  1.0  -0.5429
  O  O658  1  0.995690  0.072680  0.118140  1.0  -0.5813
  O  O659  1  0.926100  0.488310  0.094700  1.0  -0.5515
  O  O660  1  0.998200  0.429290  0.093380  1.0  -0.5579
  O  O661  1  0.748500  0.340800  0.993130  1.0  -0.5147
  O  O662  1  0.429800  0.507540  0.616810  1.0  -0.5429
  O  O663  1  0.495690  0.572680  0.618140  1.0  -0.5813
  O  O664  1  0.426100  0.988310  0.594700  1.0  -0.5515
  O  O665  1  0.498200  0.929290  0.593380  1.0  -0.5579
  O  O666  1  0.248500  0.840800  0.493130  1.0  -0.5147
  O  O667  1  0.570200  0.492460  0.616810  1.0  -0.5431
  O  O668  1  0.504310  0.427320  0.618140  1.0  -0.5831
  O  O669  1  0.573900  0.011690  0.594700  1.0  -0.5532
  O  O670  1  0.501800  0.070710  0.593380  1.0  -0.5568
  O  O671  1  0.751500  0.159200  0.493130  1.0  -0.5138
  O  O672  1  0.070200  0.992460  0.116810  1.0  -0.5431
  O  O673  1  0.004310  0.927320  0.118140  1.0  -0.5831
  O  O674  1  0.073900  0.511690  0.094700  1.0  -0.5532
  O  O675  1  0.001800  0.570710  0.093380  1.0  -0.5568
  O  O676  1  0.251500  0.659200  0.993130  1.0  -0.5138
  O  O677  1  0.992460  0.429800  0.366810  1.0  -0.543
  O  O678  1  0.927320  0.495690  0.368140  1.0  -0.581
  O  O679  1  0.511690  0.426100  0.344700  1.0  -0.5524
  O  O680  1  0.570710  0.498200  0.343380  1.0  -0.5566
  O  O681  1  0.659200  0.248500  0.243130  1.0  -0.515
  O  O682  1  0.492460  0.929800  0.866810  1.0  -0.543
  O  O683  1  0.427320  0.995690  0.868140  1.0  -0.581
  O  O684  1  0.011690  0.926100  0.844700  1.0  -0.5524
  O  O685  1  0.070710  0.998200  0.843380  1.0  -0.5566
  O  O686  1  0.159200  0.748500  0.743130  1.0  -0.515
  O  O687  1  0.507540  0.070200  0.866810  1.0  -0.5432
  O  O688  1  0.572680  0.004310  0.868140  1.0  -0.5817
  O  O689  1  0.988310  0.073900  0.844700  1.0  -0.5521
  O  O690  1  0.929290  0.001800  0.843380  1.0  -0.5574
  O  O691  1  0.840800  0.251500  0.743130  1.0  -0.5129
  O  O692  1  0.007540  0.570200  0.366810  1.0  -0.5432
  O  O693  1  0.072680  0.504310  0.368140  1.0  -0.5817
  O  O694  1  0.488310  0.573900  0.344700  1.0  -0.5521
  O  O695  1  0.429290  0.501800  0.343380  1.0  -0.5574
  O  O696  1  0.340800  0.751500  0.243130  1.0  -0.5129
  O  O697  1  0.570200  0.007540  0.633190  1.0  -0.5434
  O  O698  1  0.504310  0.072680  0.631860  1.0  -0.5827
  O  O699  1  0.573900  0.488310  0.655300  1.0  -0.552
  O  O700  1  0.501800  0.429290  0.656620  1.0  -0.5572
  O  O701  1  0.751500  0.340800  0.756870  1.0  -0.5125
  O  O702  1  0.070200  0.507540  0.133190  1.0  -0.5434
  O  O703  1  0.004310  0.572680  0.131860  1.0  -0.5827
  O  O704  1  0.073900  0.988310  0.155300  1.0  -0.552
  O  O705  1  0.001800  0.929290  0.156620  1.0  -0.5572
  O  O706  1  0.251500  0.840800  0.256870  1.0  -0.5125
  O  O707  1  0.929800  0.492460  0.133190  1.0  -0.5435
  O  O708  1  0.995690  0.427320  0.131860  1.0  -0.5819
  O  O709  1  0.926100  0.011690  0.155300  1.0  -0.5523
  O  O710  1  0.998200  0.070710  0.156620  1.0  -0.5575
  O  O711  1  0.748500  0.159200  0.256870  1.0  -0.5147
  O  O712  1  0.429800  0.992460  0.633190  1.0  -0.5435
  O  O713  1  0.495690  0.927320  0.631860  1.0  -0.5819
  O  O714  1  0.426100  0.511690  0.655300  1.0  -0.5523
  O  O715  1  0.498200  0.570710  0.656620  1.0  -0.5575
  O  O716  1  0.248500  0.659200  0.756870  1.0  -0.5147
  O  O717  1  0.507540  0.429800  0.383190  1.0  -0.5427
  O  O718  1  0.572680  0.495690  0.381860  1.0  -0.5796
  O  O719  1  0.988310  0.426100  0.405300  1.0  -0.5532
  O  O720  1  0.929290  0.498200  0.406620  1.0  -0.5573
  O  O721  1  0.840800  0.248500  0.506870  1.0  -0.5132
  O  O722  1  0.007540  0.929800  0.883190  1.0  -0.5427
  O  O723  1  0.072680  0.995690  0.881860  1.0  -0.5796
  O  O724  1  0.488310  0.926100  0.905300  1.0  -0.5532
  O  O725  1  0.429290  0.998200  0.906620  1.0  -0.5573
  O  O726  1  0.340800  0.748500  0.006870  1.0  -0.5132
  O  O727  1  0.992460  0.070200  0.883190  1.0  -0.544
  O  O728  1  0.927320  0.004310  0.881860  1.0  -0.5822
  O  O729  1  0.511690  0.073900  0.905300  1.0  -0.5519
  O  O730  1  0.570710  0.001800  0.906620  1.0  -0.5574
  O  O731  1  0.659200  0.251500  0.006870  1.0  -0.5117
  O  O732  1  0.492460  0.570200  0.383190  1.0  -0.544
  O  O733  1  0.427320  0.504310  0.381860  1.0  -0.5822
  O  O734  1  0.011690  0.573900  0.405300  1.0  -0.5519
  O  O735  1  0.070710  0.501800  0.406620  1.0  -0.5574
  O  O736  1  0.159200  0.751500  0.506870  1.0  -0.5117
