# generated using pymatgen
data_Cd6H83(C6O)24
_symmetry_space_group_name_H-M   'P 1'
_cell_length_a   13.96900000
_cell_length_b   42.43900000
_cell_length_c   33.47000000
_cell_angle_alpha   90.00000000
_cell_angle_beta   90.00000000
_cell_angle_gamma   90.00000000
_symmetry_Int_Tables_number   1
_chemical_formula_structural   Cd6H83(C6O)24
_chemical_formula_sum   'Cd24 H332 C576 O96'
_cell_volume   19842.03318677
_cell_formula_units_Z   4
loop_
 _symmetry_equiv_pos_site_id
 _symmetry_equiv_pos_as_xyz
  1  'x, y, z'
loop_
 _atom_site_type_symbol
 _atom_site_label
 _atom_site_symmetry_multiplicity
 _atom_site_fract_x
 _atom_site_fract_y
 _atom_site_fract_z
 _atom_site_occupancy
 _atom_site_charge
  Cd  Cd1  1  0.464850  0.817230  0.805800  1.0  1.0804
  Cd  Cd2  1  0.193990  0.637440  0.300340  1.0  1.0778
  Cd  Cd3  1  0.964850  0.682770  0.305800  1.0  1.08
  Cd  Cd4  1  0.693990  0.862560  0.800340  1.0  1.0765
  Cd  Cd5  1  0.535150  0.182770  0.305800  1.0  1.0805
  Cd  Cd6  1  0.915830  0.838970  0.753340  1.0  0.8461
  Cd  Cd7  1  0.306010  0.137440  0.300340  1.0  1.0789
  Cd  Cd8  1  0.084170  0.161030  0.253340  1.0  0.8416
  Cd  Cd9  1  0.584170  0.338970  0.753340  1.0  0.841
  Cd  Cd10  1  0.415830  0.661030  0.253340  1.0  0.8468
  Cd  Cd11  1  0.806010  0.362560  0.800340  1.0  1.0775
  Cd  Cd12  1  0.035150  0.317230  0.805800  1.0  1.0809
  Cd  Cd13  1  0.923990  0.179170  0.996290  1.0  1.0834
  Cd  Cd14  1  0.351190  0.635210  0.989030  1.0  0.9917
  Cd  Cd15  1  0.576010  0.679170  0.996290  1.0  1.0835
  Cd  Cd16  1  0.121240  0.671000  0.022630  1.0  0.8641
  Cd  Cd17  1  0.148810  0.135210  0.989030  1.0  0.9866
  Cd  Cd18  1  0.378760  0.171000  0.022630  1.0  0.8653
  Cd  Cd19  1  0.878760  0.329000  0.522630  1.0  0.8655
  Cd  Cd20  1  0.648810  0.364790  0.489030  1.0  0.986
  Cd  Cd21  1  0.076010  0.820830  0.496290  1.0  1.0837
  Cd  Cd22  1  0.423990  0.320830  0.496290  1.0  1.0838
  Cd  Cd23  1  0.621240  0.829000  0.522630  1.0  0.8646
  Cd  Cd24  1  0.851190  0.864790  0.489030  1.0  0.9872
  H  H25  1  0.718900  0.249500  0.214100  1.0  0.1037
  H  H26  1  0.350200  0.364700  0.926300  1.0  0.1083
  H  H27  1  0.424200  0.458400  0.070600  1.0  0.1183
  H  H28  1  0.737200  0.059700  0.210700  1.0  0.1181
  H  H29  1  0.393000  0.437800  0.034000  1.0  0.1166
  H  H30  1  0.344800  0.036800  0.558900  1.0  0.126
  H  H31  1  0.262800  0.940300  0.710700  1.0  0.1198
  H  H32  1  0.203000  0.650200  0.600100  1.0  0.1298
  H  H33  1  0.592000  0.851300  0.106700  1.0  0.1296
  H  H34  1  0.762800  0.559700  0.210700  1.0  0.1196
  H  H35  1  0.830800  0.609500  0.230900  1.0  0.0889
  H  H36  1  0.757000  0.924900  0.238000  1.0  0.1238
  H  H37  1  0.620900  0.295400  0.312600  1.0  0.1338
  H  H38  1  0.879100  0.795400  0.312600  1.0  0.1345
  H  H39  1  0.323800  0.326500  0.055700  1.0  0.1252
  H  H40  1  0.421200  0.248000  0.277100  1.0  0.1042
  H  H41  1  0.107000  0.937800  0.034000  1.0  0.1162
  H  H42  1  0.578800  0.752000  0.777100  1.0  0.1024
  H  H43  1  0.338500  0.100400  0.397600  1.0  0.1268
  H  H44  1  0.591300  0.922800  0.718600  1.0  0.0952
  H  H45  1  0.330800  0.890500  0.730900  1.0  0.0888
  H  H46  1  0.411100  0.017500  0.587600  1.0  0.1268
  H  H47  1  0.510900  0.169400  0.442900  1.0  0.1218
  H  H48  1  0.167400  0.813000  0.099100  1.0  0.1116
  H  H49  1  0.799800  0.487200  0.089200  1.0  0.1343
  H  H50  1  0.820300  0.863800  0.924500  1.0  0.1128
  H  H51  1  0.155200  0.536800  0.558900  1.0  0.1256
  H  H52  1  0.149800  0.864700  0.926300  1.0  0.1071
  H  H53  1  0.969100  0.470900  0.687800  1.0  0.1004
  H  H54  1  0.911100  0.482500  0.087600  1.0  0.1259
  H  H55  1  0.795400  0.292100  0.197200  1.0  0.0946
  H  H56  1  0.575200  0.677000  0.575600  1.0  0.1423
  H  H57  1  0.740900  0.513100  0.735700  1.0  0.117
  H  H58  1  0.088900  0.517500  0.587600  1.0  0.125
  H  H59  1  0.759100  0.013100  0.735700  1.0  0.1166
  H  H60  1  0.408000  0.148700  0.606700  1.0  0.1308
  H  H61  1  0.259100  0.486900  0.235700  1.0  0.1164
  H  H62  1  0.218900  0.250500  0.714100  1.0  0.1044
  H  H63  1  0.780400  0.467000  0.763500  1.0  0.0883
  H  H64  1  0.703000  0.849800  0.100100  1.0  0.1297
  H  H65  1  0.244800  0.913900  0.203600  1.0  0.125
  H  H66  1  0.704600  0.792100  0.197200  1.0  0.0948
  H  H67  1  0.086200  0.031500  0.155800  1.0  0.0892
  H  H68  1  0.850200  0.135300  0.426300  1.0  0.1084
  H  H69  1  0.091300  0.577200  0.218600  1.0  0.0952
  H  H70  1  0.921200  0.252000  0.777100  1.0  0.1031
  H  H71  1  0.801300  0.839300  0.286700  1.0  0.0565
  H  H72  1  0.634300  0.589300  0.710500  1.0  0.1259
  H  H73  1  0.237200  0.440300  0.710700  1.0  0.1181
  H  H74  1  0.092000  0.648700  0.606700  1.0  0.1305
  H  H75  1  0.586200  0.468500  0.655800  1.0  0.0889
  H  H76  1  0.146500  0.570300  0.743500  1.0  0.1177
  H  H77  1  0.184100  0.956400  0.058600  1.0  0.1153
  H  H78  1  0.532000  0.848400  0.007100  1.0  0.0904
  H  H79  1  0.365700  0.410700  0.210500  1.0  0.1262
  H  H80  1  0.379100  0.704600  0.812600  1.0  0.1347
  H  H81  1  0.240900  0.986900  0.235700  1.0  0.1167
  H  H82  1  0.297000  0.150200  0.600100  1.0  0.1289
  H  H83  1  0.134300  0.910700  0.210500  1.0  0.1256
  H  H84  1  0.575800  0.541600  0.570600  1.0  0.1177
  H  H85  1  0.103500  0.131800  0.480800  1.0  0.0783
  H  H86  1  0.161500  0.600400  0.397600  1.0  0.1272
  H  H87  1  0.820000  0.418800  0.961200  1.0  0.09
  H  H88  1  0.418600  0.296200  0.246000  1.0  0.1006
  H  H89  1  0.176200  0.826500  0.055700  1.0  0.126
  H  H90  1  0.581400  0.703800  0.746000  1.0  0.1008
  H  H91  1  0.797000  0.349800  0.100100  1.0  0.1301
  H  H92  1  0.169200  0.390500  0.730900  1.0  0.0891
  H  H93  1  0.332600  0.313000  0.099100  1.0  0.1117
  H  H94  1  0.698700  0.339300  0.286700  1.0  0.0561
  H  H95  1  0.281100  0.750500  0.714100  1.0  0.1045
  H  H96  1  0.575500  0.644200  0.367900  1.0  0.1061
  H  H97  1  0.649800  0.635300  0.426300  1.0  0.107
  H  H98  1  0.010900  0.330600  0.942900  1.0  0.1219
  H  H99  1  0.989100  0.669400  0.442900  1.0  0.122
  H  H100  1  0.712000  0.958400  0.232400  1.0  0.1178
  H  H101  1  0.815900  0.043600  0.558600  1.0  0.1142
  H  H102  1  0.669200  0.109500  0.230900  1.0  0.0895
  H  H103  1  0.204600  0.707900  0.697200  1.0  0.095
  H  H104  1  0.295400  0.207900  0.697200  1.0  0.0949
  H  H105  1  0.607000  0.562200  0.534000  1.0  0.1164
  H  H106  1  0.340500  0.158600  0.642000  1.0  0.112
  H  H107  1  0.853500  0.429700  0.243500  1.0  0.1196
  H  H108  1  0.679700  0.363800  0.924500  1.0  0.1125
  H  H109  1  0.408700  0.077200  0.218600  1.0  0.0946
  H  H110  1  0.200200  0.512800  0.589200  1.0  0.1393
  H  H111  1  0.280400  0.033000  0.263500  1.0  0.0888
  H  H112  1  0.659500  0.841400  0.142000  1.0  0.1129
  H  H113  1  0.111800  0.077600  0.190800  1.0  0.0934
  H  H114  1  0.823800  0.173500  0.555700  1.0  0.1255
  H  H115  1  0.918600  0.203800  0.746000  1.0  0.1014
  H  H116  1  0.184800  0.267600  0.184200  1.0  0.093
  H  H117  1  0.300000  0.380700  0.212400  1.0  0.1217
  H  H118  1  0.212000  0.541600  0.732400  1.0  0.119
  H  H119  1  0.755200  0.086100  0.703600  1.0  0.1246
  H  H120  1  0.908700  0.422800  0.718600  1.0  0.0944
  H  H121  1  0.832600  0.187000  0.599100  1.0  0.1115
  H  H122  1  0.655200  0.963200  0.058900  1.0  0.1218
  H  H123  1  0.893000  0.062200  0.534000  1.0  0.1166
  H  H124  1  0.320000  0.081200  0.461200  1.0  0.0882
  H  H125  1  0.200000  0.880700  0.212400  1.0  0.1212
  H  H126  1  0.667400  0.687000  0.599100  1.0  0.111
  H  H127  1  0.530900  0.970900  0.687800  1.0  0.1009
  H  H128  1  0.243000  0.075100  0.738000  1.0  0.1225
  H  H129  1  0.913800  0.968500  0.655800  1.0  0.0893
  H  H130  1  0.743000  0.424900  0.238000  1.0  0.1235
  H  H131  1  0.815300  0.777000  0.720200  1.0  0.1037
  H  H132  1  0.489100  0.830600  0.942900  1.0  0.1217
  H  H133  1  0.700000  0.619300  0.712400  1.0  0.1211
  H  H134  1  0.081400  0.796200  0.246000  1.0  0.1002
  H  H135  1  0.396500  0.631800  0.480800  1.0  0.0785
  H  H136  1  0.159500  0.658600  0.642000  1.0  0.1117
  H  H137  1  0.468000  0.151600  0.507100  1.0  0.0907
  H  H138  1  0.908000  0.351300  0.106700  1.0  0.1312
  H  H139  1  0.315300  0.723000  0.220200  1.0  0.1035
  H  H140  1  0.661500  0.899600  0.897600  1.0  0.1271
  H  H141  1  0.288000  0.041600  0.732400  1.0  0.1189
  H  H142  1  0.676200  0.673500  0.555700  1.0  0.1256
  H  H143  1  0.924800  0.177000  0.575600  1.0  0.1435
  H  H144  1  0.684700  0.277000  0.720200  1.0  0.1035
  H  H145  1  0.315900  0.456400  0.058600  1.0  0.1141
  H  H146  1  0.924200  0.041600  0.570600  1.0  0.118
  H  H147  1  0.840500  0.341400  0.142000  1.0  0.1132
  H  H148  1  0.788000  0.458400  0.232400  1.0  0.1176
  H  H149  1  0.353500  0.070300  0.743500  1.0  0.1203
  H  H150  1  0.413800  0.531500  0.155800  1.0  0.0894
  H  H151  1  0.781100  0.749500  0.214100  1.0  0.1037
  H  H152  1  0.198700  0.160700  0.786700  1.0  0.0566
  H  H153  1  0.815200  0.732400  0.684200  1.0  0.0921
  H  H154  1  0.719600  0.967000  0.763500  1.0  0.0879
  H  H155  1  0.611800  0.422400  0.690800  1.0  0.0929
  H  H156  1  0.180000  0.581200  0.461200  1.0  0.0897
  H  H157  1  0.844800  0.463200  0.058900  1.0  0.1246
  H  H158  1  0.684100  0.543600  0.558600  1.0  0.115
  H  H159  1  0.424800  0.323000  0.075600  1.0  0.1434
  H  H160  1  0.700200  0.987200  0.089200  1.0  0.1343
  H  H161  1  0.315200  0.767600  0.184200  1.0  0.0924
  H  H162  1  0.646500  0.929700  0.243500  1.0  0.118
  H  H163  1  0.744800  0.586100  0.703600  1.0  0.1246
  H  H164  1  0.800000  0.119300  0.712400  1.0  0.1215
  H  H165  1  0.078800  0.748000  0.277100  1.0  0.1033
  H  H166  1  0.075500  0.855800  0.867900  1.0  0.1058
  H  H167  1  0.968000  0.348400  0.007100  1.0  0.0907
  H  H168  1  0.469100  0.029100  0.187800  1.0  0.1012
  H  H169  1  0.075800  0.958400  0.070600  1.0  0.1182
  H  H170  1  0.603500  0.368200  0.980800  1.0  0.0782
  H  H171  1  0.388200  0.577600  0.190800  1.0  0.0934
  H  H172  1  0.032000  0.651600  0.507100  1.0  0.0903
  H  H173  1  0.888200  0.922400  0.690800  1.0  0.0933
  H  H174  1  0.257000  0.575100  0.738000  1.0  0.1232
  H  H175  1  0.255200  0.413900  0.203600  1.0  0.1235
  H  H176  1  0.299800  0.012800  0.589200  1.0  0.135
  H  H177  1  0.075200  0.823000  0.075600  1.0  0.1421
  H  H178  1  0.120900  0.204600  0.812600  1.0  0.1344
  H  H179  1  0.424500  0.355800  0.867900  1.0  0.1056
  H  H180  1  0.030900  0.529100  0.187800  1.0  0.1014
  H  H181  1  0.301300  0.660700  0.786700  1.0  0.0568
  H  H182  1  0.896500  0.868200  0.980800  1.0  0.0784
  H  H183  1  0.179700  0.136200  0.424500  1.0  0.1113
  H  H184  1  0.219600  0.533000  0.263500  1.0  0.0882
  H  H185  1  0.588900  0.982500  0.087600  1.0  0.1245
  H  H186  1  0.320300  0.636200  0.424500  1.0  0.1119
  H  H187  1  0.184700  0.223000  0.220200  1.0  0.1035
  H  H188  1  0.924500  0.144200  0.367900  1.0  0.1056
  H  H189  1  0.684800  0.232400  0.684200  1.0  0.0926
  H  H190  1  0.680000  0.918800  0.961200  1.0  0.0903
  H  H191  1  0.865700  0.089300  0.710500  1.0  0.1268
  H  H192  1  0.838500  0.399600  0.897600  1.0  0.127
  H  H193  1  0.583700  0.406700  0.040700  1.0  0.1159
  H  H194  1  0.815600  0.920600  0.051400  1.0  0.1195
  H  H195  1  0.595400  0.669300  0.857000  1.0  0.1028
  H  H196  1  0.426000  0.575600  0.048800  1.0  0.1161
  H  H197  1  0.616000  0.043000  0.719400  1.0  0.1173
  H  H198  1  0.571200  0.153300  0.840200  1.0  0.1256
  H  H199  1  0.058400  0.413600  0.065300  1.0  0.1358
  H  H200  1  0.740800  0.002300  0.572800  1.0  0.0903
  H  H201  1  0.557700  0.278700  0.051600  1.0  0.1042
  H  H202  1  0.442300  0.721300  0.551600  1.0  0.1049
  H  H203  1  0.024200  0.443100  0.239800  1.0  0.1145
  H  H204  1  0.439400  0.550800  0.728100  1.0  0.1151
  H  H205  1  0.906200  0.942400  0.052100  1.0  0.1177
  H  H206  1  0.497100  0.965300  0.611000  1.0  0.0909
  H  H207  1  0.037200  0.295900  0.025000  1.0  0.0881
  H  H208  1  0.462800  0.795900  0.025000  1.0  0.0882
  H  H209  1  0.801700  0.094200  0.075700  1.0  0.0867
  H  H210  1  0.259200  0.997700  0.072800  1.0  0.0897
  H  H211  1  0.217400  0.047200  0.048100  1.0  0.096
  H  H212  1  0.611500  0.409900  0.320500  1.0  0.1178
  H  H213  1  0.331300  0.911400  0.073600  1.0  0.1284
  H  H214  1  0.022100  0.672500  0.697400  1.0  0.1279
  H  H215  1  0.443400  0.526300  0.076800  1.0  0.0898
  H  H216  1  0.636400  0.234400  0.023000  1.0  0.1043
  H  H217  1  0.477900  0.172500  0.697400  1.0  0.1264
  H  H218  1  0.167000  0.608500  0.805000  1.0  0.0865
  H  H219  1  0.380700  0.528600  0.699800  1.0  0.1263
  H  H220  1  0.522100  0.827500  0.197400  1.0  0.1279
  H  H221  1  0.162200  0.709900  0.484900  1.0  0.0816
  H  H222  1  0.388500  0.590100  0.820500  1.0  0.1165
  H  H223  1  0.952200  0.828500  0.142700  1.0  0.1163
  H  H224  1  0.782600  0.952800  0.548100  1.0  0.0958
  H  H225  1  0.301700  0.405800  0.575700  1.0  0.0868
  H  H226  1  0.404600  0.330700  0.357000  1.0  0.1028
  H  H227  1  0.416100  0.599900  0.887600  1.0  0.1049
  H  H228  1  0.168700  0.411400  0.073600  1.0  0.1293
  H  H229  1  0.452200  0.671500  0.642700  1.0  0.116
  H  H230  1  0.516100  0.338700  0.185700  1.0  0.1211
  H  H231  1  0.263000  0.721700  0.082000  1.0  0.106
  H  H232  1  0.375200  0.666667  0.676200  1.0  0.1282
  H  H233  1  0.970400  0.420500  0.574500  1.0  0.0733
  H  H234  1  0.095400  0.830700  0.357000  1.0  0.1027
  H  H235  1  0.124800  0.166700  0.676200  1.0  0.1297
  H  H236  1  0.994800  0.333900  0.399300  1.0  0.1005
  H  H237  1  0.384000  0.957000  0.219400  1.0  0.1168
  H  H238  1  0.529600  0.920500  0.574500  1.0  0.0744
  H  H239  1  0.833000  0.391500  0.305000  1.0  0.0877
  H  H240  1  0.831300  0.588600  0.573600  1.0  0.1279
  H  H241  1  0.416300  0.593300  0.540700  1.0  0.1156
  H  H242  1  0.333000  0.108500  0.805000  1.0  0.0871
  H  H243  1  0.111500  0.090100  0.820500  1.0  0.1172
  H  H244  1  0.093800  0.057600  0.552100  1.0  0.1171
  H  H245  1  0.007600  0.030200  0.696200  1.0  0.1293
  H  H246  1  0.962800  0.704100  0.525000  1.0  0.0884
  H  H247  1  0.119300  0.028600  0.699800  1.0  0.1263
  H  H248  1  0.863600  0.734400  0.023000  1.0  0.1045
  H  H249  1  0.282600  0.547200  0.048100  1.0  0.0959
  H  H250  1  0.668700  0.088600  0.573600  1.0  0.1286
  H  H251  1  0.184400  0.079400  0.551400  1.0  0.1231
  H  H252  1  0.977900  0.327500  0.197400  1.0  0.1267
  H  H253  1  0.537200  0.204100  0.525000  1.0  0.0883
  H  H254  1  0.574100  0.183200  0.677500  1.0  0.1174
  H  H255  1  0.586800  0.653300  0.790000  1.0  0.1191
  H  H256  1  0.983900  0.838700  0.185700  1.0  0.1219
  H  H257  1  0.002900  0.465300  0.611000  1.0  0.0906
  H  H258  1  0.770100  0.333333  0.015800  1.0  0.1029
  H  H259  1  0.083700  0.093300  0.540700  1.0  0.1159
  H  H260  1  0.553700  0.251000  0.494500  1.0  0.0988
  H  H261  1  0.441600  0.913600  0.065300  1.0  0.1355
  H  H262  1  0.926000  0.924400  0.548800  1.0  0.1165
  H  H263  1  0.074100  0.316800  0.177500  1.0  0.1171
  H  H264  1  0.916100  0.900100  0.387600  1.0  0.105
  H  H265  1  0.446300  0.749000  0.994500  1.0  0.0988
  H  H266  1  0.890600  0.619400  0.566200  1.0  0.1197
  H  H267  1  0.363600  0.765600  0.523000  1.0  0.1048
  H  H268  1  0.428800  0.846700  0.340200  1.0  0.1254
  H  H269  1  0.047800  0.171500  0.642700  1.0  0.1168
  H  H270  1  0.083900  0.099900  0.887600  1.0  0.1046
  H  H271  1  0.492400  0.530200  0.696200  1.0  0.1295
  H  H272  1  0.494800  0.166100  0.899300  1.0  0.1011
  H  H273  1  0.698300  0.594200  0.075700  1.0  0.0864
  H  H274  1  0.136400  0.265600  0.523000  1.0  0.1048
  H  H275  1  0.475800  0.943100  0.239800  1.0  0.1156
  H  H276  1  0.109400  0.380600  0.066200  1.0  0.1182
  H  H277  1  0.086800  0.846700  0.290000  1.0  0.1192
  H  H278  1  0.925900  0.683200  0.677500  1.0  0.1175
  H  H279  1  0.556600  0.473700  0.576800  1.0  0.0898
  H  H280  1  0.619300  0.471400  0.199800  1.0  0.1254
  H  H281  1  0.315600  0.579400  0.551400  1.0  0.1194
  H  H282  1  0.560600  0.449200  0.228100  1.0  0.1144
  H  H283  1  0.242900  0.618300  0.868700  1.0  0.1086
  H  H284  1  0.946300  0.751000  0.494500  1.0  0.0988
  H  H285  1  0.837800  0.290100  0.984900  1.0  0.0816
  H  H286  1  0.483900  0.661300  0.685700  1.0  0.1214
  H  H287  1  0.888500  0.909900  0.320500  1.0  0.1177
  H  H288  1  0.014400  0.465100  0.202400  1.0  0.1163
  H  H289  1  0.717400  0.452800  0.548100  1.0  0.0959
  H  H290  1  0.737000  0.278300  0.582000  1.0  0.1061
  H  H291  1  0.056600  0.026300  0.076800  1.0  0.09
  H  H292  1  0.257100  0.118300  0.868700  1.0  0.1078
  H  H293  1  0.574000  0.424400  0.548800  1.0  0.1163
  H  H294  1  0.060600  0.050800  0.728100  1.0  0.1151
  H  H295  1  0.939400  0.949200  0.228100  1.0  0.114
  H  H296  1  0.884000  0.543000  0.719400  1.0  0.1172
  H  H297  1  0.074300  0.330100  0.221200  1.0  0.1338
  H  H298  1  0.016100  0.161300  0.685700  1.0  0.1208
  H  H299  1  0.425700  0.830100  0.221200  1.0  0.134
  H  H300  1  0.029600  0.579500  0.074500  1.0  0.0752
  H  H301  1  0.574300  0.169900  0.721200  1.0  0.1333
  H  H302  1  0.763000  0.778300  0.582000  1.0  0.1061
  H  H303  1  0.782000  0.729800  0.610300  1.0  0.0725
  H  H304  1  0.928800  0.653300  0.840200  1.0  0.1244
  H  H305  1  0.757100  0.381700  0.368700  1.0  0.1091
  H  H306  1  0.390600  0.880600  0.066200  1.0  0.1186
  H  H307  1  0.337800  0.209900  0.484900  1.0  0.0813
  H  H308  1  0.684400  0.420600  0.051400  1.0  0.1229
  H  H309  1  0.282000  0.770200  0.110300  1.0  0.0733
  H  H310  1  0.742900  0.881700  0.368700  1.0  0.109
  H  H311  1  0.583900  0.400100  0.387600  1.0  0.1048
  H  H312  1  0.507600  0.469800  0.196200  1.0  0.1285
  H  H313  1  0.925700  0.669900  0.721200  1.0  0.1331
  H  H314  1  0.943400  0.973700  0.576800  1.0  0.0901
  H  H315  1  0.524200  0.056900  0.739800  1.0  0.1152
  H  H316  1  0.218000  0.270200  0.110300  1.0  0.073
  H  H317  1  0.005200  0.666100  0.899300  1.0  0.1008
  H  H318  1  0.270100  0.166700  0.515800  1.0  0.1035
  H  H319  1  0.558400  0.086400  0.565300  1.0  0.1349
  H  H320  1  0.505200  0.833900  0.399300  1.0  0.1006
  H  H321  1  0.913200  0.153300  0.790000  1.0  0.1186
  H  H322  1  0.074000  0.075600  0.048800  1.0  0.1177
  H  H323  1  0.880700  0.971400  0.199800  1.0  0.1257
  H  H324  1  0.547800  0.328500  0.142700  1.0  0.1163
  H  H325  1  0.502900  0.034700  0.111000  1.0  0.0908
  H  H326  1  0.470400  0.079500  0.074500  1.0  0.0747
  H  H327  1  0.593800  0.442400  0.052100  1.0  0.118
  H  H328  1  0.514400  0.034900  0.702400  1.0  0.1161
  H  H329  1  0.240800  0.497700  0.072800  1.0  0.0897
  H  H330  1  0.997100  0.534700  0.111000  1.0  0.0912
  H  H331  1  0.941600  0.586400  0.565300  1.0  0.1351
  H  H332  1  0.985600  0.534900  0.702400  1.0  0.1163
  H  H333  1  0.662200  0.790100  0.984900  1.0  0.0818
  H  H334  1  0.942300  0.778700  0.051600  1.0  0.1043
  H  H335  1  0.413200  0.346700  0.290000  1.0  0.1188
  H  H336  1  0.053700  0.249000  0.994500  1.0  0.0987
  H  H337  1  0.116000  0.457000  0.219400  1.0  0.1163
  H  H338  1  0.071200  0.346700  0.340200  1.0  0.1252
  H  H339  1  0.057700  0.221300  0.551600  1.0  0.1044
  H  H340  1  0.975800  0.556900  0.739800  1.0  0.1158
  H  H341  1  0.729900  0.833300  0.015800  1.0  0.1037
  H  H342  1  0.425900  0.816800  0.177500  1.0  0.1168
  H  H343  1  0.667000  0.891500  0.305000  1.0  0.0872
  H  H344  1  0.229900  0.666667  0.515800  1.0  0.103
  H  H345  1  0.904600  0.169300  0.857000  1.0  0.1028
  H  H346  1  0.875200  0.833300  0.176200  1.0  0.128
  H  H347  1  0.237000  0.221700  0.082000  1.0  0.1058
  H  H348  1  0.759200  0.502300  0.572800  1.0  0.0904
  H  H349  1  0.406200  0.557600  0.552100  1.0  0.1169
  H  H350  1  0.624800  0.333333  0.176200  1.0  0.1308
  H  H351  1  0.485600  0.965100  0.202400  1.0  0.115
  H  H352  1  0.609400  0.119400  0.566200  1.0  0.1193
  H  H353  1  0.198300  0.905800  0.575700  1.0  0.0864
  H  H354  1  0.992400  0.969800  0.196200  1.0  0.1282
  H  H355  1  0.718000  0.229800  0.610300  1.0  0.0724
  H  H356  1  0.916300  0.906700  0.040700  1.0  0.1157
  C  C357  1  0.744800  0.792700  0.219300  1.0  -0.1337
  C  C358  1  0.162300  0.609700  0.632000  1.0  -0.0902
  C  C359  1  0.552200  0.859400  0.984600  1.0  -0.1052
  C  C360  1  0.149700  0.527800  0.585100  1.0  -0.3831
  C  C361  1  0.755200  0.292700  0.219300  1.0  -0.1326
  C  C362  1  0.267200  0.737700  0.224400  1.0  -0.0637
  C  C363  1  0.419400  0.375900  0.997500  1.0  0.0705
  C  C364  1  0.309700  0.559800  0.232400  1.0  -0.1025
  C  C365  1  0.721300  0.494200  0.724400  1.0  -0.1888
  C  C366  1  0.301600  0.231600  0.251700  1.0  -0.115
  C  C367  1  0.508100  0.874700  0.749800  1.0  0.6814
  C  C368  1  0.183500  0.603200  0.673600  1.0  0.0094
  C  C369  1  0.857000  0.400800  0.957300  1.0  -0.0757
  C  C370  1  0.190300  0.059800  0.232400  1.0  -0.1
  C  C371  1  0.194400  0.700900  0.270900  1.0  0.6925
  C  C372  1  0.140600  0.487600  0.681400  1.0  0.2732
  C  C373  1  0.536000  0.097400  0.228600  1.0  -0.065
  C  C374  1  0.658000  0.985700  0.170600  1.0  0.0493
  C  C375  1  0.974300  0.425800  0.715800  1.0  -0.0518
  C  C376  1  0.386800  0.637000  0.424800  1.0  -0.0847
  C  C377  1  0.637700  0.583600  0.587900  1.0  0.064
  C  C378  1  0.255200  0.207300  0.719300  1.0  -0.1326
  C  C379  1  0.837700  0.390300  0.132000  1.0  -0.0904
  C  C380  1  0.325100  0.395300  0.153800  1.0  -0.0848
  C  C381  1  0.103800  0.613000  0.489500  1.0  -0.0498
  C  C382  1  0.690300  0.440200  0.732400  1.0  -0.0997
  C  C383  1  0.332400  0.475700  0.161300  1.0  0.0745
  C  C384  1  0.694400  0.799100  0.770900  1.0  0.6919
  C  C385  1  0.162300  0.951900  0.144500  1.0  0.271
  C  C386  1  0.698400  0.768400  0.751700  1.0  -0.1162
  C  C387  1  0.732100  0.235500  0.703300  1.0  -0.1356
  C  C388  1  0.705200  0.411700  0.758100  1.0  0.7172
  C  C389  1  0.809700  0.940200  0.732400  1.0  -0.1017
  C  C390  1  0.548400  0.851200  0.872400  1.0  0.7133
  C  C391  1  0.696800  0.873700  0.200000  1.0  0.1495
  C  C392  1  0.799600  0.820800  0.271800  1.0  -0.0729
  C  C393  1  0.825100  0.104700  0.653800  1.0  -0.0847
  C  C394  1  0.810000  0.099300  0.699400  1.0  -0.3883
  C  C395  1  0.326300  0.506400  0.186700  1.0  -0.0463
  C  C396  1  0.313300  0.070500  0.685200  1.0  0.096
  C  C397  1  0.572200  0.863700  0.913500  1.0  -0.1395
  C  C398  1  0.128300  0.407000  0.724500  1.0  -0.0769
  C  C399  1  0.368800  0.110100  0.419000  1.0  -0.1141
  C  C400  1  0.583200  0.635900  0.425700  1.0  -0.1321
  C  C401  1  0.287200  0.732600  0.730000  1.0  -0.0844
  C  C402  1  0.868800  0.389900  0.919000  1.0  -0.1149
  C  C403  1  0.305600  0.200900  0.270900  1.0  0.692
  C  C404  1  0.847000  0.794500  0.288300  1.0  -0.1337
  C  C405  1  0.850300  0.472200  0.085100  1.0  -0.3822
  C  C406  1  0.232800  0.237700  0.224400  1.0  -0.0636
  C  C407  1  0.967200  0.131400  0.460300  1.0  0.0159
  C  C408  1  0.337700  0.451900  0.144500  1.0  0.2698
  C  C409  1  0.794800  0.911700  0.758100  1.0  0.719
  C  C410  1  0.491900  0.125300  0.249800  1.0  0.682
  C  C411  1  0.342400  0.734300  0.764600  1.0  -0.1226
  C  C412  1  0.767900  0.735500  0.703300  1.0  -0.1369
  C  C413  1  0.827700  0.136000  0.638500  1.0  0.0088
  C  C414  1  0.947800  0.359400  0.984600  1.0  -0.1032
  C  C415  1  0.826300  0.993600  0.686700  1.0  -0.0462
  C  C416  1  0.052200  0.640600  0.484600  1.0  -0.1029
  C  C417  1  0.667600  0.524300  0.661300  1.0  0.0718
  C  C418  1  0.864800  0.406800  0.063400  1.0  0.1641
  C  C419  1  0.416800  0.364100  0.925700  1.0  -0.1364
  C  C420  1  0.662300  0.890300  0.132000  1.0  -0.0904
  C  C421  1  0.529600  0.847800  0.946500  1.0  -0.0891
  C  C422  1  0.712800  0.267400  0.230000  1.0  -0.0894
  C  C423  1  0.970400  0.347800  0.946500  1.0  -0.0882
  C  C424  1  0.183700  0.839400  0.163800  1.0  0.1284
  C  C425  1  0.199400  0.787900  0.209400  1.0  0.023
  C  C426  1  0.842400  0.765700  0.264600  1.0  -0.1235
  C  C427  1  0.991900  0.374700  0.749800  1.0  0.683
  C  C428  1  0.872800  0.247200  0.759000  1.0  -0.0729
  C  C429  1  0.186700  0.570500  0.685200  1.0  0.0959
  C  C430  1  0.390800  0.648200  0.346700  1.0  0.7361
  C  C431  1  0.232100  0.264500  0.203300  1.0  -0.138
  C  C432  1  0.803200  0.373700  0.200000  1.0  0.1509
  C  C433  1  0.964000  0.597400  0.228600  1.0  -0.0631
  C  C434  1  0.303200  0.126300  0.700000  1.0  0.1527
  C  C435  1  0.560000  0.357500  0.887300  1.0  -0.1488
  C  C436  1  0.890800  0.539700  0.195500  1.0  0.1077
  C  C437  1  0.359400  0.987600  0.681400  1.0  0.2742
  C  C438  1  0.172300  0.864000  0.138500  1.0  0.0097
  C  C439  1  0.362300  0.416400  0.087900  1.0  0.0623
  C  C440  1  0.378600  0.101300  0.529900  1.0  -0.0301
  C  C441  1  0.683500  0.896800  0.173600  1.0  0.0093
  C  C442  1  0.113200  0.137000  0.424800  1.0  -0.0857
  C  C443  1  0.832100  0.451700  0.157900  1.0  -0.0345
  C  C444  1  0.127200  0.752800  0.259000  1.0  -0.0726
  C  C445  1  0.432000  0.633300  0.457400  1.0  -0.0877
  C  C446  1  0.236400  0.032500  0.242600  1.0  -0.0604
  C  C447  1  0.732800  0.262300  0.724400  1.0  -0.0638
  C  C448  1  0.109200  0.148200  0.346700  1.0  0.7341
  C  C449  1  0.294800  0.588300  0.258100  1.0  0.7183
  C  C450  1  0.763600  0.967500  0.742600  1.0  -0.0593
  C  C451  1  0.832400  0.024300  0.661300  1.0  0.0722
  C  C452  1  0.718800  0.850300  0.220900  1.0  0.0665
  C  C453  1  0.871700  0.593000  0.224500  1.0  -0.0786
  C  C454  1  0.359600  0.559000  0.199700  1.0  -0.0812
  C  C455  1  0.371700  0.907000  0.724500  1.0  -0.0784
  C  C456  1  0.690000  0.599300  0.699400  1.0  -0.3883
  C  C457  1  0.328600  0.937100  0.710100  1.0  -0.1106
  C  C458  1  0.672300  0.636000  0.638500  1.0  0.0089
  C  C459  1  0.940000  0.857500  0.887300  1.0  -0.1492
  C  C460  1  0.137700  0.916400  0.087900  1.0  0.0632
  C  C461  1  0.299600  0.679200  0.771800  1.0  -0.0741
  C  C462  1  0.878600  0.398700  0.029900  1.0  -0.0303
  C  C463  1  0.427800  0.136300  0.413500  1.0  -0.1394
  C  C464  1  0.345100  0.421800  0.127100  1.0  -0.0112
  C  C465  1  0.859400  0.512400  0.181400  1.0  0.2754
  C  C466  1  0.141400  0.827800  0.080300  1.0  -0.3981
  C  C467  1  0.316300  0.339400  0.163800  1.0  0.129
  C  C468  1  0.342600  0.054700  0.617200  1.0  -0.0288
  C  C469  1  0.867000  0.113100  0.572300  1.0  -0.0385
  C  C470  1  0.627200  0.747200  0.759000  1.0  -0.0725
  C  C471  1  0.683700  0.660600  0.663800  1.0  0.1314
  C  C472  1  0.624900  0.555000  0.560100  1.0  -0.3868
  C  C473  1  0.525700  0.925800  0.715800  1.0  -0.0503
  C  C474  1  0.845100  0.078200  0.627100  1.0  -0.0112
  C  C475  1  0.816300  0.160600  0.663800  1.0  0.1322
  C  C476  1  0.649900  0.639200  0.597100  1.0  -0.0859
  C  C477  1  0.149900  0.860800  0.097100  1.0  -0.0861
  C  C478  1  0.451600  0.148800  0.372400  1.0  0.7139
  C  C479  1  0.932000  0.866700  0.957400  1.0  -0.0879
  C  C480  1  0.375100  0.445000  0.060100  1.0  -0.3839
  C  C481  1  0.243900  0.178100  0.739700  1.0  0.298
  C  C482  1  0.364800  0.093200  0.563400  1.0  0.1648
  C  C483  1  0.532800  0.631400  0.460300  1.0  0.0145
  C  C484  1  0.440000  0.642500  0.387300  1.0  -0.1488
  C  C485  1  0.133000  0.886900  0.072300  1.0  -0.0396
  C  C486  1  0.613200  0.363000  0.924800  1.0  -0.0863
  C  C487  1  0.743900  0.321900  0.239700  1.0  0.299
  C  C488  1  0.390800  0.960300  0.695500  1.0  0.1082
  C  C489  1  0.032800  0.868600  0.960300  1.0  0.0146
  C  C490  1  0.701900  0.936200  0.228700  1.0  -0.4034
  C  C491  1  0.798100  0.436200  0.228700  1.0  -0.4042
  C  C492  1  0.461400  0.358700  0.890700  1.0  -0.0553
  C  C493  1  0.080600  0.875900  0.997500  1.0  0.0705
  C  C494  1  0.700400  0.320800  0.271800  1.0  -0.0668
  C  C495  1  0.263600  0.532500  0.242600  1.0  -0.0593
  C  C496  1  0.392200  0.380500  0.030300  1.0  0.031
  C  C497  1  0.298100  0.063800  0.728700  1.0  -0.4033
  C  C498  1  0.673700  0.493600  0.686700  1.0  -0.0457
  C  C499  1  0.135200  0.593200  0.563400  1.0  0.1663
  C  C500  1  0.345000  0.086600  0.603800  1.0  -0.011
  C  C501  1  0.657600  0.265700  0.264600  1.0  -0.1252
  C  C502  1  0.862300  0.083600  0.587900  1.0  0.063
  C  C503  1  0.372700  0.281200  0.239700  1.0  -0.1049
  C  C504  1  0.316500  0.103200  0.673600  1.0  0.0095
  C  C505  1  0.157400  0.554700  0.617200  1.0  -0.0289
  C  C506  1  0.153000  0.205500  0.788300  1.0  -0.134
  C  C507  1  0.859600  0.941000  0.699700  1.0  -0.0819
  C  C508  1  0.205200  0.088300  0.258100  1.0  0.718
  C  C509  1  0.872100  0.968400  0.677400  1.0  -0.1399
  C  C510  1  0.131200  0.610100  0.419000  1.0  -0.1143
  C  C511  1  0.350100  0.360800  0.097100  1.0  -0.0861
  C  C512  1  0.633000  0.613100  0.572300  1.0  -0.0391
  C  C513  1  0.988800  0.544200  0.197500  1.0  -0.1205
  C  C514  1  0.951600  0.351200  0.872400  1.0  0.7137
  C  C515  1  0.196800  0.626300  0.700000  1.0  0.1523
  C  C516  1  0.342000  0.014300  0.670600  1.0  0.046
  C  C517  1  0.845000  0.413400  0.103800  1.0  -0.0111
  C  C518  1  0.568000  0.366700  0.957400  1.0  -0.0894
  C  C519  1  0.281200  0.149700  0.720900  1.0  0.0674
  C  C520  1  0.837700  0.048100  0.644500  1.0  0.2689
  C  C521  1  0.640400  0.441000  0.699700  1.0  -0.082
  C  C522  1  0.124900  0.945000  0.060100  1.0  -0.3847
  C  C523  1  0.635200  0.906800  0.063400  1.0  0.1664
  C  C524  1  0.692900  0.684500  0.685900  1.0  0.0143
  C  C525  1  0.267900  0.764500  0.203300  1.0  -0.1369
  C  C526  1  0.470400  0.152200  0.446500  1.0  -0.0878
  C  C527  1  0.767200  0.762300  0.724400  1.0  -0.0629
  C  C528  1  0.256100  0.678100  0.739700  1.0  0.2965
  C  C529  1  0.357000  0.099200  0.457300  1.0  -0.072
  C  C530  1  0.048400  0.648800  0.372400  1.0  0.7136
  C  C531  1  0.654900  0.578200  0.627100  1.0  -0.0123
  C  C532  1  0.653300  0.854700  0.118900  1.0  -0.3638
  C  C533  1  0.358600  0.327800  0.080300  1.0  -0.3982
  C  C534  1  0.300600  0.287900  0.209400  1.0  0.0241
  C  C535  1  0.167600  0.975700  0.161300  1.0  0.074
  C  C536  1  0.025700  0.574200  0.215800  1.0  -0.0504
  C  C537  1  0.244800  0.707300  0.719300  1.0  -0.1315
  C  C538  1  0.686700  0.929500  0.185200  1.0  0.096
  C  C539  1  0.927800  0.363700  0.913500  1.0  -0.1396
  C  C540  1  0.603800  0.887000  0.989500  1.0  -0.0497
  C  C541  1  0.667900  0.951700  0.157900  1.0  -0.0357
  C  C542  1  0.068000  0.133300  0.457400  1.0  -0.0899
  C  C543  1  0.367000  0.386900  0.072300  1.0  -0.0394
  C  C544  1  0.640600  0.012400  0.181400  1.0  0.274
  C  C545  1  0.201900  0.563800  0.728700  1.0  -0.3998
  C  C546  1  0.190000  0.900700  0.199400  1.0  -0.3898
  C  C547  1  0.800600  0.212100  0.709400  1.0  0.0241
  C  C548  1  0.671400  0.062900  0.210100  1.0  -0.1059
  C  C549  1  0.447800  0.140600  0.484600  1.0  -0.1046
  C  C550  1  0.919400  0.124100  0.497500  1.0  0.0705
  C  C551  1  0.154900  0.921800  0.127100  1.0  -0.0125
  C  C552  1  0.488800  0.955800  0.697500  1.0  -0.1219
  C  C553  1  0.121400  0.601300  0.529900  1.0  -0.0312
  C  C554  1  0.609200  0.351800  0.846700  1.0  0.7341
  C  C555  1  0.072200  0.636300  0.413500  1.0  -0.1393
  C  C556  1  0.127300  0.781200  0.239700  1.0  -0.1045
  C  C557  1  0.390100  0.763200  0.779200  1.0  0.6537
  C  C558  1  0.278700  0.505800  0.224400  1.0  -0.1898
  C  C559  1  0.158000  0.514300  0.670600  1.0  0.0471
  C  C560  1  0.036000  0.402600  0.728600  1.0  -0.0645
  C  C561  1  0.011200  0.455800  0.697500  1.0  -0.1212
  C  C562  1  0.143000  0.599200  0.457300  1.0  -0.0742
  C  C563  1  0.464000  0.902600  0.728600  1.0  -0.0631
  C  C564  1  0.662300  0.548100  0.644500  1.0  0.2705
  C  C565  1  0.350300  0.027800  0.585100  1.0  -0.3817
  C  C566  1  0.167900  0.548300  0.657900  1.0  -0.0372
  C  C567  1  0.212800  0.232600  0.730000  1.0  -0.0855
  C  C568  1  0.140400  0.059000  0.199700  1.0  -0.0811
  C  C569  1  0.872700  0.218800  0.739700  1.0  -0.1039
  C  C570  1  0.200400  0.179200  0.771800  1.0  -0.0746
  C  C571  1  0.173700  0.006400  0.186700  1.0  -0.0462
  C  C572  1  0.655000  0.913400  0.103800  1.0  -0.0107
  C  C573  1  0.842000  0.485700  0.170600  1.0  0.0478
  C  C574  1  0.332100  0.048300  0.657900  1.0  -0.0329
  C  C575  1  0.674900  0.604700  0.653800  1.0  -0.0847
  C  C576  1  0.107800  0.880500  0.030300  1.0  0.0335
  C  C577  1  0.396200  0.113000  0.489500  1.0  -0.0499
  C  C578  1  0.221300  0.005800  0.224400  1.0  -0.1889
  C  C579  1  0.372800  0.252800  0.259000  1.0  -0.073
  C  C580  1  0.961400  0.141300  0.390700  1.0  -0.0502
  C  C581  1  0.038600  0.858700  0.890700  1.0  -0.0517
  C  C582  1  0.153300  0.645300  0.618900  1.0  -0.3622
  C  C583  1  0.192900  0.815500  0.185900  1.0  0.0142
  C  C584  1  0.174900  0.895300  0.153800  1.0  -0.0849
  C  C585  1  0.607800  0.619500  0.530300  1.0  0.0343
  C  C586  1  0.627900  0.468400  0.677400  1.0  -0.1384
  C  C587  1  0.778700  0.994200  0.724400  1.0  -0.1893
  C  C588  1  0.609200  0.039700  0.195500  1.0  0.1062
  C  C589  1  0.538600  0.641300  0.390700  1.0  -0.0516
  C  C590  1  0.218800  0.649700  0.720900  1.0  0.0667
  C  C591  1  0.886800  0.863000  0.924800  1.0  -0.0846
  C  C592  1  0.699400  0.712100  0.709400  1.0  0.0232
  C  C593  1  0.628300  0.093000  0.224500  1.0  -0.0776
  C  C594  1  0.641400  0.672200  0.580300  1.0  -0.3975
  C  C595  1  0.029600  0.652200  0.446500  1.0  -0.0899
  C  C596  1  0.467200  0.368600  0.960300  1.0  0.016
  C  C597  1  0.890100  0.736800  0.279200  1.0  0.6502
  C  C598  1  0.631200  0.889900  0.919000  1.0  -0.1146
  C  C599  1  0.858600  0.172200  0.580300  1.0  -0.3975
  C  C600  1  0.310000  0.400700  0.199400  1.0  -0.3881
  C  C601  1  0.896200  0.387000  0.989500  1.0  -0.0561
  C  C602  1  0.846700  0.354700  0.118900  1.0  -0.3626
  C  C603  1  0.649700  0.972200  0.085100  1.0  -0.3814
  C  C604  1  0.307100  0.315500  0.185900  1.0  0.014
  C  C605  1  0.008100  0.625300  0.249800  1.0  0.6808
  C  C606  1  0.653000  0.294500  0.288300  1.0  -0.134
  C  C607  1  0.346700  0.145300  0.618900  1.0  -0.3638
  C  C608  1  0.657400  0.945300  0.117200  1.0  -0.029
  C  C609  1  0.109900  0.263200  0.779200  1.0  0.6499
  C  C610  1  0.787200  0.767400  0.230000  1.0  -0.088
  C  C611  1  0.807100  0.184500  0.685900  1.0  0.0142
  C  C612  1  0.816500  0.396800  0.173600  1.0  0.0094
  C  C613  1  0.801600  0.268400  0.751700  1.0  -0.115
  C  C614  1  0.805600  0.299100  0.770900  1.0  0.6939
  C  C615  1  0.627300  0.718800  0.739700  1.0  -0.104
  C  C616  1  0.347000  0.705500  0.788300  1.0  -0.1338
  C  C617  1  0.736400  0.467500  0.742600  1.0  -0.0607
  C  C618  1  0.875100  0.055000  0.560100  1.0  -0.3863
  C  C619  1  0.083200  0.864100  0.925700  1.0  -0.1329
  C  C620  1  0.060000  0.142500  0.387300  1.0  -0.1486
  C  C621  1  0.828600  0.562900  0.210100  1.0  -0.1109
  C  C622  1  0.127900  0.031600  0.177400  1.0  -0.14
  C  C623  1  0.372100  0.531600  0.177400  1.0  -0.1402
  C  C624  1  0.916800  0.135900  0.425700  1.0  -0.1356
  C  C625  1  0.781200  0.350300  0.220900  1.0  0.067
  C  C626  1  0.327700  0.364000  0.138500  1.0  0.0094
  C  C627  1  0.511200  0.044200  0.197500  1.0  -0.1221
  C  C628  1  0.850100  0.139200  0.597100  1.0  -0.0859
  C  C629  1  0.842600  0.445300  0.117200  1.0  -0.029
  C  C630  1  0.892200  0.119500  0.530300  1.0  0.032
  C  C631  1  0.609900  0.236800  0.279200  1.0  0.6511
  C  C632  1  0.474300  0.074200  0.215800  1.0  -0.0521
  C  C633  1  0.171400  0.437100  0.710100  1.0  -0.1068
  C  C634  1  0.198400  0.731600  0.251700  1.0  -0.1158
  C  C635  1  0.157600  0.234300  0.764600  1.0  -0.1248
  C  C636  1  0.621400  0.898700  0.029900  1.0  -0.0313
  C  C637  1  0.756100  0.821900  0.239700  1.0  0.2968
  C  C638  1  0.890800  0.851800  0.846700  1.0  0.7362
  C  C639  1  0.580600  0.624100  0.497500  1.0  0.0706
  C  C640  1  0.337700  0.109700  0.632000  1.0  -0.0904
  C  C641  1  0.155000  0.586600  0.603800  1.0  -0.0105
  C  C642  1  0.109200  0.460300  0.695500  1.0  0.1069
  C  C643  1  0.813300  0.429500  0.185200  1.0  0.096
  C  C644  1  0.643000  0.900800  0.957300  1.0  -0.075
  C  C645  1  0.924700  0.876000  0.153400  1.0  -0.104
  C  C646  1  0.447300  0.949100  0.214800  1.0  -0.3845
  C  C647  1  0.750600  0.757700  0.005100  1.0  -0.0238
  C  C648  1  0.117800  0.218800  0.540100  1.0  -0.1288
  C  C649  1  0.083100  0.424600  0.147200  1.0  0.0552
  C  C650  1  0.352900  0.727300  0.036200  1.0  -0.1003
  C  C651  1  0.990900  0.646400  0.845200  1.0  -0.1332
  C  C652  1  0.716200  0.787200  0.000700  1.0  -0.0853
  C  C653  1  0.277300  0.043900  0.059500  1.0  -0.1095
  C  C654  1  0.552700  0.050900  0.714800  1.0  -0.3833
  C  C655  1  0.916900  0.575400  0.647200  1.0  0.0562
  C  C656  1  0.681200  0.874700  0.363200  1.0  -0.079
  C  C657  1  0.850100  0.802500  0.516600  1.0  0.7019
  C  C658  1  0.500200  0.878000  0.278700  1.0  -0.0061
  C  C659  1  0.935000  0.840700  0.165700  1.0  -0.3859
  C  C660  1  0.985100  0.931200  0.558300  1.0  -0.0844
  C  C661  1  0.432400  0.600400  0.682300  1.0  0.0845
  C  C662  1  0.490900  0.853600  0.345200  1.0  -0.1312
  C  C663  1  0.818800  0.374700  0.363200  1.0  -0.0787
  C  C664  1  0.963300  0.346600  0.380800  1.0  -0.0328
  C  C665  1  0.005000  0.864300  0.379400  1.0  -0.1627
  C  C666  1  0.330600  0.149200  0.929300  1.0  0.7157
  C  C667  1  0.435000  0.659300  0.665700  1.0  -0.388
  C  C668  1  0.669400  0.850800  0.429300  1.0  0.7156
  C  C669  1  0.411800  0.616700  0.611600  1.0  -0.0483
  C  C670  1  0.418300  0.470700  0.588400  1.0  -0.0549
  C  C671  1  0.405600  0.840100  0.113700  1.0  0.0723
  C  C672  1  0.283800  0.212800  0.500700  1.0  -0.0874
  C  C673  1  0.116000  0.510600  0.096300  1.0  -0.0057
  C  C674  1  0.934500  0.087700  0.056300  1.0  -0.1032
  C  C675  1  0.541200  0.871400  0.317100  1.0  0.0254
  C  C676  1  0.589900  0.470500  0.117200  1.0  0.1161
  C  C677  1  0.059500  0.363600  0.179600  1.0  0.0736
  C  C678  1  0.699100  0.985400  0.575900  1.0  -0.1185
  C  C679  1  0.403500  0.981700  0.117700  1.0  0.0724
  C  C680  1  0.435600  0.542200  0.701700  1.0  -0.3978
  C  C681  1  0.036700  0.653400  0.880800  1.0  -0.0353
  C  C682  1  0.872100  0.357700  0.390300  1.0  -0.1226
  C  C683  1  0.918300  0.029300  0.088400  1.0  -0.0542
  C  C684  1  0.556600  0.652500  0.849700  1.0  -0.0312
  C  C685  1  0.681800  0.234700  0.587800  1.0  -0.145
  C  C686  1  0.416900  0.924600  0.147200  1.0  0.0563
  C  C687  1  0.627900  0.857700  0.390300  1.0  -0.1221
  C  C688  1  0.911800  0.883300  0.111600  1.0  -0.0495
  C  C689  1  0.054100  0.536100  0.096800  1.0  -0.1731
  C  C690  1  0.626900  0.336500  0.061700  1.0  0.0666
  C  C691  1  0.588200  0.383300  0.111600  1.0  -0.05
  C  C692  1  0.608000  0.098700  0.577800  1.0  -0.4068
  C  C693  1  0.318200  0.765300  0.087800  1.0  -0.1495
  C  C694  1  0.575300  0.376000  0.153400  1.0  -0.1038
  C  C695  1  0.483500  0.620600  0.800400  1.0  -0.0364
  C  C696  1  0.749400  0.257700  0.005100  1.0  -0.0226
  C  C697  1  0.940500  0.636400  0.679600  1.0  0.0729
  C  C698  1  0.425000  0.780400  0.036900  1.0  -0.0842
  C  C699  1  0.909700  0.938300  0.129300  1.0  0.0175
  C  C700  1  0.382200  0.718800  0.540100  1.0  -0.1259
  C  C701  1  0.384000  0.010600  0.096300  1.0  0.003
  C  C702  1  0.073600  0.069100  0.671100  1.0  0.023
  C  C703  1  0.961200  0.884600  0.254300  1.0  0.1073
  C  C704  1  0.830600  0.350800  0.429300  1.0  0.716
  C  C705  1  0.909900  0.544600  0.631100  1.0  0.0606
  C  C706  1  0.654700  0.931300  0.560300  1.0  -0.0246
  C  C707  1  0.660600  0.310700  0.040300  1.0  0.1448
  C  C708  1  0.923800  0.436100  0.576200  1.0  -0.0716
  C  C709  1  0.179500  0.598600  0.038100  1.0  0.7304
  C  C710  1  0.820500  0.401400  0.538100  1.0  0.7333
  C  C711  1  0.009100  0.353600  0.345200  1.0  -0.1313
  C  C712  1  0.440500  0.863600  0.179600  1.0  0.0725
  C  C713  1  0.449700  0.607400  0.721400  1.0  0.4368
  C  C714  1  0.320500  0.098600  0.038100  1.0  0.7348
  C  C715  1  0.909100  0.997000  0.107000  1.0  0.0934
  C  C716  1  0.536700  0.846600  0.380800  1.0  -0.0356
  C  C717  1  0.049300  0.856100  0.309600  1.0  -0.1261
  C  C718  1  0.852900  0.772700  0.536200  1.0  -0.1006
  C  C719  1  0.910100  0.970500  0.117200  1.0  0.1142
  C  C720  1  0.550300  0.392600  0.221400  1.0  0.4368
  C  C721  1  0.590100  0.044600  0.631100  1.0  0.0608
  C  C722  1  0.722700  0.956100  0.559500  1.0  -0.1103
  C  C723  1  0.805200  0.764100  0.570300  1.0  -0.1001
  C  C724  1  0.935600  0.957800  0.201700  1.0  -0.3975
  C  C725  1  0.345300  0.068700  0.060300  1.0  -0.0351
  C  C726  1  0.088400  0.398800  0.122300  1.0  0.0661
  C  C727  1  0.694800  0.264100  0.570300  1.0  -0.1
  C  C728  1  0.133400  0.619200  0.824800  1.0  -0.1209
  C  C729  1  0.694400  0.729300  0.996800  1.0  0.6425
  C  C730  1  0.585200  0.247300  0.518500  1.0  -0.1286
  C  C731  1  0.334600  0.745800  0.522300  1.0  -0.092
  C  C732  1  0.391000  0.641800  0.585200  1.0  0.1068
  C  C733  1  0.578600  0.132500  0.639400  1.0  -0.0705
  C  C734  1  0.941900  0.580000  0.687000  1.0  -0.0675
  C  C735  1  0.380100  0.787200  0.074100  1.0  0.0476
  C  C736  1  0.194400  0.770700  0.496800  1.0  0.645
  C  C737  1  0.583100  0.075400  0.647200  1.0  0.0513
  C  C738  1  0.839400  0.810700  0.040300  1.0  0.1448
  C  C739  1  0.945900  0.463900  0.596800  1.0  -0.1745
  C  C740  1  0.090300  0.061700  0.629300  1.0  0.0168
  C  C741  1  0.409900  0.955400  0.131100  1.0  0.0616
  C  C742  1  0.921400  0.632500  0.639400  1.0  -0.0701
  C  C743  1  0.199100  0.514600  0.075900  1.0  -0.1179
  C  C744  1  0.805600  0.229300  0.996800  1.0  0.6414
  C  C745  1  0.065500  0.912300  0.556300  1.0  -0.1049
  C  C746  1  0.216200  0.712800  0.500700  1.0  -0.0869
  C  C747  1  0.549300  0.643900  0.809600  1.0  -0.1251
  C  C748  1  0.076200  0.563900  0.076200  1.0  -0.0723
  C  C749  1  0.943400  0.152500  0.849700  1.0  -0.0314
  C  C750  1  0.951700  0.610800  0.703500  1.0  -0.0657
  C  C751  1  0.818200  0.734700  0.587800  1.0  -0.145
  C  C752  1  0.474800  0.885800  0.245600  1.0  0.0964
  C  C753  1  0.424700  0.624000  0.653400  1.0  -0.1036
  C  C754  1  0.414800  0.752700  0.018500  1.0  -0.1284
  C  C755  1  0.075000  0.280400  0.036900  1.0  -0.0867
  C  C756  1  0.169400  0.649200  0.929300  1.0  0.7155
  C  C757  1  0.648400  0.579700  0.076200  1.0  -0.0087
  C  C758  1  0.888900  0.683700  0.594300  1.0  0.0569
  C  C759  1  0.845300  0.431300  0.560300  1.0  -0.035
  C  C760  1  0.056600  0.847500  0.349700  1.0  -0.0289
  C  C761  1  0.423800  0.063900  0.076200  1.0  -0.078
  C  C762  1  0.041200  0.628600  0.817100  1.0  0.0251
  C  C763  1  0.410100  0.529500  0.617200  1.0  0.1124
  C  C764  1  0.553000  0.388100  0.368200  1.0  -0.0428
  C  C765  1  0.617200  0.421500  0.057200  1.0  -0.3748
  C  C766  1  0.554100  0.963900  0.596800  1.0  -0.1733
  C  C767  1  0.616000  0.989400  0.596300  1.0  0.0042
  C  C768  1  0.441900  0.920000  0.187000  1.0  -0.068
  C  C769  1  0.898500  0.913600  0.099600  1.0  0.0859
  C  C770  1  0.509100  0.146400  0.845200  1.0  -0.132
  C  C771  1  0.954800  0.668200  0.695300  1.0  -0.3972
  C  C772  1  0.148400  0.920300  0.576200  1.0  -0.0065
  C  C773  1  0.590300  0.438300  0.129300  1.0  0.0175
  C  C774  1  0.581700  0.529300  0.088400  1.0  -0.0506
  C  C775  1  0.003700  0.039500  0.074800  1.0  -0.0995
  C  C776  1  0.499800  0.122000  0.778700  1.0  -0.0027
  C  C777  1  0.565500  0.587700  0.056300  1.0  -0.1038
  C  C778  1  0.409100  0.503000  0.607000  1.0  0.0938
  C  C779  1  0.633400  0.880800  0.324800  1.0  -0.1203
  C  C780  1  0.619900  0.212800  0.574100  1.0  0.0464
  C  C781  1  0.611100  0.183700  0.594300  1.0  0.056
  C  C782  1  0.556500  0.622500  0.035500  1.0  0.668
  C  C783  1  0.421400  0.867500  0.139400  1.0  -0.0708
  C  C784  1  0.836600  0.052400  0.096500  1.0  0.0281
  C  C785  1  0.665400  0.254200  0.022300  1.0  -0.0926
  C  C786  1  0.305600  0.270700  0.496800  1.0  0.644
  C  C787  1  0.052700  0.449100  0.214800  1.0  -0.383
  C  C788  1  0.565000  0.340700  0.165700  1.0  -0.3879
  C  C789  1  0.443500  0.377500  0.535500  1.0  0.6684
  C  C790  1  0.601500  0.413600  0.099600  1.0  0.0858
  C  C791  1  0.905600  0.659900  0.613700  1.0  0.0758
  C  C792  1  0.548300  0.110800  0.703500  1.0  -0.065
  C  C793  1  0.545200  0.168200  0.695300  1.0  -0.3973
  C  C794  1  0.512800  0.644800  0.926800  1.0  0.663
  C  C795  1  0.496300  0.539500  0.074800  1.0  -0.0967
  C  C796  1  0.181800  0.265300  0.087800  1.0  -0.147
  C  C797  1  0.514900  0.431200  0.558300  1.0  -0.0841
  C  C798  1  0.758300  0.813600  0.018700  1.0  -0.1735
  C  C799  1  0.088200  0.116700  0.611600  1.0  -0.0486
  C  C800  1  0.222700  0.543900  0.059500  1.0  -0.1101
  C  C801  1  0.834600  0.754200  0.022300  1.0  -0.091
  C  C802  1  0.567000  0.394800  0.328100  1.0  -0.1006
  C  C803  1  0.463300  0.153400  0.880800  1.0  -0.0324
  C  C804  1  0.947300  0.550900  0.714800  1.0  -0.3896
  C  C805  1  0.882800  0.921500  0.057200  1.0  -0.3708
  C  C806  1  0.163400  0.947600  0.596500  1.0  0.0286
  C  C807  1  0.016500  0.120600  0.800400  1.0  -0.0348
  C  C808  1  0.983500  0.879400  0.300400  1.0  -0.0358
  C  C809  1  0.147100  0.227300  0.036200  1.0  -0.1012
  C  C810  1  0.800900  0.485400  0.575900  1.0  -0.1197
  C  C811  1  0.351600  0.420300  0.576200  1.0  -0.0086
  C  C812  1  0.503700  0.460500  0.574800  1.0  -0.0966
  C  C813  1  0.258300  0.686400  0.518700  1.0  -0.1634
  C  C814  1  0.117200  0.078500  0.557200  1.0  -0.3716
  C  C815  1  0.038800  0.115400  0.754300  1.0  0.1067
  C  C816  1  0.048300  0.389200  0.203500  1.0  -0.0647
  C  C817  1  0.241700  0.186400  0.518700  1.0  -0.1667
  C  C818  1  0.649900  0.302500  0.516600  1.0  0.702
  C  C819  1  0.058100  0.420000  0.187000  1.0  -0.0678
  C  C820  1  0.336600  0.447600  0.596500  1.0  0.0299
  C  C821  1  0.000200  0.622000  0.778700  1.0  -0.0089
  C  C822  1  0.111100  0.316300  0.094300  1.0  0.0561
  C  C823  1  0.558100  0.080000  0.687000  1.0  -0.0673
  C  C824  1  0.461200  0.615400  0.754300  1.0  0.1069
  C  C825  1  0.987200  0.144800  0.926800  1.0  0.665
  C  C826  1  0.398500  0.586400  0.599600  1.0  0.0857
  C  C827  1  0.891000  0.858200  0.085200  1.0  0.1024
  C  C828  1  0.609000  0.358200  0.085200  1.0  0.1037
  C  C829  1  0.045200  0.331800  0.195300  1.0  -0.3971
  C  C830  1  0.458800  0.128600  0.817100  1.0  0.0266
  C  C831  1  0.575000  0.219600  0.536900  1.0  -0.0854
  C  C832  1  0.454800  0.831800  0.195300  1.0  -0.3946
  C  C833  1  0.451700  0.889200  0.203500  1.0  -0.0656
  C  C834  1  0.573600  0.430900  0.171100  1.0  0.0229
  C  C835  1  0.094400  0.340100  0.113700  1.0  0.0711
  C  C836  1  0.426400  0.569100  0.671100  1.0  0.0224
  C  C837  1  0.126900  0.163500  0.561700  1.0  0.0679
  C  C838  1  0.741700  0.313600  0.018700  1.0  -0.1632
  C  C839  1  0.925000  0.719600  0.536900  1.0  -0.0847
  C  C840  1  0.525200  0.114200  0.745600  1.0  0.0949
  C  C841  1  0.559500  0.136400  0.679600  1.0  0.0735
  C  C842  1  0.081700  0.970700  0.588400  1.0  -0.0493
  C  C843  1  0.567600  0.399600  0.182300  1.0  0.0855
  C  C844  1  0.165400  0.245800  0.522300  1.0  -0.0923
  C  C845  1  0.065000  0.159300  0.665700  1.0  -0.3859
  C  C846  1  0.851600  0.079700  0.076200  1.0  -0.007
  C  C847  1  0.350100  0.697500  0.016600  1.0  0.702
  C  C848  1  0.445900  0.036100  0.096800  1.0  -0.1745
  C  C849  1  0.903500  0.518300  0.617700  1.0  0.0725
  C  C850  1  0.075300  0.124000  0.653400  1.0  -0.1038
  C  C851  1  0.516500  0.379400  0.300400  1.0  -0.0333
  C  C852  1  0.085200  0.252700  0.018500  1.0  -0.1289
  C  C853  1  0.109000  0.141800  0.585200  1.0  0.1067
  C  C854  1  0.433000  0.605200  0.828100  1.0  -0.1024
  C  C855  1  0.014900  0.068800  0.058300  1.0  -0.0832
  C  C856  1  0.025200  0.385800  0.245600  1.0  0.0973
  C  C857  1  0.933000  0.894800  0.328100  1.0  -0.1007
  C  C858  1  0.012800  0.855200  0.426800  1.0  0.6653
  C  C859  1  0.096500  0.481700  0.117700  1.0  0.0722
  C  C860  1  0.056500  0.877500  0.535500  1.0  0.669
  C  C861  1  0.880100  0.712800  0.574100  1.0  0.0467
  C  C862  1  0.485100  0.568800  0.058300  1.0  -0.0841
  C  C863  1  0.447000  0.611900  0.868200  1.0  -0.0423
  C  C864  1  0.090900  0.003000  0.607000  1.0  0.0871
  C  C865  1  0.663400  0.552400  0.096500  1.0  0.0271
  C  C866  1  0.409700  0.561700  0.629300  1.0  0.0167
  C  C867  1  0.318800  0.125300  0.863200  1.0  -0.0788
  C  C868  1  0.119900  0.287200  0.074100  1.0  0.047
  C  C869  1  0.300900  0.014600  0.075900  1.0  -0.1195
  C  C870  1  0.564400  0.457800  0.201700  1.0  -0.396
  C  C871  1  0.943500  0.122500  0.035500  1.0  0.6672
  C  C872  1  0.538800  0.384600  0.254300  1.0  0.1066
  C  C873  1  0.882200  0.781200  0.040100  1.0  -0.1252
  C  C874  1  0.050300  0.107400  0.721400  1.0  0.4372
  C  C875  1  0.947000  0.888100  0.368200  1.0  -0.042
  C  C876  1  0.388900  0.816300  0.094300  1.0  0.0566
  C  C877  1  0.892000  0.598700  0.577800  1.0  -0.4051
  C  C878  1  0.382800  0.578500  0.557200  1.0  -0.3707
  C  C879  1  0.339400  0.689300  0.540300  1.0  0.1451
  C  C880  1  0.873100  0.836500  0.061700  1.0  0.0671
  C  C881  1  0.372100  0.142300  0.890300  1.0  -0.1216
  C  C882  1  0.777300  0.456100  0.559500  1.0  -0.1097
  C  C883  1  0.305200  0.735900  0.070300  1.0  -0.1013
  C  C884  1  0.926400  0.930900  0.171100  1.0  0.0224
  C  C885  1  0.067000  0.105200  0.828100  1.0  -0.1008
  C  C886  1  0.194800  0.235900  0.070300  1.0  -0.1007
  C  C887  1  0.443400  0.347500  0.349700  1.0  -0.0275
  C  C888  1  0.647100  0.272700  0.536200  1.0  -0.1015
  C  C889  1  0.154700  0.568700  0.060300  1.0  -0.0239
  C  C890  1  0.596500  0.018300  0.617700  1.0  0.0722
  C  C891  1  0.999800  0.378000  0.278700  1.0  -0.0025
  C  C892  1  0.958800  0.371400  0.317100  1.0  0.0259
  C  C893  1  0.090100  0.455400  0.131100  1.0  0.0616
  C  C894  1  0.495000  0.364300  0.379400  1.0  -0.1625
  C  C895  1  0.974800  0.614200  0.745600  1.0  0.0971
  C  C896  1  0.866600  0.380800  0.324800  1.0  -0.1211
  C  C897  1  0.392000  0.901300  0.077800  1.0  -0.4069
  C  C898  1  0.914800  0.747300  0.518500  1.0  -0.1272
  C  C899  1  0.373100  0.663500  0.561700  1.0  0.0688
  C  C900  1  0.588400  0.101200  0.622300  1.0  0.0661
  C  C901  1  0.679500  0.901400  0.538100  1.0  0.732
  C  C902  1  0.949700  0.892600  0.221400  1.0  0.4365
  C  C903  1  0.160600  0.189300  0.540300  1.0  0.1449
  C  C904  1  0.249400  0.242300  0.505100  1.0  -0.0226
  C  C905  1  0.576200  0.936100  0.576200  1.0  -0.0743
  C  C906  1  0.487200  0.355200  0.426800  1.0  0.6651
  C  C907  1  0.884000  0.489400  0.596300  1.0  0.0052
  C  C908  1  0.101500  0.086400  0.599600  1.0  0.0855
  C  C909  1  0.950700  0.143900  0.809600  1.0  -0.1271
  C  C910  1  0.911600  0.601200  0.622300  1.0  0.0669
  C  C911  1  0.127900  0.642300  0.890300  1.0  -0.1227
  C  C912  1  0.450700  0.356100  0.309600  1.0  -0.1269
  C  C913  1  0.932400  0.899600  0.182300  1.0  0.096
  C  C914  1  0.995000  0.135700  0.879400  1.0  -0.1626
  C  C915  1  0.996300  0.960500  0.574800  1.0  -0.0973
  C  C916  1  0.149900  0.197500  0.016600  1.0  0.7022
  C  C917  1  0.064400  0.042200  0.701700  1.0  -0.3977
  C  C918  1  0.181200  0.625300  0.863200  1.0  -0.0796
  C  C919  1  0.594400  0.159900  0.613700  1.0  0.0747
  C  C920  1  0.250600  0.742300  0.505100  1.0  -0.0231
  C  C921  1  0.108000  0.401300  0.077800  1.0  -0.4078
  C  C922  1  0.617800  0.281200  0.040100  1.0  -0.1276
  C  C923  1  0.590900  0.497000  0.107000  1.0  0.0945
  C  C924  1  0.505000  0.635700  0.879400  1.0  -0.1631
  C  C925  1  0.053000  0.111900  0.868200  1.0  -0.0425
  C  C926  1  0.078600  0.367500  0.139400  1.0  -0.0711
  C  C927  1  0.089900  0.029500  0.617200  1.0  0.1144
  C  C928  1  0.411600  0.898800  0.122300  1.0  0.0669
  C  C929  1  0.067600  0.100400  0.682300  1.0  0.0965
  C  C930  1  0.434500  0.412300  0.556300  1.0  -0.1049
  C  C931  1  0.366600  0.119200  0.824800  1.0  -0.1198
  C  C932  1  0.783800  0.287200  0.000700  1.0  -0.0886
  O  O933  1  0.941600  0.644000  0.268300  1.0  -0.6276
  O  O934  1  0.697900  0.353900  0.849100  1.0  -0.651
  O  O935  1  0.602500  0.214400  0.254300  1.0  -0.6316
  O  O936  1  0.939900  0.847100  0.817800  1.0  -0.65
  O  O937  1  0.560100  0.347100  0.817800  1.0  -0.6503
  O  O938  1  0.397500  0.785600  0.754300  1.0  -0.6342
  O  O939  1  0.758400  0.819800  0.764800  1.0  -0.7166
  O  O940  1  0.741600  0.319800  0.764800  1.0  -0.7173
  O  O941  1  0.058400  0.356000  0.768300  1.0  -0.6291
  O  O942  1  0.129900  0.693930  0.296900  1.0  -0.7584
  O  O943  1  0.925600  0.368200  0.843900  1.0  -0.7029
  O  O944  1  0.441600  0.856000  0.768300  1.0  -0.6282
  O  O945  1  0.592300  0.870200  0.748200  1.0  -0.6101
  O  O946  1  0.092300  0.629800  0.248200  1.0  -0.6097
  O  O947  1  0.004400  0.674200  0.368600  1.0  -0.6275
  O  O948  1  0.197900  0.146100  0.349100  1.0  -0.6515
  O  O949  1  0.439900  0.652900  0.317800  1.0  -0.6498
  O  O950  1  0.370100  0.193930  0.296900  1.0  -0.7586
  O  O951  1  0.495600  0.174200  0.368600  1.0  -0.6262
  O  O952  1  0.574400  0.868200  0.843900  1.0  -0.7033
  O  O953  1  0.241100  0.587600  0.286000  1.0  -0.5541
  O  O954  1  0.241600  0.180200  0.264800  1.0  -0.7182
  O  O955  1  0.425600  0.131800  0.343900  1.0  -0.7039
  O  O956  1  0.656000  0.387900  0.745400  1.0  -0.803
  O  O957  1  0.897500  0.714400  0.254300  1.0  -0.6331
  O  O958  1  0.424100  0.764550  0.814400  1.0  -0.6024
  O  O959  1  0.060100  0.152900  0.317800  1.0  -0.6495
  O  O960  1  0.844000  0.887900  0.745400  1.0  -0.8041
  O  O961  1  0.758900  0.412400  0.786000  1.0  -0.5548
  O  O962  1  0.907700  0.370200  0.748200  1.0  -0.6102
  O  O963  1  0.258400  0.680200  0.264800  1.0  -0.7166
  O  O964  1  0.156000  0.112100  0.245400  1.0  -0.8041
  O  O965  1  0.102500  0.285600  0.754300  1.0  -0.6323
  O  O966  1  0.407700  0.129800  0.248200  1.0  -0.6101
  O  O967  1  0.802100  0.853900  0.849100  1.0  -0.6511
  O  O968  1  0.344000  0.612100  0.245400  1.0  -0.8052
  O  O969  1  0.870100  0.306070  0.796900  1.0  -0.7581
  O  O970  1  0.558400  0.144000  0.268300  1.0  -0.6299
  O  O971  1  0.575900  0.235450  0.314400  1.0  -0.6018
  O  O972  1  0.302100  0.646100  0.349100  1.0  -0.6513
  O  O973  1  0.074400  0.631800  0.343900  1.0  -0.7039
  O  O974  1  0.258900  0.087600  0.286000  1.0  -0.5543
  O  O975  1  0.075900  0.264550  0.814400  1.0  -0.6015
  O  O976  1  0.629900  0.806070  0.796900  1.0  -0.7578
  O  O977  1  0.741100  0.912400  0.786000  1.0  -0.5541
  O  O978  1  0.995600  0.325800  0.868600  1.0  -0.6274
  O  O979  1  0.504400  0.825800  0.868600  1.0  -0.6276
  O  O980  1  0.924100  0.735450  0.314400  1.0  -0.6033
  O  O981  1  0.252900  0.639400  0.935500  1.0  -0.7162
  O  O982  1  0.932600  0.164100  0.933300  1.0  -0.5493
  O  O983  1  0.567400  0.664100  0.933300  1.0  -0.5489
  O  O984  1  0.752900  0.860600  0.435500  1.0  -0.7162
  O  O985  1  0.370700  0.364500  0.525500  1.0  -0.5342
  O  O986  1  0.732300  0.701700  0.999200  1.0  -0.6605
  O  O987  1  0.629300  0.635500  0.025500  1.0  -0.5333
  O  O988  1  0.240700  0.099800  0.022300  1.0  -0.6498
  O  O989  1  0.129300  0.864500  0.525500  1.0  -0.5337
  O  O990  1  0.619000  0.836200  0.455900  1.0  -0.7007
  O  O991  1  0.971300  0.873500  0.448000  1.0  -0.6492
  O  O992  1  0.615100  0.733800  0.978800  1.0  -0.594
  O  O993  1  0.884900  0.233800  0.978800  1.0  -0.5938
  O  O994  1  0.591200  0.310550  0.491400  1.0  -0.6612
  O  O995  1  0.747100  0.360600  0.435500  1.0  -0.7144
  O  O996  1  0.624600  0.879400  0.541800  1.0  -0.672
  O  O997  1  0.267700  0.298300  0.499200  1.0  -0.6624
  O  O998  1  0.474600  0.633800  0.034400  1.0  -0.6946
  O  O999  1  0.432600  0.335900  0.433300  1.0  -0.5492
  O  O1000  1  0.215100  0.177820  0.029200  1.0  -0.6954
  O  O1001  1  0.908800  0.810550  0.491400  1.0  -0.6615
  O  O1002  1  0.767700  0.201700  0.999200  1.0  -0.6596
  O  O1003  1  0.881000  0.336200  0.455900  1.0  -0.7009
  O  O1004  1  0.384900  0.266200  0.478800  1.0  -0.5941
  O  O1005  1  0.875400  0.379400  0.541800  1.0  -0.6728
  O  O1006  1  0.025400  0.133800  0.034400  1.0  -0.6949
  O  O1007  1  0.870700  0.135500  0.025500  1.0  -0.5335
  O  O1008  1  0.715100  0.322180  0.529200  1.0  -0.6956
  O  O1009  1  0.247100  0.139400  0.935500  1.0  -0.714
  O  O1010  1  0.284900  0.677820  0.029200  1.0  -0.6987
  O  O1011  1  0.067400  0.835900  0.433300  1.0  -0.549
  O  O1012  1  0.028700  0.126500  0.948000  1.0  -0.6489
  O  O1013  1  0.124600  0.620600  0.041800  1.0  -0.6683
  O  O1014  1  0.259300  0.599800  0.022300  1.0  -0.6509
  O  O1015  1  0.784900  0.822180  0.529200  1.0  -0.6987
  O  O1016  1  0.115100  0.766200  0.478800  1.0  -0.5942
  O  O1017  1  0.525400  0.366200  0.534400  1.0  -0.6938
  O  O1018  1  0.759300  0.900200  0.522300  1.0  -0.6511
  O  O1019  1  0.740700  0.400200  0.522300  1.0  -0.65
  O  O1020  1  0.974600  0.866200  0.534400  1.0  -0.6939
  O  O1021  1  0.471300  0.626500  0.948000  1.0  -0.6482
  O  O1022  1  0.528700  0.373500  0.448000  1.0  -0.6503
  O  O1023  1  0.119000  0.663800  0.955900  1.0  -0.7012
  O  O1024  1  0.381000  0.163800  0.955900  1.0  -0.7006
  O  O1025  1  0.091200  0.189450  0.991400  1.0  -0.6616
  O  O1026  1  0.408800  0.689450  0.991400  1.0  -0.6619
  O  O1027  1  0.375400  0.120600  0.041800  1.0  -0.67
  O  O1028  1  0.232300  0.798300  0.499200  1.0  -0.6615
