# generated using pymatgen
data_Zn6H68C120O31
_symmetry_space_group_name_H-M   'P 1'
_cell_length_a   28.83300000
_cell_length_b   41.68700000
_cell_length_c   30.56100000
_cell_angle_alpha   90.00000000
_cell_angle_beta   90.00000000
_cell_angle_gamma   90.00000000
_symmetry_Int_Tables_number   1
_chemical_formula_structural   Zn6H68C120O31
_chemical_formula_sum   'Zn24 H272 C480 O124'
_cell_volume   36733.13840303
_cell_formula_units_Z   4
loop_
 _symmetry_equiv_pos_site_id
 _symmetry_equiv_pos_as_xyz
  1  'x, y, z'
loop_
 _atom_site_type_symbol
 _atom_site_label
 _atom_site_symmetry_multiplicity
 _atom_site_fract_x
 _atom_site_fract_y
 _atom_site_fract_z
 _atom_site_occupancy
 _atom_site_charge
  Zn  Zn1  1  0.569340  0.854020  0.831020  1.0  1.0832
  Zn  Zn2  1  0.481590  0.852050  0.889890  1.0  1.0735
  Zn  Zn3  1  0.515540  0.636210  0.322860  1.0  1.1177
  Zn  Zn4  1  0.503800  0.912410  0.831330  1.0  1.1188
  Zn  Zn5  1  0.478530  0.592470  0.234390  1.0  1.1112
  Zn  Zn6  1  0.469050  0.848150  0.786410  1.0  1.0859
  Zn  Zn7  1  0.430660  0.145980  0.331020  1.0  1.0808
  Zn  Zn8  1  0.518410  0.147950  0.389890  1.0  1.0721
  Zn  Zn9  1  0.484460  0.363790  0.822860  1.0  1.118
  Zn  Zn10  1  0.496200  0.087590  0.331330  1.0  1.1174
  Zn  Zn11  1  0.521470  0.407530  0.734390  1.0  1.1127
  Zn  Zn12  1  0.530950  0.151850  0.286410  1.0  1.0858
  Zn  Zn13  1  0.069340  0.145980  0.831020  1.0  1.0824
  Zn  Zn14  1  0.981590  0.147950  0.889890  1.0  1.0725
  Zn  Zn15  1  0.015540  0.363790  0.322860  1.0  1.118
  Zn  Zn16  1  0.003800  0.087590  0.831330  1.0  1.1181
  Zn  Zn17  1  0.978530  0.407530  0.234390  1.0  1.1114
  Zn  Zn18  1  0.969050  0.151850  0.786410  1.0  1.0855
  Zn  Zn19  1  0.930660  0.854020  0.331020  1.0  1.0812
  Zn  Zn20  1  0.018410  0.852050  0.389890  1.0  1.0731
  Zn  Zn21  1  0.984460  0.636210  0.822860  1.0  1.118
  Zn  Zn22  1  0.996200  0.912410  0.331330  1.0  1.1179
  Zn  Zn23  1  0.021470  0.592470  0.734390  1.0  1.1125
  Zn  Zn24  1  0.030950  0.848150  0.286410  1.0  1.0863
  H  H25  1  0.685600  0.902700  0.774100  1.0  0.1334
  H  H26  1  0.738600  0.936300  0.739900  1.0  0.1337
  H  H27  1  0.634100  0.981300  0.678300  1.0  0.1401
  H  H28  1  0.581100  0.947800  0.712500  1.0  0.1346
  H  H29  1  0.757700  0.999900  0.728400  1.0  0.1371
  H  H30  1  0.744300  0.003400  0.437100  1.0  0.1313
  H  H31  1  0.667500  0.007100  0.418600  1.0  0.144
  H  H32  1  0.607500  0.034400  0.384200  1.0  0.1296
  H  H33  1  0.612600  0.102600  0.476900  1.0  0.1334
  H  H34  1  0.672500  0.075400  0.511300  1.0  0.1348
  H  H35  1  0.547500  0.647500  0.147600  1.0  0.1265
  H  H36  1  0.595400  0.672300  0.096900  1.0  0.1382
  H  H37  1  0.669600  0.711200  0.194800  1.0  0.1362
  H  H38  1  0.621600  0.686400  0.245500  1.0  0.1339
  H  H39  1  0.610800  0.728300  0.076000  1.0  0.1311
  H  H40  1  0.417000  0.765500  0.915600  1.0  0.1371
  H  H41  1  0.384300  0.715000  0.924000  1.0  0.1334
  H  H42  1  0.338300  0.718200  0.800000  1.0  0.1334
  H  H43  1  0.371000  0.768700  0.791600  1.0  0.1305
  H  H44  1  0.274500  0.690100  0.839500  1.0  0.134
  H  H45  1  0.436200  0.531800  0.959600  1.0  0.1315
  H  H46  1  0.817400  0.076400  0.660700  1.0  0.1348
  H  H47  1  0.873900  0.105500  0.697500  1.0  0.1334
  H  H48  1  0.895800  0.030600  0.777700  1.0  0.1274
  H  H49  1  0.839300  0.001500  0.740900  1.0  0.1344
  H  H50  1  0.854700  0.014000  0.441500  1.0  0.1349
  H  H51  1  0.912400  0.989400  0.400500  1.0  0.1358
  H  H52  1  0.856300  0.903200  0.426400  1.0  0.1312
  H  H53  1  0.798700  0.927800  0.467400  1.0  0.1373
  H  H54  1  0.974600  0.803400  0.164500  1.0  0.1356
  H  H55  1  0.935400  0.775300  0.110400  1.0  0.1395
  H  H56  1  0.837000  0.751000  0.197400  1.0  0.1334
  H  H57  1  0.876200  0.779100  0.251500  1.0  0.1306
  H  H58  1  0.914900  0.734300  0.076900  1.0  0.1399
  H  H59  1  0.689200  0.760800  0.961300  1.0  0.1334
  H  H60  1  0.648300  0.790700  0.910200  1.0  0.1322
  H  H61  1  0.547300  0.805600  0.998500  1.0  0.1329
  H  H62  1  0.588200  0.775700  0.049600  1.0  0.1412
  H  H63  1  0.195400  0.678300  0.871500  1.0  0.1383
  H  H64  1  0.119800  0.671000  0.847500  1.0  0.1331
  H  H65  1  0.158900  0.591500  0.783000  1.0  0.1292
  H  H66  1  0.234500  0.598800  0.807100  1.0  0.1492
  H  H67  1  0.465300  0.497500  0.783700  1.0  0.1341
  H  H68  1  0.436900  0.541900  0.820900  1.0  0.1424
  H  H69  1  0.412400  0.486900  0.926300  1.0  0.1367
  H  H70  1  0.440800  0.442500  0.889200  1.0  0.1307
  H  H71  1  0.858000  0.721500  0.963300  1.0  0.1602
  H  H72  1  0.906400  0.697600  0.912100  1.0  0.1393
  H  H73  1  0.967100  0.646400  0.007700  1.0  0.1319
  H  H74  1  0.918700  0.670300  0.058800  1.0  0.1403
  H  H75  1  0.009500  0.620600  0.911500  1.0  0.4604
  H  H76  1  0.365100  0.594100  0.044800  1.0  0.1472
  H  H77  1  0.396400  0.590800  0.115600  1.0  0.1411
  H  H78  1  0.520200  0.551700  0.075000  1.0  0.1527
  H  H79  1  0.488700  0.560000  0.004700  1.0  0.1598
  H  H80  1  0.531700  0.578000  0.174300  1.0  0.4149
  H  H81  1  0.853770  0.982100  0.539590  1.0  0.1478
  H  H82  1  0.680280  0.977370  0.578160  1.0  0.1386
  H  H83  1  0.771920  0.694310  0.139870  1.0  0.262
  H  H84  1  0.799340  0.713170  0.980500  1.0  0.2586
  H  H85  1  0.236810  0.593960  0.870560  1.0  0.1641
  H  H86  1  0.401880  0.575540  0.820850  1.0  0.2634
  H  H87  1  0.399300  0.658670  0.896070  1.0  0.1339
  H  H88  1  0.128020  0.621550  0.474630  1.0  0.1276
  H  H89  1  0.807160  0.035160  0.608370  1.0  0.1294
  H  H90  1  0.688200  0.031510  0.558040  1.0  0.1284
  H  H91  1  0.737110  0.760540  0.023460  1.0  0.1372
  H  H92  1  0.791090  0.755490  0.143400  1.0  0.1273
  H  H93  1  0.314400  0.097300  0.274100  1.0  0.1336
  H  H94  1  0.261400  0.063700  0.239900  1.0  0.133
  H  H95  1  0.365900  0.018700  0.178300  1.0  0.1394
  H  H96  1  0.418900  0.052200  0.212500  1.0  0.134
  H  H97  1  0.242300  0.000100  0.228400  1.0  0.1375
  H  H98  1  0.255700  0.996600  0.937100  1.0  0.1315
  H  H99  1  0.332500  0.992900  0.918600  1.0  0.1441
  H  H100  1  0.392500  0.965600  0.884200  1.0  0.1294
  H  H101  1  0.387400  0.897400  0.976900  1.0  0.1341
  H  H102  1  0.327500  0.924600  0.011300  1.0  0.1339
  H  H103  1  0.452500  0.352500  0.647600  1.0  0.1267
  H  H104  1  0.404600  0.327700  0.596900  1.0  0.1383
  H  H105  1  0.330400  0.288800  0.694800  1.0  0.1362
  H  H106  1  0.378400  0.313600  0.745500  1.0  0.1348
  H  H107  1  0.389200  0.271700  0.576000  1.0  0.1309
  H  H108  1  0.583000  0.234500  0.415600  1.0  0.1371
  H  H109  1  0.615700  0.285000  0.424000  1.0  0.1344
  H  H110  1  0.661700  0.281800  0.300000  1.0  0.1335
  H  H111  1  0.629000  0.231300  0.291600  1.0  0.1308
  H  H112  1  0.725500  0.309900  0.339500  1.0  0.134
  H  H113  1  0.563800  0.468200  0.459600  1.0  0.1317
  H  H114  1  0.182600  0.923600  0.160700  1.0  0.1348
  H  H115  1  0.126100  0.894500  0.197500  1.0  0.1329
  H  H116  1  0.104200  0.969400  0.277700  1.0  0.1271
  H  H117  1  0.160700  0.998500  0.240900  1.0  0.1349
  H  H118  1  0.145300  0.986000  0.941500  1.0  0.1345
  H  H119  1  0.087600  0.010600  0.900500  1.0  0.1354
  H  H120  1  0.143700  0.096800  0.926400  1.0  0.1313
  H  H121  1  0.201300  0.072200  0.967400  1.0  0.137
  H  H122  1  0.025400  0.196600  0.664500  1.0  0.1353
  H  H123  1  0.064600  0.224700  0.610400  1.0  0.1394
  H  H124  1  0.163000  0.249000  0.697400  1.0  0.1333
  H  H125  1  0.123800  0.220900  0.751500  1.0  0.13
  H  H126  1  0.085100  0.265700  0.576900  1.0  0.1401
  H  H127  1  0.310800  0.239200  0.461300  1.0  0.1334
  H  H128  1  0.351700  0.209300  0.410200  1.0  0.132
  H  H129  1  0.452700  0.194400  0.498500  1.0  0.1338
  H  H130  1  0.411800  0.224300  0.549600  1.0  0.1409
  H  H131  1  0.804600  0.321700  0.371500  1.0  0.1392
  H  H132  1  0.880200  0.329000  0.347500  1.0  0.1328
  H  H133  1  0.841100  0.408500  0.283000  1.0  0.1298
  H  H134  1  0.765500  0.401200  0.307100  1.0  0.151
  H  H135  1  0.534700  0.502500  0.283700  1.0  0.1339
  H  H136  1  0.563100  0.458100  0.320900  1.0  0.1437
  H  H137  1  0.587600  0.513100  0.426300  1.0  0.1366
  H  H138  1  0.559200  0.557500  0.389200  1.0  0.1304
  H  H139  1  0.142000  0.278500  0.463300  1.0  0.1594
  H  H140  1  0.093600  0.302400  0.412100  1.0  0.1375
  H  H141  1  0.032900  0.353600  0.507700  1.0  0.1321
  H  H142  1  0.081300  0.329700  0.558800  1.0  0.1405
  H  H143  1  0.990500  0.379400  0.411500  1.0  0.4608
  H  H144  1  0.634900  0.405900  0.544800  1.0  0.1459
  H  H145  1  0.603600  0.409200  0.615600  1.0  0.1411
  H  H146  1  0.479800  0.448300  0.575000  1.0  0.1525
  H  H147  1  0.511300  0.440000  0.504700  1.0  0.16
  H  H148  1  0.468300  0.422000  0.674300  1.0  0.4119
  H  H149  1  0.146230  0.017900  0.039590  1.0  0.1487
  H  H150  1  0.319720  0.022630  0.078160  1.0  0.1386
  H  H151  1  0.228080  0.305690  0.639870  1.0  0.2643
  H  H152  1  0.200660  0.286830  0.480500  1.0  0.2563
  H  H153  1  0.763190  0.406040  0.370560  1.0  0.1672
  H  H154  1  0.598120  0.424460  0.320850  1.0  0.264
  H  H155  1  0.600700  0.341330  0.396070  1.0  0.1338
  H  H156  1  0.871980  0.378450  0.974630  1.0  0.1277
  H  H157  1  0.192840  0.964840  0.108370  1.0  0.1286
  H  H158  1  0.311800  0.968490  0.058040  1.0  0.1289
  H  H159  1  0.262890  0.239460  0.523460  1.0  0.1372
  H  H160  1  0.208910  0.244510  0.643400  1.0  0.1267
  H  H161  1  0.185600  0.097300  0.774100  1.0  0.1337
  H  H162  1  0.238600  0.063700  0.739900  1.0  0.1334
  H  H163  1  0.134100  0.018700  0.678300  1.0  0.139
  H  H164  1  0.081100  0.052200  0.712500  1.0  0.1347
  H  H165  1  0.257700  0.000100  0.728400  1.0  0.1371
  H  H166  1  0.244300  0.996600  0.437100  1.0  0.131
  H  H167  1  0.167500  0.992900  0.418600  1.0  0.1439
  H  H168  1  0.107500  0.965600  0.384200  1.0  0.1296
  H  H169  1  0.112600  0.897400  0.476900  1.0  0.1333
  H  H170  1  0.172500  0.924600  0.511300  1.0  0.1344
  H  H171  1  0.047500  0.352500  0.147600  1.0  0.1272
  H  H172  1  0.095400  0.327700  0.096900  1.0  0.1382
  H  H173  1  0.169600  0.288800  0.194800  1.0  0.136
  H  H174  1  0.121600  0.313600  0.245500  1.0  0.1343
  H  H175  1  0.110800  0.271700  0.076000  1.0  0.1312
  H  H176  1  0.917000  0.234500  0.915600  1.0  0.1376
  H  H177  1  0.884300  0.285000  0.924000  1.0  0.1331
  H  H178  1  0.838300  0.281800  0.800000  1.0  0.1334
  H  H179  1  0.871000  0.231300  0.791600  1.0  0.1308
  H  H180  1  0.774500  0.309900  0.839500  1.0  0.1338
  H  H181  1  0.936200  0.468200  0.959600  1.0  0.1314
  H  H182  1  0.317400  0.923600  0.660700  1.0  0.1345
  H  H183  1  0.373900  0.894500  0.697500  1.0  0.133
  H  H184  1  0.395800  0.969400  0.777700  1.0  0.1271
  H  H185  1  0.339300  0.998500  0.740900  1.0  0.1343
  H  H186  1  0.354700  0.986000  0.441500  1.0  0.1355
  H  H187  1  0.412400  0.010600  0.400500  1.0  0.1349
  H  H188  1  0.356300  0.096800  0.426400  1.0  0.1312
  H  H189  1  0.298700  0.072200  0.467400  1.0  0.1377
  H  H190  1  0.474600  0.196600  0.164500  1.0  0.1355
  H  H191  1  0.435400  0.224700  0.110400  1.0  0.1376
  H  H192  1  0.337000  0.249000  0.197400  1.0  0.1332
  H  H193  1  0.376200  0.220900  0.251500  1.0  0.1306
  H  H194  1  0.414900  0.265700  0.076900  1.0  0.1403
  H  H195  1  0.189200  0.239200  0.961300  1.0  0.1336
  H  H196  1  0.148300  0.209300  0.910200  1.0  0.1322
  H  H197  1  0.047300  0.194400  0.998500  1.0  0.1334
  H  H198  1  0.088200  0.224300  0.049600  1.0  0.1413
  H  H199  1  0.695400  0.321700  0.871500  1.0  0.1389
  H  H200  1  0.619800  0.329000  0.847500  1.0  0.1326
  H  H201  1  0.658900  0.408500  0.783000  1.0  0.13
  H  H202  1  0.734500  0.401200  0.807100  1.0  0.1489
  H  H203  1  0.965300  0.502500  0.783700  1.0  0.1341
  H  H204  1  0.936900  0.458100  0.820900  1.0  0.1401
  H  H205  1  0.912400  0.513100  0.926300  1.0  0.137
  H  H206  1  0.940800  0.557500  0.889200  1.0  0.1306
  H  H207  1  0.358000  0.278500  0.963300  1.0  0.1594
  H  H208  1  0.406400  0.302400  0.912100  1.0  0.1392
  H  H209  1  0.467100  0.353600  0.007700  1.0  0.1312
  H  H210  1  0.418700  0.329700  0.058800  1.0  0.1401
  H  H211  1  0.509500  0.379400  0.911500  1.0  0.4613
  H  H212  1  0.865100  0.405900  0.044800  1.0  0.1464
  H  H213  1  0.896400  0.409200  0.115600  1.0  0.141
  H  H214  1  0.020200  0.448300  0.075000  1.0  0.1529
  H  H215  1  0.988700  0.440000  0.004700  1.0  0.1588
  H  H216  1  0.031700  0.422000  0.174300  1.0  0.4156
  H  H217  1  0.353770  0.017900  0.539590  1.0  0.1479
  H  H218  1  0.180280  0.022630  0.578160  1.0  0.1376
  H  H219  1  0.271920  0.305690  0.139870  1.0  0.2601
  H  H220  1  0.299340  0.286830  0.980500  1.0  0.2578
  H  H221  1  0.736810  0.406040  0.870560  1.0  0.1672
  H  H222  1  0.901880  0.424460  0.820850  1.0  0.2638
  H  H223  1  0.899300  0.341330  0.896070  1.0  0.1342
  H  H224  1  0.628020  0.378450  0.474630  1.0  0.1273
  H  H225  1  0.307160  0.964840  0.608370  1.0  0.1289
  H  H226  1  0.188200  0.968490  0.558040  1.0  0.1282
  H  H227  1  0.237110  0.239460  0.023460  1.0  0.1372
  H  H228  1  0.291090  0.244510  0.143400  1.0  0.1266
  H  H229  1  0.814400  0.902700  0.274100  1.0  0.1333
  H  H230  1  0.761400  0.936300  0.239900  1.0  0.1338
  H  H231  1  0.865900  0.981300  0.178300  1.0  0.1398
  H  H232  1  0.918900  0.947800  0.212500  1.0  0.1338
  H  H233  1  0.742300  0.999900  0.228400  1.0  0.1373
  H  H234  1  0.755700  0.003400  0.937100  1.0  0.1317
  H  H235  1  0.832500  0.007100  0.918600  1.0  0.1437
  H  H236  1  0.892500  0.034400  0.884200  1.0  0.1295
  H  H237  1  0.887400  0.102600  0.976900  1.0  0.1341
  H  H238  1  0.827500  0.075400  0.011300  1.0  0.1346
  H  H239  1  0.952500  0.647500  0.647600  1.0  0.1266
  H  H240  1  0.904600  0.672300  0.596900  1.0  0.1382
  H  H241  1  0.830400  0.711200  0.694800  1.0  0.1366
  H  H242  1  0.878400  0.686400  0.745500  1.0  0.1346
  H  H243  1  0.889200  0.728300  0.576000  1.0  0.1309
  H  H244  1  0.083000  0.765500  0.415600  1.0  0.1368
  H  H245  1  0.115700  0.715000  0.424000  1.0  0.1343
  H  H246  1  0.161700  0.718200  0.300000  1.0  0.1336
  H  H247  1  0.129000  0.768700  0.291600  1.0  0.1307
  H  H248  1  0.225500  0.690100  0.339500  1.0  0.134
  H  H249  1  0.063800  0.531800  0.459600  1.0  0.1318
  H  H250  1  0.682600  0.076400  0.160700  1.0  0.135
  H  H251  1  0.626100  0.105500  0.197500  1.0  0.1334
  H  H252  1  0.604200  0.030600  0.277700  1.0  0.1275
  H  H253  1  0.660700  0.001500  0.240900  1.0  0.1344
  H  H254  1  0.645300  0.014000  0.941500  1.0  0.1347
  H  H255  1  0.587600  0.989400  0.900500  1.0  0.1355
  H  H256  1  0.643700  0.903200  0.926400  1.0  0.1313
  H  H257  1  0.701300  0.927800  0.967400  1.0  0.137
  H  H258  1  0.525400  0.803400  0.664500  1.0  0.1353
  H  H259  1  0.564600  0.775300  0.610400  1.0  0.1375
  H  H260  1  0.663000  0.751000  0.697400  1.0  0.1333
  H  H261  1  0.623800  0.779100  0.751500  1.0  0.1301
  H  H262  1  0.585100  0.734300  0.576900  1.0  0.1393
  H  H263  1  0.810800  0.760800  0.461300  1.0  0.1334
  H  H264  1  0.851700  0.790700  0.410200  1.0  0.1323
  H  H265  1  0.952700  0.805600  0.498500  1.0  0.1336
  H  H266  1  0.911800  0.775700  0.549600  1.0  0.1398
  H  H267  1  0.304600  0.678300  0.371500  1.0  0.1389
  H  H268  1  0.380200  0.671000  0.347500  1.0  0.1329
  H  H269  1  0.341100  0.591500  0.283000  1.0  0.1295
  H  H270  1  0.265500  0.598800  0.307100  1.0  0.1501
  H  H271  1  0.034700  0.497500  0.283700  1.0  0.1342
  H  H272  1  0.063100  0.541900  0.320900  1.0  0.1408
  H  H273  1  0.087600  0.486900  0.426300  1.0  0.1362
  H  H274  1  0.059200  0.442500  0.389200  1.0  0.1305
  H  H275  1  0.642000  0.721500  0.463300  1.0  0.1589
  H  H276  1  0.593600  0.697600  0.412100  1.0  0.1387
  H  H277  1  0.532900  0.646400  0.507700  1.0  0.1313
  H  H278  1  0.581300  0.670300  0.558800  1.0  0.1409
  H  H279  1  0.490500  0.620600  0.411500  1.0  0.4603
  H  H280  1  0.134900  0.594100  0.544800  1.0  0.147
  H  H281  1  0.103600  0.590800  0.615600  1.0  0.1413
  H  H282  1  0.979800  0.551700  0.575000  1.0  0.1529
  H  H283  1  0.011300  0.560000  0.504700  1.0  0.1602
  H  H284  1  0.968300  0.578000  0.674300  1.0  0.4122
  H  H285  1  0.646230  0.982100  0.039590  1.0  0.1488
  H  H286  1  0.819720  0.977370  0.078160  1.0  0.1391
  H  H287  1  0.728080  0.694310  0.639870  1.0  0.2619
  H  H288  1  0.700660  0.713170  0.480500  1.0  0.2568
  H  H289  1  0.263190  0.593960  0.370560  1.0  0.1651
  H  H290  1  0.098120  0.575540  0.320850  1.0  0.2638
  H  H291  1  0.100700  0.658670  0.396070  1.0  0.1333
  H  H292  1  0.371980  0.621550  0.974630  1.0  0.1281
  H  H293  1  0.692840  0.035160  0.108370  1.0  0.1292
  H  H294  1  0.811800  0.031510  0.058040  1.0  0.129
  H  H295  1  0.762890  0.760540  0.523460  1.0  0.1377
  H  H296  1  0.708910  0.755490  0.643400  1.0  0.1272
  C  C297  1  0.628100  0.921900  0.746700  1.0  -0.02
  C  C298  1  0.675300  0.918500  0.754900  1.0  -0.0442
  C  C299  1  0.707000  0.938600  0.734400  1.0  -0.0998
  C  C300  1  0.691600  0.962200  0.705700  1.0  0.0393
  C  C301  1  0.644400  0.965600  0.697500  1.0  -0.1643
  C  C302  1  0.612700  0.945500  0.718000  1.0  -0.0988
  C  C303  1  0.723000  0.981000  0.676900  1.0  -0.0258
  C  C304  1  0.720100  0.981200  0.631500  1.0  0.2878
  C  C305  1  0.750000  0.000400  0.607200  1.0  0.001
  C  C306  1  0.782700  0.019400  0.628300  1.0  -0.0776
  C  C307  1  0.785600  0.019200  0.673700  1.0  0.0667
  C  C308  1  0.755800  0.000000  0.698000  1.0  -0.1103
  C  C309  1  0.751200  0.001900  0.558300  1.0  -0.0128
  C  C310  1  0.784400  0.986000  0.533500  1.0  0.2833
  C  C311  1  0.781800  0.986600  0.488100  1.0  0.0172
  C  C312  1  0.746000  0.003000  0.467500  1.0  -0.0622
  C  C313  1  0.712800  0.018900  0.492300  1.0  0.0466
  C  C314  1  0.715400  0.018400  0.537700  1.0  -0.0524
  C  C315  1  0.675900  0.038600  0.468400  1.0  0.0444
  C  C316  1  0.656500  0.026290  0.430300  1.0  -0.1174
  C  C317  1  0.620600  0.042600  0.409700  1.0  -0.0583
  C  C318  1  0.604100  0.071200  0.427100  1.0  -0.0323
  C  C319  1  0.623600  0.083500  0.465200  1.0  -0.0478
  C  C320  1  0.659500  0.067200  0.485800  1.0  -0.1002
  C  C321  1  0.579800  0.664500  0.201600  1.0  0.0397
  C  C322  1  0.571900  0.660200  0.157100  1.0  -0.0629
  C  C323  1  0.600700  0.675100  0.126700  1.0  -0.1737
  C  C324  1  0.637200  0.694200  0.140800  1.0  0.0981
  C  C325  1  0.645100  0.698420  0.185300  1.0  -0.1637
  C  C326  1  0.616400  0.683500  0.215700  1.0  -0.0677
  C  C327  1  0.665900  0.711000  0.109300  1.0  0.0581
  C  C328  1  0.643000  0.728400  0.077100  1.0  -0.1405
  C  C329  1  0.668300  0.746000  0.046700  1.0  0.048
  C  C330  1  0.716400  0.746100  0.048400  1.0  -0.098
  C  C331  1  0.739400  0.728600  0.080500  1.0  0.1118
  C  C332  1  0.714100  0.711100  0.111000  1.0  0.2676
  C  C333  1  0.397200  0.772060  0.852800  1.0  -0.0132
  C  C334  1  0.401200  0.756000  0.892400  1.0  -0.0716
  C  C335  1  0.381700  0.725700  0.897500  1.0  -0.1046
  C  C336  1  0.358100  0.711570  0.862800  1.0  0.0796
  C  C337  1  0.354100  0.727700  0.823200  1.0  -0.1628
  C  C338  1  0.373600  0.757900  0.818100  1.0  -0.0986
  C  C339  1  0.336700  0.678980  0.866000  1.0  0.0677
  C  C340  1  0.362200  0.654200  0.884700  1.0  -0.117
  C  C341  1  0.342400  0.624000  0.889500  1.0  0.003
  C  C342  1  0.297200  0.618540  0.875500  1.0  0.2782
  C  C343  1  0.271800  0.643300  0.856800  1.0  -0.0299
  C  C344  1  0.291500  0.673530  0.852000  1.0  -0.0605
  C  C345  1  0.382000  0.599890  0.953900  1.0  -0.1271
  C  C346  1  0.407100  0.574890  0.972400  1.0  0.1154
  C  C347  1  0.419400  0.548490  0.947200  1.0  -0.1353
  C  C348  1  0.406500  0.547090  0.903400  1.0  0.0241
  C  C349  1  0.381400  0.572100  0.884900  1.0  0.2757
  C  C350  1  0.369100  0.598490  0.910100  1.0  0.0077
  C  C351  1  0.822800  0.036100  0.697200  1.0  0.076
  C  C352  1  0.833100  0.067200  0.684100  1.0  -0.1529
  C  C353  1  0.867000  0.084620  0.706200  1.0  -0.0683
  C  C354  1  0.890400  0.070900  0.741200  1.0  0.0138
  C  C355  1  0.880100  0.039800  0.754200  1.0  -0.086
  C  C356  1  0.846200  0.022350  0.732200  1.0  -0.1252
  C  C357  1  0.821000  0.973300  0.458500  1.0  0.0891
  C  C358  1  0.855000  0.991800  0.438500  1.0  -0.0907
  C  C359  1  0.889600  0.977100  0.413900  1.0  -0.0841
  C  C360  1  0.890100  0.943900  0.409400  1.0  -0.0566
  C  C361  1  0.856000  0.925450  0.429400  1.0  -0.0745
  C  C362  1  0.821500  0.940200  0.454000  1.0  -0.0822
  C  C363  1  0.929300  0.794000  0.213300  1.0  -0.0138
  C  C364  1  0.947000  0.792900  0.171100  1.0  -0.0836
  C  C365  1  0.923500  0.776000  0.138700  1.0  -0.1935
  C  C366  1  0.882300  0.760330  0.148500  1.0  0.099
  C  C367  1  0.864600  0.761470  0.190800  1.0  -0.2042
  C  C368  1  0.888100  0.778300  0.223200  1.0  -0.0729
  C  C369  1  0.786500  0.729100  0.081400  1.0  0.1851
  C  C370  1  0.810400  0.715610  0.046400  1.0  0.1985
  C  C371  1  0.858500  0.717560  0.044800  1.0  0.1322
  C  C372  1  0.882700  0.733000  0.078000  1.0  -0.2031
  C  C373  1  0.858800  0.746430  0.113000  1.0  0.1039
  C  C374  1  0.810700  0.744480  0.114700  1.0  -0.1122
  C  C375  1  0.642800  0.765300  0.010500  1.0  0.0465
  C  C376  1  0.660800  0.769790  0.968800  1.0  -0.0916
  C  C377  1  0.636300  0.787700  0.938100  1.0  -0.081
  C  C378  1  0.593700  0.801100  0.949300  1.0  -0.0402
  C  C379  1  0.575700  0.796600  0.991000  1.0  -0.0617
  C  C380  1  0.600300  0.778700  0.021600  1.0  -0.1127
  C  C381  1  0.222400  0.639300  0.841700  1.0  0.106
  C  C382  1  0.188100  0.660900  0.853800  1.0  -0.106
  C  C383  1  0.142800  0.656520  0.839400  1.0  -0.0784
  C  C384  1  0.131900  0.630500  0.812900  1.0  0.0075
  C  C385  1  0.166200  0.608860  0.800800  1.0  -0.0879
  C  C386  1  0.211500  0.613240  0.815200  1.0  -0.1066
  C  C387  1  0.455900  0.465640  0.832700  1.0  0.0362
  C  C388  1  0.454700  0.495400  0.812270  1.0  -0.0677
  C  C389  1  0.437600  0.521990  0.834600  1.0  -0.1251
  C  C390  1  0.421800  0.518800  0.877300  1.0  0.0832
  C  C391  1  0.423000  0.489000  0.897700  1.0  -0.14
  C  C392  1  0.440000  0.462450  0.875500  1.0  -0.0795
  C  C393  1  0.883600  0.698300  0.016100  1.0  0.1373
  C  C394  1  0.879900  0.706500  0.972200  1.0  -0.145
  C  C395  1  0.908900  0.692100  0.941500  1.0  -0.1042
  C  C396  1  0.941600  0.669700  0.954800  1.0  -0.0154
  C  C397  1  0.945300  0.661500  0.998800  1.0  -0.0679
  C  C398  1  0.916300  0.675800  0.029400  1.0  -0.1689
  C  C399  1  0.921700  0.090300  0.766400  1.0  0.3153
  C  C400  1  0.594300  0.903500  0.770500  1.0  0.3529
  C  C401  1  0.947500  0.818600  0.241900  1.0  0.3653
  C  C402  1  0.553200  0.648800  0.234300  1.0  0.391
  C  C403  1  0.931500  0.928700  0.392300  1.0  0.3407
  C  C404  1  0.084500  0.625200  0.800300  1.0  0.3965
  C  C405  1  0.472500  0.438500  0.808600  1.0  0.3763
  C  C406  1  0.420700  0.802000  0.847300  1.0  0.3897
  C  C407  1  0.565100  0.088700  0.407000  1.0  0.3469
  C  C408  1  0.564000  0.815100  0.916700  1.0  0.387
  C  C409  1  0.963700  0.652900  0.920500  1.0  0.3475
  C  C410  1  0.459100  0.571100  0.102900  1.0  -0.0767
  C  C411  1  0.424200  0.575700  0.015800  1.0  0.0403
  C  C412  1  0.394800  0.586200  0.049800  1.0  -0.118
  C  C413  1  0.414500  0.583600  0.092300  1.0  -0.0555
  C  C414  1  0.490900  0.560300  0.070100  1.0  -0.093
  C  C415  1  0.469500  0.564900  0.028200  1.0  -0.0987
  C  C416  1  0.473700  0.574200  0.147800  1.0  0.4001
  C  C417  1  0.371900  0.078100  0.246700  1.0  -0.0188
  C  C418  1  0.324700  0.081500  0.254900  1.0  -0.0451
  C  C419  1  0.293000  0.061400  0.234400  1.0  -0.1023
  C  C420  1  0.308400  0.037800  0.205700  1.0  0.04
  C  C421  1  0.355600  0.034400  0.197500  1.0  -0.1617
  C  C422  1  0.387300  0.054500  0.218000  1.0  -0.0975
  C  C423  1  0.277000  0.019000  0.176900  1.0  -0.0228
  C  C424  1  0.279900  0.018800  0.131500  1.0  0.2872
  C  C425  1  0.250000  0.999600  0.107200  1.0  0.0008
  C  C426  1  0.217300  0.980600  0.128300  1.0  -0.0784
  C  C427  1  0.214400  0.980800  0.173700  1.0  0.0669
  C  C428  1  0.244200  0.000000  0.198000  1.0  -0.1096
  C  C429  1  0.248800  0.998100  0.058300  1.0  -0.0129
  C  C430  1  0.215600  0.014000  0.033500  1.0  0.2835
  C  C431  1  0.218200  0.013400  0.988100  1.0  0.0176
  C  C432  1  0.254000  0.997000  0.967500  1.0  -0.0622
  C  C433  1  0.287200  0.981100  0.992300  1.0  0.0477
  C  C434  1  0.284600  0.981600  0.037700  1.0  -0.0562
  C  C435  1  0.324100  0.961400  0.968400  1.0  0.0444
  C  C436  1  0.343500  0.973710  0.930300  1.0  -0.1154
  C  C437  1  0.379400  0.957400  0.909700  1.0  -0.0596
  C  C438  1  0.395900  0.928800  0.927100  1.0  -0.0324
  C  C439  1  0.376400  0.916500  0.965200  1.0  -0.0491
  C  C440  1  0.340500  0.932800  0.985800  1.0  -0.0999
  C  C441  1  0.420200  0.335500  0.701600  1.0  0.0395
  C  C442  1  0.428100  0.339800  0.657100  1.0  -0.0626
  C  C443  1  0.399300  0.324900  0.626700  1.0  -0.1737
  C  C444  1  0.362800  0.305800  0.640800  1.0  0.101
  C  C445  1  0.354900  0.301580  0.685300  1.0  -0.1622
  C  C446  1  0.383600  0.316500  0.715700  1.0  -0.0645
  C  C447  1  0.334100  0.289000  0.609300  1.0  0.0592
  C  C448  1  0.357000  0.271600  0.577100  1.0  -0.1362
  C  C449  1  0.331700  0.254000  0.546700  1.0  0.042
  C  C450  1  0.283600  0.253900  0.548400  1.0  -0.0981
  C  C451  1  0.260600  0.271400  0.580500  1.0  0.1118
  C  C452  1  0.285900  0.288900  0.611000  1.0  0.2702
  C  C453  1  0.602800  0.227940  0.352800  1.0  -0.0126
  C  C454  1  0.598800  0.244000  0.392400  1.0  -0.0737
  C  C455  1  0.618300  0.274300  0.397500  1.0  -0.1025
  C  C456  1  0.641900  0.288430  0.362800  1.0  0.0801
  C  C457  1  0.645900  0.272300  0.323200  1.0  -0.1638
  C  C458  1  0.626400  0.242100  0.318100  1.0  -0.1017
  C  C459  1  0.663300  0.321020  0.366000  1.0  0.0675
  C  C460  1  0.637800  0.345800  0.384700  1.0  -0.1163
  C  C461  1  0.657600  0.376000  0.389500  1.0  0.0027
  C  C462  1  0.702800  0.381460  0.375500  1.0  0.2781
  C  C463  1  0.728200  0.356700  0.356800  1.0  -0.029
  C  C464  1  0.708500  0.326470  0.352000  1.0  -0.0607
  C  C465  1  0.618000  0.400110  0.453900  1.0  -0.1244
  C  C466  1  0.592900  0.425110  0.472400  1.0  0.1152
  C  C467  1  0.580600  0.451510  0.447200  1.0  -0.1356
  C  C468  1  0.593500  0.452910  0.403400  1.0  0.0245
  C  C469  1  0.618600  0.427900  0.384900  1.0  0.2791
  C  C470  1  0.630900  0.401510  0.410100  1.0  0.0075
  C  C471  1  0.177200  0.963900  0.197200  1.0  0.0756
  C  C472  1  0.166900  0.932800  0.184100  1.0  -0.1526
  C  C473  1  0.133000  0.915380  0.206200  1.0  -0.0718
  C  C474  1  0.109600  0.929100  0.241200  1.0  0.0142
  C  C475  1  0.119900  0.960200  0.254200  1.0  -0.0887
  C  C476  1  0.153800  0.977650  0.232200  1.0  -0.1252
  C  C477  1  0.179000  0.026700  0.958500  1.0  0.0892
  C  C478  1  0.145000  0.008200  0.938500  1.0  -0.0914
  C  C479  1  0.110400  0.022900  0.913900  1.0  -0.0838
  C  C480  1  0.109900  0.056100  0.909400  1.0  -0.0571
  C  C481  1  0.144000  0.074550  0.929400  1.0  -0.0745
  C  C482  1  0.178500  0.059800  0.954000  1.0  -0.0808
  C  C483  1  0.070700  0.206000  0.713300  1.0  -0.0133
  C  C484  1  0.053000  0.207100  0.671100  1.0  -0.0821
  C  C485  1  0.076500  0.224000  0.638700  1.0  -0.2036
  C  C486  1  0.117700  0.239670  0.648500  1.0  0.0986
  C  C487  1  0.135400  0.238530  0.690800  1.0  -0.2027
  C  C488  1  0.111900  0.221700  0.723200  1.0  -0.0739
  C  C489  1  0.213500  0.270900  0.581400  1.0  0.1849
  C  C490  1  0.189600  0.284390  0.546400  1.0  0.2003
  C  C491  1  0.141500  0.282440  0.544800  1.0  0.1268
  C  C492  1  0.117300  0.267000  0.578000  1.0  -0.2007
  C  C493  1  0.141200  0.253570  0.613000  1.0  0.1041
  C  C494  1  0.189300  0.255520  0.614700  1.0  -0.1061
  C  C495  1  0.357200  0.234700  0.510500  1.0  0.0459
  C  C496  1  0.339200  0.230210  0.468800  1.0  -0.0928
  C  C497  1  0.363700  0.212300  0.438100  1.0  -0.0799
  C  C498  1  0.406300  0.198900  0.449300  1.0  -0.0401
  C  C499  1  0.424300  0.203400  0.491000  1.0  -0.063
  C  C500  1  0.399700  0.221300  0.521600  1.0  -0.115
  C  C501  1  0.777600  0.360700  0.341700  1.0  0.107
  C  C502  1  0.811900  0.339100  0.353800  1.0  -0.1053
  C  C503  1  0.857200  0.343480  0.339400  1.0  -0.0759
  C  C504  1  0.868100  0.369500  0.312900  1.0  0.0085
  C  C505  1  0.833800  0.391140  0.300800  1.0  -0.0897
  C  C506  1  0.788500  0.386760  0.315200  1.0  -0.1078
  C  C507  1  0.544100  0.534360  0.332700  1.0  0.0365
  C  C508  1  0.545300  0.504600  0.312270  1.0  -0.0671
  C  C509  1  0.562400  0.478010  0.334600  1.0  -0.1221
  C  C510  1  0.578200  0.481200  0.377300  1.0  0.0826
  C  C511  1  0.577000  0.511000  0.397700  1.0  -0.135
  C  C512  1  0.560000  0.537550  0.375500  1.0  -0.0794
  C  C513  1  0.116400  0.301700  0.516100  1.0  0.1386
  C  C514  1  0.120100  0.293500  0.472200  1.0  -0.144
  C  C515  1  0.091100  0.307900  0.441500  1.0  -0.1069
  C  C516  1  0.058400  0.330300  0.454800  1.0  -0.0163
  C  C517  1  0.054700  0.338500  0.498800  1.0  -0.0643
  C  C518  1  0.083700  0.324200  0.529400  1.0  -0.1721
  C  C519  1  0.078300  0.909700  0.266400  1.0  0.315
  C  C520  1  0.405700  0.096500  0.270500  1.0  0.353
  C  C521  1  0.052500  0.181400  0.741900  1.0  0.3651
  C  C522  1  0.446800  0.351200  0.734300  1.0  0.3917
  C  C523  1  0.068500  0.071300  0.892300  1.0  0.342
  C  C524  1  0.915500  0.374800  0.300300  1.0  0.3976
  C  C525  1  0.527500  0.561500  0.308600  1.0  0.3759
  C  C526  1  0.579300  0.198000  0.347300  1.0  0.3899
  C  C527  1  0.434900  0.911300  0.907000  1.0  0.3456
  C  C528  1  0.436000  0.184900  0.416700  1.0  0.3895
  C  C529  1  0.036300  0.347100  0.420500  1.0  0.3482
  C  C530  1  0.540900  0.428900  0.602900  1.0  -0.0764
  C  C531  1  0.575800  0.424300  0.515800  1.0  0.0376
  C  C532  1  0.605200  0.413800  0.549800  1.0  -0.1135
  C  C533  1  0.585500  0.416400  0.592300  1.0  -0.0549
  C  C534  1  0.509100  0.439700  0.570100  1.0  -0.0979
  C  C535  1  0.530500  0.435100  0.528200  1.0  -0.0988
  C  C536  1  0.526300  0.425800  0.647800  1.0  0.4011
  C  C537  1  0.128100  0.078100  0.746700  1.0  -0.0189
  C  C538  1  0.175300  0.081500  0.754900  1.0  -0.0449
  C  C539  1  0.207000  0.061400  0.734400  1.0  -0.1005
  C  C540  1  0.191600  0.037800  0.705700  1.0  0.0395
  C  C541  1  0.144400  0.034400  0.697500  1.0  -0.1625
  C  C542  1  0.112700  0.054500  0.718000  1.0  -0.0988
  C  C543  1  0.223000  0.019000  0.676900  1.0  -0.024
  C  C544  1  0.220100  0.018800  0.631500  1.0  0.2873
  C  C545  1  0.250000  0.999600  0.607200  1.0  0.001
  C  C546  1  0.282700  0.980600  0.628300  1.0  -0.0781
  C  C547  1  0.285600  0.980800  0.673700  1.0  0.0667
  C  C548  1  0.255800  0.000000  0.698000  1.0  -0.1104
  C  C549  1  0.251200  0.998100  0.558300  1.0  -0.0129
  C  C550  1  0.284400  0.014000  0.533500  1.0  0.2832
  C  C551  1  0.281800  0.013400  0.488100  1.0  0.0175
  C  C552  1  0.246000  0.997000  0.467500  1.0  -0.0624
  C  C553  1  0.212800  0.981100  0.492300  1.0  0.0467
  C  C554  1  0.215400  0.981600  0.537700  1.0  -0.0521
  C  C555  1  0.175900  0.961400  0.468400  1.0  0.0445
  C  C556  1  0.156500  0.973710  0.430300  1.0  -0.1191
  C  C557  1  0.120600  0.957400  0.409700  1.0  -0.0556
  C  C558  1  0.104100  0.928800  0.427100  1.0  -0.0326
  C  C559  1  0.123600  0.916500  0.465200  1.0  -0.0492
  C  C560  1  0.159500  0.932800  0.485800  1.0  -0.0998
  C  C561  1  0.079800  0.335500  0.201600  1.0  0.0394
  C  C562  1  0.071900  0.339800  0.157100  1.0  -0.0633
  C  C563  1  0.100700  0.324900  0.126700  1.0  -0.1745
  C  C564  1  0.137200  0.305800  0.140800  1.0  0.0981
  C  C565  1  0.145100  0.301580  0.185300  1.0  -0.1633
  C  C566  1  0.116400  0.316500  0.215700  1.0  -0.0678
  C  C567  1  0.165900  0.289000  0.109300  1.0  0.0583
  C  C568  1  0.143000  0.271600  0.077100  1.0  -0.1407
  C  C569  1  0.168300  0.254000  0.046700  1.0  0.041
  C  C570  1  0.216400  0.253900  0.048400  1.0  -0.0992
  C  C571  1  0.239400  0.271400  0.080500  1.0  0.1118
  C  C572  1  0.214100  0.288900  0.111000  1.0  0.2699
  C  C573  1  0.897200  0.227940  0.852800  1.0  -0.0126
  C  C574  1  0.901200  0.244000  0.892400  1.0  -0.0749
  C  C575  1  0.881700  0.274300  0.897500  1.0  -0.1032
  C  C576  1  0.858100  0.288430  0.862800  1.0  0.0802
  C  C577  1  0.854100  0.272300  0.823200  1.0  -0.1609
  C  C578  1  0.873600  0.242100  0.818100  1.0  -0.0983
  C  C579  1  0.836700  0.321020  0.866000  1.0  0.0674
  C  C580  1  0.862200  0.345800  0.884700  1.0  -0.1159
  C  C581  1  0.842400  0.376000  0.889500  1.0  0.003
  C  C582  1  0.797200  0.381460  0.875500  1.0  0.2783
  C  C583  1  0.771800  0.356700  0.856800  1.0  -0.0285
  C  C584  1  0.791500  0.326470  0.852000  1.0  -0.0617
  C  C585  1  0.882000  0.400110  0.953900  1.0  -0.1255
  C  C586  1  0.907100  0.425110  0.972400  1.0  0.1151
  C  C587  1  0.919400  0.451510  0.947200  1.0  -0.1352
  C  C588  1  0.906500  0.452910  0.903400  1.0  0.0245
  C  C589  1  0.881400  0.427900  0.884900  1.0  0.2752
  C  C590  1  0.869100  0.401510  0.910100  1.0  0.0073
  C  C591  1  0.322800  0.963900  0.697200  1.0  0.076
  C  C592  1  0.333100  0.932800  0.684100  1.0  -0.1528
  C  C593  1  0.367000  0.915380  0.706200  1.0  -0.0689
  C  C594  1  0.390400  0.929100  0.741200  1.0  0.0137
  C  C595  1  0.380100  0.960200  0.754200  1.0  -0.0884
  C  C596  1  0.346200  0.977650  0.732200  1.0  -0.1254
  C  C597  1  0.321000  0.026700  0.458500  1.0  0.0883
  C  C598  1  0.355000  0.008200  0.438500  1.0  -0.09
  C  C599  1  0.389600  0.022900  0.413900  1.0  -0.0843
  C  C600  1  0.390100  0.056100  0.409400  1.0  -0.0568
  C  C601  1  0.356000  0.074550  0.429400  1.0  -0.0746
  C  C602  1  0.321500  0.059800  0.454000  1.0  -0.081
  C  C603  1  0.429300  0.206000  0.213300  1.0  -0.0138
  C  C604  1  0.447000  0.207100  0.171100  1.0  -0.0833
  C  C605  1  0.423500  0.224000  0.138700  1.0  -0.1959
  C  C606  1  0.382300  0.239670  0.148500  1.0  0.0988
  C  C607  1  0.364600  0.238530  0.190800  1.0  -0.2046
  C  C608  1  0.388100  0.221700  0.223200  1.0  -0.073
  C  C609  1  0.286500  0.270900  0.081400  1.0  0.1849
  C  C610  1  0.310400  0.284390  0.046400  1.0  0.2005
  C  C611  1  0.358500  0.282440  0.044800  1.0  0.1276
  C  C612  1  0.382700  0.267000  0.078000  1.0  -0.2028
  C  C613  1  0.358800  0.253570  0.113000  1.0  0.103
  C  C614  1  0.310700  0.255520  0.114700  1.0  -0.1117
  C  C615  1  0.142800  0.234700  0.010500  1.0  0.0465
  C  C616  1  0.160800  0.230210  0.968800  1.0  -0.0924
  C  C617  1  0.136300  0.212300  0.938100  1.0  -0.0811
  C  C618  1  0.093700  0.198900  0.949300  1.0  -0.0408
  C  C619  1  0.075700  0.203400  0.991000  1.0  -0.0607
  C  C620  1  0.100300  0.221300  0.021600  1.0  -0.1128
  C  C621  1  0.722400  0.360700  0.841700  1.0  0.1059
  C  C622  1  0.688100  0.339100  0.853800  1.0  -0.1049
  C  C623  1  0.642800  0.343480  0.839400  1.0  -0.0714
  C  C624  1  0.631900  0.369500  0.812900  1.0  0.0076
  C  C625  1  0.666200  0.391140  0.800800  1.0  -0.0898
  C  C626  1  0.711500  0.386760  0.815200  1.0  -0.1078
  C  C627  1  0.955900  0.534360  0.832700  1.0  0.0367
  C  C628  1  0.954700  0.504600  0.812270  1.0  -0.0677
  C  C629  1  0.937600  0.478010  0.834600  1.0  -0.1229
  C  C630  1  0.921800  0.481200  0.877300  1.0  0.0827
  C  C631  1  0.923000  0.511000  0.897700  1.0  -0.1382
  C  C632  1  0.940000  0.537550  0.875500  1.0  -0.0816
  C  C633  1  0.383600  0.301700  0.016100  1.0  0.1379
  C  C634  1  0.379900  0.293500  0.972200  1.0  -0.1445
  C  C635  1  0.408900  0.307900  0.941500  1.0  -0.1024
  C  C636  1  0.441600  0.330300  0.954800  1.0  -0.0152
  C  C637  1  0.445300  0.338500  0.998800  1.0  -0.0668
  C  C638  1  0.416300  0.324200  0.029400  1.0  -0.1681
  C  C639  1  0.421700  0.909700  0.766400  1.0  0.3156
  C  C640  1  0.094300  0.096500  0.770500  1.0  0.3513
  C  C641  1  0.447500  0.181400  0.241900  1.0  0.3658
  C  C642  1  0.053200  0.351200  0.234300  1.0  0.3911
  C  C643  1  0.431500  0.071300  0.392300  1.0  0.3415
  C  C644  1  0.584500  0.374800  0.800300  1.0  0.3963
  C  C645  1  0.972500  0.561500  0.808600  1.0  0.3766
  C  C646  1  0.920700  0.198000  0.847300  1.0  0.3898
  C  C647  1  0.065100  0.911300  0.407000  1.0  0.3451
  C  C648  1  0.064000  0.184900  0.916700  1.0  0.3878
  C  C649  1  0.463700  0.347100  0.920500  1.0  0.3467
  C  C650  1  0.959100  0.428900  0.102900  1.0  -0.0759
  C  C651  1  0.924200  0.424300  0.015800  1.0  0.0401
  C  C652  1  0.894800  0.413800  0.049800  1.0  -0.1144
  C  C653  1  0.914500  0.416400  0.092300  1.0  -0.0555
  C  C654  1  0.990900  0.439700  0.070100  1.0  -0.0937
  C  C655  1  0.969500  0.435100  0.028200  1.0  -0.0986
  C  C656  1  0.973700  0.425800  0.147800  1.0  0.3997
  C  C657  1  0.871900  0.921900  0.246700  1.0  -0.0194
  C  C658  1  0.824700  0.918500  0.254900  1.0  -0.0441
  C  C659  1  0.793000  0.938600  0.234400  1.0  -0.1016
  C  C660  1  0.808400  0.962200  0.205700  1.0  0.0399
  C  C661  1  0.855600  0.965600  0.197500  1.0  -0.1629
  C  C662  1  0.887300  0.945500  0.218000  1.0  -0.098
  C  C663  1  0.777000  0.981000  0.176900  1.0  -0.0257
  C  C664  1  0.779900  0.981200  0.131500  1.0  0.2888
  C  C665  1  0.750000  0.000400  0.107200  1.0  0.0008
  C  C666  1  0.717300  0.019400  0.128300  1.0  -0.0782
  C  C667  1  0.714400  0.019200  0.173700  1.0  0.067
  C  C668  1  0.744200  0.000000  0.198000  1.0  -0.1094
  C  C669  1  0.748800  0.001900  0.058300  1.0  -0.0128
  C  C670  1  0.715600  0.986000  0.033500  1.0  0.2842
  C  C671  1  0.718200  0.986600  0.988100  1.0  0.0173
  C  C672  1  0.754000  0.003000  0.967500  1.0  -0.062
  C  C673  1  0.787200  0.018900  0.992300  1.0  0.0471
  C  C674  1  0.784600  0.018400  0.037700  1.0  -0.0566
  C  C675  1  0.824100  0.038600  0.968400  1.0  0.0443
  C  C676  1  0.843500  0.026290  0.930300  1.0  -0.1196
  C  C677  1  0.879400  0.042600  0.909700  1.0  -0.0577
  C  C678  1  0.895900  0.071200  0.927100  1.0  -0.0323
  C  C679  1  0.876400  0.083500  0.965200  1.0  -0.0471
  C  C680  1  0.840500  0.067200  0.985800  1.0  -0.1007
  C  C681  1  0.920200  0.664500  0.701600  1.0  0.0398
  C  C682  1  0.928100  0.660200  0.657100  1.0  -0.0623
  C  C683  1  0.899300  0.675100  0.626700  1.0  -0.1733
  C  C684  1  0.862800  0.694200  0.640800  1.0  0.1011
  C  C685  1  0.854900  0.698420  0.685300  1.0  -0.1635
  C  C686  1  0.883600  0.683500  0.715700  1.0  -0.0645
  C  C687  1  0.834100  0.711000  0.609300  1.0  0.059
  C  C688  1  0.857000  0.728400  0.577100  1.0  -0.1404
  C  C689  1  0.831700  0.746000  0.546700  1.0  0.0415
  C  C690  1  0.783600  0.746100  0.548400  1.0  -0.0979
  C  C691  1  0.760600  0.728600  0.580500  1.0  0.1117
  C  C692  1  0.785900  0.711100  0.611000  1.0  0.2677
  C  C693  1  0.102800  0.772060  0.352800  1.0  -0.0135
  C  C694  1  0.098800  0.756000  0.392400  1.0  -0.0707
  C  C695  1  0.118300  0.725700  0.397500  1.0  -0.1021
  C  C696  1  0.141900  0.711570  0.362800  1.0  0.0796
  C  C697  1  0.145900  0.727700  0.323200  1.0  -0.1654
  C  C698  1  0.126400  0.757900  0.318100  1.0  -0.1017
  C  C699  1  0.163300  0.678980  0.366000  1.0  0.068
  C  C700  1  0.137800  0.654200  0.384700  1.0  -0.1168
  C  C701  1  0.157600  0.624000  0.389500  1.0  0.0027
  C  C702  1  0.202800  0.618540  0.375500  1.0  0.2781
  C  C703  1  0.228200  0.643300  0.356800  1.0  -0.0267
  C  C704  1  0.208500  0.673530  0.352000  1.0  -0.0599
  C  C705  1  0.118000  0.599890  0.453900  1.0  -0.1247
  C  C706  1  0.092900  0.574890  0.472400  1.0  0.1155
  C  C707  1  0.080600  0.548490  0.447200  1.0  -0.1358
  C  C708  1  0.093500  0.547090  0.403400  1.0  0.0241
  C  C709  1  0.118600  0.572100  0.384900  1.0  0.2755
  C  C710  1  0.130900  0.598490  0.410100  1.0  0.0078
  C  C711  1  0.677200  0.036100  0.197200  1.0  0.0755
  C  C712  1  0.666900  0.067200  0.184100  1.0  -0.1521
  C  C713  1  0.633000  0.084620  0.206200  1.0  -0.0753
  C  C714  1  0.609600  0.070900  0.241200  1.0  0.0143
  C  C715  1  0.619900  0.039800  0.254200  1.0  -0.0857
  C  C716  1  0.653800  0.022350  0.232200  1.0  -0.1288
  C  C717  1  0.679000  0.973300  0.958500  1.0  0.0895
  C  C718  1  0.645000  0.991800  0.938500  1.0  -0.0902
  C  C719  1  0.610400  0.977100  0.913900  1.0  -0.0847
  C  C720  1  0.609900  0.943900  0.909400  1.0  -0.0569
  C  C721  1  0.644000  0.925450  0.929400  1.0  -0.0743
  C  C722  1  0.678500  0.940200  0.954000  1.0  -0.0831
  C  C723  1  0.570700  0.794000  0.713300  1.0  -0.0133
  C  C724  1  0.553000  0.792900  0.671100  1.0  -0.0826
  C  C725  1  0.576500  0.776000  0.638700  1.0  -0.1992
  C  C726  1  0.617700  0.760330  0.648500  1.0  0.0989
  C  C727  1  0.635400  0.761470  0.690800  1.0  -0.203
  C  C728  1  0.611900  0.778300  0.723200  1.0  -0.0738
  C  C729  1  0.713500  0.729100  0.581400  1.0  0.185
  C  C730  1  0.689600  0.715610  0.546400  1.0  0.1993
  C  C731  1  0.641500  0.717560  0.544800  1.0  0.1291
  C  C732  1  0.617300  0.733000  0.578000  1.0  -0.2003
  C  C733  1  0.641200  0.746430  0.613000  1.0  0.1048
  C  C734  1  0.689300  0.744480  0.614700  1.0  -0.1055
  C  C735  1  0.857200  0.765300  0.510500  1.0  0.0458
  C  C736  1  0.839200  0.769790  0.468800  1.0  -0.0919
  C  C737  1  0.863700  0.787700  0.438100  1.0  -0.0798
  C  C738  1  0.906300  0.801100  0.449300  1.0  -0.0394
  C  C739  1  0.924300  0.796600  0.491000  1.0  -0.0637
  C  C740  1  0.899700  0.778700  0.521600  1.0  -0.114
  C  C741  1  0.277600  0.639300  0.341700  1.0  0.1073
  C  C742  1  0.311900  0.660900  0.353800  1.0  -0.1052
  C  C743  1  0.357200  0.656520  0.339400  1.0  -0.0789
  C  C744  1  0.368100  0.630500  0.312900  1.0  0.0084
  C  C745  1  0.333800  0.608860  0.300800  1.0  -0.0879
  C  C746  1  0.288500  0.613240  0.315200  1.0  -0.1065
  C  C747  1  0.044100  0.465640  0.332700  1.0  0.0359
  C  C748  1  0.045300  0.495400  0.312270  1.0  -0.0674
  C  C749  1  0.062400  0.521990  0.334600  1.0  -0.1246
  C  C750  1  0.078200  0.518800  0.377300  1.0  0.0832
  C  C751  1  0.077000  0.489000  0.397700  1.0  -0.1382
  C  C752  1  0.060000  0.462450  0.375500  1.0  -0.0787
  C  C753  1  0.616400  0.698300  0.516100  1.0  0.138
  C  C754  1  0.620100  0.706500  0.472200  1.0  -0.1436
  C  C755  1  0.591100  0.692100  0.441500  1.0  -0.1086
  C  C756  1  0.558400  0.669700  0.454800  1.0  -0.0166
  C  C757  1  0.554700  0.661500  0.498800  1.0  -0.0651
  C  C758  1  0.583700  0.675800  0.529400  1.0  -0.1726
  C  C759  1  0.578300  0.090300  0.266400  1.0  0.3144
  C  C760  1  0.905700  0.903500  0.270500  1.0  0.3553
  C  C761  1  0.552500  0.818600  0.741900  1.0  0.3644
  C  C762  1  0.946800  0.648800  0.734300  1.0  0.3918
  C  C763  1  0.568500  0.928700  0.892300  1.0  0.342
  C  C764  1  0.415500  0.625200  0.300300  1.0  0.3978
  C  C765  1  0.027500  0.438500  0.308600  1.0  0.3754
  C  C766  1  0.079300  0.802000  0.347300  1.0  0.3895
  C  C767  1  0.934900  0.088700  0.907000  1.0  0.3431
  C  C768  1  0.936000  0.815100  0.416700  1.0  0.3887
  C  C769  1  0.536300  0.652900  0.420500  1.0  0.3496
  C  C770  1  0.040900  0.571100  0.602900  1.0  -0.0772
  C  C771  1  0.075800  0.575700  0.515800  1.0  0.0378
  C  C772  1  0.105200  0.586200  0.549800  1.0  -0.1135
  C  C773  1  0.085500  0.583600  0.592300  1.0  -0.0551
  C  C774  1  0.009100  0.560300  0.570100  1.0  -0.0978
  C  C775  1  0.030500  0.564900  0.528200  1.0  -0.0993
  C  C776  1  0.026300  0.574200  0.647800  1.0  0.4016
  O  O777  1  0.508400  0.865230  0.834600  1.0  -1.1259
  O  O778  1  0.821200  0.972000  0.553200  1.0  -0.4512
  O  O779  1  0.934000  0.817200  0.286600  1.0  -0.6485
  O  O780  1  0.689100  0.964300  0.608700  1.0  -0.4786
  O  O781  1  0.995200  0.824900  0.242100  1.0  -0.5971
  O  O782  1  0.733600  0.692100  0.141600  1.0  -0.4917
  O  O783  1  0.586200  0.823400  0.877000  1.0  -0.614
  O  O784  1  0.788300  0.701300  0.011300  1.0  -0.4905
  O  O785  1  0.524900  0.833360  0.928900  1.0  -0.5837
  O  O786  1  0.272800  0.591000  0.882800  1.0  -0.4825
  O  O787  1  0.518700  0.625200  0.222000  1.0  -0.7171
  O  O788  1  0.370500  0.570200  0.840600  1.0  -0.4974
  O  O789  1  0.552500  0.657400  0.279000  1.0  -0.5581
  O  O790  1  0.475500  0.408180  0.829600  1.0  -0.6906
  O  O791  1  0.490500  0.441260  0.765700  1.0  -0.5854
  O  O792  1  0.440400  0.814700  0.885600  1.0  -0.5863
  O  O793  1  0.427100  0.813790  0.804200  1.0  -0.5935
  O  O794  1  0.048800  0.643270  0.819900  1.0  -0.5848
  O  O795  1  0.073500  0.602240  0.769300  1.0  -0.6141
  O  O796  1  0.955200  0.942100  0.356400  1.0  -0.5767
  O  O797  1  0.926600  0.895500  0.386100  1.0  -0.6932
  O  O798  1  0.548100  0.076100  0.366700  1.0  -0.6131
  O  O799  1  0.557600  0.120100  0.423100  1.0  -0.5614
  O  O800  1  0.551300  0.917500  0.780400  1.0  -0.646
  O  O801  1  0.613500  0.879800  0.798400  1.0  -0.5647
  O  O802  1  0.959500  0.072860  0.784000  1.0  -0.5872
  O  O803  1  0.929000  0.122520  0.755300  1.0  -0.5762
  O  O804  1  0.960600  0.654400  0.876000  1.0  -0.5811
  O  O805  1  0.998600  0.629100  0.933400  1.0  -0.5279
  O  O806  1  0.445700  0.584000  0.181200  1.0  -0.5216
  O  O807  1  0.520700  0.565700  0.156100  1.0  -0.466
  O  O808  1  0.491600  0.134770  0.334600  1.0  -1.1262
  O  O809  1  0.178800  0.028000  0.053200  1.0  -0.4534
  O  O810  1  0.066000  0.182800  0.786600  1.0  -0.6489
  O  O811  1  0.310900  0.035700  0.108700  1.0  -0.4791
  O  O812  1  0.004800  0.175100  0.742100  1.0  -0.5958
  O  O813  1  0.266400  0.307900  0.641600  1.0  -0.4898
  O  O814  1  0.413800  0.176600  0.377000  1.0  -0.6151
  O  O815  1  0.211700  0.298700  0.511300  1.0  -0.4915
  O  O816  1  0.475100  0.166640  0.428900  1.0  -0.5832
  O  O817  1  0.727200  0.409000  0.382800  1.0  -0.4817
  O  O818  1  0.481300  0.374800  0.722000  1.0  -0.718
  O  O819  1  0.629500  0.429800  0.340600  1.0  -0.4996
  O  O820  1  0.447500  0.342600  0.779000  1.0  -0.5597
  O  O821  1  0.524500  0.591820  0.329600  1.0  -0.6914
  O  O822  1  0.509500  0.558740  0.265700  1.0  -0.5869
  O  O823  1  0.559600  0.185300  0.385600  1.0  -0.5858
  O  O824  1  0.572900  0.186210  0.304200  1.0  -0.5957
  O  O825  1  0.951200  0.356730  0.319900  1.0  -0.5853
  O  O826  1  0.926500  0.397760  0.269300  1.0  -0.6119
  O  O827  1  0.044800  0.057900  0.856400  1.0  -0.5754
  O  O828  1  0.073400  0.104500  0.886100  1.0  -0.6931
  O  O829  1  0.451900  0.923900  0.866700  1.0  -0.6135
  O  O830  1  0.442400  0.879900  0.923100  1.0  -0.5629
  O  O831  1  0.448700  0.082500  0.280400  1.0  -0.6437
  O  O832  1  0.386500  0.120200  0.298400  1.0  -0.5625
  O  O833  1  0.040500  0.927140  0.284000  1.0  -0.5881
  O  O834  1  0.071000  0.877480  0.255300  1.0  -0.5766
  O  O835  1  0.039400  0.345600  0.376000  1.0  -0.5802
  O  O836  1  0.001400  0.370900  0.433400  1.0  -0.5275
  O  O837  1  0.554300  0.416000  0.681200  1.0  -0.522
  O  O838  1  0.479300  0.434300  0.656100  1.0  -0.4625
  O  O839  1  0.008400  0.134770  0.834600  1.0  -1.1259
  O  O840  1  0.321200  0.028000  0.553200  1.0  -0.4524
  O  O841  1  0.434000  0.182800  0.286600  1.0  -0.6497
  O  O842  1  0.189100  0.035700  0.608700  1.0  -0.4792
  O  O843  1  0.495200  0.175100  0.242100  1.0  -0.5976
  O  O844  1  0.233600  0.307900  0.141600  1.0  -0.4893
  O  O845  1  0.086200  0.176600  0.877000  1.0  -0.6144
  O  O846  1  0.288300  0.298700  0.011300  1.0  -0.4906
  O  O847  1  0.024900  0.166640  0.928900  1.0  -0.5837
  O  O848  1  0.772800  0.409000  0.882800  1.0  -0.4828
  O  O849  1  0.018700  0.374800  0.222000  1.0  -0.7173
  O  O850  1  0.870500  0.429800  0.840600  1.0  -0.4972
  O  O851  1  0.052500  0.342600  0.279000  1.0  -0.5592
  O  O852  1  0.975500  0.591820  0.829600  1.0  -0.6908
  O  O853  1  0.990500  0.558740  0.765700  1.0  -0.5859
  O  O854  1  0.940400  0.185300  0.885600  1.0  -0.5869
  O  O855  1  0.927100  0.186210  0.804200  1.0  -0.5943
  O  O856  1  0.548800  0.356730  0.819900  1.0  -0.5858
  O  O857  1  0.573500  0.397760  0.769300  1.0  -0.6147
  O  O858  1  0.455200  0.057900  0.356400  1.0  -0.5746
  O  O859  1  0.426600  0.104500  0.386100  1.0  -0.695
  O  O860  1  0.048100  0.923900  0.366700  1.0  -0.6128
  O  O861  1  0.057600  0.879900  0.423100  1.0  -0.5617
  O  O862  1  0.051300  0.082500  0.780400  1.0  -0.6453
  O  O863  1  0.113500  0.120200  0.798400  1.0  -0.5644
  O  O864  1  0.459500  0.927140  0.784000  1.0  -0.5874
  O  O865  1  0.429000  0.877480  0.755300  1.0  -0.5758
  O  O866  1  0.460600  0.345600  0.876000  1.0  -0.58
  O  O867  1  0.498600  0.370900  0.933400  1.0  -0.5239
  O  O868  1  0.945700  0.416000  0.181200  1.0  -0.5214
  O  O869  1  0.020700  0.434300  0.156100  1.0  -0.4643
  O  O870  1  0.991600  0.865230  0.334600  1.0  -1.1261
  O  O871  1  0.678800  0.972000  0.053200  1.0  -0.4515
  O  O872  1  0.566000  0.817200  0.786600  1.0  -0.6479
  O  O873  1  0.810900  0.964300  0.108700  1.0  -0.4795
  O  O874  1  0.504800  0.824900  0.742100  1.0  -0.595
  O  O875  1  0.766400  0.692100  0.641600  1.0  -0.493
  O  O876  1  0.913800  0.823400  0.377000  1.0  -0.6142
  O  O877  1  0.711700  0.701300  0.511300  1.0  -0.4899
  O  O878  1  0.975100  0.833360  0.428900  1.0  -0.5825
  O  O879  1  0.227200  0.591000  0.382800  1.0  -0.4817
  O  O880  1  0.981300  0.625200  0.722000  1.0  -0.718
  O  O881  1  0.129500  0.570200  0.340600  1.0  -0.4994
  O  O882  1  0.947500  0.657400  0.779000  1.0  -0.5592
  O  O883  1  0.024500  0.408180  0.329600  1.0  -0.6911
  O  O884  1  0.009500  0.441260  0.265700  1.0  -0.5859
  O  O885  1  0.059600  0.814700  0.385600  1.0  -0.5851
  O  O886  1  0.072900  0.813790  0.304200  1.0  -0.5951
  O  O887  1  0.451200  0.643270  0.319900  1.0  -0.5846
  O  O888  1  0.426500  0.602240  0.269300  1.0  -0.6143
  O  O889  1  0.544800  0.942100  0.856400  1.0  -0.5766
  O  O890  1  0.573400  0.895500  0.886100  1.0  -0.6914
  O  O891  1  0.951900  0.076100  0.866700  1.0  -0.6134
  O  O892  1  0.942400  0.120100  0.923100  1.0  -0.5626
  O  O893  1  0.948700  0.917500  0.280400  1.0  -0.644
  O  O894  1  0.886500  0.879800  0.298400  1.0  -0.5618
  O  O895  1  0.540500  0.072860  0.284000  1.0  -0.5878
  O  O896  1  0.571000  0.122520  0.255300  1.0  -0.5762
  O  O897  1  0.539400  0.654400  0.376000  1.0  -0.581
  O  O898  1  0.501400  0.629100  0.433400  1.0  -0.5225
  O  O899  1  0.054300  0.584000  0.681200  1.0  -0.5223
  O  O900  1  0.979300  0.565700  0.656100  1.0  -0.4633
