# generated using pymatgen
data_Cu4H36C120O37
_symmetry_space_group_name_H-M   'P 1'
_cell_length_a   41.51120000
_cell_length_b   41.45560000
_cell_length_c   31.16770000
_cell_angle_alpha   90.00000000
_cell_angle_beta   109.40800000
_cell_angle_gamma   90.00000000
_symmetry_Int_Tables_number   1
_chemical_formula_structural   Cu4H36C120O37
_chemical_formula_sum   'Cu32 H288 C960 O296'
_cell_volume   50587.83739578
_cell_formula_units_Z   8
loop_
 _symmetry_equiv_pos_site_id
 _symmetry_equiv_pos_as_xyz
  1  'x, y, z'
loop_
 _atom_site_type_symbol
 _atom_site_label
 _atom_site_symmetry_multiplicity
 _atom_site_fract_x
 _atom_site_fract_y
 _atom_site_fract_z
 _atom_site_occupancy
 _atom_site_charge
  Cu  Cu1  1  0.988360  0.981850  0.526290  1.0  0.9532
  Cu  Cu2  1  0.738470  0.268190  0.026310  1.0  0.9422
  Cu  Cu3  1  0.649820  0.856820  0.026370  1.0  0.9455
  Cu  Cu4  1  0.600280  0.893170  0.973760  1.0  0.9561
  Cu  Cu5  1  0.488360  0.481850  0.526290  1.0  0.9532
  Cu  Cu6  1  0.238470  0.768190  0.026310  1.0  0.9422
  Cu  Cu7  1  0.149820  0.356820  0.026370  1.0  0.9455
  Cu  Cu8  1  0.100280  0.393170  0.973760  1.0  0.9561
  Cu  Cu9  1  0.011640  0.981850  0.973710  1.0  0.9536
  Cu  Cu10  1  0.261530  0.268190  0.473690  1.0  0.9426
  Cu  Cu11  1  0.350180  0.856820  0.473630  1.0  0.9455
  Cu  Cu12  1  0.399720  0.893170  0.526240  1.0  0.9566
  Cu  Cu13  1  0.511640  0.481850  0.973710  1.0  0.9536
  Cu  Cu14  1  0.761530  0.768190  0.473690  1.0  0.9426
  Cu  Cu15  1  0.850180  0.356820  0.473630  1.0  0.9455
  Cu  Cu16  1  0.899720  0.393170  0.526240  1.0  0.9566
  Cu  Cu17  1  0.011640  0.018150  0.473710  1.0  0.953
  Cu  Cu18  1  0.261530  0.731810  0.973690  1.0  0.9414
  Cu  Cu19  1  0.350180  0.143180  0.973630  1.0  0.9466
  Cu  Cu20  1  0.399720  0.106830  0.026240  1.0  0.9559
  Cu  Cu21  1  0.511640  0.518150  0.473710  1.0  0.953
  Cu  Cu22  1  0.761530  0.231810  0.973690  1.0  0.9414
  Cu  Cu23  1  0.850180  0.643180  0.973630  1.0  0.9466
  Cu  Cu24  1  0.899720  0.606830  0.026240  1.0  0.9559
  Cu  Cu25  1  0.988360  0.018150  0.026290  1.0  0.953
  Cu  Cu26  1  0.738470  0.731810  0.526310  1.0  0.9413
  Cu  Cu27  1  0.649820  0.143180  0.526370  1.0  0.9469
  Cu  Cu28  1  0.600280  0.106830  0.473760  1.0  0.9554
  Cu  Cu29  1  0.488360  0.518150  0.026290  1.0  0.953
  Cu  Cu30  1  0.238470  0.231810  0.526310  1.0  0.9413
  Cu  Cu31  1  0.149820  0.643180  0.526370  1.0  0.9469
  Cu  Cu32  1  0.100280  0.606830  0.473760  1.0  0.9554
  H  H33  1  0.038000  0.812700  0.402100  1.0  0.1572
  H  H34  1  0.020100  0.723100  0.333600  1.0  0.146
  H  H35  1  0.046100  0.678100  0.375700  1.0  0.1474
  H  H36  1  0.116300  0.735600  0.462600  1.0  0.1454
  H  H37  1  0.090400  0.780700  0.420600  1.0  0.1499
  H  H38  1  0.021700  0.901300  0.333400  1.0  0.1484
  H  H39  1  0.017300  0.946500  0.375600  1.0  0.1479
  H  H40  1  0.990600  0.889300  0.463100  1.0  0.1446
  H  H41  1  0.995000  0.844100  0.420800  1.0  0.1518
  H  H42  1  0.712000  0.062200  0.097600  1.0  0.1584
  H  H43  1  0.754300  0.094600  0.078700  1.0  0.1511
  H  H44  1  0.759400  0.139700  0.036800  1.0  0.1453
  H  H45  1  0.733400  0.197200  0.124600  1.0  0.1456
  H  H46  1  0.728300  0.152100  0.166400  1.0  0.1368
  H  H47  1  0.660100  0.030600  0.078700  1.0  0.1512
  H  H48  1  0.634300  0.985500  0.036700  1.0  0.145
  H  H49  1  0.704300  0.928100  0.124300  1.0  0.1469
  H  H50  1  0.730200  0.973200  0.166200  1.0  0.1353
  H  H51  1  0.787800  0.061900  0.402300  1.0  0.1583
  H  H52  1  0.824500  0.015300  0.420400  1.0  0.1524
  H  H53  1  0.879900  0.999900  0.462900  1.0  0.1439
  H  H54  1  0.916000  0.048100  0.376000  1.0  0.1519
  H  H55  1  0.860600  0.063500  0.333500  1.0  0.1509
  H  H56  1  0.575000  0.235100  0.921500  1.0  0.1517
  H  H57  1  0.630600  0.250300  0.963400  1.0  0.1438
  H  H58  1  0.665800  0.202000  0.875700  1.0  0.1475
  H  H59  1  0.610200  0.186700  0.833800  1.0  0.1492
  H  H60  1  0.538000  0.187300  0.902300  1.0  0.1585
  H  H61  1  0.760800  0.109800  0.420900  1.0  0.1514
  H  H62  1  0.726400  0.124900  0.463200  1.0  0.1483
  H  H63  1  0.647100  0.076700  0.375600  1.0  0.1479
  H  H64  1  0.681500  0.061600  0.333333  1.0  0.2649
  H  H65  1  0.431400  0.188600  0.833700  1.0  0.1483
  H  H66  1  0.397000  0.173300  0.876000  1.0  0.1477
  H  H67  1  0.476200  0.124600  0.962800  1.0  0.146
  H  H68  1  0.510600  0.139900  0.920500  1.0  0.1514
  H  H69  1  0.538000  0.312700  0.402100  1.0  0.1572
  H  H70  1  0.520100  0.223100  0.333600  1.0  0.146
  H  H71  1  0.546100  0.178100  0.375700  1.0  0.1474
  H  H72  1  0.616300  0.235600  0.462600  1.0  0.1454
  H  H73  1  0.590400  0.280700  0.420600  1.0  0.1499
  H  H74  1  0.521700  0.401300  0.333400  1.0  0.1484
  H  H75  1  0.517300  0.446500  0.375600  1.0  0.1479
  H  H76  1  0.490600  0.389300  0.463100  1.0  0.1446
  H  H77  1  0.495000  0.344100  0.420800  1.0  0.1518
  H  H78  1  0.212000  0.562200  0.097600  1.0  0.1584
  H  H79  1  0.254300  0.594600  0.078700  1.0  0.1511
  H  H80  1  0.259400  0.639700  0.036800  1.0  0.1454
  H  H81  1  0.233400  0.697200  0.124600  1.0  0.1456
  H  H82  1  0.228300  0.652100  0.166400  1.0  0.1368
  H  H83  1  0.160100  0.530600  0.078700  1.0  0.151
  H  H84  1  0.134300  0.485500  0.036700  1.0  0.145
  H  H85  1  0.204300  0.428100  0.124300  1.0  0.1469
  H  H86  1  0.230200  0.473200  0.166200  1.0  0.1353
  H  H87  1  0.287800  0.561900  0.402300  1.0  0.1583
  H  H88  1  0.324500  0.515300  0.420400  1.0  0.1524
  H  H89  1  0.379900  0.499900  0.462900  1.0  0.1439
  H  H90  1  0.416000  0.548100  0.376000  1.0  0.1519
  H  H91  1  0.360600  0.563500  0.333500  1.0  0.1509
  H  H92  1  0.075000  0.735100  0.921500  1.0  0.1517
  H  H93  1  0.130600  0.750300  0.963400  1.0  0.1438
  H  H94  1  0.165800  0.702000  0.875700  1.0  0.1475
  H  H95  1  0.110200  0.686700  0.833800  1.0  0.1492
  H  H96  1  0.038000  0.687300  0.902300  1.0  0.1585
  H  H97  1  0.260800  0.609800  0.420900  1.0  0.1514
  H  H98  1  0.226400  0.624900  0.463200  1.0  0.1483
  H  H99  1  0.147100  0.576700  0.375600  1.0  0.1479
  H  H100  1  0.181500  0.561600  0.333333  1.0  0.2649
  H  H101  1  0.931400  0.688600  0.833700  1.0  0.1483
  H  H102  1  0.897000  0.673300  0.876000  1.0  0.1477
  H  H103  1  0.976200  0.624600  0.962800  1.0  0.1456
  H  H104  1  0.010600  0.639900  0.920500  1.0  0.1514
  H  H105  1  0.962000  0.812700  0.097900  1.0  0.1569
  H  H106  1  0.979900  0.723100  0.166400  1.0  0.1462
  H  H107  1  0.953900  0.678100  0.124300  1.0  0.1477
  H  H108  1  0.883700  0.735600  0.037400  1.0  0.1452
  H  H109  1  0.909600  0.780700  0.079400  1.0  0.1502
  H  H110  1  0.978300  0.901300  0.166600  1.0  0.1482
  H  H111  1  0.982700  0.946500  0.124400  1.0  0.1476
  H  H112  1  0.009400  0.889300  0.036900  1.0  0.1441
  H  H113  1  0.005000  0.844100  0.079200  1.0  0.1509
  H  H114  1  0.288000  0.062200  0.402400  1.0  0.1583
  H  H115  1  0.245700  0.094600  0.421300  1.0  0.1519
  H  H116  1  0.240600  0.139700  0.463200  1.0  0.1457
  H  H117  1  0.266600  0.197200  0.375400  1.0  0.1456
  H  H118  1  0.271700  0.152100  0.333600  1.0  0.1373
  H  H119  1  0.339900  0.030600  0.421300  1.0  0.1504
  H  H120  1  0.365700  0.985500  0.463300  1.0  0.1452
  H  H121  1  0.295700  0.928100  0.375700  1.0  0.1467
  H  H122  1  0.269800  0.973200  0.333800  1.0  0.1352
  H  H123  1  0.212200  0.061900  0.097700  1.0  0.1584
  H  H124  1  0.175500  0.015300  0.079600  1.0  0.1515
  H  H125  1  0.120100  0.999900  0.037100  1.0  0.1435
  H  H126  1  0.084000  0.048100  0.124000  1.0  0.1511
  H  H127  1  0.139400  0.063500  0.166500  1.0  0.1523
  H  H128  1  0.425000  0.235100  0.578500  1.0  0.1513
  H  H129  1  0.369400  0.250300  0.536600  1.0  0.1439
  H  H130  1  0.334200  0.202000  0.624300  1.0  0.1477
  H  H131  1  0.389800  0.186700  0.666200  1.0  0.1506
  H  H132  1  0.462000  0.187300  0.597700  1.0  0.1589
  H  H133  1  0.239200  0.109800  0.079100  1.0  0.1518
  H  H134  1  0.273600  0.124900  0.036800  1.0  0.1484
  H  H135  1  0.352900  0.076700  0.124400  1.0  0.1477
  H  H136  1  0.318500  0.061600  0.166700  1.0  0.2714
  H  H137  1  0.568600  0.188600  0.666300  1.0  0.1483
  H  H138  1  0.603000  0.173300  0.624000  1.0  0.148
  H  H139  1  0.523800  0.124600  0.537200  1.0  0.146
  H  H140  1  0.489400  0.139900  0.579500  1.0  0.1524
  H  H141  1  0.462000  0.312700  0.097900  1.0  0.1569
  H  H142  1  0.479900  0.223100  0.166400  1.0  0.1462
  H  H143  1  0.453900  0.178100  0.124300  1.0  0.1477
  H  H144  1  0.383700  0.235600  0.037400  1.0  0.1452
  H  H145  1  0.409600  0.280700  0.079400  1.0  0.1502
  H  H146  1  0.478300  0.401300  0.166600  1.0  0.1482
  H  H147  1  0.482700  0.446500  0.124400  1.0  0.1476
  H  H148  1  0.509400  0.389300  0.036900  1.0  0.1441
  H  H149  1  0.505000  0.344100  0.079200  1.0  0.1509
  H  H150  1  0.788000  0.562200  0.402400  1.0  0.1583
  H  H151  1  0.745700  0.594600  0.421300  1.0  0.1519
  H  H152  1  0.740600  0.639700  0.463200  1.0  0.1457
  H  H153  1  0.766600  0.697200  0.375400  1.0  0.1456
  H  H154  1  0.771700  0.652100  0.333600  1.0  0.1373
  H  H155  1  0.839900  0.530600  0.421300  1.0  0.1504
  H  H156  1  0.865700  0.485500  0.463300  1.0  0.1452
  H  H157  1  0.795700  0.428100  0.375700  1.0  0.1467
  H  H158  1  0.769800  0.473200  0.333800  1.0  0.1352
  H  H159  1  0.712200  0.561900  0.097700  1.0  0.1584
  H  H160  1  0.675500  0.515300  0.079600  1.0  0.1515
  H  H161  1  0.620100  0.499900  0.037100  1.0  0.1435
  H  H162  1  0.584000  0.548100  0.124000  1.0  0.1511
  H  H163  1  0.639400  0.563500  0.166500  1.0  0.1523
  H  H164  1  0.925000  0.735100  0.578500  1.0  0.1513
  H  H165  1  0.869400  0.750300  0.536600  1.0  0.1439
  H  H166  1  0.834200  0.702000  0.624300  1.0  0.1477
  H  H167  1  0.889800  0.686700  0.666200  1.0  0.1506
  H  H168  1  0.962000  0.687300  0.597700  1.0  0.1589
  H  H169  1  0.739200  0.609800  0.079100  1.0  0.1518
  H  H170  1  0.773600  0.624900  0.036800  1.0  0.1484
  H  H171  1  0.852900  0.576700  0.124400  1.0  0.1477
  H  H172  1  0.818500  0.561600  0.166700  1.0  0.2714
  H  H173  1  0.068600  0.688600  0.666300  1.0  0.1483
  H  H174  1  0.103000  0.673300  0.624000  1.0  0.148
  H  H175  1  0.023800  0.624600  0.537200  1.0  0.146
  H  H176  1  0.989400  0.639900  0.579500  1.0  0.1524
  H  H177  1  0.962000  0.187300  0.597900  1.0  0.1569
  H  H178  1  0.979900  0.276900  0.666400  1.0  0.1464
  H  H179  1  0.953900  0.321900  0.624300  1.0  0.1479
  H  H180  1  0.883700  0.264400  0.537400  1.0  0.1452
  H  H181  1  0.909600  0.219300  0.579400  1.0  0.1496
  H  H182  1  0.978300  0.098700  0.666667  1.0  0.1479
  H  H183  1  0.982700  0.053500  0.624400  1.0  0.1476
  H  H184  1  0.009400  0.110700  0.536900  1.0  0.1443
  H  H185  1  0.005000  0.155900  0.579200  1.0  0.1516
  H  H186  1  0.288000  0.937800  0.902400  1.0  0.1584
  H  H187  1  0.245700  0.905400  0.921300  1.0  0.152
  H  H188  1  0.240600  0.860300  0.963200  1.0  0.1451
  H  H189  1  0.266600  0.802800  0.875400  1.0  0.1451
  H  H190  1  0.271700  0.847900  0.833600  1.0  0.1377
  H  H191  1  0.339900  0.969400  0.921300  1.0  0.1512
  H  H192  1  0.365700  0.014500  0.963300  1.0  0.1452
  H  H193  1  0.295700  0.071900  0.875700  1.0  0.1468
  H  H194  1  0.269800  0.026800  0.833800  1.0  0.135
  H  H195  1  0.212200  0.938100  0.597700  1.0  0.1584
  H  H196  1  0.175500  0.984700  0.579600  1.0  0.1519
  H  H197  1  0.120100  0.000100  0.537100  1.0  0.1435
  H  H198  1  0.084000  0.951900  0.624000  1.0  0.1511
  H  H199  1  0.139400  0.936500  0.666500  1.0  0.1529
  H  H200  1  0.425000  0.764900  0.078500  1.0  0.1508
  H  H201  1  0.369400  0.749700  0.036600  1.0  0.1431
  H  H202  1  0.334200  0.798000  0.124300  1.0  0.1475
  H  H203  1  0.389800  0.813300  0.166200  1.0  0.1504
  H  H204  1  0.462000  0.812700  0.097700  1.0  0.1589
  H  H205  1  0.239200  0.890200  0.579100  1.0  0.1513
  H  H206  1  0.273600  0.875100  0.536800  1.0  0.1479
  H  H207  1  0.352900  0.923300  0.624400  1.0  0.1481
  H  H208  1  0.318500  0.938400  0.666667  1.0  0.2671
  H  H209  1  0.568600  0.811400  0.166300  1.0  0.1481
  H  H210  1  0.603000  0.826700  0.124000  1.0  0.1477
  H  H211  1  0.523800  0.875400  0.037200  1.0  0.1463
  H  H212  1  0.489400  0.860100  0.079500  1.0  0.1525
  H  H213  1  0.462000  0.687300  0.597900  1.0  0.1569
  H  H214  1  0.479900  0.776900  0.666400  1.0  0.1464
  H  H215  1  0.453900  0.821900  0.624300  1.0  0.1479
  H  H216  1  0.383700  0.764400  0.537400  1.0  0.1452
  H  H217  1  0.409600  0.719300  0.579400  1.0  0.1496
  H  H218  1  0.478300  0.598700  0.666667  1.0  0.1479
  H  H219  1  0.482700  0.553500  0.624400  1.0  0.1476
  H  H220  1  0.509400  0.610700  0.536900  1.0  0.1443
  H  H221  1  0.505000  0.655900  0.579200  1.0  0.1516
  H  H222  1  0.788000  0.437800  0.902400  1.0  0.1584
  H  H223  1  0.745700  0.405400  0.921300  1.0  0.152
  H  H224  1  0.740600  0.360300  0.963200  1.0  0.1455
  H  H225  1  0.766600  0.302800  0.875400  1.0  0.1451
  H  H226  1  0.771700  0.347900  0.833600  1.0  0.1377
  H  H227  1  0.839900  0.469400  0.921300  1.0  0.1509
  H  H228  1  0.865700  0.514500  0.963300  1.0  0.1452
  H  H229  1  0.795700  0.571900  0.875700  1.0  0.1468
  H  H230  1  0.769800  0.526800  0.833800  1.0  0.135
  H  H231  1  0.712200  0.438100  0.597700  1.0  0.1584
  H  H232  1  0.675500  0.484700  0.579600  1.0  0.1519
  H  H233  1  0.620100  0.500100  0.537100  1.0  0.1435
  H  H234  1  0.584000  0.451900  0.624000  1.0  0.1511
  H  H235  1  0.639400  0.436500  0.666500  1.0  0.1529
  H  H236  1  0.925000  0.264900  0.078500  1.0  0.1508
  H  H237  1  0.869400  0.249700  0.036600  1.0  0.1431
  H  H238  1  0.834200  0.298000  0.124300  1.0  0.1475
  H  H239  1  0.889800  0.313300  0.166200  1.0  0.1504
  H  H240  1  0.962000  0.312700  0.097700  1.0  0.1589
  H  H241  1  0.739200  0.390200  0.579100  1.0  0.1513
  H  H242  1  0.773600  0.375100  0.536800  1.0  0.1479
  H  H243  1  0.852900  0.423300  0.624400  1.0  0.1481
  H  H244  1  0.818500  0.438400  0.666667  1.0  0.2671
  H  H245  1  0.068600  0.311400  0.166300  1.0  0.1481
  H  H246  1  0.103000  0.326700  0.124000  1.0  0.1477
  H  H247  1  0.023800  0.375400  0.037200  1.0  0.1459
  H  H248  1  0.989400  0.360100  0.079500  1.0  0.1525
  H  H249  1  0.038000  0.187300  0.902100  1.0  0.1572
  H  H250  1  0.020100  0.276900  0.833600  1.0  0.146
  H  H251  1  0.046100  0.321900  0.875700  1.0  0.1481
  H  H252  1  0.116300  0.264400  0.962600  1.0  0.1453
  H  H253  1  0.090400  0.219300  0.920600  1.0  0.1499
  H  H254  1  0.021700  0.098700  0.833400  1.0  0.1485
  H  H255  1  0.017300  0.053500  0.875600  1.0  0.1473
  H  H256  1  0.990600  0.110700  0.963100  1.0  0.1446
  H  H257  1  0.995000  0.155900  0.920800  1.0  0.1519
  H  H258  1  0.712000  0.937800  0.597600  1.0  0.1584
  H  H259  1  0.754300  0.905400  0.578700  1.0  0.1514
  H  H260  1  0.759400  0.860300  0.536800  1.0  0.1454
  H  H261  1  0.733400  0.802800  0.624600  1.0  0.1455
  H  H262  1  0.728300  0.847900  0.666400  1.0  0.1374
  H  H263  1  0.660100  0.969400  0.578700  1.0  0.1505
  H  H264  1  0.634300  0.014500  0.536700  1.0  0.1448
  H  H265  1  0.704300  0.071900  0.624300  1.0  0.1468
  H  H266  1  0.730200  0.026800  0.666200  1.0  0.1356
  H  H267  1  0.787800  0.938100  0.902300  1.0  0.1583
  H  H268  1  0.824500  0.984700  0.920400  1.0  0.1527
  H  H269  1  0.879900  0.000100  0.962900  1.0  0.1441
  H  H270  1  0.916000  0.951900  0.876000  1.0  0.1513
  H  H271  1  0.860600  0.936500  0.833500  1.0  0.1507
  H  H272  1  0.575000  0.764900  0.421500  1.0  0.1515
  H  H273  1  0.630600  0.749700  0.463400  1.0  0.1446
  H  H274  1  0.665800  0.798000  0.375700  1.0  0.148
  H  H275  1  0.610200  0.813300  0.333800  1.0  0.1497
  H  H276  1  0.538000  0.812700  0.402300  1.0  0.1585
  H  H277  1  0.760800  0.890200  0.920900  1.0  0.1511
  H  H278  1  0.726400  0.875100  0.963200  1.0  0.1487
  H  H279  1  0.647100  0.923300  0.875600  1.0  0.1478
  H  H280  1  0.681500  0.938400  0.833300  1.0  0.2697
  H  H281  1  0.431400  0.811400  0.333700  1.0  0.1479
  H  H282  1  0.397000  0.826700  0.376000  1.0  0.1477
  H  H283  1  0.476200  0.875400  0.462800  1.0  0.1463
  H  H284  1  0.510600  0.860100  0.420500  1.0  0.1518
  H  H285  1  0.538000  0.687300  0.902100  1.0  0.1572
  H  H286  1  0.520100  0.776900  0.833600  1.0  0.146
  H  H287  1  0.546100  0.821900  0.875700  1.0  0.1481
  H  H288  1  0.616300  0.764400  0.962600  1.0  0.1453
  H  H289  1  0.590400  0.719300  0.920600  1.0  0.1499
  H  H290  1  0.521700  0.598700  0.833400  1.0  0.1485
  H  H291  1  0.517300  0.553500  0.875600  1.0  0.1473
  H  H292  1  0.490600  0.610700  0.963100  1.0  0.1446
  H  H293  1  0.495000  0.655900  0.920800  1.0  0.1519
  H  H294  1  0.212000  0.437800  0.597600  1.0  0.1584
  H  H295  1  0.254300  0.405400  0.578700  1.0  0.1514
  H  H296  1  0.259400  0.360300  0.536800  1.0  0.1454
  H  H297  1  0.233400  0.302800  0.624600  1.0  0.1455
  H  H298  1  0.228300  0.347900  0.666400  1.0  0.1374
  H  H299  1  0.160100  0.469400  0.578700  1.0  0.1505
  H  H300  1  0.134300  0.514500  0.536700  1.0  0.1448
  H  H301  1  0.204300  0.571900  0.624300  1.0  0.1468
  H  H302  1  0.230200  0.526800  0.666200  1.0  0.1356
  H  H303  1  0.287800  0.438100  0.902300  1.0  0.1583
  H  H304  1  0.324500  0.484700  0.920400  1.0  0.1527
  H  H305  1  0.379900  0.500100  0.962900  1.0  0.1441
  H  H306  1  0.416000  0.451900  0.876000  1.0  0.1513
  H  H307  1  0.360600  0.436500  0.833500  1.0  0.1507
  H  H308  1  0.075000  0.264900  0.421500  1.0  0.1515
  H  H309  1  0.130600  0.249700  0.463400  1.0  0.1446
  H  H310  1  0.165800  0.298000  0.375700  1.0  0.148
  H  H311  1  0.110200  0.313300  0.333800  1.0  0.1497
  H  H312  1  0.038000  0.312700  0.402300  1.0  0.1585
  H  H313  1  0.260800  0.390200  0.920900  1.0  0.1511
  H  H314  1  0.226400  0.375100  0.963200  1.0  0.1487
  H  H315  1  0.147100  0.423300  0.875600  1.0  0.1478
  H  H316  1  0.181500  0.438400  0.833300  1.0  0.2697
  H  H317  1  0.931400  0.311400  0.333700  1.0  0.1479
  H  H318  1  0.897000  0.326700  0.376000  1.0  0.1477
  H  H319  1  0.976200  0.375400  0.462800  1.0  0.1463
  H  H320  1  0.010600  0.360100  0.420500  1.0  0.1518
  C  C321  1  0.006770  0.812510  0.275590  1.0  -0.01
  C  C322  1  0.000590  0.838980  0.299100  1.0  0.2883
  C  C323  1  0.012270  0.839060  0.346380  1.0  0.0247
  C  C324  1  0.030140  0.812660  0.370160  1.0  -0.0277
  C  C325  1  0.036320  0.786180  0.346660  1.0  0.0111
  C  C326  1  0.024630  0.786100  0.299370  1.0  0.2873
  C  C327  1  0.001000  0.951400  0.452300  1.0  0.7289
  C  C328  1  0.052720  0.756260  0.373000  1.0  0.114
  C  C329  1  0.039510  0.725660  0.359620  1.0  -0.0978
  C  C330  1  0.054990  0.698790  0.384700  1.0  -0.02
  C  C331  1  0.083690  0.702510  0.423200  1.0  -0.0945
  C  C332  1  0.096910  0.733110  0.436590  1.0  -0.018
  C  C333  1  0.081420  0.759990  0.411500  1.0  -0.1043
  C  C334  1  0.099000  0.673300  0.451300  1.0  0.7191
  C  C335  1  0.008740  0.868370  0.373000  1.0  0.1186
  C  C336  1  0.015420  0.898900  0.359520  1.0  -0.1159
  C  C337  1  0.012830  0.925840  0.384700  1.0  -0.0204
  C  C338  1  0.003560  0.922250  0.423400  1.0  -0.0857
  C  C339  1  0.996880  0.891720  0.436890  1.0  -0.0191
  C  C340  1  0.999470  0.864780  0.411700  1.0  -0.1048
  C  C341  1  0.650500  0.922700  0.048100  1.0  0.7436
  C  C342  1  0.736950  0.089190  0.153000  1.0  0.0289
  C  C343  1  0.720000  0.062280  0.129570  1.0  -0.038
  C  C344  1  0.714940  0.035490  0.153400  1.0  0.0297
  C  C345  1  0.726820  0.035620  0.200700  1.0  0.2497
  C  C346  1  0.743770  0.062530  0.224140  1.0  -0.0347
  C  C347  1  0.748840  0.089320  0.200300  1.0  0.2473
  C  C348  1  0.749000  0.201000  0.047800  1.0  0.7488
  C  C349  1  0.740770  0.118980  0.126580  1.0  0.1103
  C  C350  1  0.750060  0.115290  0.087900  1.0  -0.1017
  C  C351  1  0.753110  0.142210  0.062970  1.0  -0.0229
  C  C352  1  0.746880  0.172820  0.076700  1.0  -0.1148
  C  C353  1  0.737590  0.176500  0.115300  1.0  -0.02
  C  C354  1  0.734540  0.149580  0.140280  1.0  -0.106
  C  C355  1  0.661000  0.111200  0.451300  1.0  0.7256
  C  C356  1  0.697660  0.006270  0.126500  1.0  0.0965
  C  C357  1  0.669060  0.009940  0.087900  1.0  -0.0993
  C  C358  1  0.653630  0.983020  0.062860  1.0  -0.0193
  C  C359  1  0.666810  0.952430  0.076400  1.0  -0.0842
  C  C360  1  0.695420  0.948770  0.115100  1.0  -0.0135
  C  C361  1  0.710850  0.975690  0.140090  1.0  -0.1153
  C  C362  1  0.411400  0.138000  0.950900  1.0  0.7335
  C  C363  1  0.756450  0.062900  0.275800  1.0  -0.0178
  C  C364  1  0.735640  0.074100  0.299520  1.0  0.2367
  C  C365  1  0.747340  0.073710  0.346800  1.0  0.0349
  C  C366  1  0.779850  0.062130  0.370360  1.0  -0.0409
  C  C367  1  0.800650  0.050930  0.346640  1.0  0.0036
  C  C368  1  0.788950  0.051310  0.299360  1.0  0.2424
  C  C369  1  0.939700  0.013100  0.451800  1.0  0.7244
  C  C370  1  0.837200  0.040850  0.372850  1.0  0.0993
  C  C371  1  0.842960  0.021890  0.411500  1.0  -0.1061
  C  C372  1  0.876030  0.012740  0.436830  1.0  -0.0229
  C  C373  1  0.903340  0.022550  0.423570  1.0  -0.0769
  C  C374  1  0.897580  0.041510  0.385000  1.0  -0.0131
  C  C375  1  0.864510  0.050660  0.359600  1.0  -0.1067
  C  C376  1  0.689100  0.236700  0.951700  1.0  0.7198
  C  C377  1  0.587210  0.209410  0.873600  1.0  0.1001
  C  C378  1  0.593280  0.228380  0.912300  1.0  -0.1003
  C  C379  1  0.626450  0.237490  0.937250  1.0  -0.0282
  C  C380  1  0.653540  0.227620  0.923600  1.0  -0.0942
  C  C381  1  0.647470  0.208650  0.884900  1.0  -0.0186
  C  C382  1  0.614310  0.199540  0.859940  1.0  -0.0989
  C  C383  1  0.506420  0.187770  0.775740  1.0  -0.0293
  C  C384  1  0.485970  0.175500  0.799300  1.0  0.2799
  C  C385  1  0.497760  0.175340  0.846600  1.0  0.0045
  C  C386  1  0.530000  0.187440  0.870310  1.0  -0.0332
  C  C387  1  0.550450  0.199710  0.846800  1.0  -0.005
  C  C388  1  0.538660  0.199870  0.799500  1.0  0.2388
  C  C389  1  0.724500  0.084240  0.373010  1.0  0.0964
  C  C390  1  0.737870  0.103100  0.411700  1.0  -0.1054
  C  C391  1  0.717330  0.112110  0.437000  1.0  -0.0164
  C  C392  1  0.683420  0.102260  0.423510  1.0  -0.0769
  C  C393  1  0.670040  0.083400  0.384800  1.0  -0.0084
  C  C394  1  0.690590  0.074390  0.359520  1.0  -0.0954
  C  C395  1  0.474340  0.165710  0.873020  1.0  0.1063
  C  C396  1  0.440460  0.175660  0.859740  1.0  -0.1055
  C  C397  1  0.419950  0.166540  0.885000  1.0  -0.0192
  C  C398  1  0.433310  0.147460  0.923510  1.0  -0.0933
  C  C399  1  0.467190  0.137510  0.936790  1.0  -0.0198
  C  C400  1  0.487700  0.146630  0.911600  1.0  -0.1043
  C  C401  1  0.808900  0.004900  0.279200  1.0  0.0296
  C  C402  1  0.801300  0.117000  0.227500  1.0  0.1245
  C  C403  1  0.702500  0.119100  0.273800  1.0  0.0401
  C  C404  1  0.686600  0.009700  0.228000  1.0  0.0264
  C  C405  1  0.948800  0.861900  0.274700  1.0  0.0622
  C  C406  1  0.060400  0.757600  0.275400  1.0  0.0459
  C  C407  1  0.559300  0.244000  0.764800  1.0  0.0777
  C  C408  1  0.048600  0.369100  0.220400  1.0  0.0406
  C  C409  1  0.080200  0.379400  0.250900  1.0  0.0592
  C  C410  1  0.043800  0.427300  0.248200  1.0  -0.0173
  C  C411  1  0.033400  0.450400  0.208600  1.0  -0.0222
  C  C412  1  0.999300  0.477700  0.225800  1.0  -0.0134
  C  C413  1  0.555400  0.255300  0.719700  1.0  0.0876
  C  C414  1  0.556000  0.317200  0.733600  1.0  0.0907
  C  C415  1  0.534200  0.347000  0.720300  1.0  0.0132
  C  C416  1  0.517300  0.393500  0.747200  1.0  0.0672
  C  C417  1  0.094900  0.764800  0.281300  1.0  0.0308
  C  C418  1  0.931700  0.891600  0.267000  1.0  0.1407
  C  C419  1  0.823600  0.989100  0.250600  1.0  0.0882
  C  C420  1  0.872300  0.039400  0.251900  1.0  0.0331
  C  C421  1  0.892100  0.070200  0.264500  1.0  0.1246
  C  C422  1  0.857200  0.132300  0.259700  1.0  0.0661
  C  C423  1  0.820800  0.144700  0.242800  1.0  0.0115
  C  C424  1  0.676600  0.170900  0.241900  1.0  0.0785
  C  C425  1  0.670100  0.132900  0.256500  1.0  0.1115
  C  C426  1  0.626700  0.087300  0.273500  1.0  -0.019
  C  C427  1  0.642900  0.053600  0.283900  1.0  -0.0239
  C  C428  1  0.653200  0.991000  0.262000  1.0  0.0639
  C  C429  1  0.678000  0.979100  0.240800  1.0  0.2027
  C  C430  1  0.726600  0.928600  0.250700  1.0  0.1684
  C  C431  1  0.755700  0.928500  0.257900  1.0  0.2523
  C  C432  1  0.804000  0.959600  0.229400  1.0  -0.054
  C  C433  1  0.758700  0.143500  0.249400  1.0  0.0553
  C  C434  1  0.725300  0.156100  0.234500  1.0  0.2005
  C  C435  1  0.676300  0.060800  0.259000  1.0  0.0608
  C  C436  1  0.669900  0.030100  0.275300  1.0  -0.0178
  C  C437  1  0.765900  0.965900  0.240000  1.0  0.1306
  C  C438  1  0.737600  0.980800  0.249900  1.0  0.1288
  C  C439  1  0.832900  0.058100  0.260700  1.0  0.1263
  C  C440  1  0.853200  0.087200  0.272800  1.0  0.1682
  C  C441  1  0.506770  0.312510  0.275590  1.0  -0.01
  C  C442  1  0.500590  0.338980  0.299100  1.0  0.2883
  C  C443  1  0.512270  0.339060  0.346380  1.0  0.0247
  C  C444  1  0.530140  0.312660  0.370160  1.0  -0.0277
  C  C445  1  0.536320  0.286180  0.346660  1.0  0.0111
  C  C446  1  0.524630  0.286100  0.299370  1.0  0.2873
  C  C447  1  0.501000  0.451400  0.452300  1.0  0.7289
  C  C448  1  0.552720  0.256260  0.373000  1.0  0.114
  C  C449  1  0.539510  0.225660  0.359620  1.0  -0.0978
  C  C450  1  0.554990  0.198790  0.384700  1.0  -0.02
  C  C451  1  0.583690  0.202510  0.423200  1.0  -0.0945
  C  C452  1  0.596910  0.233110  0.436590  1.0  -0.018
  C  C453  1  0.581420  0.259990  0.411500  1.0  -0.1043
  C  C454  1  0.599000  0.173300  0.451300  1.0  0.7191
  C  C455  1  0.508740  0.368370  0.373000  1.0  0.1186
  C  C456  1  0.515420  0.398900  0.359520  1.0  -0.1159
  C  C457  1  0.512830  0.425840  0.384700  1.0  -0.0204
  C  C458  1  0.503560  0.422250  0.423400  1.0  -0.0857
  C  C459  1  0.496880  0.391720  0.436890  1.0  -0.0191
  C  C460  1  0.499470  0.364780  0.411700  1.0  -0.1048
  C  C461  1  0.150500  0.422700  0.048100  1.0  0.7436
  C  C462  1  0.236950  0.589190  0.153000  1.0  0.0289
  C  C463  1  0.220000  0.562280  0.129570  1.0  -0.038
  C  C464  1  0.214940  0.535490  0.153400  1.0  0.0297
  C  C465  1  0.226820  0.535620  0.200700  1.0  0.2497
  C  C466  1  0.243770  0.562530  0.224140  1.0  -0.0347
  C  C467  1  0.248840  0.589320  0.200300  1.0  0.2473
  C  C468  1  0.249000  0.701000  0.047800  1.0  0.7488
  C  C469  1  0.240770  0.618980  0.126580  1.0  0.1103
  C  C470  1  0.250060  0.615290  0.087900  1.0  -0.1017
  C  C471  1  0.253110  0.642210  0.062970  1.0  -0.0229
  C  C472  1  0.246880  0.672820  0.076700  1.0  -0.1148
  C  C473  1  0.237590  0.676500  0.115300  1.0  -0.02
  C  C474  1  0.234540  0.649580  0.140280  1.0  -0.106
  C  C475  1  0.161000  0.611200  0.451300  1.0  0.7256
  C  C476  1  0.197660  0.506270  0.126500  1.0  0.0965
  C  C477  1  0.169060  0.509940  0.087900  1.0  -0.0993
  C  C478  1  0.153630  0.483020  0.062860  1.0  -0.0193
  C  C479  1  0.166810  0.452430  0.076400  1.0  -0.0842
  C  C480  1  0.195420  0.448770  0.115100  1.0  -0.0135
  C  C481  1  0.210850  0.475690  0.140090  1.0  -0.1153
  C  C482  1  0.911400  0.638000  0.950900  1.0  0.7335
  C  C483  1  0.256450  0.562900  0.275800  1.0  -0.0178
  C  C484  1  0.235640  0.574100  0.299520  1.0  0.2367
  C  C485  1  0.247340  0.573710  0.346800  1.0  0.0349
  C  C486  1  0.279850  0.562130  0.370360  1.0  -0.0409
  C  C487  1  0.300650  0.550930  0.346640  1.0  0.0036
  C  C488  1  0.288950  0.551310  0.299360  1.0  0.2424
  C  C489  1  0.439700  0.513100  0.451800  1.0  0.7244
  C  C490  1  0.337200  0.540850  0.372850  1.0  0.0993
  C  C491  1  0.342960  0.521890  0.411500  1.0  -0.1061
  C  C492  1  0.376030  0.512740  0.436830  1.0  -0.0229
  C  C493  1  0.403340  0.522550  0.423570  1.0  -0.0769
  C  C494  1  0.397580  0.541510  0.385000  1.0  -0.0131
  C  C495  1  0.364510  0.550660  0.359600  1.0  -0.1067
  C  C496  1  0.189100  0.736700  0.951700  1.0  0.7198
  C  C497  1  0.087210  0.709410  0.873600  1.0  0.1001
  C  C498  1  0.093280  0.728380  0.912300  1.0  -0.1003
  C  C499  1  0.126450  0.737490  0.937250  1.0  -0.0282
  C  C500  1  0.153540  0.727620  0.923600  1.0  -0.0942
  C  C501  1  0.147470  0.708650  0.884900  1.0  -0.0186
  C  C502  1  0.114310  0.699540  0.859940  1.0  -0.0989
  C  C503  1  0.006420  0.687770  0.775740  1.0  -0.0293
  C  C504  1  0.985970  0.675500  0.799300  1.0  0.2799
  C  C505  1  0.997760  0.675340  0.846600  1.0  0.0045
  C  C506  1  0.030000  0.687440  0.870310  1.0  -0.0332
  C  C507  1  0.050450  0.699710  0.846800  1.0  -0.005
  C  C508  1  0.038660  0.699870  0.799500  1.0  0.2388
  C  C509  1  0.224500  0.584240  0.373010  1.0  0.0964
  C  C510  1  0.237870  0.603100  0.411700  1.0  -0.1054
  C  C511  1  0.217330  0.612110  0.437000  1.0  -0.0164
  C  C512  1  0.183420  0.602260  0.423510  1.0  -0.0769
  C  C513  1  0.170040  0.583400  0.384800  1.0  -0.0084
  C  C514  1  0.190590  0.574390  0.359520  1.0  -0.0954
  C  C515  1  0.974340  0.665710  0.873020  1.0  0.1063
  C  C516  1  0.940460  0.675660  0.859740  1.0  -0.1055
  C  C517  1  0.919950  0.666540  0.885000  1.0  -0.0192
  C  C518  1  0.933310  0.647460  0.923510  1.0  -0.0933
  C  C519  1  0.967190  0.637510  0.936790  1.0  -0.0198
  C  C520  1  0.987700  0.646630  0.911600  1.0  -0.1043
  C  C521  1  0.308900  0.504900  0.279200  1.0  0.0296
  C  C522  1  0.301300  0.617000  0.227500  1.0  0.1245
  C  C523  1  0.202500  0.619100  0.273800  1.0  0.0401
  C  C524  1  0.186600  0.509700  0.228000  1.0  0.0264
  C  C525  1  0.448800  0.361900  0.274700  1.0  0.0622
  C  C526  1  0.560400  0.257600  0.275400  1.0  0.0459
  C  C527  1  0.059300  0.744000  0.764800  1.0  0.0777
  C  C528  1  0.548600  0.869100  0.220400  1.0  0.0406
  C  C529  1  0.580200  0.879400  0.250900  1.0  0.0592
  C  C530  1  0.543800  0.927300  0.248200  1.0  -0.0173
  C  C531  1  0.533400  0.950400  0.208600  1.0  -0.0222
  C  C532  1  0.499300  0.977700  0.225800  1.0  -0.0134
  C  C533  1  0.055400  0.755300  0.719700  1.0  0.0876
  C  C534  1  0.056000  0.817200  0.733600  1.0  0.0907
  C  C535  1  0.034200  0.847000  0.720300  1.0  0.0132
  C  C536  1  0.017300  0.893500  0.747200  1.0  0.0672
  C  C537  1  0.594900  0.264800  0.281300  1.0  0.0308
  C  C538  1  0.431700  0.391600  0.267000  1.0  0.1407
  C  C539  1  0.323600  0.489100  0.250600  1.0  0.0882
  C  C540  1  0.372300  0.539400  0.251900  1.0  0.0331
  C  C541  1  0.392100  0.570200  0.264500  1.0  0.1246
  C  C542  1  0.357200  0.632300  0.259700  1.0  0.0661
  C  C543  1  0.320800  0.644700  0.242800  1.0  0.0115
  C  C544  1  0.176600  0.670900  0.241900  1.0  0.0785
  C  C545  1  0.170100  0.632900  0.256500  1.0  0.1115
  C  C546  1  0.126700  0.587300  0.273500  1.0  -0.019
  C  C547  1  0.142900  0.553600  0.283900  1.0  -0.0239
  C  C548  1  0.153200  0.491000  0.262000  1.0  0.0639
  C  C549  1  0.178000  0.479100  0.240800  1.0  0.2027
  C  C550  1  0.226600  0.428600  0.250700  1.0  0.1684
  C  C551  1  0.255700  0.428500  0.257900  1.0  0.2523
  C  C552  1  0.304000  0.459600  0.229400  1.0  -0.054
  C  C553  1  0.258700  0.643500  0.249400  1.0  0.0553
  C  C554  1  0.225300  0.656100  0.234500  1.0  0.2005
  C  C555  1  0.176300  0.560800  0.259000  1.0  0.0608
  C  C556  1  0.169900  0.530100  0.275300  1.0  -0.0178
  C  C557  1  0.265900  0.465900  0.240000  1.0  0.1306
  C  C558  1  0.237600  0.480800  0.249900  1.0  0.1288
  C  C559  1  0.332900  0.558100  0.260700  1.0  0.1263
  C  C560  1  0.353200  0.587200  0.272800  1.0  0.1682
  C  C561  1  0.993230  0.812510  0.224410  1.0  -0.0099
  C  C562  1  0.999410  0.838980  0.200900  1.0  0.287
  C  C563  1  0.987730  0.839060  0.153620  1.0  0.0234
  C  C564  1  0.969860  0.812660  0.129840  1.0  -0.028
  C  C565  1  0.963680  0.786180  0.153340  1.0  0.0107
  C  C566  1  0.975370  0.786100  0.200630  1.0  0.2855
  C  C567  1  0.999000  0.951400  0.047700  1.0  0.729
  C  C568  1  0.947280  0.756260  0.127000  1.0  0.1128
  C  C569  1  0.960490  0.725660  0.140380  1.0  -0.0972
  C  C570  1  0.945010  0.698790  0.115300  1.0  -0.0195
  C  C571  1  0.916310  0.702510  0.076800  1.0  -0.095
  C  C572  1  0.903090  0.733110  0.063410  1.0  -0.0192
  C  C573  1  0.918580  0.759990  0.088500  1.0  -0.1073
  C  C574  1  0.901000  0.673300  0.048700  1.0  0.719
  C  C575  1  0.991260  0.868370  0.127000  1.0  0.1173
  C  C576  1  0.984580  0.898900  0.140480  1.0  -0.1139
  C  C577  1  0.987170  0.925840  0.115300  1.0  -0.0212
  C  C578  1  0.996440  0.922250  0.076600  1.0  -0.0857
  C  C579  1  0.003120  0.891720  0.063110  1.0  -0.018
  C  C580  1  0.000530  0.864780  0.088300  1.0  -0.1033
  C  C581  1  0.349500  0.922700  0.451900  1.0  0.7438
  C  C582  1  0.263050  0.089190  0.347000  1.0  0.0298
  C  C583  1  0.280000  0.062280  0.370430  1.0  -0.0375
  C  C584  1  0.285060  0.035490  0.346600  1.0  0.0305
  C  C585  1  0.273180  0.035620  0.299300  1.0  0.2497
  C  C586  1  0.256230  0.062530  0.275860  1.0  -0.0348
  C  C587  1  0.251160  0.089320  0.299700  1.0  0.2469
  C  C588  1  0.251000  0.201000  0.452200  1.0  0.7491
  C  C589  1  0.259230  0.118980  0.373420  1.0  0.1108
  C  C590  1  0.249940  0.115290  0.412100  1.0  -0.1037
  C  C591  1  0.246890  0.142210  0.437030  1.0  -0.0226
  C  C592  1  0.253120  0.172820  0.423300  1.0  -0.1153
  C  C593  1  0.262410  0.176500  0.384700  1.0  -0.0187
  C  C594  1  0.265460  0.149580  0.359720  1.0  -0.108
  C  C595  1  0.339000  0.111200  0.048700  1.0  0.7252
  C  C596  1  0.302340  0.006270  0.373500  1.0  0.0969
  C  C597  1  0.330940  0.009940  0.412100  1.0  -0.0973
  C  C598  1  0.346370  0.983020  0.437140  1.0  -0.0159
  C  C599  1  0.333190  0.952430  0.423600  1.0  -0.0836
  C  C600  1  0.304580  0.948770  0.384900  1.0  -0.0125
  C  C601  1  0.289150  0.975690  0.359910  1.0  -0.1144
  C  C602  1  0.588600  0.138000  0.549100  1.0  0.7331
  C  C603  1  0.243550  0.062900  0.224200  1.0  -0.0178
  C  C604  1  0.264360  0.074100  0.200480  1.0  0.2352
  C  C605  1  0.252660  0.073710  0.153200  1.0  0.0334
  C  C606  1  0.220150  0.062130  0.129640  1.0  -0.0419
  C  C607  1  0.199350  0.050930  0.153360  1.0  0.0032
  C  C608  1  0.211050  0.051310  0.200640  1.0  0.2405
  C  C609  1  0.060300  0.013100  0.048200  1.0  0.7247
  C  C610  1  0.162800  0.040850  0.127150  1.0  0.0979
  C  C611  1  0.157040  0.021890  0.088500  1.0  -0.1065
  C  C612  1  0.123970  0.012740  0.063170  1.0  -0.023
  C  C613  1  0.096660  0.022550  0.076430  1.0  -0.0772
  C  C614  1  0.102420  0.041510  0.115000  1.0  -0.0132
  C  C615  1  0.135490  0.050660  0.140400  1.0  -0.1055
  C  C616  1  0.310900  0.236700  0.548300  1.0  0.7193
  C  C617  1  0.412790  0.209410  0.626400  1.0  0.0999
  C  C618  1  0.406720  0.228380  0.587700  1.0  -0.1007
  C  C619  1  0.373550  0.237490  0.562750  1.0  -0.0275
  C  C620  1  0.346460  0.227620  0.576400  1.0  -0.0944
  C  C621  1  0.352530  0.208650  0.615100  1.0  -0.0187
  C  C622  1  0.385690  0.199540  0.640060  1.0  -0.0977
  C  C623  1  0.493580  0.187770  0.724260  1.0  -0.0293
  C  C624  1  0.514030  0.175500  0.700700  1.0  0.2799
  C  C625  1  0.502240  0.175340  0.653400  1.0  0.0039
  C  C626  1  0.470000  0.187440  0.629690  1.0  -0.0321
  C  C627  1  0.449550  0.199710  0.653200  1.0  -0.005
  C  C628  1  0.461340  0.199870  0.700500  1.0  0.2386
  C  C629  1  0.275500  0.084240  0.126990  1.0  0.095
  C  C630  1  0.262130  0.103100  0.088300  1.0  -0.1089
  C  C631  1  0.282670  0.112110  0.063000  1.0  -0.016
  C  C632  1  0.316580  0.102260  0.076490  1.0  -0.0764
  C  C633  1  0.329960  0.083400  0.115200  1.0  -0.0073
  C  C634  1  0.309410  0.074390  0.140480  1.0  -0.0973
  C  C635  1  0.525660  0.165710  0.626980  1.0  0.1057
  C  C636  1  0.559540  0.175660  0.640260  1.0  -0.1057
  C  C637  1  0.580050  0.166540  0.615000  1.0  -0.0175
  C  C638  1  0.566690  0.147460  0.576490  1.0  -0.0942
  C  C639  1  0.532810  0.137510  0.563210  1.0  -0.0196
  C  C640  1  0.512300  0.146630  0.588400  1.0  -0.1071
  C  C641  1  0.191100  0.004900  0.220800  1.0  0.0277
  C  C642  1  0.198700  0.117000  0.272500  1.0  0.1258
  C  C643  1  0.297500  0.119100  0.226200  1.0  0.039
  C  C644  1  0.313400  0.009700  0.272000  1.0  0.0284
  C  C645  1  0.051200  0.861900  0.225300  1.0  0.0634
  C  C646  1  0.939600  0.757600  0.224600  1.0  0.0433
  C  C647  1  0.440700  0.244000  0.735200  1.0  0.0761
  C  C648  1  0.951400  0.369100  0.279600  1.0  0.0372
  C  C649  1  0.919800  0.379400  0.249100  1.0  0.0585
  C  C650  1  0.956200  0.427300  0.251800  1.0  -0.0204
  C  C651  1  0.966600  0.450400  0.291400  1.0  -0.0199
  C  C652  1  0.000700  0.477700  0.274200  1.0  -0.0103
  C  C653  1  0.444600  0.255300  0.780300  1.0  0.0864
  C  C654  1  0.444000  0.317200  0.766400  1.0  0.0915
  C  C655  1  0.465800  0.347000  0.779700  1.0  0.0104
  C  C656  1  0.482700  0.393500  0.752800  1.0  0.0671
  C  C657  1  0.905100  0.764800  0.218700  1.0  0.032
  C  C658  1  0.068300  0.891600  0.233000  1.0  0.1382
  C  C659  1  0.176400  0.989100  0.249400  1.0  0.0885
  C  C660  1  0.127700  0.039400  0.248100  1.0  0.0336
  C  C661  1  0.107900  0.070200  0.235500  1.0  0.1264
  C  C662  1  0.142800  0.132300  0.240300  1.0  0.0655
  C  C663  1  0.179200  0.144700  0.257200  1.0  0.0115
  C  C664  1  0.323400  0.170900  0.258100  1.0  0.0764
  C  C665  1  0.329900  0.132900  0.243500  1.0  0.1124
  C  C666  1  0.373300  0.087300  0.226500  1.0  -0.0208
  C  C667  1  0.357100  0.053600  0.216100  1.0  -0.0251
  C  C668  1  0.346800  0.991000  0.238000  1.0  0.0682
  C  C669  1  0.322000  0.979100  0.259200  1.0  0.2049
  C  C670  1  0.273400  0.928600  0.249300  1.0  0.1667
  C  C671  1  0.244300  0.928500  0.242100  1.0  0.2544
  C  C672  1  0.196000  0.959600  0.270600  1.0  -0.0533
  C  C673  1  0.241300  0.143500  0.250600  1.0  0.0544
  C  C674  1  0.274700  0.156100  0.265500  1.0  0.2046
  C  C675  1  0.323700  0.060800  0.241000  1.0  0.0569
  C  C676  1  0.330100  0.030100  0.224700  1.0  -0.0206
  C  C677  1  0.234100  0.965900  0.260000  1.0  0.1311
  C  C678  1  0.262400  0.980800  0.250100  1.0  0.1277
  C  C679  1  0.167100  0.058100  0.239300  1.0  0.1275
  C  C680  1  0.146800  0.087200  0.227200  1.0  0.1719
  C  C681  1  0.493230  0.312510  0.224410  1.0  -0.0099
  C  C682  1  0.499410  0.338980  0.200900  1.0  0.287
  C  C683  1  0.487730  0.339060  0.153620  1.0  0.0234
  C  C684  1  0.469860  0.312660  0.129840  1.0  -0.028
  C  C685  1  0.463680  0.286180  0.153340  1.0  0.0107
  C  C686  1  0.475370  0.286100  0.200630  1.0  0.2855
  C  C687  1  0.499000  0.451400  0.047700  1.0  0.729
  C  C688  1  0.447280  0.256260  0.127000  1.0  0.1128
  C  C689  1  0.460490  0.225660  0.140380  1.0  -0.0972
  C  C690  1  0.445010  0.198790  0.115300  1.0  -0.0195
  C  C691  1  0.416310  0.202510  0.076800  1.0  -0.095
  C  C692  1  0.403090  0.233110  0.063410  1.0  -0.0192
  C  C693  1  0.418580  0.259990  0.088500  1.0  -0.1073
  C  C694  1  0.401000  0.173300  0.048700  1.0  0.719
  C  C695  1  0.491260  0.368370  0.127000  1.0  0.1173
  C  C696  1  0.484580  0.398900  0.140480  1.0  -0.1139
  C  C697  1  0.487170  0.425840  0.115300  1.0  -0.0212
  C  C698  1  0.496440  0.422250  0.076600  1.0  -0.0857
  C  C699  1  0.503120  0.391720  0.063110  1.0  -0.018
  C  C700  1  0.500530  0.364780  0.088300  1.0  -0.1033
  C  C701  1  0.849500  0.422700  0.451900  1.0  0.7438
  C  C702  1  0.763050  0.589190  0.347000  1.0  0.0298
  C  C703  1  0.780000  0.562280  0.370430  1.0  -0.0375
  C  C704  1  0.785060  0.535490  0.346600  1.0  0.0305
  C  C705  1  0.773180  0.535620  0.299300  1.0  0.2497
  C  C706  1  0.756230  0.562530  0.275860  1.0  -0.0348
  C  C707  1  0.751160  0.589320  0.299700  1.0  0.2469
  C  C708  1  0.751000  0.701000  0.452200  1.0  0.7491
  C  C709  1  0.759230  0.618980  0.373420  1.0  0.1108
  C  C710  1  0.749940  0.615290  0.412100  1.0  -0.1037
  C  C711  1  0.746890  0.642210  0.437030  1.0  -0.0226
  C  C712  1  0.753120  0.672820  0.423300  1.0  -0.1153
  C  C713  1  0.762410  0.676500  0.384700  1.0  -0.0187
  C  C714  1  0.765460  0.649580  0.359720  1.0  -0.108
  C  C715  1  0.839000  0.611200  0.048700  1.0  0.7252
  C  C716  1  0.802340  0.506270  0.373500  1.0  0.0969
  C  C717  1  0.830940  0.509940  0.412100  1.0  -0.0973
  C  C718  1  0.846370  0.483020  0.437140  1.0  -0.0159
  C  C719  1  0.833190  0.452430  0.423600  1.0  -0.0836
  C  C720  1  0.804580  0.448770  0.384900  1.0  -0.0125
  C  C721  1  0.789150  0.475690  0.359910  1.0  -0.1144
  C  C722  1  0.088600  0.638000  0.549100  1.0  0.7331
  C  C723  1  0.743550  0.562900  0.224200  1.0  -0.0178
  C  C724  1  0.764360  0.574100  0.200480  1.0  0.2352
  C  C725  1  0.752660  0.573710  0.153200  1.0  0.0334
  C  C726  1  0.720150  0.562130  0.129640  1.0  -0.0419
  C  C727  1  0.699350  0.550930  0.153360  1.0  0.0032
  C  C728  1  0.711050  0.551310  0.200640  1.0  0.2405
  C  C729  1  0.560300  0.513100  0.048200  1.0  0.7247
  C  C730  1  0.662800  0.540850  0.127150  1.0  0.0979
  C  C731  1  0.657040  0.521890  0.088500  1.0  -0.1065
  C  C732  1  0.623970  0.512740  0.063170  1.0  -0.023
  C  C733  1  0.596660  0.522550  0.076430  1.0  -0.0772
  C  C734  1  0.602420  0.541510  0.115000  1.0  -0.0132
  C  C735  1  0.635490  0.550660  0.140400  1.0  -0.1055
  C  C736  1  0.810900  0.736700  0.548300  1.0  0.7193
  C  C737  1  0.912790  0.709410  0.626400  1.0  0.0999
  C  C738  1  0.906720  0.728380  0.587700  1.0  -0.1007
  C  C739  1  0.873550  0.737490  0.562750  1.0  -0.0275
  C  C740  1  0.846460  0.727620  0.576400  1.0  -0.0944
  C  C741  1  0.852530  0.708650  0.615100  1.0  -0.0187
  C  C742  1  0.885690  0.699540  0.640060  1.0  -0.0977
  C  C743  1  0.993580  0.687770  0.724260  1.0  -0.0293
  C  C744  1  0.014030  0.675500  0.700700  1.0  0.2799
  C  C745  1  0.002240  0.675340  0.653400  1.0  0.0039
  C  C746  1  0.970000  0.687440  0.629690  1.0  -0.0321
  C  C747  1  0.949550  0.699710  0.653200  1.0  -0.005
  C  C748  1  0.961340  0.699870  0.700500  1.0  0.2386
  C  C749  1  0.775500  0.584240  0.126990  1.0  0.095
  C  C750  1  0.762130  0.603100  0.088300  1.0  -0.1089
  C  C751  1  0.782670  0.612110  0.063000  1.0  -0.016
  C  C752  1  0.816580  0.602260  0.076490  1.0  -0.0764
  C  C753  1  0.829960  0.583400  0.115200  1.0  -0.0073
  C  C754  1  0.809410  0.574390  0.140480  1.0  -0.0973
  C  C755  1  0.025660  0.665710  0.626980  1.0  0.1057
  C  C756  1  0.059540  0.675660  0.640260  1.0  -0.1057
  C  C757  1  0.080050  0.666540  0.615000  1.0  -0.0175
  C  C758  1  0.066690  0.647460  0.576490  1.0  -0.0942
  C  C759  1  0.032810  0.637510  0.563210  1.0  -0.0196
  C  C760  1  0.012300  0.646630  0.588400  1.0  -0.1071
  C  C761  1  0.691100  0.504900  0.220800  1.0  0.0277
  C  C762  1  0.698700  0.617000  0.272500  1.0  0.1258
  C  C763  1  0.797500  0.619100  0.226200  1.0  0.039
  C  C764  1  0.813400  0.509700  0.272000  1.0  0.0284
  C  C765  1  0.551200  0.361900  0.225300  1.0  0.0634
  C  C766  1  0.439600  0.257600  0.224600  1.0  0.0433
  C  C767  1  0.940700  0.744000  0.735200  1.0  0.0761
  C  C768  1  0.451400  0.869100  0.279600  1.0  0.0372
  C  C769  1  0.419800  0.879400  0.249100  1.0  0.0585
  C  C770  1  0.456200  0.927300  0.251800  1.0  -0.0204
  C  C771  1  0.466600  0.950400  0.291400  1.0  -0.0199
  C  C772  1  0.500700  0.977700  0.274200  1.0  -0.0103
  C  C773  1  0.944600  0.755300  0.780300  1.0  0.0864
  C  C774  1  0.944000  0.817200  0.766400  1.0  0.0915
  C  C775  1  0.965800  0.847000  0.779700  1.0  0.0104
  C  C776  1  0.982700  0.893500  0.752800  1.0  0.0671
  C  C777  1  0.405100  0.264800  0.218700  1.0  0.032
  C  C778  1  0.568300  0.391600  0.233000  1.0  0.1382
  C  C779  1  0.676400  0.489100  0.249400  1.0  0.0885
  C  C780  1  0.627700  0.539400  0.248100  1.0  0.0336
  C  C781  1  0.607900  0.570200  0.235500  1.0  0.1264
  C  C782  1  0.642800  0.632300  0.240300  1.0  0.0655
  C  C783  1  0.679200  0.644700  0.257200  1.0  0.0115
  C  C784  1  0.823400  0.670900  0.258100  1.0  0.0764
  C  C785  1  0.829900  0.632900  0.243500  1.0  0.1124
  C  C786  1  0.873300  0.587300  0.226500  1.0  -0.0208
  C  C787  1  0.857100  0.553600  0.216100  1.0  -0.0251
  C  C788  1  0.846800  0.491000  0.238000  1.0  0.0682
  C  C789  1  0.822000  0.479100  0.259200  1.0  0.2049
  C  C790  1  0.773400  0.428600  0.249300  1.0  0.1667
  C  C791  1  0.744300  0.428500  0.242100  1.0  0.2544
  C  C792  1  0.696000  0.459600  0.270600  1.0  -0.0533
  C  C793  1  0.741300  0.643500  0.250600  1.0  0.0544
  C  C794  1  0.774700  0.656100  0.265500  1.0  0.2046
  C  C795  1  0.823700  0.560800  0.241000  1.0  0.0569
  C  C796  1  0.830100  0.530100  0.224700  1.0  -0.0206
  C  C797  1  0.734100  0.465900  0.260000  1.0  0.1311
  C  C798  1  0.762400  0.480800  0.250100  1.0  0.1277
  C  C799  1  0.667100  0.558100  0.239300  1.0  0.1275
  C  C800  1  0.646800  0.587200  0.227200  1.0  0.1719
  C  C801  1  0.993230  0.187490  0.724410  1.0  -0.0098
  C  C802  1  0.999410  0.161020  0.700900  1.0  0.2871
  C  C803  1  0.987730  0.160940  0.653620  1.0  0.0239
  C  C804  1  0.969860  0.187340  0.629840  1.0  -0.028
  C  C805  1  0.963680  0.213820  0.653340  1.0  0.0111
  C  C806  1  0.975370  0.213900  0.700630  1.0  0.2874
  C  C807  1  0.999000  0.048600  0.547700  1.0  0.7284
  C  C808  1  0.947280  0.243740  0.627000  1.0  0.1127
  C  C809  1  0.960490  0.274340  0.640380  1.0  -0.097
  C  C810  1  0.945010  0.301210  0.615300  1.0  -0.0199
  C  C811  1  0.916310  0.297490  0.576800  1.0  -0.0944
  C  C812  1  0.903090  0.266890  0.563410  1.0  -0.0187
  C  C813  1  0.918580  0.240010  0.588500  1.0  -0.1066
  C  C814  1  0.901000  0.326700  0.548700  1.0  0.7189
  C  C815  1  0.991260  0.131630  0.627000  1.0  0.1174
  C  C816  1  0.984580  0.101100  0.640480  1.0  -0.0909
  C  C817  1  0.987170  0.074160  0.615300  1.0  -0.0209
  C  C818  1  0.996440  0.077750  0.576600  1.0  -0.0868
  C  C819  1  0.003120  0.108280  0.563110  1.0  -0.0185
  C  C820  1  0.000530  0.135220  0.588300  1.0  -0.1047
  C  C821  1  0.349500  0.077300  0.951900  1.0  0.7441
  C  C822  1  0.263050  0.910810  0.847000  1.0  0.0301
  C  C823  1  0.280000  0.937720  0.870430  1.0  -0.0376
  C  C824  1  0.285060  0.964510  0.846600  1.0  0.0307
  C  C825  1  0.273180  0.964380  0.799300  1.0  0.2496
  C  C826  1  0.256230  0.937470  0.775860  1.0  -0.0348
  C  C827  1  0.251160  0.910680  0.799700  1.0  0.2467
  C  C828  1  0.251000  0.799000  0.952200  1.0  0.7496
  C  C829  1  0.259230  0.881020  0.873420  1.0  0.1111
  C  C830  1  0.249940  0.884710  0.912100  1.0  -0.1039
  C  C831  1  0.246890  0.857790  0.937030  1.0  -0.0228
  C  C832  1  0.253120  0.827180  0.923300  1.0  -0.1154
  C  C833  1  0.262410  0.823500  0.884700  1.0  -0.0198
  C  C834  1  0.265460  0.850420  0.859720  1.0  -0.108
  C  C835  1  0.339000  0.888800  0.548700  1.0  0.7251
  C  C836  1  0.302340  0.993730  0.873500  1.0  0.0973
  C  C837  1  0.330940  0.990060  0.912100  1.0  -0.0973
  C  C838  1  0.346370  0.016980  0.937140  1.0  -0.016
  C  C839  1  0.333190  0.047570  0.923600  1.0  -0.0841
  C  C840  1  0.304580  0.051230  0.884900  1.0  -0.0133
  C  C841  1  0.289150  0.024310  0.859910  1.0  -0.1152
  C  C842  1  0.588600  0.862000  0.049100  1.0  0.7334
  C  C843  1  0.243550  0.937100  0.724200  1.0  -0.0179
  C  C844  1  0.264360  0.925900  0.700480  1.0  0.2352
  C  C845  1  0.252660  0.926290  0.653200  1.0  0.0335
  C  C846  1  0.220150  0.937870  0.629640  1.0  -0.042
  C  C847  1  0.199350  0.949070  0.653360  1.0  0.0032
  C  C848  1  0.211050  0.948690  0.700640  1.0  0.2403
  C  C849  1  0.060300  0.986900  0.548200  1.0  0.7248
  C  C850  1  0.162800  0.959150  0.627150  1.0  0.098
  C  C851  1  0.157040  0.978110  0.588500  1.0  -0.1064
  C  C852  1  0.123970  0.987260  0.563170  1.0  -0.0231
  C  C853  1  0.096660  0.977450  0.576430  1.0  -0.0773
  C  C854  1  0.102420  0.958490  0.615000  1.0  -0.0127
  C  C855  1  0.135490  0.949340  0.640400  1.0  -0.1053
  C  C856  1  0.310900  0.763300  0.048300  1.0  0.7194
  C  C857  1  0.412790  0.790590  0.126400  1.0  0.0998
  C  C858  1  0.406720  0.771620  0.087700  1.0  -0.1007
  C  C859  1  0.373550  0.762510  0.062750  1.0  -0.0274
  C  C860  1  0.346460  0.772380  0.076400  1.0  -0.0939
  C  C861  1  0.352530  0.791350  0.115100  1.0  -0.019
  C  C862  1  0.385690  0.800460  0.140060  1.0  -0.0995
  C  C863  1  0.493580  0.812230  0.224260  1.0  -0.0294
  C  C864  1  0.514030  0.824500  0.200700  1.0  0.2784
  C  C865  1  0.502240  0.824660  0.153400  1.0  0.004
  C  C866  1  0.470000  0.812560  0.129690  1.0  -0.032
  C  C867  1  0.449550  0.800290  0.153200  1.0  -0.005
  C  C868  1  0.461340  0.800130  0.200500  1.0  0.2396
  C  C869  1  0.275500  0.915760  0.626990  1.0  0.0955
  C  C870  1  0.262130  0.896900  0.588300  1.0  -0.1075
  C  C871  1  0.282670  0.887890  0.563000  1.0  -0.0158
  C  C872  1  0.316580  0.897740  0.576490  1.0  -0.0769
  C  C873  1  0.329960  0.916600  0.615200  1.0  -0.0082
  C  C874  1  0.309410  0.925610  0.640480  1.0  -0.0962
  C  C875  1  0.525660  0.834290  0.126980  1.0  0.1059
  C  C876  1  0.559540  0.824340  0.140260  1.0  -0.105
  C  C877  1  0.580050  0.833460  0.115000  1.0  -0.0182
  C  C878  1  0.566690  0.852540  0.076490  1.0  -0.0943
  C  C879  1  0.532810  0.862490  0.063210  1.0  -0.0202
  C  C880  1  0.512300  0.853370  0.088400  1.0  -0.1076
  C  C881  1  0.191100  0.995100  0.720800  1.0  0.0249
  C  C882  1  0.198700  0.883000  0.772500  1.0  0.1247
  C  C883  1  0.297500  0.880900  0.726200  1.0  0.0403
  C  C884  1  0.313400  0.990300  0.772000  1.0  0.0281
  C  C885  1  0.051200  0.138100  0.725300  1.0  0.0626
  C  C886  1  0.939600  0.242400  0.724600  1.0  0.0432
  C  C887  1  0.440700  0.756000  0.235200  1.0  0.0755
  C  C888  1  0.951400  0.630900  0.779600  1.0  0.0386
  C  C889  1  0.919800  0.620600  0.749100  1.0  0.0585
  C  C890  1  0.956200  0.572700  0.751800  1.0  -0.0197
  C  C891  1  0.966600  0.549600  0.791400  1.0  -0.0198
  C  C892  1  0.000700  0.522300  0.774200  1.0  -0.0102
  C  C893  1  0.444600  0.744700  0.280300  1.0  0.0872
  C  C894  1  0.444000  0.682800  0.266400  1.0  0.0911
  C  C895  1  0.465800  0.653000  0.279700  1.0  0.011
  C  C896  1  0.482700  0.606500  0.252800  1.0  0.0679
  C  C897  1  0.905100  0.235200  0.718700  1.0  0.0305
  C  C898  1  0.068300  0.108400  0.733000  1.0  0.1366
  C  C899  1  0.176400  0.010900  0.749400  1.0  0.0845
  C  C900  1  0.127700  0.960600  0.748100  1.0  0.0353
  C  C901  1  0.107900  0.929800  0.735500  1.0  0.1266
  C  C902  1  0.142800  0.867700  0.740300  1.0  0.0645
  C  C903  1  0.179200  0.855300  0.757200  1.0  0.0098
  C  C904  1  0.323400  0.829100  0.758100  1.0  0.0783
  C  C905  1  0.329900  0.867100  0.743500  1.0  0.1131
  C  C906  1  0.373300  0.912700  0.726500  1.0  -0.0211
  C  C907  1  0.357100  0.946400  0.716100  1.0  -0.0244
  C  C908  1  0.346800  0.009000  0.738000  1.0  0.0676
  C  C909  1  0.322000  0.020900  0.759200  1.0  0.203
  C  C910  1  0.273400  0.071400  0.749300  1.0  0.1695
  C  C911  1  0.244300  0.071500  0.742100  1.0  0.2565
  C  C912  1  0.196000  0.040400  0.770600  1.0  -0.0489
  C  C913  1  0.241300  0.856500  0.750600  1.0  0.0534
  C  C914  1  0.274700  0.843900  0.765500  1.0  0.208
  C  C915  1  0.323700  0.939200  0.741000  1.0  0.0571
  C  C916  1  0.330100  0.969900  0.724700  1.0  -0.0207
  C  C917  1  0.234100  0.034100  0.760000  1.0  0.1317
  C  C918  1  0.262400  0.019200  0.750100  1.0  0.1298
  C  C919  1  0.167100  0.941900  0.739300  1.0  0.1273
  C  C920  1  0.146800  0.912800  0.727200  1.0  0.1708
  C  C921  1  0.493230  0.687490  0.724410  1.0  -0.0098
  C  C922  1  0.499410  0.661020  0.700900  1.0  0.2871
  C  C923  1  0.487730  0.660940  0.653620  1.0  0.0239
  C  C924  1  0.469860  0.687340  0.629840  1.0  -0.028
  C  C925  1  0.463680  0.713820  0.653340  1.0  0.0111
  C  C926  1  0.475370  0.713900  0.700630  1.0  0.2874
  C  C927  1  0.499000  0.548600  0.547700  1.0  0.7284
  C  C928  1  0.447280  0.743740  0.627000  1.0  0.1127
  C  C929  1  0.460490  0.774340  0.640380  1.0  -0.097
  C  C930  1  0.445010  0.801210  0.615300  1.0  -0.0199
  C  C931  1  0.416310  0.797490  0.576800  1.0  -0.0944
  C  C932  1  0.403090  0.766890  0.563410  1.0  -0.0187
  C  C933  1  0.418580  0.740010  0.588500  1.0  -0.1066
  C  C934  1  0.401000  0.826700  0.548700  1.0  0.7189
  C  C935  1  0.491260  0.631630  0.627000  1.0  0.1174
  C  C936  1  0.484580  0.601100  0.640480  1.0  -0.0909
  C  C937  1  0.487170  0.574160  0.615300  1.0  -0.0209
  C  C938  1  0.496440  0.577750  0.576600  1.0  -0.0868
  C  C939  1  0.503120  0.608280  0.563110  1.0  -0.0185
  C  C940  1  0.500530  0.635220  0.588300  1.0  -0.1047
  C  C941  1  0.849500  0.577300  0.951900  1.0  0.7441
  C  C942  1  0.763050  0.410810  0.847000  1.0  0.0301
  C  C943  1  0.780000  0.437720  0.870430  1.0  -0.0376
  C  C944  1  0.785060  0.464510  0.846600  1.0  0.0307
  C  C945  1  0.773180  0.464380  0.799300  1.0  0.2496
  C  C946  1  0.756230  0.437470  0.775860  1.0  -0.0348
  C  C947  1  0.751160  0.410680  0.799700  1.0  0.2467
  C  C948  1  0.751000  0.299000  0.952200  1.0  0.7496
  C  C949  1  0.759230  0.381020  0.873420  1.0  0.1111
  C  C950  1  0.749940  0.384710  0.912100  1.0  -0.1039
  C  C951  1  0.746890  0.357790  0.937030  1.0  -0.0228
  C  C952  1  0.753120  0.327180  0.923300  1.0  -0.1154
  C  C953  1  0.762410  0.323500  0.884700  1.0  -0.0198
  C  C954  1  0.765460  0.350420  0.859720  1.0  -0.108
  C  C955  1  0.839000  0.388800  0.548700  1.0  0.7251
  C  C956  1  0.802340  0.493730  0.873500  1.0  0.0973
  C  C957  1  0.830940  0.490060  0.912100  1.0  -0.0973
  C  C958  1  0.846370  0.516980  0.937140  1.0  -0.016
  C  C959  1  0.833190  0.547570  0.923600  1.0  -0.0841
  C  C960  1  0.804580  0.551230  0.884900  1.0  -0.0133
  C  C961  1  0.789150  0.524310  0.859910  1.0  -0.1152
  C  C962  1  0.088600  0.362000  0.049100  1.0  0.7334
  C  C963  1  0.743550  0.437100  0.724200  1.0  -0.0179
  C  C964  1  0.764360  0.425900  0.700480  1.0  0.2352
  C  C965  1  0.752660  0.426290  0.653200  1.0  0.0335
  C  C966  1  0.720150  0.437870  0.629640  1.0  -0.042
  C  C967  1  0.699350  0.449070  0.653360  1.0  0.0032
  C  C968  1  0.711050  0.448690  0.700640  1.0  0.2403
  C  C969  1  0.560300  0.486900  0.548200  1.0  0.7248
  C  C970  1  0.662800  0.459150  0.627150  1.0  0.098
  C  C971  1  0.657040  0.478110  0.588500  1.0  -0.1064
  C  C972  1  0.623970  0.487260  0.563170  1.0  -0.0231
  C  C973  1  0.596660  0.477450  0.576430  1.0  -0.0773
  C  C974  1  0.602420  0.458490  0.615000  1.0  -0.0127
  C  C975  1  0.635490  0.449340  0.640400  1.0  -0.1053
  C  C976  1  0.810900  0.263300  0.048300  1.0  0.7194
  C  C977  1  0.912790  0.290590  0.126400  1.0  0.0998
  C  C978  1  0.906720  0.271620  0.087700  1.0  -0.1007
  C  C979  1  0.873550  0.262510  0.062750  1.0  -0.0274
  C  C980  1  0.846460  0.272380  0.076400  1.0  -0.0939
  C  C981  1  0.852530  0.291350  0.115100  1.0  -0.019
  C  C982  1  0.885690  0.300460  0.140060  1.0  -0.0995
  C  C983  1  0.993580  0.312230  0.224260  1.0  -0.0294
  C  C984  1  0.014030  0.324500  0.200700  1.0  0.2784
  C  C985  1  0.002240  0.324660  0.153400  1.0  0.004
  C  C986  1  0.970000  0.312560  0.129690  1.0  -0.032
  C  C987  1  0.949550  0.300290  0.153200  1.0  -0.005
  C  C988  1  0.961340  0.300130  0.200500  1.0  0.2396
  C  C989  1  0.775500  0.415760  0.626990  1.0  0.0955
  C  C990  1  0.762130  0.396900  0.588300  1.0  -0.1075
  C  C991  1  0.782670  0.387890  0.563000  1.0  -0.0158
  C  C992  1  0.816580  0.397740  0.576490  1.0  -0.0769
  C  C993  1  0.829960  0.416600  0.615200  1.0  -0.0082
  C  C994  1  0.809410  0.425610  0.640480  1.0  -0.0962
  C  C995  1  0.025660  0.334290  0.126980  1.0  0.1059
  C  C996  1  0.059540  0.324340  0.140260  1.0  -0.105
  C  C997  1  0.080050  0.333460  0.115000  1.0  -0.0182
  C  C998  1  0.066690  0.352540  0.076490  1.0  -0.0943
  C  C999  1  0.032810  0.362490  0.063210  1.0  -0.0202
  C  C1000  1  0.012300  0.353370  0.088400  1.0  -0.1076
  C  C1001  1  0.691100  0.495100  0.720800  1.0  0.0249
  C  C1002  1  0.698700  0.383000  0.772500  1.0  0.1247
  C  C1003  1  0.797500  0.380900  0.726200  1.0  0.0403
  C  C1004  1  0.813400  0.490300  0.772000  1.0  0.0281
  C  C1005  1  0.551200  0.638100  0.725300  1.0  0.0626
  C  C1006  1  0.439600  0.742400  0.724600  1.0  0.0432
  C  C1007  1  0.940700  0.256000  0.235200  1.0  0.0755
  C  C1008  1  0.451400  0.130900  0.779600  1.0  0.0386
  C  C1009  1  0.419800  0.120600  0.749100  1.0  0.0585
  C  C1010  1  0.456200  0.072700  0.751800  1.0  -0.0197
  C  C1011  1  0.466600  0.049600  0.791400  1.0  -0.0198
  C  C1012  1  0.500700  0.022300  0.774200  1.0  -0.0102
  C  C1013  1  0.944600  0.244700  0.280300  1.0  0.0872
  C  C1014  1  0.944000  0.182800  0.266400  1.0  0.0911
  C  C1015  1  0.965800  0.153000  0.279700  1.0  0.011
  C  C1016  1  0.982700  0.106500  0.252800  1.0  0.0679
  C  C1017  1  0.405100  0.735200  0.718700  1.0  0.0305
  C  C1018  1  0.568300  0.608400  0.733000  1.0  0.1366
  C  C1019  1  0.676400  0.510900  0.749400  1.0  0.0845
  C  C1020  1  0.627700  0.460600  0.748100  1.0  0.0353
  C  C1021  1  0.607900  0.429800  0.735500  1.0  0.1266
  C  C1022  1  0.642800  0.367700  0.740300  1.0  0.0645
  C  C1023  1  0.679200  0.355300  0.757200  1.0  0.0098
  C  C1024  1  0.823400  0.329100  0.758100  1.0  0.0783
  C  C1025  1  0.829900  0.367100  0.743500  1.0  0.1131
  C  C1026  1  0.873300  0.412700  0.726500  1.0  -0.0211
  C  C1027  1  0.857100  0.446400  0.716100  1.0  -0.0244
  C  C1028  1  0.846800  0.509000  0.738000  1.0  0.0676
  C  C1029  1  0.822000  0.520900  0.759200  1.0  0.203
  C  C1030  1  0.773400  0.571400  0.749300  1.0  0.1695
  C  C1031  1  0.744300  0.571500  0.742100  1.0  0.2565
  C  C1032  1  0.696000  0.540400  0.770600  1.0  -0.0489
  C  C1033  1  0.741300  0.356500  0.750600  1.0  0.0534
  C  C1034  1  0.774700  0.343900  0.765500  1.0  0.208
  C  C1035  1  0.823700  0.439200  0.741000  1.0  0.0571
  C  C1036  1  0.830100  0.469900  0.724700  1.0  -0.0207
  C  C1037  1  0.734100  0.534100  0.760000  1.0  0.1317
  C  C1038  1  0.762400  0.519200  0.750100  1.0  0.1298
  C  C1039  1  0.667100  0.441900  0.739300  1.0  0.1273
  C  C1040  1  0.646800  0.412800  0.727200  1.0  0.1708
  C  C1041  1  0.006770  0.187490  0.775590  1.0  -0.0099
  C  C1042  1  0.000590  0.161020  0.799100  1.0  0.2869
  C  C1043  1  0.012270  0.160940  0.846380  1.0  0.0245
  C  C1044  1  0.030140  0.187340  0.870160  1.0  -0.0278
  C  C1045  1  0.036320  0.213820  0.846660  1.0  0.0113
  C  C1046  1  0.024630  0.213900  0.799370  1.0  0.2866
  C  C1047  1  0.001000  0.048600  0.952300  1.0  0.7284
  C  C1048  1  0.052720  0.243740  0.873000  1.0  0.1138
  C  C1049  1  0.039510  0.274340  0.859620  1.0  -0.0988
  C  C1050  1  0.054990  0.301210  0.884700  1.0  -0.0209
  C  C1051  1  0.083690  0.297490  0.923200  1.0  -0.0946
  C  C1052  1  0.096910  0.266890  0.936590  1.0  -0.0178
  C  C1053  1  0.081420  0.240010  0.911500  1.0  -0.1032
  C  C1054  1  0.099000  0.326700  0.951300  1.0  0.7191
  C  C1055  1  0.008740  0.131630  0.873000  1.0  0.1184
  C  C1056  1  0.015420  0.101100  0.859520  1.0  -0.1147
  C  C1057  1  0.012830  0.074160  0.884700  1.0  -0.0209
  C  C1058  1  0.003560  0.077750  0.923400  1.0  -0.0855
  C  C1059  1  0.996880  0.108280  0.936890  1.0  -0.0194
  C  C1060  1  0.999470  0.135220  0.911700  1.0  -0.1059
  C  C1061  1  0.650500  0.077300  0.548100  1.0  0.7437
  C  C1062  1  0.736950  0.910810  0.653000  1.0  0.029
  C  C1063  1  0.720000  0.937720  0.629570  1.0  -0.038
  C  C1064  1  0.714940  0.964510  0.653400  1.0  0.0305
  C  C1065  1  0.726820  0.964380  0.700700  1.0  0.2498
  C  C1066  1  0.743770  0.937470  0.724140  1.0  -0.0347
  C  C1067  1  0.748840  0.910680  0.700300  1.0  0.2468
  C  C1068  1  0.749000  0.799000  0.547800  1.0  0.7491
  C  C1069  1  0.740770  0.881020  0.626580  1.0  0.1104
  C  C1070  1  0.750060  0.884710  0.587900  1.0  -0.1026
  C  C1071  1  0.753110  0.857790  0.562970  1.0  -0.0234
  C  C1072  1  0.746880  0.827180  0.576700  1.0  -0.1155
  C  C1073  1  0.737590  0.823500  0.615300  1.0  -0.0198
  C  C1074  1  0.734540  0.850420  0.640280  1.0  -0.1065
  C  C1075  1  0.661000  0.888800  0.951300  1.0  0.7255
  C  C1076  1  0.697660  0.993730  0.626500  1.0  0.0968
  C  C1077  1  0.669060  0.990060  0.587900  1.0  -0.0965
  C  C1078  1  0.653630  0.016980  0.562860  1.0  -0.0188
  C  C1079  1  0.666810  0.047570  0.576400  1.0  -0.0829
  C  C1080  1  0.695420  0.051230  0.615100  1.0  -0.0134
  C  C1081  1  0.710850  0.024310  0.640090  1.0  -0.1162
  C  C1082  1  0.411400  0.862000  0.450900  1.0  0.7337
  C  C1083  1  0.756450  0.937100  0.775800  1.0  -0.0181
  C  C1084  1  0.735640  0.925900  0.799520  1.0  0.2368
  C  C1085  1  0.747340  0.926290  0.846800  1.0  0.0351
  C  C1086  1  0.779850  0.937870  0.870360  1.0  -0.041
  C  C1087  1  0.800650  0.949070  0.846640  1.0  0.0032
  C  C1088  1  0.788950  0.948690  0.799360  1.0  0.2424
  C  C1089  1  0.939700  0.986900  0.951800  1.0  0.7244
  C  C1090  1  0.837200  0.959150  0.872850  1.0  0.0993
  C  C1091  1  0.842960  0.978110  0.911500  1.0  -0.1065
  C  C1092  1  0.876030  0.987260  0.936830  1.0  -0.0232
  C  C1093  1  0.903340  0.977450  0.923570  1.0  -0.0772
  C  C1094  1  0.897580  0.958490  0.885000  1.0  -0.0125
  C  C1095  1  0.864510  0.949340  0.859600  1.0  -0.1069
  C  C1096  1  0.689100  0.763300  0.451700  1.0  0.72
  C  C1097  1  0.587210  0.790590  0.373600  1.0  0.1002
  C  C1098  1  0.593280  0.771620  0.412300  1.0  -0.1002
  C  C1099  1  0.626450  0.762510  0.437250  1.0  -0.0276
  C  C1100  1  0.653540  0.772380  0.423600  1.0  -0.094
  C  C1101  1  0.647470  0.791350  0.384900  1.0  -0.0188
  C  C1102  1  0.614310  0.800460  0.359940  1.0  -0.0989
  C  C1103  1  0.506420  0.812230  0.275740  1.0  -0.0294
  C  C1104  1  0.485970  0.824500  0.299300  1.0  0.2783
  C  C1105  1  0.497760  0.824660  0.346600  1.0  0.0044
  C  C1106  1  0.530000  0.812560  0.370310  1.0  -0.0332
  C  C1107  1  0.550450  0.800290  0.346800  1.0  -0.0051
  C  C1108  1  0.538660  0.800130  0.299500  1.0  0.2378
  C  C1109  1  0.724500  0.915760  0.873010  1.0  0.0962
  C  C1110  1  0.737870  0.896900  0.911700  1.0  -0.1044
  C  C1111  1  0.717330  0.887890  0.937000  1.0  -0.0166
  C  C1112  1  0.683420  0.897740  0.923510  1.0  -0.0767
  C  C1113  1  0.670040  0.916600  0.884800  1.0  -0.0088
  C  C1114  1  0.690590  0.925610  0.859520  1.0  -0.0944
  C  C1115  1  0.474340  0.834290  0.373020  1.0  0.1063
  C  C1116  1  0.440460  0.824340  0.359740  1.0  -0.1053
  C  C1117  1  0.419950  0.833460  0.385000  1.0  -0.019
  C  C1118  1  0.433310  0.852540  0.423510  1.0  -0.0934
  C  C1119  1  0.467190  0.862490  0.436790  1.0  -0.0194
  C  C1120  1  0.487700  0.853370  0.411600  1.0  -0.1046
  C  C1121  1  0.808900  0.995100  0.779200  1.0  0.0271
  C  C1122  1  0.801300  0.883000  0.727500  1.0  0.1222
  C  C1123  1  0.702500  0.880900  0.773800  1.0  0.042
  C  C1124  1  0.686600  0.990300  0.728000  1.0  0.0258
  C  C1125  1  0.948800  0.138100  0.774700  1.0  0.0631
  C  C1126  1  0.060400  0.242400  0.775400  1.0  0.0473
  C  C1127  1  0.559300  0.756000  0.264800  1.0  0.0769
  C  C1128  1  0.048600  0.630900  0.720400  1.0  0.0409
  C  C1129  1  0.080200  0.620600  0.750900  1.0  0.0584
  C  C1130  1  0.043800  0.572700  0.748200  1.0  -0.0171
  C  C1131  1  0.033400  0.549600  0.708600  1.0  -0.0217
  C  C1132  1  0.999300  0.522300  0.725800  1.0  -0.0131
  C  C1133  1  0.555400  0.744700  0.219700  1.0  0.0884
  C  C1134  1  0.556000  0.682800  0.233600  1.0  0.0906
  C  C1135  1  0.534200  0.653000  0.220300  1.0  0.0121
  C  C1136  1  0.517300  0.606500  0.247200  1.0  0.0679
  C  C1137  1  0.094900  0.235200  0.781300  1.0  0.0308
  C  C1138  1  0.931700  0.108400  0.767000  1.0  0.1398
  C  C1139  1  0.823600  0.010900  0.750600  1.0  0.084
  C  C1140  1  0.872300  0.960600  0.751900  1.0  0.0305
  C  C1141  1  0.892100  0.929800  0.764500  1.0  0.1245
  C  C1142  1  0.857200  0.867700  0.759700  1.0  0.065
  C  C1143  1  0.820800  0.855300  0.742800  1.0  0.0094
  C  C1144  1  0.676600  0.829100  0.741900  1.0  0.0799
  C  C1145  1  0.670100  0.867100  0.756500  1.0  0.1113
  C  C1146  1  0.626700  0.912700  0.773500  1.0  -0.0189
  C  C1147  1  0.642900  0.946400  0.783900  1.0  -0.0228
  C  C1148  1  0.653200  0.009000  0.762000  1.0  0.0657
  C  C1149  1  0.678000  0.020900  0.740800  1.0  0.2023
  C  C1150  1  0.726600  0.071400  0.750700  1.0  0.1729
  C  C1151  1  0.755700  0.071500  0.757900  1.0  0.2559
  C  C1152  1  0.804000  0.040400  0.729400  1.0  -0.0592
  C  C1153  1  0.758700  0.856500  0.749400  1.0  0.0563
  C  C1154  1  0.725300  0.843900  0.734500  1.0  0.2065
  C  C1155  1  0.676300  0.939200  0.759000  1.0  0.0602
  C  C1156  1  0.669900  0.969900  0.775300  1.0  -0.0183
  C  C1157  1  0.765900  0.034100  0.740000  1.0  0.1322
  C  C1158  1  0.737600  0.019200  0.749900  1.0  0.1335
  C  C1159  1  0.832900  0.941900  0.760700  1.0  0.1263
  C  C1160  1  0.853200  0.912800  0.772800  1.0  0.1669
  C  C1161  1  0.506770  0.687490  0.775590  1.0  -0.0099
  C  C1162  1  0.500590  0.661020  0.799100  1.0  0.2869
  C  C1163  1  0.512270  0.660940  0.846380  1.0  0.0245
  C  C1164  1  0.530140  0.687340  0.870160  1.0  -0.0278
  C  C1165  1  0.536320  0.713820  0.846660  1.0  0.0113
  C  C1166  1  0.524630  0.713900  0.799370  1.0  0.2866
  C  C1167  1  0.501000  0.548600  0.952300  1.0  0.7284
  C  C1168  1  0.552720  0.743740  0.873000  1.0  0.1138
  C  C1169  1  0.539510  0.774340  0.859620  1.0  -0.0988
  C  C1170  1  0.554990  0.801210  0.884700  1.0  -0.0209
  C  C1171  1  0.583690  0.797490  0.923200  1.0  -0.0946
  C  C1172  1  0.596910  0.766890  0.936590  1.0  -0.0178
  C  C1173  1  0.581420  0.740010  0.911500  1.0  -0.1032
  C  C1174  1  0.599000  0.826700  0.951300  1.0  0.7191
  C  C1175  1  0.508740  0.631630  0.873000  1.0  0.1184
  C  C1176  1  0.515420  0.601100  0.859520  1.0  -0.1147
  C  C1177  1  0.512830  0.574160  0.884700  1.0  -0.0209
  C  C1178  1  0.503560  0.577750  0.923400  1.0  -0.0855
  C  C1179  1  0.496880  0.608280  0.936890  1.0  -0.0194
  C  C1180  1  0.499470  0.635220  0.911700  1.0  -0.1059
  C  C1181  1  0.150500  0.577300  0.548100  1.0  0.7437
  C  C1182  1  0.236950  0.410810  0.653000  1.0  0.029
  C  C1183  1  0.220000  0.437720  0.629570  1.0  -0.038
  C  C1184  1  0.214940  0.464510  0.653400  1.0  0.0305
  C  C1185  1  0.226820  0.464380  0.700700  1.0  0.2498
  C  C1186  1  0.243770  0.437470  0.724140  1.0  -0.0347
  C  C1187  1  0.248840  0.410680  0.700300  1.0  0.2468
  C  C1188  1  0.249000  0.299000  0.547800  1.0  0.7491
  C  C1189  1  0.240770  0.381020  0.626580  1.0  0.1104
  C  C1190  1  0.250060  0.384710  0.587900  1.0  -0.1026
  C  C1191  1  0.253110  0.357790  0.562970  1.0  -0.0234
  C  C1192  1  0.246880  0.327180  0.576700  1.0  -0.1155
  C  C1193  1  0.237590  0.323500  0.615300  1.0  -0.0198
  C  C1194  1  0.234540  0.350420  0.640280  1.0  -0.1065
  C  C1195  1  0.161000  0.388800  0.951300  1.0  0.7255
  C  C1196  1  0.197660  0.493730  0.626500  1.0  0.0968
  C  C1197  1  0.169060  0.490060  0.587900  1.0  -0.0965
  C  C1198  1  0.153630  0.516980  0.562860  1.0  -0.0188
  C  C1199  1  0.166810  0.547570  0.576400  1.0  -0.0829
  C  C1200  1  0.195420  0.551230  0.615100  1.0  -0.0134
  C  C1201  1  0.210850  0.524310  0.640090  1.0  -0.1162
  C  C1202  1  0.911400  0.362000  0.450900  1.0  0.7337
  C  C1203  1  0.256450  0.437100  0.775800  1.0  -0.0181
  C  C1204  1  0.235640  0.425900  0.799520  1.0  0.2368
  C  C1205  1  0.247340  0.426290  0.846800  1.0  0.0351
  C  C1206  1  0.279850  0.437870  0.870360  1.0  -0.041
  C  C1207  1  0.300650  0.449070  0.846640  1.0  0.0032
  C  C1208  1  0.288950  0.448690  0.799360  1.0  0.2424
  C  C1209  1  0.439700  0.486900  0.951800  1.0  0.7244
  C  C1210  1  0.337200  0.459150  0.872850  1.0  0.0993
  C  C1211  1  0.342960  0.478110  0.911500  1.0  -0.1065
  C  C1212  1  0.376030  0.487260  0.936830  1.0  -0.0232
  C  C1213  1  0.403340  0.477450  0.923570  1.0  -0.0772
  C  C1214  1  0.397580  0.458490  0.885000  1.0  -0.0125
  C  C1215  1  0.364510  0.449340  0.859600  1.0  -0.1069
  C  C1216  1  0.189100  0.263300  0.451700  1.0  0.72
  C  C1217  1  0.087210  0.290590  0.373600  1.0  0.1002
  C  C1218  1  0.093280  0.271620  0.412300  1.0  -0.1002
  C  C1219  1  0.126450  0.262510  0.437250  1.0  -0.0276
  C  C1220  1  0.153540  0.272380  0.423600  1.0  -0.094
  C  C1221  1  0.147470  0.291350  0.384900  1.0  -0.0188
  C  C1222  1  0.114310  0.300460  0.359940  1.0  -0.0989
  C  C1223  1  0.006420  0.312230  0.275740  1.0  -0.0294
  C  C1224  1  0.985970  0.324500  0.299300  1.0  0.2783
  C  C1225  1  0.997760  0.324660  0.346600  1.0  0.0044
  C  C1226  1  0.030000  0.312560  0.370310  1.0  -0.0332
  C  C1227  1  0.050450  0.300290  0.346800  1.0  -0.0051
  C  C1228  1  0.038660  0.300130  0.299500  1.0  0.2378
  C  C1229  1  0.224500  0.415760  0.873010  1.0  0.0962
  C  C1230  1  0.237870  0.396900  0.911700  1.0  -0.1044
  C  C1231  1  0.217330  0.387890  0.937000  1.0  -0.0166
  C  C1232  1  0.183420  0.397740  0.923510  1.0  -0.0767
  C  C1233  1  0.170040  0.416600  0.884800  1.0  -0.0088
  C  C1234  1  0.190590  0.425610  0.859520  1.0  -0.0944
  C  C1235  1  0.974340  0.334290  0.373020  1.0  0.1063
  C  C1236  1  0.940460  0.324340  0.359740  1.0  -0.1053
  C  C1237  1  0.919950  0.333460  0.385000  1.0  -0.019
  C  C1238  1  0.933310  0.352540  0.423510  1.0  -0.0934
  C  C1239  1  0.967190  0.362490  0.436790  1.0  -0.0194
  C  C1240  1  0.987700  0.353370  0.411600  1.0  -0.1046
  C  C1241  1  0.308900  0.495100  0.779200  1.0  0.0271
  C  C1242  1  0.301300  0.383000  0.727500  1.0  0.1222
  C  C1243  1  0.202500  0.380900  0.773800  1.0  0.042
  C  C1244  1  0.186600  0.490300  0.728000  1.0  0.0258
  C  C1245  1  0.448800  0.638100  0.774700  1.0  0.0631
  C  C1246  1  0.560400  0.742400  0.775400  1.0  0.0473
  C  C1247  1  0.059300  0.256000  0.264800  1.0  0.0769
  C  C1248  1  0.548600  0.130900  0.720400  1.0  0.0409
  C  C1249  1  0.580200  0.120600  0.750900  1.0  0.0584
  C  C1250  1  0.543800  0.072700  0.748200  1.0  -0.0171
  C  C1251  1  0.533400  0.049600  0.708600  1.0  -0.0217
  C  C1252  1  0.499300  0.022300  0.725800  1.0  -0.0131
  C  C1253  1  0.055400  0.244700  0.219700  1.0  0.0884
  C  C1254  1  0.056000  0.182800  0.233600  1.0  0.0906
  C  C1255  1  0.034200  0.153000  0.220300  1.0  0.0121
  C  C1256  1  0.017300  0.106500  0.247200  1.0  0.0679
  C  C1257  1  0.594900  0.735200  0.781300  1.0  0.0308
  C  C1258  1  0.431700  0.608400  0.767000  1.0  0.1398
  C  C1259  1  0.323600  0.510900  0.750600  1.0  0.084
  C  C1260  1  0.372300  0.460600  0.751900  1.0  0.0305
  C  C1261  1  0.392100  0.429800  0.764500  1.0  0.1245
  C  C1262  1  0.357200  0.367700  0.759700  1.0  0.065
  C  C1263  1  0.320800  0.355300  0.742800  1.0  0.0094
  C  C1264  1  0.176600  0.329100  0.741900  1.0  0.0799
  C  C1265  1  0.170100  0.367100  0.756500  1.0  0.1113
  C  C1266  1  0.126700  0.412700  0.773500  1.0  -0.0189
  C  C1267  1  0.142900  0.446400  0.783900  1.0  -0.0228
  C  C1268  1  0.153200  0.509000  0.762000  1.0  0.0657
  C  C1269  1  0.178000  0.520900  0.740800  1.0  0.2023
  C  C1270  1  0.226600  0.571400  0.750700  1.0  0.1729
  C  C1271  1  0.255700  0.571500  0.757900  1.0  0.2559
  C  C1272  1  0.304000  0.540400  0.729400  1.0  -0.0592
  C  C1273  1  0.258700  0.356500  0.749400  1.0  0.0563
  C  C1274  1  0.225300  0.343900  0.734500  1.0  0.2065
  C  C1275  1  0.176300  0.439200  0.759000  1.0  0.0602
  C  C1276  1  0.169900  0.469900  0.775300  1.0  -0.0183
  C  C1277  1  0.265900  0.534100  0.740000  1.0  0.1322
  C  C1278  1  0.237600  0.519200  0.749900  1.0  0.1335
  C  C1279  1  0.332900  0.441900  0.760700  1.0  0.1263
  C  C1280  1  0.353200  0.412800  0.772800  1.0  0.1669
  O  O1281  1  0.665200  0.896660  0.060000  1.0  -0.5331
  O  O1282  1  0.623550  0.927650  0.015000  1.0  -0.5305
  O  O1283  1  0.084340  0.646520  0.440000  1.0  -0.5385
  O  O1284  1  0.126550  0.677620  0.484000  1.0  -0.5425
  O  O1285  1  0.630820  0.099770  0.439400  1.0  -0.5349
  O  O1286  1  0.673890  0.130440  0.484600  1.0  -0.529
  O  O1287  1  0.423610  0.119460  0.984000  1.0  -0.5513
  O  O1288  1  0.382050  0.150030  0.940100  1.0  -0.5499
  O  O1289  1  0.693340  0.255590  0.984300  1.0  -0.5367
  O  O1290  1  0.713400  0.224600  0.939700  1.0  -0.537
  O  O1291  1  0.740130  0.228180  0.060400  1.0  -0.5482
  O  O1292  1  0.759480  0.197470  0.015700  1.0  -0.5234
  O  O1293  1  0.943550  0.994530  0.485000  1.0  -0.526
  O  O1294  1  0.963940  0.025110  0.439400  1.0  -0.5422
  O  O1295  1  0.990360  0.947260  0.484300  1.0  -0.5178
  O  O1296  1  0.010140  0.978340  0.439310  1.0  -0.5467
  O  O1297  1  0.809100  0.038100  0.276200  1.0  -0.4432
  O  O1298  1  0.767400  0.115600  0.225200  1.0  -0.3795
  O  O1299  1  0.703500  0.085700  0.275300  1.0  -0.3486
  O  O1300  1  0.719400  0.009600  0.224200  1.0  -0.3397
  O  O1301  1  0.982900  0.866000  0.276200  1.0  -0.3652
  O  O1302  1  0.026600  0.758300  0.274800  1.0  -0.3841
  O  O1303  1  0.560000  0.210600  0.775700  1.0  -0.3053
  O  O1304  1  0.046900  0.335600  0.224100  1.0  -0.4419
  O  O1305  1  0.076000  0.415300  0.242000  1.0  -0.5136
  O  O1306  1  0.036800  0.482800  0.231400  1.0  -0.4942
  O  O1307  1  0.559300  0.289400  0.705100  1.0  -0.3671
  O  O1308  1  0.549000  0.373600  0.755300  1.0  -0.4632
  O  O1309  1  0.093200  0.733300  0.255900  1.0  -0.6732
  O  O1310  1  0.938400  0.915200  0.239000  1.0  -0.3554
  O  O1311  1  0.848400  0.008600  0.235900  1.0  -0.629
  O  O1312  1  0.875300  0.103100  0.251600  1.0  -0.4199
  O  O1313  1  0.714600  0.184000  0.244700  1.0  -0.5125
  O  O1314  1  0.650300  0.118200  0.281900  1.0  -0.55
  O  O1315  1  0.634700  0.021000  0.261700  1.0  -0.4477
  O  O1316  1  0.695400  0.949400  0.240600  1.0  -0.6205
  O  O1317  1  0.783600  0.935600  0.243100  1.0  -0.4374
  O  O1318  1  0.165200  0.396660  0.060000  1.0  -0.5331
  O  O1319  1  0.123550  0.427650  0.015000  1.0  -0.5305
  O  O1320  1  0.584340  0.146520  0.440000  1.0  -0.5385
  O  O1321  1  0.626550  0.177620  0.484000  1.0  -0.5425
  O  O1322  1  0.130820  0.599770  0.439400  1.0  -0.5349
  O  O1323  1  0.173890  0.630440  0.484600  1.0  -0.5291
  O  O1324  1  0.923610  0.619460  0.984000  1.0  -0.5513
  O  O1325  1  0.882050  0.650030  0.940100  1.0  -0.5499
  O  O1326  1  0.193340  0.755590  0.984300  1.0  -0.5367
  O  O1327  1  0.213400  0.724600  0.939700  1.0  -0.537
  O  O1328  1  0.240130  0.728180  0.060400  1.0  -0.5482
  O  O1329  1  0.259480  0.697470  0.015700  1.0  -0.5234
  O  O1330  1  0.443550  0.494530  0.485000  1.0  -0.526
  O  O1331  1  0.463940  0.525110  0.439400  1.0  -0.5422
  O  O1332  1  0.490360  0.447260  0.484300  1.0  -0.5178
  O  O1333  1  0.510140  0.478340  0.439310  1.0  -0.5467
  O  O1334  1  0.309100  0.538100  0.276200  1.0  -0.4432
  O  O1335  1  0.267400  0.615600  0.225200  1.0  -0.3795
  O  O1336  1  0.203500  0.585700  0.275300  1.0  -0.3486
  O  O1337  1  0.219400  0.509600  0.224200  1.0  -0.3397
  O  O1338  1  0.482900  0.366000  0.276200  1.0  -0.3652
  O  O1339  1  0.526600  0.258300  0.274800  1.0  -0.3841
  O  O1340  1  0.060000  0.710600  0.775700  1.0  -0.3053
  O  O1341  1  0.546900  0.835600  0.224100  1.0  -0.4419
  O  O1342  1  0.576000  0.915300  0.242000  1.0  -0.5138
  O  O1343  1  0.536800  0.982800  0.231400  1.0  -0.4933
  O  O1344  1  0.059300  0.789400  0.705100  1.0  -0.3671
  O  O1345  1  0.049000  0.873600  0.755300  1.0  -0.4632
  O  O1346  1  0.593200  0.233300  0.255900  1.0  -0.6732
  O  O1347  1  0.438400  0.415200  0.239000  1.0  -0.3554
  O  O1348  1  0.348400  0.508600  0.235900  1.0  -0.629
  O  O1349  1  0.375300  0.603100  0.251600  1.0  -0.4199
  O  O1350  1  0.214600  0.684000  0.244700  1.0  -0.5125
  O  O1351  1  0.150300  0.618200  0.281900  1.0  -0.55
  O  O1352  1  0.134700  0.521000  0.261700  1.0  -0.4477
  O  O1353  1  0.195400  0.449400  0.240600  1.0  -0.6205
  O  O1354  1  0.283600  0.435600  0.243100  1.0  -0.4374
  O  O1355  1  0.334800  0.896660  0.440000  1.0  -0.5327
  O  O1356  1  0.376450  0.927650  0.485000  1.0  -0.5304
  O  O1357  1  0.915660  0.646520  0.060000  1.0  -0.5389
  O  O1358  1  0.873450  0.677620  0.016000  1.0  -0.5424
  O  O1359  1  0.369180  0.099770  0.060600  1.0  -0.5343
  O  O1360  1  0.326110  0.130440  0.015400  1.0  -0.5296
  O  O1361  1  0.576390  0.119460  0.516000  1.0  -0.5519
  O  O1362  1  0.617950  0.150030  0.559900  1.0  -0.5506
  O  O1363  1  0.306660  0.255590  0.515700  1.0  -0.5353
  O  O1364  1  0.286600  0.224600  0.560300  1.0  -0.537
  O  O1365  1  0.259870  0.228180  0.439600  1.0  -0.5474
  O  O1366  1  0.240520  0.197470  0.484300  1.0  -0.5225
  O  O1367  1  0.056450  0.994530  0.015000  1.0  -0.5258
  O  O1368  1  0.036060  0.025110  0.060600  1.0  -0.5424
  O  O1369  1  0.009640  0.947260  0.015700  1.0  -0.5184
  O  O1370  1  0.989860  0.978340  0.060690  1.0  -0.5465
  O  O1371  1  0.190900  0.038100  0.223800  1.0  -0.4397
  O  O1372  1  0.232600  0.115600  0.274800  1.0  -0.3793
  O  O1373  1  0.296500  0.085700  0.224700  1.0  -0.3493
  O  O1374  1  0.280600  0.009600  0.275800  1.0  -0.3408
  O  O1375  1  0.017100  0.866000  0.223800  1.0  -0.3661
  O  O1376  1  0.973400  0.758300  0.225200  1.0  -0.3834
  O  O1377  1  0.440000  0.210600  0.724300  1.0  -0.3049
  O  O1378  1  0.953100  0.335600  0.275900  1.0  -0.4416
  O  O1379  1  0.924000  0.415300  0.258000  1.0  -0.5142
  O  O1380  1  0.963200  0.482800  0.268600  1.0  -0.4924
  O  O1381  1  0.440700  0.289400  0.794900  1.0  -0.3699
  O  O1382  1  0.451000  0.373600  0.744700  1.0  -0.4604
  O  O1383  1  0.906800  0.733300  0.244100  1.0  -0.6755
  O  O1384  1  0.061600  0.915200  0.261000  1.0  -0.355
  O  O1385  1  0.151600  0.008600  0.264100  1.0  -0.6335
  O  O1386  1  0.124700  0.103100  0.248400  1.0  -0.4185
  O  O1387  1  0.285400  0.184000  0.255300  1.0  -0.5136
  O  O1388  1  0.349700  0.118200  0.218100  1.0  -0.5478
  O  O1389  1  0.365300  0.021000  0.238300  1.0  -0.4418
  O  O1390  1  0.304600  0.949400  0.259400  1.0  -0.6185
  O  O1391  1  0.216400  0.935600  0.256900  1.0  -0.4381
  O  O1392  1  0.834800  0.396660  0.440000  1.0  -0.5327
  O  O1393  1  0.876450  0.427650  0.485000  1.0  -0.5304
  O  O1394  1  0.415660  0.146520  0.060000  1.0  -0.5389
  O  O1395  1  0.373450  0.177620  0.016000  1.0  -0.5424
  O  O1396  1  0.869180  0.599770  0.060600  1.0  -0.5343
  O  O1397  1  0.826110  0.630440  0.015400  1.0  -0.5297
  O  O1398  1  0.076390  0.619460  0.516000  1.0  -0.5519
  O  O1399  1  0.117950  0.650030  0.559900  1.0  -0.5506
  O  O1400  1  0.806660  0.755590  0.515700  1.0  -0.5353
  O  O1401  1  0.786600  0.724600  0.560300  1.0  -0.537
  O  O1402  1  0.759870  0.728180  0.439600  1.0  -0.5474
  O  O1403  1  0.740520  0.697470  0.484300  1.0  -0.5225
  O  O1404  1  0.556450  0.494530  0.015000  1.0  -0.5258
  O  O1405  1  0.536060  0.525110  0.060600  1.0  -0.5424
  O  O1406  1  0.509640  0.447260  0.015700  1.0  -0.5184
  O  O1407  1  0.489860  0.478340  0.060690  1.0  -0.5465
  O  O1408  1  0.690900  0.538100  0.223800  1.0  -0.4397
  O  O1409  1  0.732600  0.615600  0.274800  1.0  -0.3793
  O  O1410  1  0.796500  0.585700  0.224700  1.0  -0.3493
  O  O1411  1  0.780600  0.509600  0.275800  1.0  -0.3408
  O  O1412  1  0.517100  0.366000  0.223800  1.0  -0.3661
  O  O1413  1  0.473400  0.258300  0.225200  1.0  -0.3834
  O  O1414  1  0.940000  0.710600  0.724300  1.0  -0.3049
  O  O1415  1  0.453100  0.835600  0.275900  1.0  -0.4416
  O  O1416  1  0.424000  0.915300  0.258000  1.0  -0.5145
  O  O1417  1  0.463200  0.982800  0.268600  1.0  -0.4924
  O  O1418  1  0.940700  0.789400  0.794900  1.0  -0.3699
  O  O1419  1  0.951000  0.873600  0.744700  1.0  -0.4604
  O  O1420  1  0.406800  0.233300  0.244100  1.0  -0.6755
  O  O1421  1  0.561600  0.415200  0.261000  1.0  -0.355
  O  O1422  1  0.651600  0.508600  0.264100  1.0  -0.6335
  O  O1423  1  0.624700  0.603100  0.248400  1.0  -0.4185
  O  O1424  1  0.785400  0.684000  0.255300  1.0  -0.5136
  O  O1425  1  0.849700  0.618200  0.218100  1.0  -0.5478
  O  O1426  1  0.865300  0.521000  0.238300  1.0  -0.4418
  O  O1427  1  0.804600  0.449400  0.259400  1.0  -0.6185
  O  O1428  1  0.716400  0.435600  0.256900  1.0  -0.4381
  O  O1429  1  0.334800  0.103340  0.940000  1.0  -0.5324
  O  O1430  1  0.376450  0.072350  0.985000  1.0  -0.5311
  O  O1431  1  0.915660  0.353480  0.560000  1.0  -0.5393
  O  O1432  1  0.873450  0.322380  0.516000  1.0  -0.5425
  O  O1433  1  0.369180  0.900230  0.560600  1.0  -0.5339
  O  O1434  1  0.326110  0.869560  0.515400  1.0  -0.5296
  O  O1435  1  0.576390  0.880540  0.016000  1.0  -0.5523
  O  O1436  1  0.617950  0.849970  0.059900  1.0  -0.5504
  O  O1437  1  0.306660  0.744410  0.015700  1.0  -0.5348
  O  O1438  1  0.286600  0.775400  0.060300  1.0  -0.5375
  O  O1439  1  0.259870  0.771820  0.939600  1.0  -0.5484
  O  O1440  1  0.240520  0.802530  0.984300  1.0  -0.5223
  O  O1441  1  0.056450  0.005470  0.515000  1.0  -0.5254
  O  O1442  1  0.036060  0.974890  0.560600  1.0  -0.5421
  O  O1443  1  0.009640  0.052740  0.515700  1.0  -0.5182
  O  O1444  1  0.989860  0.021660  0.560690  1.0  -0.5465
  O  O1445  1  0.190900  0.961900  0.723800  1.0  -0.44
  O  O1446  1  0.232600  0.884400  0.774800  1.0  -0.3793
  O  O1447  1  0.296500  0.914300  0.724700  1.0  -0.3491
  O  O1448  1  0.280600  0.990400  0.775800  1.0  -0.3404
  O  O1449  1  0.017100  0.134000  0.723800  1.0  -0.3675
  O  O1450  1  0.973400  0.241700  0.725200  1.0  -0.3827
  O  O1451  1  0.440000  0.789400  0.224300  1.0  -0.3043
  O  O1452  1  0.953100  0.664400  0.775900  1.0  -0.4421
  O  O1453  1  0.924000  0.584700  0.758000  1.0  -0.5144
  O  O1454  1  0.963200  0.517200  0.768600  1.0  -0.4944
  O  O1455  1  0.440700  0.710600  0.294900  1.0  -0.3701
  O  O1456  1  0.451000  0.626400  0.244700  1.0  -0.46
  O  O1457  1  0.906800  0.266700  0.744100  1.0  -0.6748
  O  O1458  1  0.061600  0.084800  0.761000  1.0  -0.356
  O  O1459  1  0.151600  0.991400  0.764100  1.0  -0.6304
  O  O1460  1  0.124700  0.896900  0.748400  1.0  -0.4203
  O  O1461  1  0.285400  0.816000  0.755300  1.0  -0.5138
  O  O1462  1  0.349700  0.881800  0.718100  1.0  -0.5474
  O  O1463  1  0.365300  0.979000  0.738300  1.0  -0.4419
  O  O1464  1  0.304600  0.050600  0.759400  1.0  -0.6236
  O  O1465  1  0.216400  0.064400  0.756900  1.0  -0.4371
  O  O1466  1  0.834800  0.603340  0.940000  1.0  -0.5324
  O  O1467  1  0.876450  0.572350  0.985000  1.0  -0.5311
  O  O1468  1  0.415660  0.853480  0.560000  1.0  -0.5393
  O  O1469  1  0.373450  0.822380  0.516000  1.0  -0.5425
  O  O1470  1  0.869180  0.400230  0.560600  1.0  -0.5339
  O  O1471  1  0.826110  0.369560  0.515400  1.0  -0.5297
  O  O1472  1  0.076390  0.380540  0.016000  1.0  -0.5523
  O  O1473  1  0.117950  0.349970  0.059900  1.0  -0.5504
  O  O1474  1  0.806660  0.244410  0.015700  1.0  -0.5348
  O  O1475  1  0.786600  0.275400  0.060300  1.0  -0.5375
  O  O1476  1  0.759870  0.271820  0.939600  1.0  -0.5484
  O  O1477  1  0.740520  0.302530  0.984300  1.0  -0.5223
  O  O1478  1  0.556450  0.505470  0.515000  1.0  -0.5254
  O  O1479  1  0.536060  0.474890  0.560600  1.0  -0.5421
  O  O1480  1  0.509640  0.552740  0.515700  1.0  -0.5182
  O  O1481  1  0.489860  0.521660  0.560690  1.0  -0.5465
  O  O1482  1  0.690900  0.461900  0.723800  1.0  -0.44
  O  O1483  1  0.732600  0.384400  0.774800  1.0  -0.3793
  O  O1484  1  0.796500  0.414300  0.724700  1.0  -0.3491
  O  O1485  1  0.780600  0.490400  0.775800  1.0  -0.3404
  O  O1486  1  0.517100  0.634000  0.723800  1.0  -0.3675
  O  O1487  1  0.473400  0.741700  0.725200  1.0  -0.3827
  O  O1488  1  0.940000  0.289400  0.224300  1.0  -0.3043
  O  O1489  1  0.453100  0.164400  0.775900  1.0  -0.4421
  O  O1490  1  0.424000  0.084700  0.758000  1.0  -0.5147
  O  O1491  1  0.463200  0.017200  0.768600  1.0  -0.4933
  O  O1492  1  0.940700  0.210600  0.294900  1.0  -0.3701
  O  O1493  1  0.951000  0.126400  0.244700  1.0  -0.46
  O  O1494  1  0.406800  0.766700  0.744100  1.0  -0.6748
  O  O1495  1  0.561600  0.584800  0.761000  1.0  -0.356
  O  O1496  1  0.651600  0.491400  0.764100  1.0  -0.6304
  O  O1497  1  0.624700  0.396900  0.748400  1.0  -0.4203
  O  O1498  1  0.785400  0.316000  0.755300  1.0  -0.5138
  O  O1499  1  0.849700  0.381800  0.718100  1.0  -0.5474
  O  O1500  1  0.865300  0.479000  0.738300  1.0  -0.4419
  O  O1501  1  0.804600  0.550600  0.759400  1.0  -0.6236
  O  O1502  1  0.716400  0.564400  0.756900  1.0  -0.4371
  O  O1503  1  0.665200  0.103340  0.560000  1.0  -0.5334
  O  O1504  1  0.623550  0.072350  0.515000  1.0  -0.5316
  O  O1505  1  0.084340  0.353480  0.940000  1.0  -0.5383
  O  O1506  1  0.126550  0.322380  0.984000  1.0  -0.5425
  O  O1507  1  0.630820  0.900230  0.939400  1.0  -0.5342
  O  O1508  1  0.673890  0.869560  0.984600  1.0  -0.5298
  O  O1509  1  0.423610  0.880540  0.484000  1.0  -0.5521
  O  O1510  1  0.382050  0.849970  0.440100  1.0  -0.5503
  O  O1511  1  0.693340  0.744410  0.484300  1.0  -0.5355
  O  O1512  1  0.713400  0.775400  0.439700  1.0  -0.5371
  O  O1513  1  0.740130  0.771820  0.560400  1.0  -0.5482
  O  O1514  1  0.759480  0.802530  0.515700  1.0  -0.5229
  O  O1515  1  0.943550  0.005470  0.985000  1.0  -0.5262
  O  O1516  1  0.963940  0.974890  0.939400  1.0  -0.5418
  O  O1517  1  0.990360  0.052740  0.984300  1.0  -0.5179
  O  O1518  1  0.010140  0.021660  0.939310  1.0  -0.5464
  O  O1519  1  0.809100  0.961900  0.776200  1.0  -0.4429
  O  O1520  1  0.767400  0.884400  0.725200  1.0  -0.3796
  O  O1521  1  0.703500  0.914300  0.775300  1.0  -0.3489
  O  O1522  1  0.719400  0.990400  0.724200  1.0  -0.3396
  O  O1523  1  0.982900  0.134000  0.776200  1.0  -0.3667
  O  O1524  1  0.026600  0.241700  0.774800  1.0  -0.3825
  O  O1525  1  0.560000  0.789400  0.275700  1.0  -0.3049
  O  O1526  1  0.046900  0.664400  0.724100  1.0  -0.4421
  O  O1527  1  0.076000  0.584700  0.742000  1.0  -0.5135
  O  O1528  1  0.036800  0.517200  0.731400  1.0  -0.4929
  O  O1529  1  0.559300  0.710600  0.205100  1.0  -0.3674
  O  O1530  1  0.549000  0.626400  0.255300  1.0  -0.4618
  O  O1531  1  0.093200  0.266700  0.755900  1.0  -0.6728
  O  O1532  1  0.938400  0.084800  0.739000  1.0  -0.3559
  O  O1533  1  0.848400  0.991400  0.735900  1.0  -0.6338
  O  O1534  1  0.875300  0.896900  0.751600  1.0  -0.4207
  O  O1535  1  0.714600  0.816000  0.744700  1.0  -0.5114
  O  O1536  1  0.650300  0.881800  0.781900  1.0  -0.5512
  O  O1537  1  0.634700  0.979000  0.761700  1.0  -0.4478
  O  O1538  1  0.695400  0.050600  0.740600  1.0  -0.6237
  O  O1539  1  0.783600  0.064400  0.743100  1.0  -0.436
  O  O1540  1  0.165200  0.603340  0.560000  1.0  -0.5334
  O  O1541  1  0.123550  0.572350  0.515000  1.0  -0.5316
  O  O1542  1  0.584340  0.853480  0.940000  1.0  -0.5383
  O  O1543  1  0.626550  0.822380  0.984000  1.0  -0.5425
  O  O1544  1  0.130820  0.400230  0.939400  1.0  -0.5342
  O  O1545  1  0.173890  0.369560  0.984600  1.0  -0.5298
  O  O1546  1  0.923610  0.380540  0.484000  1.0  -0.5521
  O  O1547  1  0.882050  0.349970  0.440100  1.0  -0.5503
  O  O1548  1  0.193340  0.244410  0.484300  1.0  -0.5355
  O  O1549  1  0.213400  0.275400  0.439700  1.0  -0.5371
  O  O1550  1  0.240130  0.271820  0.560400  1.0  -0.5482
  O  O1551  1  0.259480  0.302530  0.515700  1.0  -0.5229
  O  O1552  1  0.443550  0.505470  0.985000  1.0  -0.5262
  O  O1553  1  0.463940  0.474890  0.939400  1.0  -0.5418
  O  O1554  1  0.490360  0.552740  0.984300  1.0  -0.5179
  O  O1555  1  0.510140  0.521660  0.939310  1.0  -0.5464
  O  O1556  1  0.309100  0.461900  0.776200  1.0  -0.4429
  O  O1557  1  0.267400  0.384400  0.725200  1.0  -0.3796
  O  O1558  1  0.203500  0.414300  0.775300  1.0  -0.3489
  O  O1559  1  0.219400  0.490400  0.724200  1.0  -0.3396
  O  O1560  1  0.482900  0.634000  0.776200  1.0  -0.3667
  O  O1561  1  0.526600  0.741700  0.774800  1.0  -0.3825
  O  O1562  1  0.060000  0.289400  0.275700  1.0  -0.3049
  O  O1563  1  0.546900  0.164400  0.724100  1.0  -0.4421
  O  O1564  1  0.576000  0.084700  0.742000  1.0  -0.5138
  O  O1565  1  0.536800  0.017200  0.731400  1.0  -0.4929
  O  O1566  1  0.059300  0.210600  0.205100  1.0  -0.3674
  O  O1567  1  0.049000  0.126400  0.255300  1.0  -0.4618
  O  O1568  1  0.593200  0.766700  0.755900  1.0  -0.6728
  O  O1569  1  0.438400  0.584800  0.739000  1.0  -0.3559
  O  O1570  1  0.348400  0.491400  0.735900  1.0  -0.6338
  O  O1571  1  0.375300  0.396900  0.751600  1.0  -0.4207
  O  O1572  1  0.214600  0.316000  0.744700  1.0  -0.5114
  O  O1573  1  0.150300  0.381800  0.781900  1.0  -0.5512
  O  O1574  1  0.134700  0.479000  0.761700  1.0  -0.4478
  O  O1575  1  0.195400  0.550600  0.740600  1.0  -0.6237
  O  O1576  1  0.283600  0.564400  0.743100  1.0  -0.436
