# generated using pymatgen
data_Zn4H60C96N6O25
_symmetry_space_group_name_H-M   'P 1'
_cell_length_a   23.27500000
_cell_length_b   25.48600000
_cell_length_c   43.96450000
_cell_angle_alpha   90.00000000
_cell_angle_beta   90.62370000
_cell_angle_gamma   90.00000000
_symmetry_Int_Tables_number   1
_chemical_formula_structural   Zn4H60C96N6O25
_chemical_formula_sum   'Zn16 H240 C384 N24 O100'
_cell_volume   26077.60934243
_cell_formula_units_Z   4
loop_
 _symmetry_equiv_pos_site_id
 _symmetry_equiv_pos_as_xyz
  1  'x, y, z'
loop_
 _atom_site_type_symbol
 _atom_site_label
 _atom_site_symmetry_multiplicity
 _atom_site_fract_x
 _atom_site_fract_y
 _atom_site_fract_z
 _atom_site_occupancy
 _atom_site_charge
  Zn  Zn1  1  0.686500  0.215850  0.835570  1.0  1.0897
  Zn  Zn2  1  0.762470  0.122380  0.801950  1.0  1.0451
  Zn  Zn3  1  0.822200  0.222780  0.833940  1.0  1.1006
  Zn  Zn4  1  0.767210  0.134710  0.872420  1.0  1.0653
  Zn  Zn5  1  0.186500  0.284150  0.335570  1.0  1.0894
  Zn  Zn6  1  0.262470  0.377620  0.301950  1.0  1.0434
  Zn  Zn7  1  0.322200  0.277220  0.333940  1.0  1.1012
  Zn  Zn8  1  0.267210  0.365290  0.372420  1.0  1.0657
  Zn  Zn9  1  0.813500  0.715850  0.664430  1.0  1.089
  Zn  Zn10  1  0.737530  0.622380  0.698050  1.0  1.0466
  Zn  Zn11  1  0.677800  0.722780  0.666060  1.0  1.102
  Zn  Zn12  1  0.732790  0.634710  0.627580  1.0  1.0648
  Zn  Zn13  1  0.313500  0.784150  0.164430  1.0  1.0889
  Zn  Zn14  1  0.237530  0.877620  0.198050  1.0  1.0439
  Zn  Zn15  1  0.177800  0.777220  0.166060  1.0  1.1025
  Zn  Zn16  1  0.232790  0.865290  0.127580  1.0  1.0654
  H  H17  1  0.669400  0.137600  0.953800  1.0  0.1235
  H  H18  1  0.631000  0.285200  0.922200  1.0  0.1084
  H  H19  1  0.639600  0.106900  0.998400  1.0  0.123
  H  H20  1  0.574700  0.125000  0.003900  1.0  0.1258
  H  H21  1  0.625400  0.147500  0.025100  1.0  0.1288
  H  H22  1  0.526700  0.323400  0.967400  1.0  0.1266
  H  H23  1  0.568900  0.339600  0.940500  1.0  0.1388
  H  H24  1  0.587400  0.349900  0.975100  1.0  0.1389
  H  H25  1  0.418700  0.211400  0.042100  1.0  0.1092
  H  H26  1  0.386600  0.220200  0.093000  1.0  0.1031
  H  H27  1  0.629100  0.325400  0.134200  1.0  0.1178
  H  H28  1  0.656500  0.314700  0.080200  1.0  0.105
  H  H29  1  0.425600  0.233900  0.257900  1.0  0.1001
  H  H30  1  0.367900  0.371300  0.229400  1.0  0.1207
  H  H31  1  0.477200  0.186300  0.188100  1.0  0.1211
  H  H32  1  0.475500  0.173700  0.223800  1.0  0.112
  H  H33  1  0.528300  0.205800  0.210100  1.0  0.1257
  H  H34  1  0.457700  0.389400  0.168300  1.0  0.1172
  H  H35  1  0.398200  0.409300  0.182100  1.0  0.1201
  H  H36  1  0.398100  0.367800  0.154800  1.0  0.1233
  H  H37  1  0.614200  0.263800  0.751600  1.0  0.1185
  H  H38  1  0.629600  0.107700  0.732000  1.0  0.1248
  H  H39  1  0.609100  0.315300  0.686000  1.0  0.1277
  H  H40  1  0.569800  0.324000  0.715200  1.0  0.1252
  H  H41  1  0.541600  0.303500  0.684000  1.0  0.125
  H  H42  1  0.545100  0.097500  0.673900  1.0  0.1205
  H  H43  1  0.606900  0.073500  0.681800  1.0  0.1211
  H  H44  1  0.599600  0.114000  0.654200  1.0  0.1246
  H  H45  1  0.662200  0.250900  0.587800  1.0  0.1027
  H  H46  1  0.633000  0.263100  0.537400  1.0  0.1139
  H  H47  1  0.374900  0.182200  0.571500  1.0  0.1323
  H  H48  1  0.404500  0.180500  0.625300  1.0  0.116
  H  H49  1  0.420900  0.216800  0.407800  1.0  0.1117
  H  H50  1  0.385700  0.357500  0.444000  1.0  0.1096
  H  H51  1  0.513400  0.167700  0.463100  1.0  0.1306
  H  H52  1  0.475400  0.152700  0.433900  1.0  0.1324
  H  H53  1  0.448900  0.147600  0.467200  1.0  0.1334
  H  H54  1  0.436500  0.387600  0.488400  1.0  0.1295
  H  H55  1  0.474300  0.347700  0.508400  1.0  0.1183
  H  H56  1  0.405800  0.347700  0.511200  1.0  0.1234
  H  H57  1  0.664900  0.378500  0.831800  1.0  0.0967
  H  H58  1  0.827300  0.385600  0.854400  1.0  0.1027
  H  H59  1  0.603400  0.455300  0.830400  1.0  0.1195
  H  H60  1  0.637900  0.504400  0.817100  1.0  0.1142
  H  H61  1  0.622300  0.502400  0.852400  1.0  0.1097
  H  H62  1  0.856000  0.511600  0.847500  1.0  0.1111
  H  H63  1  0.874000  0.463600  0.869100  1.0  0.1297
  H  H64  1  0.835500  0.510400  0.882100  1.0  0.1252
  H  H65  1  0.753600  0.631600  0.776600  1.0  0.0948
  H  H66  1  0.749900  0.724200  0.776600  1.0  0.1059
  H  H67  1  0.706100  0.721700  0.921500  1.0  0.1083
  H  H68  1  0.715900  0.630300  0.921400  1.0  0.1022
  H  H69  1  0.630900  0.889300  0.802300  1.0  0.1282
  H  H70  1  0.604600  0.876900  0.835000  1.0  0.1166
  H  H71  1  0.647100  0.835700  0.819400  1.0  0.119
  H  H72  1  0.665100  0.974700  0.826900  1.0  0.1124
  H  H73  1  0.814200  0.842900  0.893800  1.0  0.1199
  H  H74  1  0.857700  0.889500  0.885900  1.0  0.1284
  H  H75  1  0.845900  0.843800  0.861700  1.0  0.1305
  H  H76  1  0.810300  0.968800  0.873600  1.0  0.0957
  H  H77  1  0.169400  0.362400  0.453800  1.0  0.1223
  H  H78  1  0.131000  0.214800  0.422200  1.0  0.1084
  H  H79  1  0.139600  0.393100  0.498400  1.0  0.1235
  H  H80  1  0.074700  0.375000  0.503900  1.0  0.1248
  H  H81  1  0.125400  0.352500  0.525100  1.0  0.1304
  H  H82  1  0.026700  0.176600  0.467400  1.0  0.129
  H  H83  1  0.068900  0.160400  0.440500  1.0  0.1383
  H  H84  1  0.087400  0.150100  0.475100  1.0  0.1388
  H  H85  1  0.918700  0.288600  0.542100  1.0  0.1096
  H  H86  1  0.886600  0.279800  0.593000  1.0  0.1034
  H  H87  1  0.129100  0.174600  0.634200  1.0  0.1159
  H  H88  1  0.156500  0.185300  0.580200  1.0  0.105
  H  H89  1  0.925600  0.266100  0.757900  1.0  0.1
  H  H90  1  0.867900  0.128700  0.729400  1.0  0.12
  H  H91  1  0.977200  0.313700  0.688100  1.0  0.1216
  H  H92  1  0.975500  0.326300  0.723800  1.0  0.1126
  H  H93  1  0.028300  0.294200  0.710100  1.0  0.1273
  H  H94  1  0.957700  0.110600  0.668300  1.0  0.1165
  H  H95  1  0.898200  0.090700  0.682100  1.0  0.1199
  H  H96  1  0.898100  0.132200  0.654800  1.0  0.1225
  H  H97  1  0.114200  0.236200  0.251600  1.0  0.1199
  H  H98  1  0.129600  0.392300  0.232000  1.0  0.1246
  H  H99  1  0.109100  0.184700  0.186000  1.0  0.1278
  H  H100  1  0.069800  0.176000  0.215200  1.0  0.121
  H  H101  1  0.041600  0.196500  0.184000  1.0  0.1247
  H  H102  1  0.045100  0.402500  0.173900  1.0  0.1199
  H  H103  1  0.106900  0.426500  0.181800  1.0  0.1207
  H  H104  1  0.099600  0.386000  0.154200  1.0  0.1248
  H  H105  1  0.162200  0.249100  0.087800  1.0  0.1028
  H  H106  1  0.133000  0.236900  0.037400  1.0  0.1136
  H  H107  1  0.874900  0.317800  0.071500  1.0  0.1319
  H  H108  1  0.904500  0.319500  0.125300  1.0  0.1159
  H  H109  1  0.920900  0.283200  0.907800  1.0  0.1119
  H  H110  1  0.885700  0.142500  0.944000  1.0  0.1091
  H  H111  1  0.013400  0.332300  0.963100  1.0  0.1323
  H  H112  1  0.975400  0.347300  0.933900  1.0  0.1333
  H  H113  1  0.948900  0.352400  0.967200  1.0  0.1332
  H  H114  1  0.936500  0.112400  0.988400  1.0  0.128
  H  H115  1  0.974300  0.152300  0.008400  1.0  0.1189
  H  H116  1  0.905800  0.152300  0.011200  1.0  0.1245
  H  H117  1  0.164900  0.121500  0.331800  1.0  0.0962
  H  H118  1  0.327300  0.114400  0.354400  1.0  0.1027
  H  H119  1  0.103400  0.044700  0.330400  1.0  0.1207
  H  H120  1  0.137900  0.995600  0.317100  1.0  0.1132
  H  H121  1  0.122300  0.997600  0.352400  1.0  0.1101
  H  H122  1  0.356000  0.988400  0.347500  1.0  0.1109
  H  H123  1  0.374000  0.036400  0.369100  1.0  0.1298
  H  H124  1  0.335500  0.989600  0.382100  1.0  0.1256
  H  H125  1  0.253600  0.868400  0.276600  1.0  0.0945
  H  H126  1  0.249900  0.775800  0.276600  1.0  0.1059
  H  H127  1  0.206100  0.778300  0.421500  1.0  0.1083
  H  H128  1  0.215900  0.869700  0.421400  1.0  0.1017
  H  H129  1  0.130900  0.610700  0.302300  1.0  0.1289
  H  H130  1  0.104600  0.623100  0.335000  1.0  0.1169
  H  H131  1  0.147100  0.664300  0.319400  1.0  0.1171
  H  H132  1  0.165100  0.525300  0.326900  1.0  0.1119
  H  H133  1  0.314200  0.657100  0.393800  1.0  0.1209
  H  H134  1  0.357700  0.610500  0.385900  1.0  0.1288
  H  H135  1  0.345900  0.656200  0.361700  1.0  0.131
  H  H136  1  0.310300  0.531200  0.373600  1.0  0.0949
  H  H137  1  0.830600  0.637600  0.546200  1.0  0.1232
  H  H138  1  0.869000  0.785200  0.577800  1.0  0.108
  H  H139  1  0.860400  0.606900  0.501600  1.0  0.1207
  H  H140  1  0.925300  0.625000  0.496100  1.0  0.1178
  H  H141  1  0.874600  0.647500  0.474900  1.0  0.1319
  H  H142  1  0.973300  0.823400  0.532600  1.0  0.1295
  H  H143  1  0.931100  0.839600  0.559500  1.0  0.14
  H  H144  1  0.912600  0.849900  0.524900  1.0  0.1398
  H  H145  1  0.081300  0.711400  0.457900  1.0  0.1103
  H  H146  1  0.113400  0.720200  0.407000  1.0  0.1045
  H  H147  1  0.870900  0.825400  0.365800  1.0  0.1151
  H  H148  1  0.843500  0.814700  0.419800  1.0  0.1048
  H  H149  1  0.074400  0.733900  0.242100  1.0  0.0989
  H  H150  1  0.132100  0.871300  0.270600  1.0  0.1212
  H  H151  1  0.022800  0.686300  0.311900  1.0  0.1214
  H  H152  1  0.024500  0.673700  0.276200  1.0  0.111
  H  H153  1  0.971700  0.705800  0.289900  1.0  0.1282
  H  H154  1  0.042300  0.889400  0.331700  1.0  0.1181
  H  H155  1  0.101800  0.909300  0.317900  1.0  0.1187
  H  H156  1  0.101900  0.867800  0.345200  1.0  0.1228
  H  H157  1  0.885800  0.763800  0.748400  1.0  0.1191
  H  H158  1  0.870400  0.607700  0.768000  1.0  0.1244
  H  H159  1  0.890900  0.815300  0.814000  1.0  0.127
  H  H160  1  0.930200  0.824000  0.784800  1.0  0.1215
  H  H161  1  0.958400  0.803500  0.816000  1.0  0.1239
  H  H162  1  0.954900  0.597500  0.826100  1.0  0.1189
  H  H163  1  0.893100  0.573500  0.818200  1.0  0.1221
  H  H164  1  0.900400  0.614000  0.845800  1.0  0.1258
  H  H165  1  0.837800  0.750900  0.912200  1.0  0.1014
  H  H166  1  0.867000  0.763100  0.962600  1.0  0.1137
  H  H167  1  0.125100  0.682200  0.928500  1.0  0.13
  H  H168  1  0.095500  0.680500  0.874700  1.0  0.1155
  H  H169  1  0.079100  0.716800  0.092200  1.0  0.112
  H  H170  1  0.114300  0.857500  0.056000  1.0  0.1095
  H  H171  1  0.986600  0.667700  0.036900  1.0  0.1313
  H  H172  1  0.024600  0.652700  0.066100  1.0  0.1332
  H  H173  1  0.051100  0.647600  0.032800  1.0  0.1344
  H  H174  1  0.063500  0.887600  0.011600  1.0  0.129
  H  H175  1  0.025700  0.847700  0.991600  1.0  0.1186
  H  H176  1  0.094200  0.847700  0.988800  1.0  0.1259
  H  H177  1  0.835100  0.878500  0.668200  1.0  0.0971
  H  H178  1  0.672700  0.885600  0.645600  1.0  0.1025
  H  H179  1  0.896600  0.955300  0.669600  1.0  0.1231
  H  H180  1  0.862100  0.004400  0.682900  1.0  0.1146
  H  H181  1  0.877700  0.002400  0.647600  1.0  0.1097
  H  H182  1  0.644000  0.011600  0.652500  1.0  0.1114
  H  H183  1  0.626000  0.963600  0.630900  1.0  0.1274
  H  H184  1  0.664500  0.010400  0.617900  1.0  0.1247
  H  H185  1  0.746400  0.131600  0.723400  1.0  0.094
  H  H186  1  0.750100  0.224200  0.723400  1.0  0.1062
  H  H187  1  0.793900  0.221700  0.578500  1.0  0.1096
  H  H188  1  0.784100  0.130300  0.578600  1.0  0.1019
  H  H189  1  0.869100  0.389300  0.697700  1.0  0.1291
  H  H190  1  0.895400  0.376900  0.665000  1.0  0.1179
  H  H191  1  0.852900  0.335700  0.680600  1.0  0.1191
  H  H192  1  0.834900  0.474700  0.673100  1.0  0.1129
  H  H193  1  0.685800  0.342900  0.606200  1.0  0.1198
  H  H194  1  0.642300  0.389500  0.614100  1.0  0.1259
  H  H195  1  0.654100  0.343800  0.638300  1.0  0.1317
  H  H196  1  0.689700  0.468800  0.626400  1.0  0.0955
  H  H197  1  0.330600  0.862400  0.046200  1.0  0.1229
  H  H198  1  0.369000  0.714800  0.077800  1.0  0.108
  H  H199  1  0.360400  0.893100  0.001600  1.0  0.122
  H  H200  1  0.425300  0.875000  0.996100  1.0  0.1172
  H  H201  1  0.374600  0.852500  0.974900  1.0  0.1299
  H  H202  1  0.473300  0.676600  0.032600  1.0  0.1287
  H  H203  1  0.431100  0.660400  0.059500  1.0  0.1395
  H  H204  1  0.412600  0.650100  0.024900  1.0  0.1379
  H  H205  1  0.581300  0.788600  0.957900  1.0  0.1104
  H  H206  1  0.613400  0.779800  0.907000  1.0  0.1041
  H  H207  1  0.370900  0.674600  0.865800  1.0  0.1175
  H  H208  1  0.343500  0.685300  0.919800  1.0  0.1051
  H  H209  1  0.574400  0.766100  0.742100  1.0  0.0987
  H  H210  1  0.632100  0.628700  0.770600  1.0  0.1209
  H  H211  1  0.522800  0.813700  0.811900  1.0  0.121
  H  H212  1  0.524500  0.826300  0.776200  1.0  0.1115
  H  H213  1  0.471700  0.794200  0.789900  1.0  0.1255
  H  H214  1  0.542300  0.610600  0.831700  1.0  0.1184
  H  H215  1  0.601800  0.590700  0.817900  1.0  0.1192
  H  H216  1  0.601900  0.632200  0.845200  1.0  0.1228
  H  H217  1  0.385800  0.736200  0.248400  1.0  0.118
  H  H218  1  0.370400  0.892300  0.268000  1.0  0.1243
  H  H219  1  0.390900  0.684700  0.314000  1.0  0.1268
  H  H220  1  0.430200  0.676000  0.284800  1.0  0.1241
  H  H221  1  0.458400  0.696500  0.316000  1.0  0.1253
  H  H222  1  0.454900  0.902500  0.326100  1.0  0.1195
  H  H223  1  0.393100  0.926500  0.318200  1.0  0.123
  H  H224  1  0.400400  0.886000  0.345800  1.0  0.1251
  H  H225  1  0.337800  0.749100  0.412200  1.0  0.1013
  H  H226  1  0.367000  0.736900  0.462600  1.0  0.1138
  H  H227  1  0.625100  0.817800  0.428500  1.0  0.1306
  H  H228  1  0.595500  0.819500  0.374700  1.0  0.1157
  H  H229  1  0.579100  0.783200  0.592200  1.0  0.1121
  H  H230  1  0.614300  0.642500  0.556000  1.0  0.109
  H  H231  1  0.486600  0.832300  0.536900  1.0  0.1291
  H  H232  1  0.524600  0.847300  0.566100  1.0  0.1324
  H  H233  1  0.551100  0.852400  0.532800  1.0  0.1349
  H  H234  1  0.563500  0.612400  0.511600  1.0  0.128
  H  H235  1  0.525700  0.652300  0.491600  1.0  0.1195
  H  H236  1  0.594200  0.652300  0.488800  1.0  0.1254
  H  H237  1  0.335100  0.621500  0.168200  1.0  0.0971
  H  H238  1  0.172700  0.614400  0.145600  1.0  0.1023
  H  H239  1  0.396600  0.544700  0.169600  1.0  0.1229
  H  H240  1  0.362100  0.495600  0.182900  1.0  0.1144
  H  H241  1  0.377700  0.497600  0.147600  1.0  0.1099
  H  H242  1  0.144000  0.488400  0.152500  1.0  0.1115
  H  H243  1  0.126000  0.536400  0.130900  1.0  0.1281
  H  H244  1  0.164500  0.489600  0.117900  1.0  0.1246
  H  H245  1  0.246400  0.368400  0.223400  1.0  0.0934
  H  H246  1  0.250100  0.275800  0.223400  1.0  0.1064
  H  H247  1  0.293900  0.278300  0.078500  1.0  0.1093
  H  H248  1  0.284100  0.369700  0.078600  1.0  0.1023
  H  H249  1  0.369100  0.110700  0.197700  1.0  0.1289
  H  H250  1  0.395400  0.123100  0.165000  1.0  0.1175
  H  H251  1  0.352900  0.164300  0.180600  1.0  0.1175
  H  H252  1  0.334900  0.025300  0.173100  1.0  0.1124
  H  H253  1  0.185800  0.157100  0.106200  1.0  0.1201
  H  H254  1  0.142300  0.110500  0.114100  1.0  0.1268
  H  H255  1  0.154100  0.156200  0.138300  1.0  0.1312
  H  H256  1  0.189700  0.031200  0.126400  1.0  0.0956
  C  C257  1  0.675860  0.190600  0.901160  1.0  0.6717
  C  C258  1  0.647210  0.206900  0.929610  1.0  -0.1108
  C  C259  1  0.649750  0.170100  0.955450  1.0  -0.0769
  C  C260  1  0.623420  0.183600  0.981620  1.0  -0.0013
  C  C261  1  0.599800  0.233000  0.985700  1.0  0.1257
  C  C262  1  0.597210  0.267100  0.962810  1.0  0.0114
  C  C263  1  0.625620  0.257500  0.936320  1.0  -0.1132
  C  C264  1  0.615030  0.136300  0.004430  1.0  -0.3617
  C  C265  1  0.566970  0.326100  0.961270  1.0  -0.3852
  C  C266  1  0.520120  0.233300  0.020320  1.0  0.5472
  C  C267  1  0.496320  0.241700  0.050820  1.0  -0.1433
  C  C268  1  0.535070  0.264800  0.074070  1.0  0.0985
  C  C269  1  0.586200  0.278800  0.065500  1.0  0.0205
  C  C270  1  0.613400  0.270300  0.034400  1.0  0.547
  C  C271  1  0.443190  0.226100  0.057390  1.0  -0.0785
  C  C272  1  0.424030  0.231800  0.087730  1.0  -0.02
  C  C273  1  0.459020  0.253600  0.109320  1.0  -0.1349
  C  C274  1  0.514360  0.271400  0.103160  1.0  0.0248
  C  C275  1  0.550330  0.292600  0.125430  1.0  -0.1055
  C  C276  1  0.604160  0.310000  0.119360  1.0  -0.1057
  C  C277  1  0.620100  0.302200  0.086500  1.0  -0.0785
  C  C278  1  0.439410  0.258500  0.140910  1.0  0.4674
  C  C279  1  0.527780  0.300600  0.157580  1.0  0.6078
  C  C280  1  0.448550  0.288920  0.192750  1.0  0.1915
  C  C281  1  0.455520  0.249600  0.213820  1.0  0.1106
  C  C282  1  0.422840  0.258840  0.241940  1.0  -0.0756
  C  C283  1  0.389860  0.300620  0.245660  1.0  -0.0648
  C  C284  1  0.388520  0.340040  0.225320  1.0  -0.0803
  C  C285  1  0.419910  0.333720  0.196610  1.0  0.0772
  C  C286  1  0.486790  0.199600  0.208490  1.0  -0.3993
  C  C287  1  0.418330  0.379240  0.173330  1.0  -0.3605
  C  C288  1  0.660720  0.177910  0.775120  1.0  0.6649
  C  C289  1  0.628670  0.184290  0.744870  1.0  -0.0778
  C  C290  1  0.610740  0.235970  0.737340  1.0  -0.0867
  C  C291  1  0.586970  0.245100  0.707070  1.0  0.066
  C  C292  1  0.581900  0.200920  0.687800  1.0  0.1535
  C  C293  1  0.598380  0.151450  0.696880  1.0  -0.0255
  C  C294  1  0.620330  0.142350  0.725630  1.0  -0.0635
  C  C295  1  0.575890  0.302170  0.697190  1.0  -0.39
  C  C296  1  0.586430  0.104750  0.674630  1.0  -0.376
  C  C297  1  0.601090  0.227300  0.636990  1.0  0.5485
  C  C298  1  0.582590  0.232220  0.604190  1.0  -0.1176
  C  C299  1  0.525980  0.219500  0.596380  1.0  0.005
  C  C300  1  0.485510  0.205200  0.617710  1.0  -0.1042
  C  C301  1  0.505750  0.199500  0.650950  1.0  0.5685
  C  C302  1  0.623050  0.246200  0.582150  1.0  -0.0321
  C  C303  1  0.606150  0.253000  0.552450  1.0  -0.0646
  C  C304  1  0.550970  0.245100  0.545070  1.0  -0.1062
  C  C305  1  0.507400  0.226600  0.565500  1.0  -0.0281
  C  C306  1  0.450530  0.215600  0.558030  1.0  -0.1044
  C  C307  1  0.411590  0.194400  0.577990  1.0  -0.1088
  C  C308  1  0.430430  0.191600  0.610030  1.0  -0.043
  C  C309  1  0.529660  0.252300  0.512160  1.0  0.4805
  C  C310  1  0.432660  0.219600  0.525960  1.0  0.3085
  C  C311  1  0.451020  0.263000  0.475620  1.0  0.1289
  C  C312  1  0.453000  0.224800  0.452300  1.0  0.0538
  C  C313  1  0.424580  0.240870  0.424180  1.0  -0.0533
  C  C314  1  0.403230  0.290650  0.421330  1.0  -0.1146
  C  C315  1  0.404930  0.324720  0.445730  1.0  -0.07
  C  C316  1  0.433960  0.312800  0.472660  1.0  0.162
  C  C317  1  0.474590  0.168100  0.454290  1.0  -0.378
  C  C318  1  0.437930  0.352300  0.497230  1.0  -0.4265
  C  C319  1  0.752330  0.316250  0.837230  1.0  0.7049
  C  C320  1  0.746310  0.373430  0.842410  1.0  -0.1051
  C  C321  1  0.697170  0.398960  0.837870  1.0  -0.0631
  C  C322  1  0.688050  0.454410  0.841250  1.0  0.2047
  C  C323  1  0.735440  0.480750  0.848240  1.0  0.2059
  C  C324  1  0.788690  0.459300  0.854490  1.0  0.0501
  C  C325  1  0.791680  0.402670  0.850780  1.0  -0.0609
  C  C326  1  0.633360  0.481360  0.834760  1.0  -0.353
  C  C327  1  0.843600  0.488900  0.864200  1.0  -0.3545
  C  C328  1  0.744430  0.564480  0.821030  1.0  0.4826
  C  C329  1  0.742700  0.622340  0.821000  1.0  -0.1108
  C  C330  1  0.735290  0.649270  0.848890  1.0  0.0047
  C  C331  1  0.727110  0.621330  0.876610  1.0  -0.0727
  C  C332  1  0.728050  0.563850  0.876950  1.0  0.4926
  C  C333  1  0.748290  0.649790  0.795190  1.0  -0.0652
  C  C334  1  0.746500  0.705320  0.795100  1.0  -0.1026
  C  C335  1  0.740100  0.730890  0.821400  1.0  -0.0273
  C  C336  1  0.730980  0.704120  0.847680  1.0  -0.1284
  C  C337  1  0.723630  0.732300  0.876330  1.0  -0.1103
  C  C338  1  0.714830  0.703900  0.903130  1.0  -0.0873
  C  C339  1  0.718940  0.648940  0.902740  1.0  -0.0362
  C  C340  1  0.744610  0.788240  0.820810  1.0  0.4011
  C  C341  1  0.721920  0.789010  0.876220  1.0  0.5627
  C  C342  1  0.733680  0.872440  0.850480  1.0  0.1562
  C  C343  1  0.638460  0.873070  0.822160  1.0  -0.4058
  C  C344  1  0.693620  0.954600  0.837220  1.0  -0.132
  C  C345  1  0.828660  0.865540  0.877560  1.0  -0.3596
  C  C346  1  0.778940  0.951250  0.864040  1.0  -0.0702
  C  C347  1  0.779630  0.896810  0.864130  1.0  0.1116
  C  C348  1  0.689720  0.900090  0.837420  1.0  0.0695
  C  C349  1  0.738920  0.979910  0.851920  1.0  0.0214
  C  C350  1  0.738470  0.038140  0.854370  1.0  0.7057
  C  C351  1  0.354010  0.305850  0.274010  1.0  0.6347
  C  C352  1  0.367570  0.305200  0.392970  1.0  0.6969
  C  C353  1  0.175860  0.309400  0.401160  1.0  0.6716
  C  C354  1  0.147210  0.293100  0.429610  1.0  -0.1098
  C  C355  1  0.149750  0.329900  0.455450  1.0  -0.0776
  C  C356  1  0.123420  0.316400  0.481620  1.0  -0.0009
  C  C357  1  0.099800  0.267000  0.485700  1.0  0.1256
  C  C358  1  0.097210  0.232900  0.462810  1.0  0.0099
  C  C359  1  0.125620  0.242500  0.436320  1.0  -0.1125
  C  C360  1  0.115030  0.363700  0.504430  1.0  -0.362
  C  C361  1  0.066970  0.173900  0.461270  1.0  -0.3856
  C  C362  1  0.020120  0.266700  0.520320  1.0  0.5468
  C  C363  1  0.996320  0.258300  0.550820  1.0  -0.1435
  C  C364  1  0.035070  0.235200  0.574070  1.0  0.0982
  C  C365  1  0.086200  0.221200  0.565500  1.0  0.0202
  C  C366  1  0.113400  0.229700  0.534400  1.0  0.5465
  C  C367  1  0.943190  0.273900  0.557390  1.0  -0.0791
  C  C368  1  0.924030  0.268200  0.587730  1.0  -0.0201
  C  C369  1  0.959020  0.246400  0.609320  1.0  -0.1351
  C  C370  1  0.014360  0.228600  0.603160  1.0  0.0246
  C  C371  1  0.050330  0.207400  0.625430  1.0  -0.1062
  C  C372  1  0.104160  0.190000  0.619360  1.0  -0.1052
  C  C373  1  0.120100  0.197800  0.586500  1.0  -0.0788
  C  C374  1  0.939410  0.241500  0.640910  1.0  0.467
  C  C375  1  0.027780  0.199400  0.657580  1.0  0.6092
  C  C376  1  0.948550  0.211080  0.692750  1.0  0.1916
  C  C377  1  0.955520  0.250400  0.713820  1.0  0.1096
  C  C378  1  0.922840  0.241160  0.741940  1.0  -0.0743
  C  C379  1  0.889860  0.199380  0.745660  1.0  -0.0653
  C  C380  1  0.888520  0.159960  0.725320  1.0  -0.0815
  C  C381  1  0.919910  0.166280  0.696610  1.0  0.0773
  C  C382  1  0.986790  0.300400  0.708490  1.0  -0.4015
  C  C383  1  0.918330  0.120760  0.673330  1.0  -0.3599
  C  C384  1  0.160720  0.322090  0.275120  1.0  0.6647
  C  C385  1  0.128670  0.315710  0.244870  1.0  -0.0775
  C  C386  1  0.110740  0.264030  0.237340  1.0  -0.088
  C  C387  1  0.086970  0.254900  0.207070  1.0  0.0666
  C  C388  1  0.081900  0.299080  0.187800  1.0  0.1539
  C  C389  1  0.098380  0.348550  0.196880  1.0  -0.0265
  C  C390  1  0.120330  0.357650  0.225630  1.0  -0.0634
  C  C391  1  0.075890  0.197830  0.197190  1.0  -0.3907
  C  C392  1  0.086430  0.395250  0.174630  1.0  -0.377
  C  C393  1  0.101090  0.272700  0.136990  1.0  0.5486
  C  C394  1  0.082590  0.267780  0.104190  1.0  -0.1177
  C  C395  1  0.025980  0.280500  0.096380  1.0  0.0054
  C  C396  1  0.985510  0.294800  0.117710  1.0  -0.1047
  C  C397  1  0.005750  0.300500  0.150950  1.0  0.5686
  C  C398  1  0.123050  0.253800  0.082150  1.0  -0.0319
  C  C399  1  0.106150  0.247000  0.052450  1.0  -0.0642
  C  C400  1  0.050970  0.254900  0.045070  1.0  -0.1062
  C  C401  1  0.007400  0.273400  0.065500  1.0  -0.0278
  C  C402  1  0.950530  0.284400  0.058030  1.0  -0.1041
  C  C403  1  0.911590  0.305600  0.077990  1.0  -0.1083
  C  C404  1  0.930430  0.308400  0.110030  1.0  -0.0439
  C  C405  1  0.029660  0.247700  0.012160  1.0  0.4803
  C  C406  1  0.932660  0.280400  0.025960  1.0  0.3082
  C  C407  1  0.951020  0.237000  0.975620  1.0  0.129
  C  C408  1  0.953000  0.275200  0.952300  1.0  0.0545
  C  C409  1  0.924580  0.259130  0.924180  1.0  -0.0534
  C  C410  1  0.903230  0.209350  0.921330  1.0  -0.1154
  C  C411  1  0.904930  0.175280  0.945730  1.0  -0.07
  C  C412  1  0.933960  0.187200  0.972660  1.0  0.1623
  C  C413  1  0.974590  0.331900  0.954290  1.0  -0.3781
  C  C414  1  0.937930  0.147700  0.997230  1.0  -0.4238
  C  C415  1  0.252330  0.183750  0.337230  1.0  0.705
  C  C416  1  0.246310  0.126570  0.342410  1.0  -0.1043
  C  C417  1  0.197170  0.101040  0.337870  1.0  -0.0635
  C  C418  1  0.188050  0.045590  0.341250  1.0  0.2055
  C  C419  1  0.235440  0.019250  0.348240  1.0  0.2059
  C  C420  1  0.288690  0.040700  0.354490  1.0  0.0502
  C  C421  1  0.291680  0.097330  0.350780  1.0  -0.0614
  C  C422  1  0.133360  0.018640  0.334760  1.0  -0.3529
  C  C423  1  0.343600  0.011100  0.364200  1.0  -0.3549
  C  C424  1  0.244430  0.935520  0.321030  1.0  0.4828
  C  C425  1  0.242700  0.877660  0.321000  1.0  -0.1105
  C  C426  1  0.235290  0.850730  0.348890  1.0  0.0045
  C  C427  1  0.227110  0.878670  0.376610  1.0  -0.0728
  C  C428  1  0.228050  0.936150  0.376950  1.0  0.4925
  C  C429  1  0.248290  0.850210  0.295190  1.0  -0.0656
  C  C430  1  0.246500  0.794680  0.295100  1.0  -0.1018
  C  C431  1  0.240100  0.769110  0.321400  1.0  -0.0281
  C  C432  1  0.230980  0.795880  0.347680  1.0  -0.1283
  C  C433  1  0.223630  0.767700  0.376330  1.0  -0.1101
  C  C434  1  0.214830  0.796100  0.403130  1.0  -0.0877
  C  C435  1  0.218940  0.851060  0.402740  1.0  -0.0367
  C  C436  1  0.244610  0.711760  0.320810  1.0  0.4008
  C  C437  1  0.221920  0.710990  0.376220  1.0  0.5628
  C  C438  1  0.233680  0.627560  0.350480  1.0  0.1557
  C  C439  1  0.138460  0.626930  0.322160  1.0  -0.4049
  C  C440  1  0.193620  0.545400  0.337220  1.0  -0.133
  C  C441  1  0.328660  0.634460  0.377560  1.0  -0.3581
  C  C442  1  0.278940  0.548750  0.364040  1.0  -0.0683
  C  C443  1  0.279630  0.603190  0.364130  1.0  0.1123
  C  C444  1  0.189720  0.599910  0.337420  1.0  0.0696
  C  C445  1  0.238920  0.520090  0.351920  1.0  0.021
  C  C446  1  0.238470  0.461860  0.354370  1.0  0.7055
  C  C447  1  0.854010  0.194150  0.774010  1.0  0.6347
  C  C448  1  0.867570  0.194800  0.892970  1.0  0.6967
  C  C449  1  0.824140  0.690600  0.598840  1.0  0.6721
  C  C450  1  0.852790  0.706900  0.570390  1.0  -0.1123
  C  C451  1  0.850250  0.670100  0.544550  1.0  -0.0768
  C  C452  1  0.876580  0.683600  0.518380  1.0  -0.0007
  C  C453  1  0.900200  0.733000  0.514300  1.0  0.1255
  C  C454  1  0.902790  0.767100  0.537190  1.0  0.0106
  C  C455  1  0.874380  0.757500  0.563680  1.0  -0.1123
  C  C456  1  0.884970  0.636300  0.495570  1.0  -0.3623
  C  C457  1  0.933030  0.826100  0.538730  1.0  -0.3869
  C  C458  1  0.979880  0.733300  0.479680  1.0  0.5498
  C  C459  1  0.003680  0.741700  0.449180  1.0  -0.1443
  C  C460  1  0.964930  0.764800  0.425930  1.0  0.0988
  C  C461  1  0.913800  0.778800  0.434500  1.0  0.0218
  C  C462  1  0.886600  0.770300  0.465600  1.0  0.5437
  C  C463  1  0.056810  0.726100  0.442610  1.0  -0.0782
  C  C464  1  0.075970  0.731800  0.412270  1.0  -0.021
  C  C465  1  0.040980  0.753600  0.390680  1.0  -0.1349
  C  C466  1  0.985640  0.771400  0.396840  1.0  0.025
  C  C467  1  0.949670  0.792600  0.374570  1.0  -0.1072
  C  C468  1  0.895840  0.810000  0.380640  1.0  -0.1086
  C  C469  1  0.879900  0.802200  0.413500  1.0  -0.0784
  C  C470  1  0.060590  0.758500  0.359090  1.0  0.4646
  C  C471  1  0.972220  0.800600  0.342420  1.0  0.6073
  C  C472  1  0.051450  0.788920  0.307250  1.0  0.1903
  C  C473  1  0.044480  0.749600  0.286180  1.0  0.1086
  C  C474  1  0.077160  0.758840  0.258060  1.0  -0.075
  C  C475  1  0.110140  0.800620  0.254340  1.0  -0.0701
  C  C476  1  0.111480  0.840040  0.274680  1.0  -0.0818
  C  C477  1  0.080090  0.833720  0.303390  1.0  0.0754
  C  C478  1  0.013210  0.699600  0.291510  1.0  -0.3999
  C  C479  1  0.081670  0.879240  0.326670  1.0  -0.3589
  C  C480  1  0.839280  0.677910  0.724880  1.0  0.6635
  C  C481  1  0.871330  0.684290  0.755130  1.0  -0.0864
  C  C482  1  0.889260  0.735970  0.762660  1.0  -0.0889
  C  C483  1  0.913030  0.745100  0.792930  1.0  0.0671
  C  C484  1  0.918100  0.700920  0.812200  1.0  0.1534
  C  C485  1  0.901620  0.651450  0.803120  1.0  -0.0247
  C  C486  1  0.879670  0.642350  0.774370  1.0  -0.0617
  C  C487  1  0.924110  0.802170  0.802810  1.0  -0.3904
  C  C488  1  0.913570  0.604750  0.825370  1.0  -0.3766
  C  C489  1  0.898910  0.727300  0.863010  1.0  0.5477
  C  C490  1  0.917410  0.732220  0.895810  1.0  -0.118
  C  C491  1  0.974020  0.719500  0.903620  1.0  0.0046
  C  C492  1  0.014490  0.705200  0.882290  1.0  -0.1055
  C  C493  1  0.994250  0.699500  0.849050  1.0  0.5672
  C  C494  1  0.876950  0.746200  0.917850  1.0  -0.0311
  C  C495  1  0.893850  0.753000  0.947550  1.0  -0.0643
  C  C496  1  0.949030  0.745100  0.954930  1.0  -0.1044
  C  C497  1  0.992600  0.726600  0.934500  1.0  -0.0284
  C  C498  1  0.049470  0.715600  0.941970  1.0  -0.1053
  C  C499  1  0.088410  0.694400  0.922010  1.0  -0.11
  C  C500  1  0.069570  0.691600  0.889970  1.0  -0.0434
  C  C501  1  0.970340  0.752300  0.987840  1.0  0.4802
  C  C502  1  0.067340  0.719600  0.974040  1.0  0.3066
  C  C503  1  0.048980  0.763000  0.024380  1.0  0.1284
  C  C504  1  0.047000  0.724800  0.047700  1.0  0.0547
  C  C505  1  0.075420  0.740870  0.075820  1.0  -0.054
  C  C506  1  0.096770  0.790650  0.078670  1.0  -0.1159
  C  C507  1  0.095070  0.824720  0.054270  1.0  -0.0712
  C  C508  1  0.066040  0.812800  0.027340  1.0  0.1612
  C  C509  1  0.025410  0.668100  0.045710  1.0  -0.3777
  C  C510  1  0.062070  0.852300  0.002770  1.0  -0.4248
  C  C511  1  0.747670  0.816250  0.662770  1.0  0.7051
  C  C512  1  0.753690  0.873430  0.657590  1.0  -0.1054
  C  C513  1  0.802830  0.898960  0.662130  1.0  -0.0625
  C  C514  1  0.811950  0.954410  0.658750  1.0  0.2038
  C  C515  1  0.764560  0.980750  0.651760  1.0  0.2056
  C  C516  1  0.711310  0.959300  0.645510  1.0  0.0486
  C  C517  1  0.708320  0.902670  0.649220  1.0  -0.0607
  C  C518  1  0.866640  0.981360  0.665240  1.0  -0.3552
  C  C519  1  0.656400  0.988900  0.635800  1.0  -0.3533
  C  C520  1  0.755570  0.064480  0.678970  1.0  0.4825
  C  C521  1  0.757300  0.122340  0.679000  1.0  -0.1112
  C  C522  1  0.764710  0.149270  0.651110  1.0  0.0047
  C  C523  1  0.772890  0.121330  0.623390  1.0  -0.0698
  C  C524  1  0.771950  0.063850  0.623050  1.0  0.488
  C  C525  1  0.751710  0.149790  0.704810  1.0  -0.065
  C  C526  1  0.753500  0.205320  0.704900  1.0  -0.1025
  C  C527  1  0.759900  0.230890  0.678600  1.0  -0.0269
  C  C528  1  0.769020  0.204120  0.652320  1.0  -0.1291
  C  C529  1  0.776370  0.232300  0.623670  1.0  -0.1116
  C  C530  1  0.785170  0.203900  0.596870  1.0  -0.0874
  C  C531  1  0.781060  0.148940  0.597260  1.0  -0.0362
  C  C532  1  0.755390  0.288240  0.679190  1.0  0.4029
  C  C533  1  0.778080  0.289010  0.623780  1.0  0.5617
  C  C534  1  0.766320  0.372440  0.649520  1.0  0.1562
  C  C535  1  0.861540  0.373070  0.677840  1.0  -0.4073
  C  C536  1  0.806380  0.454600  0.662780  1.0  -0.1326
  C  C537  1  0.671340  0.365540  0.622440  1.0  -0.359
  C  C538  1  0.721060  0.451250  0.635960  1.0  -0.0692
  C  C539  1  0.720370  0.396810  0.635870  1.0  0.1104
  C  C540  1  0.810280  0.400090  0.662580  1.0  0.0691
  C  C541  1  0.761080  0.479910  0.648080  1.0  0.0213
  C  C542  1  0.761530  0.538140  0.645630  1.0  0.7057
  C  C543  1  0.145990  0.805850  0.225990  1.0  0.6345
  C  C544  1  0.132430  0.805200  0.107030  1.0  0.6956
  C  C545  1  0.324140  0.809400  0.098840  1.0  0.6717
  C  C546  1  0.352790  0.793100  0.070390  1.0  -0.1123
  C  C547  1  0.350250  0.829900  0.044550  1.0  -0.0762
  C  C548  1  0.376580  0.816400  0.018380  1.0  -0.0008
  C  C549  1  0.400200  0.767000  0.014300  1.0  0.1254
  C  C550  1  0.402790  0.732900  0.037190  1.0  0.0096
  C  C551  1  0.374380  0.742500  0.063680  1.0  -0.1126
  C  C552  1  0.384970  0.863700  0.995570  1.0  -0.3613
  C  C553  1  0.433030  0.673900  0.038730  1.0  -0.3868
  C  C554  1  0.479880  0.766700  0.979680  1.0  0.5484
  C  C555  1  0.503680  0.758300  0.949180  1.0  -0.1442
  C  C556  1  0.464930  0.735200  0.925930  1.0  0.0987
  C  C557  1  0.413800  0.721200  0.934500  1.0  0.0213
  C  C558  1  0.386600  0.729700  0.965600  1.0  0.5432
  C  C559  1  0.556810  0.773900  0.942610  1.0  -0.0793
  C  C560  1  0.575970  0.768200  0.912270  1.0  -0.0206
  C  C561  1  0.540980  0.746400  0.890680  1.0  -0.1349
  C  C562  1  0.485640  0.728600  0.896840  1.0  0.0249
  C  C563  1  0.449670  0.707400  0.874570  1.0  -0.1074
  C  C564  1  0.395840  0.690000  0.880640  1.0  -0.1084
  C  C565  1  0.379900  0.697800  0.913500  1.0  -0.0782
  C  C566  1  0.560590  0.741500  0.859090  1.0  0.4638
  C  C567  1  0.472220  0.699400  0.842420  1.0  0.6064
  C  C568  1  0.551450  0.711080  0.807250  1.0  0.191
  C  C569  1  0.544480  0.750400  0.786180  1.0  0.1073
  C  C570  1  0.577160  0.741160  0.758060  1.0  -0.0744
  C  C571  1  0.610140  0.699380  0.754340  1.0  -0.0702
  C  C572  1  0.611480  0.659960  0.774680  1.0  -0.0834
  C  C573  1  0.580090  0.666280  0.803390  1.0  0.0756
  C  C574  1  0.513210  0.800400  0.791510  1.0  -0.3996
  C  C575  1  0.581670  0.620760  0.826670  1.0  -0.3586
  C  C576  1  0.339280  0.822090  0.224880  1.0  0.6635
  C  C577  1  0.371330  0.815710  0.255130  1.0  -0.0864
  C  C578  1  0.389260  0.764030  0.262660  1.0  -0.0877
  C  C579  1  0.413030  0.754900  0.292930  1.0  0.0668
  C  C580  1  0.418100  0.799080  0.312200  1.0  0.1535
  C  C581  1  0.401620  0.848550  0.303120  1.0  -0.0249
  C  C582  1  0.379670  0.857650  0.274370  1.0  -0.0636
  C  C583  1  0.424110  0.697830  0.302810  1.0  -0.3913
  C  C584  1  0.413570  0.895250  0.325370  1.0  -0.378
  C  C585  1  0.398910  0.772700  0.363010  1.0  0.548
  C  C586  1  0.417410  0.767780  0.395810  1.0  -0.1181
  C  C587  1  0.474020  0.780500  0.403620  1.0  0.0049
  C  C588  1  0.514490  0.794800  0.382290  1.0  -0.1051
  C  C589  1  0.494250  0.800500  0.349050  1.0  0.5674
  C  C590  1  0.376950  0.753800  0.417850  1.0  -0.0311
  C  C591  1  0.393850  0.747000  0.447550  1.0  -0.0635
  C  C592  1  0.449030  0.754900  0.454930  1.0  -0.1045
  C  C593  1  0.492600  0.773400  0.434500  1.0  -0.0281
  C  C594  1  0.549470  0.784400  0.441970  1.0  -0.1047
  C  C595  1  0.588410  0.805600  0.422010  1.0  -0.1091
  C  C596  1  0.569570  0.808400  0.389970  1.0  -0.0437
  C  C597  1  0.470340  0.747700  0.487840  1.0  0.48
  C  C598  1  0.567340  0.780400  0.474040  1.0  0.3059
  C  C599  1  0.548980  0.737000  0.524380  1.0  0.1286
  C  C600  1  0.547000  0.775200  0.547700  1.0  0.0555
  C  C601  1  0.575420  0.759130  0.575820  1.0  -0.0531
  C  C602  1  0.596770  0.709350  0.578670  1.0  -0.1159
  C  C603  1  0.595070  0.675280  0.554270  1.0  -0.0707
  C  C604  1  0.566040  0.687200  0.527340  1.0  0.1615
  C  C605  1  0.525410  0.831900  0.545710  1.0  -0.3784
  C  C606  1  0.562070  0.647700  0.502770  1.0  -0.4238
  C  C607  1  0.247670  0.683750  0.162770  1.0  0.705
  C  C608  1  0.253690  0.626570  0.157590  1.0  -0.1047
  C  C609  1  0.302830  0.601040  0.162130  1.0  -0.0637
  C  C610  1  0.311950  0.545590  0.158750  1.0  0.2043
  C  C611  1  0.264560  0.519250  0.151760  1.0  0.2056
  C  C612  1  0.211310  0.540700  0.145510  1.0  0.0496
  C  C613  1  0.208320  0.597330  0.149220  1.0  -0.061
  C  C614  1  0.366640  0.518640  0.165240  1.0  -0.3548
  C  C615  1  0.156400  0.511100  0.135800  1.0  -0.3534
  C  C616  1  0.255570  0.435520  0.178970  1.0  0.4821
  C  C617  1  0.257300  0.377660  0.179000  1.0  -0.1109
  C  C618  1  0.264710  0.350730  0.151110  1.0  0.0043
  C  C619  1  0.272890  0.378670  0.123390  1.0  -0.0684
  C  C620  1  0.271950  0.436150  0.123050  1.0  0.4874
  C  C621  1  0.251710  0.350210  0.204810  1.0  -0.0654
  C  C622  1  0.253500  0.294680  0.204900  1.0  -0.1019
  C  C623  1  0.259900  0.269110  0.178600  1.0  -0.0278
  C  C624  1  0.269020  0.295880  0.152320  1.0  -0.129
  C  C625  1  0.276370  0.267700  0.123670  1.0  -0.1114
  C  C626  1  0.285170  0.296100  0.096870  1.0  -0.0877
  C  C627  1  0.281060  0.351060  0.097260  1.0  -0.0349
  C  C628  1  0.255390  0.211760  0.179190  1.0  0.403
  C  C629  1  0.278080  0.210990  0.123780  1.0  0.5618
  C  C630  1  0.266320  0.127560  0.149520  1.0  0.1556
  C  C631  1  0.361540  0.126930  0.177840  1.0  -0.406
  C  C632  1  0.306380  0.045400  0.162780  1.0  -0.1333
  C  C633  1  0.171340  0.134460  0.122440  1.0  -0.3583
  C  C634  1  0.221060  0.048750  0.135960  1.0  -0.0671
  C  C635  1  0.220370  0.103190  0.135870  1.0  0.111
  C  C636  1  0.310280  0.099910  0.162580  1.0  0.0696
  C  C637  1  0.261080  0.020090  0.148080  1.0  0.021
  C  C638  1  0.261530  0.961860  0.145630  1.0  0.7056
  C  C639  1  0.645990  0.694150  0.725990  1.0  0.6346
  C  C640  1  0.632430  0.694800  0.607030  1.0  0.6959
  N  N641  1  0.574860  0.247900  0.014460  1.0  -0.1303
  N  N642  1  0.475270  0.280610  0.162670  1.0  -0.213
  N  N643  1  0.561900  0.209700  0.657300  1.0  -0.1004
  N  N644  1  0.472360  0.242440  0.505260  1.0  -0.2469
  N  N645  1  0.734870  0.538420  0.848670  1.0  -0.2691
  N  N646  1  0.731500  0.814870  0.849220  1.0  -0.1527
  N  N647  1  0.074860  0.252100  0.514460  1.0  -0.1301
  N  N648  1  0.975270  0.219390  0.662670  1.0  -0.2127
  N  N649  1  0.061900  0.290300  0.157300  1.0  -0.1006
  N  N650  1  0.972360  0.257560  0.005260  1.0  -0.2468
  N  N651  1  0.234870  0.961580  0.348670  1.0  -0.2693
  N  N652  1  0.231500  0.685130  0.349220  1.0  -0.1534
  N  N653  1  0.925140  0.747900  0.485540  1.0  -0.1304
  N  N654  1  0.024730  0.780610  0.337330  1.0  -0.2131
  N  N655  1  0.938100  0.709700  0.842700  1.0  -0.0983
  N  N656  1  0.027640  0.742440  0.994740  1.0  -0.2478
  N  N657  1  0.765130  0.038420  0.651330  1.0  -0.2688
  N  N658  1  0.768500  0.314870  0.650780  1.0  -0.1528
  N  N659  1  0.425140  0.752100  0.985540  1.0  -0.1301
  N  N660  1  0.524730  0.719390  0.837330  1.0  -0.213
  N  N661  1  0.438100  0.790300  0.342700  1.0  -0.0985
  N  N662  1  0.527640  0.757560  0.494740  1.0  -0.2476
  N  N663  1  0.265130  0.461580  0.151330  1.0  -0.269
  N  N664  1  0.268500  0.185130  0.150780  1.0  -0.1534
  O  O665  1  0.758690  0.176070  0.835840  1.0  -1.256
  O  O666  1  0.663420  0.220610  0.877090  1.0  -0.6233
  O  O667  1  0.707280  0.151600  0.900520  1.0  -0.5723
  O  O668  1  0.488900  0.215800  0.999600  1.0  -0.4859
  O  O669  1  0.664010  0.281000  0.028210  1.0  -0.4621
  O  O670  1  0.390170  0.242620  0.148670  1.0  -0.5477
  O  O671  1  0.557240  0.320600  0.176040  1.0  -0.4207
  O  O672  1  0.652850  0.213620  0.795130  1.0  -0.6325
  O  O673  1  0.688990  0.135870  0.778480  1.0  -0.611
  O  O674  1  0.649820  0.238140  0.644520  1.0  -0.489
  O  O675  1  0.471290  0.186210  0.669790  1.0  -0.4226
  O  O676  1  0.563650  0.268790  0.492250  1.0  -0.4662
  O  O677  1  0.386440  0.215600  0.517440  1.0  -0.3572
  O  O678  1  0.801330  0.295290  0.837530  1.0  -0.6118
  O  O679  1  0.705340  0.291460  0.834060  1.0  -0.6132
  O  O680  1  0.716790  0.537230  0.899290  1.0  -0.4732
  O  O681  1  0.756040  0.538940  0.797680  1.0  -0.5241
  O  O682  1  0.710610  0.815330  0.899130  1.0  -0.5577
  O  O683  1  0.755500  0.814790  0.798560  1.0  -0.4942
  O  O684  1  0.373300  0.277470  0.370150  1.0  -0.5691
  O  O685  1  0.334510  0.345470  0.395610  1.0  -0.6136
  O  O686  1  0.312540  0.337520  0.273060  1.0  -0.6248
  O  O687  1  0.369690  0.278750  0.297840  1.0  -0.6351
  O  O688  1  0.712570  0.064280  0.833080  1.0  -0.6697
  O  O689  1  0.767850  0.059150  0.874480  1.0  -0.5643
  O  O690  1  0.258690  0.323930  0.335840  1.0  -1.2561
  O  O691  1  0.163420  0.279390  0.377090  1.0  -0.6238
  O  O692  1  0.207280  0.348400  0.400520  1.0  -0.5727
  O  O693  1  0.988900  0.284200  0.499600  1.0  -0.486
  O  O694  1  0.164010  0.219000  0.528210  1.0  -0.4631
  O  O695  1  0.890170  0.257380  0.648670  1.0  -0.5481
  O  O696  1  0.057240  0.179400  0.676040  1.0  -0.4155
  O  O697  1  0.152850  0.286380  0.295130  1.0  -0.6338
  O  O698  1  0.188990  0.364130  0.278480  1.0  -0.6091
  O  O699  1  0.149820  0.261860  0.144520  1.0  -0.489
  O  O700  1  0.971290  0.313790  0.169790  1.0  -0.424
  O  O701  1  0.063650  0.231210  0.992250  1.0  -0.4642
  O  O702  1  0.886440  0.284400  0.017440  1.0  -0.3576
  O  O703  1  0.301330  0.204710  0.337530  1.0  -0.6117
  O  O704  1  0.205340  0.208540  0.334060  1.0  -0.6129
  O  O705  1  0.216790  0.962770  0.399290  1.0  -0.4737
  O  O706  1  0.256040  0.961060  0.297680  1.0  -0.5246
  O  O707  1  0.210610  0.684670  0.399130  1.0  -0.5586
  O  O708  1  0.255500  0.685210  0.298560  1.0  -0.4942
  O  O709  1  0.873300  0.222530  0.870150  1.0  -0.5695
  O  O710  1  0.834510  0.154530  0.895610  1.0  -0.615
  O  O711  1  0.812540  0.162480  0.773060  1.0  -0.6235
  O  O712  1  0.869690  0.221250  0.797840  1.0  -0.6345
  O  O713  1  0.212570  0.435720  0.333080  1.0  -0.6701
  O  O714  1  0.267850  0.440850  0.374480  1.0  -0.5652
  O  O715  1  0.741310  0.676070  0.664160  1.0  -1.257
  O  O716  1  0.836580  0.720610  0.622910  1.0  -0.621
  O  O717  1  0.792720  0.651600  0.599480  1.0  -0.5723
  O  O718  1  0.011100  0.715800  0.500400  1.0  -0.4882
  O  O719  1  0.835990  0.781000  0.471790  1.0  -0.4626
  O  O720  1  0.109830  0.742620  0.351330  1.0  -0.5483
  O  O721  1  0.942760  0.820600  0.323960  1.0  -0.4161
  O  O722  1  0.847150  0.713620  0.704870  1.0  -0.6328
  O  O723  1  0.811010  0.635870  0.721520  1.0  -0.6107
  O  O724  1  0.850180  0.738140  0.855480  1.0  -0.4896
  O  O725  1  0.028710  0.686210  0.830210  1.0  -0.4235
  O  O726  1  0.936350  0.768790  0.007750  1.0  -0.4622
  O  O727  1  0.113560  0.715600  0.982560  1.0  -0.3563
  O  O728  1  0.698670  0.795290  0.662470  1.0  -0.6115
  O  O729  1  0.794660  0.791460  0.665940  1.0  -0.6128
  O  O730  1  0.783210  0.037230  0.600710  1.0  -0.4731
  O  O731  1  0.743960  0.038940  0.702320  1.0  -0.5254
  O  O732  1  0.789390  0.315330  0.600870  1.0  -0.5537
  O  O733  1  0.744500  0.314790  0.701440  1.0  -0.4962
  O  O734  1  0.126700  0.777470  0.129850  1.0  -0.5707
  O  O735  1  0.165490  0.845470  0.104390  1.0  -0.6146
  O  O736  1  0.187460  0.837520  0.226940  1.0  -0.6254
  O  O737  1  0.130310  0.778750  0.202160  1.0  -0.6359
  O  O738  1  0.787430  0.564280  0.666920  1.0  -0.6689
  O  O739  1  0.732150  0.559150  0.625520  1.0  -0.5639
  O  O740  1  0.241310  0.823930  0.164160  1.0  -1.2572
  O  O741  1  0.336580  0.779390  0.122910  1.0  -0.6211
  O  O742  1  0.292720  0.848400  0.099480  1.0  -0.5721
  O  O743  1  0.511100  0.784200  0.000400  1.0  -0.4886
  O  O744  1  0.335990  0.719000  0.971790  1.0  -0.4613
  O  O745  1  0.609830  0.757380  0.851330  1.0  -0.549
  O  O746  1  0.442760  0.679400  0.823960  1.0  -0.4207
  O  O747  1  0.347150  0.786380  0.204870  1.0  -0.6338
  O  O748  1  0.311010  0.864130  0.221520  1.0  -0.6084
  O  O749  1  0.350180  0.761860  0.355480  1.0  -0.4894
  O  O750  1  0.528710  0.813790  0.330210  1.0  -0.4235
  O  O751  1  0.436350  0.731210  0.507750  1.0  -0.4631
  O  O752  1  0.613560  0.784400  0.482560  1.0  -0.3557
  O  O753  1  0.198670  0.704710  0.162470  1.0  -0.6112
  O  O754  1  0.294660  0.708540  0.165940  1.0  -0.6129
  O  O755  1  0.283210  0.462770  0.100710  1.0  -0.4724
  O  O756  1  0.243960  0.461060  0.202320  1.0  -0.5255
  O  O757  1  0.289390  0.184670  0.100870  1.0  -0.5557
  O  O758  1  0.244500  0.185210  0.201440  1.0  -0.496
  O  O759  1  0.626700  0.722530  0.629850  1.0  -0.57
  O  O760  1  0.665490  0.654530  0.604390  1.0  -0.6157
  O  O761  1  0.687460  0.662480  0.726940  1.0  -0.6247
  O  O762  1  0.630310  0.721250  0.702160  1.0  -0.6357
  O  O763  1  0.287430  0.935720  0.166920  1.0  -0.6694
  O  O764  1  0.232150  0.940850  0.125520  1.0  -0.5648
