# generated using pymatgen
data_Cu2H24C39(NO2)4
_symmetry_space_group_name_H-M   'P 1'
_cell_length_a   37.44100000
_cell_length_b   37.44900000
_cell_length_c   27.25000000
_cell_angle_alpha   90.00000000
_cell_angle_beta   90.00000000
_cell_angle_gamma   90.00000000
_symmetry_Int_Tables_number   1
_chemical_formula_structural   Cu2H24C39(NO2)4
_chemical_formula_sum   'Cu32 H384 C624 N64 O128'
_cell_volume   38207.98824525
_cell_formula_units_Z   16
loop_
 _symmetry_equiv_pos_site_id
 _symmetry_equiv_pos_as_xyz
  1  'x, y, z'
loop_
 _atom_site_type_symbol
 _atom_site_label
 _atom_site_symmetry_multiplicity
 _atom_site_fract_x
 _atom_site_fract_y
 _atom_site_fract_z
 _atom_site_occupancy
 _atom_site_charge
  Cu  Cu1  1  0.001020  0.003350  0.149580  1.0  0.8926
  Cu  Cu2  1  0.990890  0.997950  0.246130  1.0  0.8543
  Cu  Cu3  1  0.238560  0.283670  0.039990  1.0  0.8689
  Cu  Cu4  1  0.283400  0.761090  0.030720  1.0  0.9013
  Cu  Cu5  1  0.498980  0.496650  0.149580  1.0  0.8934
  Cu  Cu6  1  0.509110  0.502050  0.246130  1.0  0.8541
  Cu  Cu7  1  0.261440  0.216330  0.039990  1.0  0.8678
  Cu  Cu8  1  0.216600  0.738910  0.030720  1.0  0.8993
  Cu  Cu9  1  0.998980  0.503350  0.350420  1.0  0.8924
  Cu  Cu10  1  0.009110  0.497950  0.253870  1.0  0.8551
  Cu  Cu11  1  0.761440  0.783670  0.460010  1.0  0.8678
  Cu  Cu12  1  0.716600  0.261090  0.469280  1.0  0.9
  Cu  Cu13  1  0.501020  0.996650  0.350420  1.0  0.8933
  Cu  Cu14  1  0.490890  0.002050  0.253870  1.0  0.8553
  Cu  Cu15  1  0.738560  0.716330  0.460010  1.0  0.8688
  Cu  Cu16  1  0.783400  0.238910  0.469280  1.0  0.9
  Cu  Cu17  1  0.998980  0.996650  0.850420  1.0  0.8927
  Cu  Cu18  1  0.009110  0.002050  0.753870  1.0  0.8551
  Cu  Cu19  1  0.761440  0.716330  0.960010  1.0  0.8676
  Cu  Cu20  1  0.716600  0.238910  0.969280  1.0  0.8993
  Cu  Cu21  1  0.501020  0.503350  0.850420  1.0  0.893
  Cu  Cu22  1  0.490890  0.497950  0.753870  1.0  0.8553
  Cu  Cu23  1  0.738560  0.783670  0.960010  1.0  0.8689
  Cu  Cu24  1  0.783400  0.261090  0.969280  1.0  0.9011
  Cu  Cu25  1  0.001020  0.496650  0.649580  1.0  0.8924
  Cu  Cu26  1  0.990890  0.502050  0.746130  1.0  0.8543
  Cu  Cu27  1  0.238560  0.216330  0.539990  1.0  0.869
  Cu  Cu28  1  0.283400  0.738910  0.530720  1.0  0.9003
  Cu  Cu29  1  0.498980  0.003350  0.649580  1.0  0.8937
  Cu  Cu30  1  0.509110  0.997950  0.746130  1.0  0.8541
  Cu  Cu31  1  0.261440  0.283670  0.539990  1.0  0.8679
  Cu  Cu32  1  0.216600  0.761090  0.530720  1.0  0.8999
  H  H33  1  0.116400  0.248700  0.287300  1.0  0.1176
  H  H34  1  0.082200  0.157900  0.156800  1.0  0.1145
  H  H35  1  0.055600  0.103500  0.147300  1.0  0.1128
  H  H36  1  0.099700  0.945300  0.141300  1.0  0.1011
  H  H37  1  0.157500  0.923600  0.146100  1.0  0.1358
  H  H38  1  0.246100  0.883900  0.279000  1.0  0.115
  H  H39  1  0.285200  0.976900  0.327500  1.0  0.1335
  H  H40  1  0.240700  0.006700  0.287500  1.0  0.1108
  H  H41  1  0.201400  0.975500  0.237000  1.0  0.1205
  H  H42  1  0.253600  0.897300  0.180100  1.0  0.1084
  H  H43  1  0.271600  0.852000  0.128900  1.0  0.119
  H  H44  1  0.173500  0.807400  0.143100  1.0  0.1082
  H  H45  1  0.157800  0.852800  0.196900  1.0  0.1206
  H  H46  1  0.149500  0.926700  0.292700  1.0  0.1264
  H  H47  1  0.093400  0.951800  0.285700  1.0  0.1076
  H  H48  1  0.402400  0.943100  0.391900  1.0  0.1104
  H  H49  1  0.345700  0.920000  0.399400  1.0  0.1231
  H  H50  1  0.331400  0.929600  0.254900  1.0  0.1174
  H  H51  1  0.387600  0.952300  0.246600  1.0  0.116
  H  H52  1  0.239200  0.895400  0.380900  1.0  0.1056
  H  H53  1  0.224300  0.852000  0.431100  1.0  0.1182
  H  H54  1  0.323400  0.809700  0.416100  1.0  0.1098
  H  H55  1  0.335900  0.854100  0.358800  1.0  0.1268
  H  H56  1  0.041200  0.097600  0.293000  1.0  0.1084
  H  H57  1  0.067200  0.153700  0.301200  1.0  0.12
  H  H58  1  0.147900  0.161000  0.208700  1.0  0.1212
  H  H59  1  0.192400  0.176500  0.155000  1.0  0.1145
  H  H60  1  0.149100  0.272200  0.138300  1.0  0.1037
  H  H61  1  0.102300  0.256800  0.186900  1.0  0.1198
  H  H62  1  0.023400  0.205700  0.249100  1.0  0.1208
  H  H63  1  0.994100  0.250200  0.291900  1.0  0.1007
  H  H64  1  0.024400  0.291500  0.334900  1.0  0.1379
  H  H65  1  0.079200  0.337400  0.262200  1.0  0.1173
  H  H66  1  0.053300  0.392900  0.252400  1.0  0.112
  H  H67  1  0.054400  0.406600  0.399100  1.0  0.109
  H  H68  1  0.080300  0.350100  0.408300  1.0  0.1213
  H  H69  1  0.146200  0.340500  0.372900  1.0  0.1194
  H  H70  1  0.191900  0.325900  0.423400  1.0  0.1148
  H  H71  1  0.152100  0.229200  0.441500  1.0  0.0976
  H  H72  1  0.104600  0.243200  0.390000  1.0  0.1255
  H  H73  1  0.013100  0.014000  0.364600  1.0  0.118
  H  H74  1  0.924900  0.956200  0.400500  1.0  0.1354
  H  H75  1  0.928700  0.959100  0.308500  1.0  0.1297
  H  H76  1  0.180500  0.338200  0.097900  1.0  0.1356
  H  H77  1  0.198100  0.413100  0.992500  1.0  0.1407
  H  H78  1  0.241300  0.362700  0.978900  1.0  0.145
  H  H79  1  0.942000  0.985100  0.484000  1.0  0.1028
  H  H80  1  0.040700  0.005800  0.437400  1.0  0.124
  H  H81  1  0.383600  0.251300  0.287300  1.0  0.1179
  H  H82  1  0.417800  0.342100  0.156800  1.0  0.1144
  H  H83  1  0.444400  0.396500  0.147300  1.0  0.1128
  H  H84  1  0.400300  0.554700  0.141300  1.0  0.1011
  H  H85  1  0.342500  0.576400  0.146100  1.0  0.1355
  H  H86  1  0.253900  0.616100  0.279000  1.0  0.1137
  H  H87  1  0.214800  0.523100  0.327500  1.0  0.135
  H  H88  1  0.259300  0.493300  0.287500  1.0  0.1162
  H  H89  1  0.298600  0.524500  0.237000  1.0  0.1202
  H  H90  1  0.246400  0.602700  0.180100  1.0  0.1079
  H  H91  1  0.228400  0.648000  0.128900  1.0  0.1193
  H  H92  1  0.326500  0.692600  0.143100  1.0  0.1089
  H  H93  1  0.342200  0.647200  0.196900  1.0  0.1197
  H  H94  1  0.350500  0.573300  0.292700  1.0  0.1259
  H  H95  1  0.406600  0.548200  0.285700  1.0  0.1078
  H  H96  1  0.097600  0.556900  0.391900  1.0  0.1103
  H  H97  1  0.154300  0.580000  0.399400  1.0  0.1238
  H  H98  1  0.168600  0.570400  0.254900  1.0  0.1176
  H  H99  1  0.112400  0.547700  0.246600  1.0  0.1159
  H  H100  1  0.260800  0.604600  0.380900  1.0  0.106
  H  H101  1  0.275700  0.648000  0.431100  1.0  0.1175
  H  H102  1  0.176600  0.690300  0.416100  1.0  0.1097
  H  H103  1  0.164100  0.645900  0.358800  1.0  0.126
  H  H104  1  0.458800  0.402400  0.293000  1.0  0.1072
  H  H105  1  0.432800  0.346300  0.301200  1.0  0.1199
  H  H106  1  0.352100  0.339000  0.208700  1.0  0.1208
  H  H107  1  0.307600  0.323500  0.155000  1.0  0.1147
  H  H108  1  0.350900  0.227800  0.138300  1.0  0.1038
  H  H109  1  0.397700  0.243200  0.186900  1.0  0.1176
  H  H110  1  0.476600  0.294300  0.249100  1.0  0.1211
  H  H111  1  0.505900  0.249800  0.291900  1.0  0.1077
  H  H112  1  0.475600  0.208500  0.334900  1.0  0.1375
  H  H113  1  0.420800  0.162600  0.262200  1.0  0.1168
  H  H114  1  0.446700  0.107100  0.252400  1.0  0.1119
  H  H115  1  0.445600  0.093400  0.399100  1.0  0.1093
  H  H116  1  0.419700  0.149900  0.408300  1.0  0.121
  H  H117  1  0.353800  0.159500  0.372900  1.0  0.1191
  H  H118  1  0.308100  0.174100  0.423400  1.0  0.1141
  H  H119  1  0.347900  0.270800  0.441500  1.0  0.0972
  H  H120  1  0.395400  0.256800  0.390000  1.0  0.1242
  H  H121  1  0.486900  0.486000  0.364600  1.0  0.1182
  H  H122  1  0.575100  0.543800  0.400500  1.0  0.1349
  H  H123  1  0.571300  0.540900  0.308500  1.0  0.13
  H  H124  1  0.319500  0.161800  0.097900  1.0  0.1354
  H  H125  1  0.301900  0.086900  0.992500  1.0  0.1402
  H  H126  1  0.258700  0.137300  0.978900  1.0  0.1453
  H  H127  1  0.558000  0.514900  0.484000  1.0  0.1034
  H  H128  1  0.459300  0.494200  0.437400  1.0  0.1236
  H  H129  1  0.883600  0.748700  0.212700  1.0  0.1179
  H  H130  1  0.917800  0.657900  0.343200  1.0  0.1139
  H  H131  1  0.944400  0.603500  0.352700  1.0  0.1127
  H  H132  1  0.900300  0.445300  0.358700  1.0  0.1012
  H  H133  1  0.842500  0.423600  0.353900  1.0  0.1352
  H  H134  1  0.753900  0.383900  0.221000  1.0  0.115
  H  H135  1  0.714800  0.476900  0.172500  1.0  0.135
  H  H136  1  0.759300  0.506700  0.212500  1.0  0.1109
  H  H137  1  0.798600  0.475500  0.263000  1.0  0.1203
  H  H138  1  0.746400  0.397300  0.319900  1.0  0.1081
  H  H139  1  0.728400  0.352000  0.371100  1.0  0.1194
  H  H140  1  0.826500  0.307400  0.356900  1.0  0.1082
  H  H141  1  0.842200  0.352800  0.303100  1.0  0.12
  H  H142  1  0.850500  0.426700  0.207300  1.0  0.1265
  H  H143  1  0.906600  0.451800  0.214300  1.0  0.1075
  H  H144  1  0.597600  0.443100  0.108100  1.0  0.1104
  H  H145  1  0.654300  0.420000  0.100600  1.0  0.124
  H  H146  1  0.668600  0.429600  0.245100  1.0  0.118
  H  H147  1  0.612400  0.452300  0.253400  1.0  0.116
  H  H148  1  0.760800  0.395400  0.119100  1.0  0.1063
  H  H149  1  0.775700  0.352000  0.068900  1.0  0.1167
  H  H150  1  0.676600  0.309700  0.083900  1.0  0.1095
  H  H151  1  0.664100  0.354100  0.141200  1.0  0.1262
  H  H152  1  0.958800  0.597600  0.207000  1.0  0.1087
  H  H153  1  0.932800  0.653700  0.198800  1.0  0.1198
  H  H154  1  0.852100  0.661000  0.291300  1.0  0.1208
  H  H155  1  0.807600  0.676500  0.345000  1.0  0.1141
  H  H156  1  0.850900  0.772200  0.361700  1.0  0.1031
  H  H157  1  0.897700  0.756800  0.313100  1.0  0.119
  H  H158  1  0.976600  0.705700  0.250900  1.0  0.1213
  H  H159  1  0.005900  0.750200  0.208100  1.0  0.1078
  H  H160  1  0.975600  0.791500  0.165100  1.0  0.1348
  H  H161  1  0.920800  0.837400  0.237800  1.0  0.117
  H  H162  1  0.946700  0.892900  0.247600  1.0  0.1128
  H  H163  1  0.945600  0.906600  0.100900  1.0  0.1088
  H  H164  1  0.919700  0.850100  0.091700  1.0  0.1198
  H  H165  1  0.853800  0.840500  0.127100  1.0  0.1189
  H  H166  1  0.808100  0.825900  0.076600  1.0  0.1153
  H  H167  1  0.847900  0.729200  0.058500  1.0  0.0978
  H  H168  1  0.895400  0.743200  0.110000  1.0  0.1254
  H  H169  1  0.986900  0.514000  0.135400  1.0  0.1175
  H  H170  1  0.075100  0.456200  0.099500  1.0  0.1342
  H  H171  1  0.071300  0.459100  0.191500  1.0  0.1306
  H  H172  1  0.819500  0.838200  0.402100  1.0  0.1347
  H  H173  1  0.801900  0.913100  0.507500  1.0  0.1414
  H  H174  1  0.758700  0.862700  0.521100  1.0  0.1463
  H  H175  1  0.058000  0.485100  0.016000  1.0  0.1031
  H  H176  1  0.959300  0.505800  0.062600  1.0  0.1241
  H  H177  1  0.616400  0.751300  0.212700  1.0  0.1177
  H  H178  1  0.582200  0.842100  0.343200  1.0  0.1144
  H  H179  1  0.555600  0.896500  0.352700  1.0  0.1123
  H  H180  1  0.599700  0.054700  0.358700  1.0  0.1011
  H  H181  1  0.657500  0.076400  0.353900  1.0  0.1363
  H  H182  1  0.746100  0.116100  0.221000  1.0  0.1138
  H  H183  1  0.785200  0.023100  0.172500  1.0  0.134
  H  H184  1  0.740700  0.993300  0.212500  1.0  0.1157
  H  H185  1  0.701400  0.024500  0.263000  1.0  0.1203
  H  H186  1  0.753600  0.102700  0.319900  1.0  0.1082
  H  H187  1  0.771600  0.148000  0.371100  1.0  0.1194
  H  H188  1  0.673500  0.192600  0.356900  1.0  0.1085
  H  H189  1  0.657800  0.147200  0.303100  1.0  0.1206
  H  H190  1  0.649500  0.073300  0.207300  1.0  0.1263
  H  H191  1  0.593400  0.048200  0.214300  1.0  0.1075
  H  H192  1  0.902400  0.056900  0.108100  1.0  0.1095
  H  H193  1  0.845700  0.080000  0.100600  1.0  0.1236
  H  H194  1  0.831400  0.070400  0.245100  1.0  0.1172
  H  H195  1  0.887600  0.047700  0.253400  1.0  0.1161
  H  H196  1  0.739200  0.104600  0.119100  1.0  0.105
  H  H197  1  0.724300  0.148000  0.068900  1.0  0.1178
  H  H198  1  0.823400  0.190300  0.083900  1.0  0.1105
  H  H199  1  0.835900  0.145900  0.141200  1.0  0.1263
  H  H200  1  0.541200  0.902400  0.207000  1.0  0.1073
  H  H201  1  0.567200  0.846300  0.198800  1.0  0.1194
  H  H202  1  0.647900  0.839000  0.291300  1.0  0.1212
  H  H203  1  0.692400  0.823500  0.345000  1.0  0.1148
  H  H204  1  0.649100  0.727800  0.361700  1.0  0.1036
  H  H205  1  0.602300  0.743200  0.313100  1.0  0.1181
  H  H206  1  0.523400  0.794300  0.250900  1.0  0.1216
  H  H207  1  0.494100  0.749800  0.208100  1.0  0.1007
  H  H208  1  0.524400  0.708500  0.165100  1.0  0.1372
  H  H209  1  0.579200  0.662600  0.237800  1.0  0.117
  H  H210  1  0.553300  0.607100  0.247600  1.0  0.1126
  H  H211  1  0.554400  0.593400  0.100900  1.0  0.1087
  H  H212  1  0.580300  0.649900  0.091700  1.0  0.1221
  H  H213  1  0.646200  0.659500  0.127100  1.0  0.1192
  H  H214  1  0.691900  0.674100  0.076600  1.0  0.1149
  H  H215  1  0.652100  0.770800  0.058500  1.0  0.0976
  H  H216  1  0.604600  0.756800  0.110000  1.0  0.1254
  H  H217  1  0.513100  0.986000  0.135400  1.0  0.1171
  H  H218  1  0.424900  0.043800  0.099500  1.0  0.135
  H  H219  1  0.428700  0.040900  0.191500  1.0  0.1305
  H  H220  1  0.680500  0.661800  0.402100  1.0  0.135
  H  H221  1  0.698100  0.586900  0.507500  1.0  0.1423
  H  H222  1  0.741300  0.637300  0.521100  1.0  0.1463
  H  H223  1  0.442000  0.014900  0.016000  1.0  0.1023
  H  H224  1  0.540700  0.994200  0.062600  1.0  0.1246
  H  H225  1  0.883600  0.751300  0.712700  1.0  0.118
  H  H226  1  0.917800  0.842100  0.843200  1.0  0.114
  H  H227  1  0.944400  0.896500  0.852700  1.0  0.1126
  H  H228  1  0.900300  0.054700  0.858700  1.0  0.1011
  H  H229  1  0.842500  0.076400  0.853900  1.0  0.1357
  H  H230  1  0.753900  0.116100  0.721000  1.0  0.1137
  H  H231  1  0.714800  0.023100  0.672500  1.0  0.1339
  H  H232  1  0.759300  0.993300  0.712500  1.0  0.1157
  H  H233  1  0.798600  0.024500  0.763000  1.0  0.1208
  H  H234  1  0.746400  0.102700  0.819900  1.0  0.108
  H  H235  1  0.728400  0.148000  0.871100  1.0  0.1197
  H  H236  1  0.826500  0.192600  0.856900  1.0  0.1087
  H  H237  1  0.842200  0.147200  0.803100  1.0  0.1201
  H  H238  1  0.850500  0.073300  0.707300  1.0  0.1265
  H  H239  1  0.906600  0.048200  0.714300  1.0  0.1076
  H  H240  1  0.597600  0.056900  0.608100  1.0  0.1101
  H  H241  1  0.654300  0.080000  0.600600  1.0  0.1239
  H  H242  1  0.668600  0.070400  0.745100  1.0  0.1177
  H  H243  1  0.612400  0.047700  0.753400  1.0  0.116
  H  H244  1  0.760800  0.104600  0.619100  1.0  0.1058
  H  H245  1  0.775700  0.148000  0.568900  1.0  0.1174
  H  H246  1  0.676600  0.190300  0.583900  1.0  0.1098
  H  H247  1  0.664100  0.145900  0.641200  1.0  0.1254
  H  H248  1  0.958800  0.902400  0.707000  1.0  0.1088
  H  H249  1  0.932800  0.846300  0.698800  1.0  0.1198
  H  H250  1  0.852100  0.839000  0.791300  1.0  0.1209
  H  H251  1  0.807600  0.823500  0.845000  1.0  0.1148
  H  H252  1  0.850900  0.727800  0.861700  1.0  0.1035
  H  H253  1  0.897700  0.743200  0.813100  1.0  0.1193
  H  H254  1  0.976600  0.794300  0.750900  1.0  0.1209
  H  H255  1  0.005900  0.749800  0.708100  1.0  0.1078
  H  H256  1  0.975600  0.708500  0.665100  1.0  0.137
  H  H257  1  0.920800  0.662600  0.737800  1.0  0.1171
  H  H258  1  0.946700  0.607100  0.747600  1.0  0.1126
  H  H259  1  0.945600  0.593400  0.600900  1.0  0.1086
  H  H260  1  0.919700  0.649900  0.591700  1.0  0.1219
  H  H261  1  0.853800  0.659500  0.627100  1.0  0.1193
  H  H262  1  0.808100  0.674100  0.576600  1.0  0.1145
  H  H263  1  0.847900  0.770800  0.558500  1.0  0.0975
  H  H264  1  0.895400  0.756800  0.610000  1.0  0.125
  H  H265  1  0.986900  0.986000  0.635400  1.0  0.1177
  H  H266  1  0.075100  0.043800  0.599500  1.0  0.1349
  H  H267  1  0.071300  0.040900  0.691500  1.0  0.1306
  H  H268  1  0.819500  0.661800  0.902100  1.0  0.135
  H  H269  1  0.801900  0.586900  0.007500  1.0  0.1421
  H  H270  1  0.758700  0.637300  0.021100  1.0  0.1461
  H  H271  1  0.058000  0.014900  0.516000  1.0  0.103
  H  H272  1  0.959300  0.994200  0.562600  1.0  0.1241
  H  H273  1  0.616400  0.748700  0.712700  1.0  0.1176
  H  H274  1  0.582200  0.657900  0.843200  1.0  0.1143
  H  H275  1  0.555600  0.603500  0.852700  1.0  0.1126
  H  H276  1  0.599700  0.445300  0.858700  1.0  0.1011
  H  H277  1  0.657500  0.423600  0.853900  1.0  0.1357
  H  H278  1  0.746100  0.383900  0.721000  1.0  0.1151
  H  H279  1  0.785200  0.476900  0.672500  1.0  0.1346
  H  H280  1  0.740700  0.506700  0.712500  1.0  0.1108
  H  H281  1  0.701400  0.475500  0.763000  1.0  0.1202
  H  H282  1  0.753600  0.397300  0.819900  1.0  0.1082
  H  H283  1  0.771600  0.352000  0.871100  1.0  0.119
  H  H284  1  0.673500  0.307400  0.856900  1.0  0.1079
  H  H285  1  0.657800  0.352800  0.803100  1.0  0.1208
  H  H286  1  0.649500  0.426700  0.707300  1.0  0.1264
  H  H287  1  0.593400  0.451800  0.714300  1.0  0.1075
  H  H288  1  0.902400  0.443100  0.608100  1.0  0.1104
  H  H289  1  0.845700  0.420000  0.600600  1.0  0.1238
  H  H290  1  0.831400  0.429600  0.745100  1.0  0.1174
  H  H291  1  0.887600  0.452300  0.753400  1.0  0.1161
  H  H292  1  0.739200  0.395400  0.619100  1.0  0.1058
  H  H293  1  0.724300  0.352000  0.568900  1.0  0.1179
  H  H294  1  0.823400  0.309700  0.583900  1.0  0.1101
  H  H295  1  0.835900  0.354100  0.641200  1.0  0.1267
  H  H296  1  0.541200  0.597600  0.707000  1.0  0.1072
  H  H297  1  0.567200  0.653700  0.698800  1.0  0.1195
  H  H298  1  0.647900  0.661000  0.791300  1.0  0.1214
  H  H299  1  0.692400  0.676500  0.845000  1.0  0.1145
  H  H300  1  0.649100  0.772200  0.861700  1.0  0.1034
  H  H301  1  0.602300  0.756800  0.813100  1.0  0.1182
  H  H302  1  0.523400  0.705700  0.750900  1.0  0.1216
  H  H303  1  0.494100  0.750200  0.708100  1.0  0.1007
  H  H304  1  0.524400  0.791500  0.665100  1.0  0.1375
  H  H305  1  0.579200  0.837400  0.737800  1.0  0.1168
  H  H306  1  0.553300  0.892900  0.747600  1.0  0.1128
  H  H307  1  0.554400  0.906600  0.600900  1.0  0.1086
  H  H308  1  0.580300  0.850100  0.591700  1.0  0.1222
  H  H309  1  0.646200  0.840500  0.627100  1.0  0.1188
  H  H310  1  0.691900  0.825900  0.576600  1.0  0.115
  H  H311  1  0.652100  0.729200  0.558500  1.0  0.0976
  H  H312  1  0.604600  0.743200  0.610000  1.0  0.1249
  H  H313  1  0.513100  0.514000  0.635400  1.0  0.1175
  H  H314  1  0.424900  0.456200  0.599500  1.0  0.1344
  H  H315  1  0.428700  0.459100  0.691500  1.0  0.1306
  H  H316  1  0.680500  0.838200  0.902100  1.0  0.1349
  H  H317  1  0.698100  0.913100  0.007500  1.0  0.1415
  H  H318  1  0.741300  0.862700  0.021100  1.0  0.1462
  H  H319  1  0.442000  0.485100  0.516000  1.0  0.1024
  H  H320  1  0.540700  0.505800  0.562600  1.0  0.1245
  H  H321  1  0.116400  0.251300  0.787300  1.0  0.1176
  H  H322  1  0.082200  0.342100  0.656800  1.0  0.1146
  H  H323  1  0.055600  0.396500  0.647300  1.0  0.1129
  H  H324  1  0.099700  0.554700  0.641300  1.0  0.101
  H  H325  1  0.157500  0.576400  0.646100  1.0  0.1359
  H  H326  1  0.246100  0.616100  0.779000  1.0  0.1138
  H  H327  1  0.285200  0.523100  0.827500  1.0  0.1347
  H  H328  1  0.240700  0.493300  0.787500  1.0  0.116
  H  H329  1  0.201400  0.524500  0.737000  1.0  0.1196
  H  H330  1  0.253600  0.602700  0.680100  1.0  0.1079
  H  H331  1  0.271600  0.648000  0.628900  1.0  0.1191
  H  H332  1  0.173500  0.692600  0.643100  1.0  0.1087
  H  H333  1  0.157800  0.647200  0.696900  1.0  0.12
  H  H334  1  0.149500  0.573300  0.792700  1.0  0.1264
  H  H335  1  0.093400  0.548200  0.785700  1.0  0.1076
  H  H336  1  0.402400  0.556900  0.891900  1.0  0.1104
  H  H337  1  0.345700  0.580000  0.899400  1.0  0.1232
  H  H338  1  0.331400  0.570400  0.754900  1.0  0.1175
  H  H339  1  0.387600  0.547700  0.746600  1.0  0.1158
  H  H340  1  0.239200  0.604600  0.880900  1.0  0.1054
  H  H341  1  0.224300  0.648000  0.931100  1.0  0.1173
  H  H342  1  0.323400  0.690300  0.916100  1.0  0.1098
  H  H343  1  0.335900  0.645900  0.858800  1.0  0.1267
  H  H344  1  0.041200  0.402400  0.793000  1.0  0.1085
  H  H345  1  0.067200  0.346300  0.801200  1.0  0.12
  H  H346  1  0.147900  0.339000  0.708700  1.0  0.1206
  H  H347  1  0.192400  0.323500  0.655000  1.0  0.1148
  H  H348  1  0.149100  0.227800  0.638300  1.0  0.1036
  H  H349  1  0.102300  0.243200  0.686900  1.0  0.1193
  H  H350  1  0.023400  0.294300  0.749100  1.0  0.1214
  H  H351  1  0.994100  0.249800  0.791900  1.0  0.1007
  H  H352  1  0.024400  0.208500  0.834900  1.0  0.1357
  H  H353  1  0.079200  0.162600  0.762200  1.0  0.117
  H  H354  1  0.053300  0.107100  0.752400  1.0  0.112
  H  H355  1  0.054400  0.093400  0.899100  1.0  0.1094
  H  H356  1  0.080300  0.149900  0.908300  1.0  0.1196
  H  H357  1  0.146200  0.159500  0.872900  1.0  0.1196
  H  H358  1  0.191900  0.174100  0.923400  1.0  0.1145
  H  H359  1  0.152100  0.270800  0.941500  1.0  0.0973
  H  H360  1  0.104600  0.256800  0.890000  1.0  0.126
  H  H361  1  0.013100  0.486000  0.864600  1.0  0.1173
  H  H362  1  0.924900  0.543800  0.900500  1.0  0.1356
  H  H363  1  0.928700  0.540900  0.808500  1.0  0.1302
  H  H364  1  0.180500  0.161800  0.597900  1.0  0.1358
  H  H365  1  0.198100  0.086900  0.492500  1.0  0.1405
  H  H366  1  0.241300  0.137300  0.478900  1.0  0.1454
  H  H367  1  0.942000  0.514900  0.984000  1.0  0.1025
  H  H368  1  0.040700  0.494200  0.937400  1.0  0.124
  H  H369  1  0.383600  0.248700  0.787300  1.0  0.1178
  H  H370  1  0.417800  0.157900  0.656800  1.0  0.1145
  H  H371  1  0.444400  0.103500  0.647300  1.0  0.1127
  H  H372  1  0.400300  0.945300  0.641300  1.0  0.1013
  H  H373  1  0.342500  0.923600  0.646100  1.0  0.1356
  H  H374  1  0.253900  0.883900  0.779000  1.0  0.115
  H  H375  1  0.214800  0.976900  0.827500  1.0  0.1337
  H  H376  1  0.259300  0.006700  0.787500  1.0  0.111
  H  H377  1  0.298600  0.975500  0.737000  1.0  0.1207
  H  H378  1  0.246400  0.897300  0.680100  1.0  0.1085
  H  H379  1  0.228400  0.852000  0.628900  1.0  0.1193
  H  H380  1  0.326500  0.807400  0.643100  1.0  0.1086
  H  H381  1  0.342200  0.852800  0.696900  1.0  0.1198
  H  H382  1  0.350500  0.926700  0.792700  1.0  0.1259
  H  H383  1  0.406600  0.951800  0.785700  1.0  0.1078
  H  H384  1  0.097600  0.943100  0.891900  1.0  0.1095
  H  H385  1  0.154300  0.920000  0.899400  1.0  0.1237
  H  H386  1  0.168600  0.929600  0.754900  1.0  0.1176
  H  H387  1  0.112400  0.952300  0.746600  1.0  0.1162
  H  H388  1  0.260800  0.895400  0.880900  1.0  0.1056
  H  H389  1  0.275700  0.852000  0.931100  1.0  0.1176
  H  H390  1  0.176600  0.809700  0.916100  1.0  0.1096
  H  H391  1  0.164100  0.854100  0.858800  1.0  0.1263
  H  H392  1  0.458800  0.097600  0.793000  1.0  0.107
  H  H393  1  0.432800  0.153700  0.801200  1.0  0.1199
  H  H394  1  0.352100  0.161000  0.708700  1.0  0.1211
  H  H395  1  0.307600  0.176500  0.655000  1.0  0.1141
  H  H396  1  0.350900  0.272200  0.638300  1.0  0.1035
  H  H397  1  0.397700  0.256800  0.686900  1.0  0.1176
  H  H398  1  0.476600  0.205700  0.749100  1.0  0.121
  H  H399  1  0.505900  0.250200  0.791900  1.0  0.1077
  H  H400  1  0.475600  0.291500  0.834900  1.0  0.1369
  H  H401  1  0.420800  0.337400  0.762200  1.0  0.1171
  H  H402  1  0.446700  0.392900  0.752400  1.0  0.1119
  H  H403  1  0.445600  0.406600  0.899100  1.0  0.1091
  H  H404  1  0.419700  0.350100  0.908300  1.0  0.1204
  H  H405  1  0.353800  0.340500  0.872900  1.0  0.119
  H  H406  1  0.308100  0.325900  0.923400  1.0  0.1149
  H  H407  1  0.347900  0.229200  0.941500  1.0  0.0976
  H  H408  1  0.395400  0.243200  0.890000  1.0  0.1247
  H  H409  1  0.486900  0.014000  0.864600  1.0  0.1184
  H  H410  1  0.575100  0.956200  0.900500  1.0  0.1348
  H  H411  1  0.571300  0.959100  0.808500  1.0  0.1295
  H  H412  1  0.319500  0.338200  0.597900  1.0  0.1349
  H  H413  1  0.301900  0.413100  0.492500  1.0  0.1404
  H  H414  1  0.258700  0.362700  0.478900  1.0  0.1448
  H  H415  1  0.558000  0.985100  0.984000  1.0  0.1037
  H  H416  1  0.459300  0.005800  0.937400  1.0  0.1237
  C  C417  1  0.073910  0.274660  0.314700  1.0  0.1608
  C  C418  1  0.091560  0.248680  0.288400  1.0  -0.1664
  C  C419  1  0.072970  0.223080  0.263900  1.0  0.126
  C  C420  1  0.075970  0.162520  0.229000  1.0  0.1889
  C  C421  1  0.073100  0.146300  0.184300  1.0  -0.1833
  C  C422  1  0.057400  0.113550  0.178400  1.0  -0.0316
  C  C423  1  0.043990  0.095130  0.218900  1.0  -0.1471
  C  C424  1  0.027140  0.060060  0.212900  1.0  0.6924
  C  C425  1  0.055580  0.969240  0.207100  1.0  0.6951
  C  C426  1  0.090800  0.951640  0.212500  1.0  -0.1413
  C  C427  1  0.110100  0.942300  0.172000  1.0  -0.0016
  C  C428  1  0.144500  0.928400  0.174300  1.0  -0.2347
  C  C429  1  0.158580  0.922100  0.221200  1.0  0.1554
  C  C430  1  0.218860  0.927000  0.253400  1.0  0.1934
  C  C431  1  0.245380  0.908700  0.279700  1.0  -0.1878
  C  C432  1  0.270000  0.927200  0.306300  1.0  0.1548
  C  C433  1  0.268500  0.964400  0.309100  1.0  -0.2447
  C  C434  1  0.242500  0.982000  0.284800  1.0  -0.0761
  C  C435  1  0.218200  0.963000  0.255400  1.0  -0.1887
  C  C436  1  0.204300  0.880200  0.193300  1.0  0.1642
  C  C437  1  0.237600  0.879000  0.172800  1.0  -0.1977
  C  C438  1  0.248700  0.852100  0.142000  1.0  -0.0587
  C  C439  1  0.224000  0.824000  0.130600  1.0  -0.126
  C  C440  1  0.235800  0.795800  0.095700  1.0  0.6965
  C  C441  1  0.189900  0.825100  0.150800  1.0  -0.0359
  C  C442  1  0.180300  0.852700  0.182700  1.0  -0.1887
  C  C443  1  0.139750  0.930700  0.261800  1.0  -0.2012
  C  C444  1  0.105940  0.945700  0.257500  1.0  -0.0076
  C  C445  1  0.436550  0.968240  0.313500  1.0  0.7065
  C  C446  1  0.400940  0.950710  0.319200  1.0  -0.1379
  C  C447  1  0.388090  0.940500  0.364200  1.0  -0.0185
  C  C448  1  0.354190  0.926600  0.368700  1.0  -0.2404
  C  C449  1  0.332900  0.922300  0.328100  1.0  0.1794
  C  C450  1  0.345810  0.932300  0.282400  1.0  -0.2153
  C  C451  1  0.379090  0.946000  0.277500  1.0  -0.0215
  C  C452  1  0.289290  0.879400  0.364600  1.0  0.1744
  C  C453  1  0.255880  0.877700  0.387600  1.0  -0.1499
  C  C454  1  0.247200  0.852500  0.417800  1.0  -0.0376
  C  C455  1  0.272600  0.825400  0.431000  1.0  -0.1278
  C  C456  1  0.263600  0.796600  0.466800  1.0  0.7228
  C  C457  1  0.306160  0.826700  0.408500  1.0  -0.0372
  C  C458  1  0.313900  0.853800  0.374600  1.0  -0.1826
  C  C459  1  0.048600  0.110050  0.265200  1.0  -0.0327
  C  C460  1  0.064400  0.143800  0.270200  1.0  -0.2133
  C  C461  1  0.119540  0.207240  0.204300  1.0  0.1921
  C  C462  1  0.147600  0.183390  0.193900  1.0  -0.1472
  C  C463  1  0.174500  0.192790  0.162300  1.0  -0.0233
  C  C464  1  0.175100  0.225300  0.141800  1.0  -0.1334
  C  C465  1  0.204500  0.234300  0.104500  1.0  0.6894
  C  C466  1  0.148200  0.249400  0.152000  1.0  -0.0452
  C  C467  1  0.120600  0.240550  0.181600  1.0  -0.1996
  C  C468  1  0.036400  0.223200  0.265500  1.0  -0.1571
  C  C469  1  0.018900  0.249800  0.291700  1.0  -0.0916
  C  C470  1  0.036600  0.274500  0.316500  1.0  -0.2147
  C  C471  1  0.080750  0.337530  0.336900  1.0  0.1164
  C  C472  1  0.073600  0.351060  0.289700  1.0  -0.1851
  C  C473  1  0.058600  0.384450  0.283700  1.0  -0.076
  C  C474  1  0.051260  0.405270  0.324400  1.0  -0.1353
  C  C475  1  0.034440  0.440740  0.317000  1.0  0.7064
  C  C476  1  0.059200  0.392590  0.371700  1.0  -0.0423
  C  C477  1  0.074500  0.358480  0.377200  1.0  -0.2036
  C  C478  1  0.120780  0.293010  0.374600  1.0  0.1885
  C  C479  1  0.147200  0.317750  0.386400  1.0  -0.1598
  C  C480  1  0.174100  0.309250  0.417000  1.0  -0.042
  C  C481  1  0.175260  0.275780  0.439000  1.0  -0.1323
  C  C482  1  0.204200  0.266800  0.475700  1.0  0.6985
  C  C483  1  0.150600  0.252000  0.427900  1.0  -0.0404
  C  C484  1  0.122200  0.260060  0.396200  1.0  -0.2293
  C  C485  1  0.992300  0.000400  0.362200  1.0  0.1208
  C  C486  1  0.942500  0.967800  0.382500  1.0  -0.0108
  C  C487  1  0.944600  0.969500  0.330500  1.0  0.0056
  C  C488  1  0.189900  0.350200  0.070900  1.0  0.1881
  C  C489  1  0.199900  0.392500  0.011400  1.0  0.045
  C  C490  1  0.224300  0.364000  0.003700  1.0  0.0345
  C  C491  1  0.988100  0.995300  0.453200  1.0  0.0982
  C  C492  1  0.965500  0.991400  0.490500  1.0  -0.08
  C  C493  1  0.144900  0.402200  0.075100  1.0  -0.0581
  C  C494  1  0.024300  0.003700  0.462900  1.0  -0.1697
  C  C495  1  0.426090  0.225340  0.314700  1.0  0.1617
  C  C496  1  0.408440  0.251320  0.288400  1.0  -0.1655
  C  C497  1  0.427030  0.276920  0.263900  1.0  0.1264
  C  C498  1  0.424030  0.337480  0.229000  1.0  0.1892
  C  C499  1  0.426900  0.353700  0.184300  1.0  -0.184
  C  C500  1  0.442600  0.386450  0.178400  1.0  -0.0332
  C  C501  1  0.456010  0.404870  0.218900  1.0  -0.1459
  C  C502  1  0.472860  0.439940  0.212900  1.0  0.6917
  C  C503  1  0.444420  0.530760  0.207100  1.0  0.6947
  C  C504  1  0.409200  0.548360  0.212500  1.0  -0.1427
  C  C505  1  0.389900  0.557700  0.172000  1.0  -0.0026
  C  C506  1  0.355500  0.571600  0.174300  1.0  -0.2353
  C  C507  1  0.341420  0.577900  0.221200  1.0  0.1557
  C  C508  1  0.281140  0.573000  0.253400  1.0  0.1935
  C  C509  1  0.254620  0.591300  0.279700  1.0  -0.1906
  C  C510  1  0.230000  0.572800  0.306300  1.0  0.1539
  C  C511  1  0.231500  0.535600  0.309100  1.0  -0.2445
  C  C512  1  0.257500  0.518000  0.284800  1.0  -0.0832
  C  C513  1  0.281800  0.537000  0.255400  1.0  -0.1875
  C  C514  1  0.295700  0.619800  0.193300  1.0  0.1645
  C  C515  1  0.262400  0.621000  0.172800  1.0  -0.1983
  C  C516  1  0.251300  0.647900  0.142000  1.0  -0.058
  C  C517  1  0.276000  0.676000  0.130600  1.0  -0.1245
  C  C518  1  0.264200  0.704200  0.095700  1.0  0.6966
  C  C519  1  0.310100  0.674900  0.150800  1.0  -0.0333
  C  C520  1  0.319700  0.647300  0.182700  1.0  -0.1879
  C  C521  1  0.360250  0.569300  0.261800  1.0  -0.2021
  C  C522  1  0.394060  0.554300  0.257500  1.0  -0.0075
  C  C523  1  0.063450  0.531760  0.313500  1.0  0.7066
  C  C524  1  0.099060  0.549290  0.319200  1.0  -0.138
  C  C525  1  0.111910  0.559500  0.364200  1.0  -0.0186
  C  C526  1  0.145810  0.573400  0.368700  1.0  -0.2395
  C  C527  1  0.167100  0.577700  0.328100  1.0  0.1788
  C  C528  1  0.154190  0.567700  0.282400  1.0  -0.2143
  C  C529  1  0.120910  0.554000  0.277500  1.0  -0.02
  C  C530  1  0.210710  0.620600  0.364600  1.0  0.1748
  C  C531  1  0.244120  0.622300  0.387600  1.0  -0.1496
  C  C532  1  0.252800  0.647500  0.417800  1.0  -0.0368
  C  C533  1  0.227400  0.674600  0.431000  1.0  -0.1288
  C  C534  1  0.236400  0.703400  0.466800  1.0  0.7233
  C  C535  1  0.193840  0.673300  0.408500  1.0  -0.0383
  C  C536  1  0.186100  0.646200  0.374600  1.0  -0.182
  C  C537  1  0.451400  0.389950  0.265200  1.0  -0.032
  C  C538  1  0.435600  0.356200  0.270200  1.0  -0.213
  C  C539  1  0.380460  0.292760  0.204300  1.0  0.193
  C  C540  1  0.352400  0.316610  0.193900  1.0  -0.1489
  C  C541  1  0.325500  0.307210  0.162300  1.0  -0.025
  C  C542  1  0.324900  0.274700  0.141800  1.0  -0.1335
  C  C543  1  0.295500  0.265700  0.104500  1.0  0.6897
  C  C544  1  0.351800  0.250600  0.152000  1.0  -0.0443
  C  C545  1  0.379400  0.259450  0.181600  1.0  -0.2003
  C  C546  1  0.463600  0.276800  0.265500  1.0  -0.1578
  C  C547  1  0.481100  0.250200  0.291700  1.0  -0.0947
  C  C548  1  0.463400  0.225500  0.316500  1.0  -0.2135
  C  C549  1  0.419250  0.162470  0.336900  1.0  0.1169
  C  C550  1  0.426400  0.148940  0.289700  1.0  -0.1847
  C  C551  1  0.441400  0.115550  0.283700  1.0  -0.0759
  C  C552  1  0.448740  0.094730  0.324400  1.0  -0.1349
  C  C553  1  0.465560  0.059260  0.317000  1.0  0.7058
  C  C554  1  0.440800  0.107410  0.371700  1.0  -0.0423
  C  C555  1  0.425500  0.141520  0.377200  1.0  -0.2049
  C  C556  1  0.379220  0.206990  0.374600  1.0  0.1887
  C  C557  1  0.352800  0.182250  0.386400  1.0  -0.1597
  C  C558  1  0.325900  0.190750  0.417000  1.0  -0.0419
  C  C559  1  0.324740  0.224220  0.439000  1.0  -0.1346
  C  C560  1  0.295800  0.233200  0.475700  1.0  0.6992
  C  C561  1  0.349400  0.248000  0.427900  1.0  -0.041
  C  C562  1  0.377800  0.239940  0.396200  1.0  -0.2289
  C  C563  1  0.507700  0.499600  0.362200  1.0  0.1188
  C  C564  1  0.557500  0.532200  0.382500  1.0  -0.0096
  C  C565  1  0.555400  0.530500  0.330500  1.0  0.0074
  C  C566  1  0.310100  0.149800  0.070900  1.0  0.1904
  C  C567  1  0.300100  0.107500  0.011400  1.0  0.044
  C  C568  1  0.275700  0.136000  0.003700  1.0  0.0345
  C  C569  1  0.511900  0.504700  0.453200  1.0  0.1039
  C  C570  1  0.534500  0.508600  0.490500  1.0  -0.0822
  C  C571  1  0.355100  0.097800  0.075100  1.0  -0.0595
  C  C572  1  0.475700  0.496300  0.462900  1.0  -0.1695
  C  C573  1  0.926090  0.774660  0.185300  1.0  0.1617
  C  C574  1  0.908440  0.748680  0.211600  1.0  -0.1655
  C  C575  1  0.927030  0.723080  0.236100  1.0  0.1266
  C  C576  1  0.924030  0.662520  0.271000  1.0  0.1893
  C  C577  1  0.926900  0.646300  0.315700  1.0  -0.1857
  C  C578  1  0.942600  0.613550  0.321600  1.0  -0.0332
  C  C579  1  0.956010  0.595130  0.281100  1.0  -0.1469
  C  C580  1  0.972860  0.560060  0.287100  1.0  0.6921
  C  C581  1  0.944420  0.469240  0.292900  1.0  0.6948
  C  C582  1  0.909200  0.451640  0.287500  1.0  -0.1422
  C  C583  1  0.889900  0.442300  0.328000  1.0  -0.0034
  C  C584  1  0.855500  0.428400  0.325700  1.0  -0.239
  C  C585  1  0.841420  0.422100  0.278800  1.0  0.1556
  C  C586  1  0.781140  0.427000  0.246600  1.0  0.1934
  C  C587  1  0.754620  0.408700  0.220300  1.0  -0.1877
  C  C588  1  0.730000  0.427200  0.193700  1.0  0.1545
  C  C589  1  0.731500  0.464400  0.190900  1.0  -0.2433
  C  C590  1  0.757500  0.482000  0.215200  1.0  -0.0753
  C  C591  1  0.781800  0.463000  0.244600  1.0  -0.1887
  C  C592  1  0.795700  0.380200  0.306700  1.0  0.1656
  C  C593  1  0.762400  0.379000  0.327200  1.0  -0.1987
  C  C594  1  0.751300  0.352100  0.358000  1.0  -0.0582
  C  C595  1  0.776000  0.324000  0.369400  1.0  -0.1264
  C  C596  1  0.764200  0.295800  0.404300  1.0  0.6962
  C  C597  1  0.810100  0.325100  0.349200  1.0  -0.0339
  C  C598  1  0.819700  0.352700  0.317300  1.0  -0.1862
  C  C599  1  0.860250  0.430700  0.238200  1.0  -0.2003
  C  C600  1  0.894060  0.445700  0.242500  1.0  -0.0082
  C  C601  1  0.563450  0.468240  0.186500  1.0  0.7073
  C  C602  1  0.599060  0.450710  0.180800  1.0  -0.1376
  C  C603  1  0.611910  0.440500  0.135800  1.0  -0.017
  C  C604  1  0.645810  0.426600  0.131300  1.0  -0.237
  C  C605  1  0.667100  0.422300  0.171900  1.0  0.1789
  C  C606  1  0.654190  0.432300  0.217600  1.0  -0.2166
  C  C607  1  0.620910  0.446000  0.222500  1.0  -0.022
  C  C608  1  0.710710  0.379400  0.135400  1.0  0.1742
  C  C609  1  0.744120  0.377700  0.112400  1.0  -0.1495
  C  C610  1  0.752800  0.352500  0.082200  1.0  -0.0366
  C  C611  1  0.727400  0.325400  0.069000  1.0  -0.1288
  C  C612  1  0.736400  0.296600  0.033200  1.0  0.7233
  C  C613  1  0.693840  0.326700  0.091500  1.0  -0.0383
  C  C614  1  0.686100  0.353800  0.125400  1.0  -0.1819
  C  C615  1  0.951400  0.610050  0.234800  1.0  -0.032
  C  C616  1  0.935600  0.643800  0.229800  1.0  -0.2118
  C  C617  1  0.880460  0.707240  0.295700  1.0  0.1932
  C  C618  1  0.852400  0.683390  0.306100  1.0  -0.1479
  C  C619  1  0.825500  0.692790  0.337700  1.0  -0.0237
  C  C620  1  0.824900  0.725300  0.358200  1.0  -0.1332
  C  C621  1  0.795500  0.734300  0.395500  1.0  0.69
  C  C622  1  0.851800  0.749400  0.348000  1.0  -0.0457
  C  C623  1  0.879400  0.740550  0.318400  1.0  -0.1985
  C  C624  1  0.963600  0.723200  0.234500  1.0  -0.1576
  C  C625  1  0.981100  0.749800  0.208300  1.0  -0.0952
  C  C626  1  0.963400  0.774500  0.183500  1.0  -0.2133
  C  C627  1  0.919250  0.837530  0.163100  1.0  0.1161
  C  C628  1  0.926400  0.851060  0.210300  1.0  -0.1861
  C  C629  1  0.941400  0.884450  0.216300  1.0  -0.076
  C  C630  1  0.948740  0.905270  0.175600  1.0  -0.135
  C  C631  1  0.965560  0.940740  0.183000  1.0  0.7058
  C  C632  1  0.940800  0.892590  0.128300  1.0  -0.0417
  C  C633  1  0.925500  0.858480  0.122800  1.0  -0.2022
  C  C634  1  0.879220  0.793010  0.125400  1.0  0.1886
  C  C635  1  0.852800  0.817750  0.113600  1.0  -0.1596
  C  C636  1  0.825900  0.809250  0.083000  1.0  -0.0428
  C  C637  1  0.824740  0.775780  0.061000  1.0  -0.1348
  C  C638  1  0.795800  0.766800  0.024300  1.0  0.6994
  C  C639  1  0.849400  0.752000  0.072100  1.0  -0.0418
  C  C640  1  0.877800  0.760060  0.103800  1.0  -0.2302
  C  C641  1  0.007700  0.500400  0.137800  1.0  0.1187
  C  C642  1  0.057500  0.467800  0.117500  1.0  -0.0097
  C  C643  1  0.055400  0.469500  0.169500  1.0  0.0068
  C  C644  1  0.810100  0.850200  0.429100  1.0  0.1888
  C  C645  1  0.800100  0.892500  0.488600  1.0  0.0477
  C  C646  1  0.775700  0.864000  0.496300  1.0  0.0352
  C  C647  1  0.011900  0.495300  0.046800  1.0  0.1052
  C  C648  1  0.034500  0.491400  0.009500  1.0  -0.0808
  C  C649  1  0.855100  0.902200  0.424900  1.0  -0.0583
  C  C650  1  0.975700  0.503700  0.037100  1.0  -0.1691
  C  C651  1  0.573910  0.725340  0.185300  1.0  0.161
  C  C652  1  0.591560  0.751320  0.211600  1.0  -0.1664
  C  C653  1  0.572970  0.776920  0.236100  1.0  0.1258
  C  C654  1  0.575970  0.837480  0.271000  1.0  0.189
  C  C655  1  0.573100  0.853700  0.315700  1.0  -0.184
  C  C656  1  0.557400  0.886450  0.321600  1.0  -0.0332
  C  C657  1  0.543990  0.904870  0.281100  1.0  -0.1465
  C  C658  1  0.527140  0.939940  0.287100  1.0  0.6926
  C  C659  1  0.555580  0.030760  0.292900  1.0  0.6946
  C  C660  1  0.590800  0.048360  0.287500  1.0  -0.1424
  C  C661  1  0.610100  0.057700  0.328000  1.0  -0.0046
  C  C662  1  0.644500  0.071600  0.325700  1.0  -0.2385
  C  C663  1  0.658580  0.077900  0.278800  1.0  0.1556
  C  C664  1  0.718860  0.073000  0.246600  1.0  0.1934
  C  C665  1  0.745380  0.091300  0.220300  1.0  -0.1904
  C  C666  1  0.770000  0.072800  0.193700  1.0  0.1544
  C  C667  1  0.768500  0.035600  0.190900  1.0  -0.243
  C  C668  1  0.742500  0.018000  0.215200  1.0  -0.0825
  C  C669  1  0.718200  0.037000  0.244600  1.0  -0.1878
  C  C670  1  0.704300  0.119800  0.306700  1.0  0.1652
  C  C671  1  0.737600  0.121000  0.327200  1.0  -0.1991
  C  C672  1  0.748700  0.147900  0.358000  1.0  -0.0577
  C  C673  1  0.724000  0.176000  0.369400  1.0  -0.1246
  C  C674  1  0.735800  0.204200  0.404300  1.0  0.6965
  C  C675  1  0.689900  0.174900  0.349200  1.0  -0.0355
  C  C676  1  0.680300  0.147300  0.317300  1.0  -0.1877
  C  C677  1  0.639750  0.069300  0.238200  1.0  -0.2003
  C  C678  1  0.605940  0.054300  0.242500  1.0  -0.0067
  C  C679  1  0.936550  0.031760  0.186500  1.0  0.7064
  C  C680  1  0.900940  0.049290  0.180800  1.0  -0.139
  C  C681  1  0.888090  0.059500  0.135800  1.0  -0.0178
  C  C682  1  0.854190  0.073400  0.131300  1.0  -0.2383
  C  C683  1  0.832900  0.077700  0.171900  1.0  0.1793
  C  C684  1  0.845810  0.067700  0.217600  1.0  -0.2166
  C  C685  1  0.879090  0.054000  0.222500  1.0  -0.0212
  C  C686  1  0.789290  0.120600  0.135400  1.0  0.1741
  C  C687  1  0.755880  0.122300  0.112400  1.0  -0.15
  C  C688  1  0.747200  0.147500  0.082200  1.0  -0.0372
  C  C689  1  0.772600  0.174600  0.069000  1.0  -0.1288
  C  C690  1  0.763600  0.203400  0.033200  1.0  0.7232
  C  C691  1  0.806160  0.173300  0.091500  1.0  -0.0374
  C  C692  1  0.813900  0.146200  0.125400  1.0  -0.1822
  C  C693  1  0.548600  0.889950  0.234800  1.0  -0.0316
  C  C694  1  0.564400  0.856200  0.229800  1.0  -0.2124
  C  C695  1  0.619540  0.792760  0.295700  1.0  0.1925
  C  C696  1  0.647600  0.816610  0.306100  1.0  -0.149
  C  C697  1  0.674500  0.807210  0.337700  1.0  -0.0234
  C  C698  1  0.675100  0.774700  0.358200  1.0  -0.1331
  C  C699  1  0.704500  0.765700  0.395500  1.0  0.6893
  C  C700  1  0.648200  0.750600  0.348000  1.0  -0.0455
  C  C701  1  0.620600  0.759450  0.318400  1.0  -0.199
  C  C702  1  0.536400  0.776800  0.234500  1.0  -0.1575
  C  C703  1  0.518900  0.750200  0.208300  1.0  -0.0916
  C  C704  1  0.536600  0.725500  0.183500  1.0  -0.213
  C  C705  1  0.580750  0.662470  0.163100  1.0  0.117
  C  C706  1  0.573600  0.648940  0.210300  1.0  -0.1851
  C  C707  1  0.558600  0.615550  0.216300  1.0  -0.0773
  C  C708  1  0.551260  0.594730  0.175600  1.0  -0.1354
  C  C709  1  0.534440  0.559260  0.183000  1.0  0.7058
  C  C710  1  0.559200  0.607410  0.128300  1.0  -0.0417
  C  C711  1  0.574500  0.641520  0.122800  1.0  -0.2033
  C  C712  1  0.620780  0.706990  0.125400  1.0  0.1882
  C  C713  1  0.647200  0.682250  0.113600  1.0  -0.1601
  C  C714  1  0.674100  0.690750  0.083000  1.0  -0.0409
  C  C715  1  0.675260  0.724220  0.061000  1.0  -0.1316
  C  C716  1  0.704200  0.733200  0.024300  1.0  0.6987
  C  C717  1  0.650600  0.748000  0.072100  1.0  -0.0409
  C  C718  1  0.622200  0.739940  0.103800  1.0  -0.2296
  C  C719  1  0.492300  0.999600  0.137800  1.0  0.1202
  C  C720  1  0.442500  0.032200  0.117500  1.0  -0.011
  C  C721  1  0.444600  0.030500  0.169500  1.0  0.0038
  C  C722  1  0.689900  0.649800  0.429100  1.0  0.1882
  C  C723  1  0.699900  0.607500  0.488600  1.0  0.0469
  C  C724  1  0.724300  0.636000  0.496300  1.0  0.036
  C  C725  1  0.488100  0.004700  0.046800  1.0  0.1037
  C  C726  1  0.465500  0.008600  0.009500  1.0  -0.0808
  C  C727  1  0.644900  0.597800  0.424900  1.0  -0.0569
  C  C728  1  0.524300  0.996300  0.037100  1.0  -0.17
  C  C729  1  0.926090  0.725340  0.685300  1.0  0.1617
  C  C730  1  0.908440  0.751320  0.711600  1.0  -0.1655
  C  C731  1  0.927030  0.776920  0.736100  1.0  0.1263
  C  C732  1  0.924030  0.837480  0.771000  1.0  0.1893
  C  C733  1  0.926900  0.853700  0.815700  1.0  -0.185
  C  C734  1  0.942600  0.886450  0.821600  1.0  -0.0329
  C  C735  1  0.956010  0.904870  0.781100  1.0  -0.146
  C  C736  1  0.972860  0.939940  0.787100  1.0  0.692
  C  C737  1  0.944420  0.030760  0.792900  1.0  0.6947
  C  C738  1  0.909200  0.048360  0.787500  1.0  -0.1429
  C  C739  1  0.889900  0.057700  0.828000  1.0  -0.0032
  C  C740  1  0.855500  0.071600  0.825700  1.0  -0.2391
  C  C741  1  0.841420  0.077900  0.778800  1.0  0.1558
  C  C742  1  0.781140  0.073000  0.746600  1.0  0.1935
  C  C743  1  0.754620  0.091300  0.720300  1.0  -0.1907
  C  C744  1  0.730000  0.072800  0.693700  1.0  0.154
  C  C745  1  0.731500  0.035600  0.690900  1.0  -0.2413
  C  C746  1  0.757500  0.018000  0.715200  1.0  -0.0823
  C  C747  1  0.781800  0.037000  0.744600  1.0  -0.1883
  C  C748  1  0.795700  0.119800  0.806700  1.0  0.1655
  C  C749  1  0.762400  0.121000  0.827200  1.0  -0.1986
  C  C750  1  0.751300  0.147900  0.858000  1.0  -0.0582
  C  C751  1  0.776000  0.176000  0.869400  1.0  -0.1246
  C  C752  1  0.764200  0.204200  0.904300  1.0  0.6963
  C  C753  1  0.810100  0.174900  0.849200  1.0  -0.0327
  C  C754  1  0.819700  0.147300  0.817300  1.0  -0.1871
  C  C755  1  0.860250  0.069300  0.738200  1.0  -0.2007
  C  C756  1  0.894060  0.054300  0.742500  1.0  -0.0076
  C  C757  1  0.563450  0.031760  0.686500  1.0  0.707
  C  C758  1  0.599060  0.049290  0.680800  1.0  -0.138
  C  C759  1  0.611910  0.059500  0.635800  1.0  -0.0166
  C  C760  1  0.645810  0.073400  0.631300  1.0  -0.2372
  C  C761  1  0.667100  0.077700  0.671900  1.0  0.1789
  C  C762  1  0.654190  0.067700  0.717600  1.0  -0.2165
  C  C763  1  0.620910  0.054000  0.722500  1.0  -0.022
  C  C764  1  0.710710  0.120600  0.635400  1.0  0.1743
  C  C765  1  0.744120  0.122300  0.612400  1.0  -0.15
  C  C766  1  0.752800  0.147500  0.582200  1.0  -0.0369
  C  C767  1  0.727400  0.174600  0.569000  1.0  -0.129
  C  C768  1  0.736400  0.203400  0.533200  1.0  0.7235
  C  C769  1  0.693840  0.173300  0.591500  1.0  -0.0386
  C  C770  1  0.686100  0.146200  0.625400  1.0  -0.1823
  C  C771  1  0.951400  0.889950  0.734800  1.0  -0.0323
  C  C772  1  0.935600  0.856200  0.729800  1.0  -0.2118
  C  C773  1  0.880460  0.792760  0.795700  1.0  0.1932
  C  C774  1  0.852400  0.816610  0.806100  1.0  -0.1483
  C  C775  1  0.825500  0.807210  0.837700  1.0  -0.0251
  C  C776  1  0.824900  0.774700  0.858200  1.0  -0.133
  C  C777  1  0.795500  0.765700  0.895500  1.0  0.6899
  C  C778  1  0.851800  0.750600  0.848000  1.0  -0.0455
  C  C779  1  0.879400  0.759450  0.818400  1.0  -0.1991
  C  C780  1  0.963600  0.776800  0.734500  1.0  -0.1574
  C  C781  1  0.981100  0.750200  0.708300  1.0  -0.0948
  C  C782  1  0.963400  0.725500  0.683500  1.0  -0.2134
  C  C783  1  0.919250  0.662470  0.663100  1.0  0.1168
  C  C784  1  0.926400  0.648940  0.710300  1.0  -0.1862
  C  C785  1  0.941400  0.615550  0.716300  1.0  -0.0766
  C  C786  1  0.948740  0.594730  0.675600  1.0  -0.1352
  C  C787  1  0.965560  0.559260  0.683000  1.0  0.7056
  C  C788  1  0.940800  0.607410  0.628300  1.0  -0.0428
  C  C789  1  0.925500  0.641520  0.622800  1.0  -0.2035
  C  C790  1  0.879220  0.706990  0.625400  1.0  0.1885
  C  C791  1  0.852800  0.682250  0.613600  1.0  -0.1601
  C  C792  1  0.825900  0.690750  0.583000  1.0  -0.0412
  C  C793  1  0.824740  0.724220  0.561000  1.0  -0.1347
  C  C794  1  0.795800  0.733200  0.524300  1.0  0.6995
  C  C795  1  0.849400  0.748000  0.572100  1.0  -0.0409
  C  C796  1  0.877800  0.739940  0.603800  1.0  -0.2284
  C  C797  1  0.007700  0.999600  0.637800  1.0  0.1189
  C  C798  1  0.057500  0.032200  0.617500  1.0  -0.0096
  C  C799  1  0.055400  0.030500  0.669500  1.0  0.006
  C  C800  1  0.810100  0.649800  0.929100  1.0  0.1887
  C  C801  1  0.800100  0.607500  0.988600  1.0  0.0469
  C  C802  1  0.775700  0.636000  0.996300  1.0  0.0353
  C  C803  1  0.011900  0.004700  0.546800  1.0  0.098
  C  C804  1  0.034500  0.008600  0.509500  1.0  -0.0769
  C  C805  1  0.855100  0.597800  0.924900  1.0  -0.058
  C  C806  1  0.975700  0.996300  0.537100  1.0  -0.1696
  C  C807  1  0.573910  0.774660  0.685300  1.0  0.1609
  C  C808  1  0.591560  0.748680  0.711600  1.0  -0.1664
  C  C809  1  0.572970  0.723080  0.736100  1.0  0.1261
  C  C810  1  0.575970  0.662520  0.771000  1.0  0.189
  C  C811  1  0.573100  0.646300  0.815700  1.0  -0.1848
  C  C812  1  0.557400  0.613550  0.821600  1.0  -0.0331
  C  C813  1  0.543990  0.595130  0.781100  1.0  -0.1473
  C  C814  1  0.527140  0.560060  0.787100  1.0  0.6926
  C  C815  1  0.555580  0.469240  0.792900  1.0  0.6949
  C  C816  1  0.590800  0.451640  0.787500  1.0  -0.1417
  C  C817  1  0.610100  0.442300  0.828000  1.0  -0.0047
  C  C818  1  0.644500  0.428400  0.825700  1.0  -0.2383
  C  C819  1  0.658580  0.422100  0.778800  1.0  0.1555
  C  C820  1  0.718860  0.427000  0.746600  1.0  0.1933
  C  C821  1  0.745380  0.408700  0.720300  1.0  -0.1882
  C  C822  1  0.770000  0.427200  0.693700  1.0  0.1548
  C  C823  1  0.768500  0.464400  0.690900  1.0  -0.2436
  C  C824  1  0.742500  0.482000  0.715200  1.0  -0.0752
  C  C825  1  0.718200  0.463000  0.744600  1.0  -0.1897
  C  C826  1  0.704300  0.380200  0.806700  1.0  0.1652
  C  C827  1  0.737600  0.379000  0.827200  1.0  -0.1987
  C  C828  1  0.748700  0.352100  0.858000  1.0  -0.058
  C  C829  1  0.724000  0.324000  0.869400  1.0  -0.126
  C  C830  1  0.735800  0.295800  0.904300  1.0  0.6964
  C  C831  1  0.689900  0.325100  0.849200  1.0  -0.0358
  C  C832  1  0.680300  0.352700  0.817300  1.0  -0.1875
  C  C833  1  0.639750  0.430700  0.738200  1.0  -0.2002
  C  C834  1  0.605940  0.445700  0.742500  1.0  -0.0074
  C  C835  1  0.936550  0.468240  0.686500  1.0  0.7066
  C  C836  1  0.900940  0.450710  0.680800  1.0  -0.1383
  C  C837  1  0.888090  0.440500  0.635800  1.0  -0.0179
  C  C838  1  0.854190  0.426600  0.631300  1.0  -0.238
  C  C839  1  0.832900  0.422300  0.671900  1.0  0.1794
  C  C840  1  0.845810  0.432300  0.717600  1.0  -0.2166
  C  C841  1  0.879090  0.446000  0.722500  1.0  -0.0213
  C  C842  1  0.789290  0.379400  0.635400  1.0  0.1741
  C  C843  1  0.755880  0.377700  0.612400  1.0  -0.1497
  C  C844  1  0.747200  0.352500  0.582200  1.0  -0.0373
  C  C845  1  0.772600  0.325400  0.569000  1.0  -0.1289
  C  C846  1  0.763600  0.296600  0.533200  1.0  0.7231
  C  C847  1  0.806160  0.326700  0.591500  1.0  -0.0378
  C  C848  1  0.813900  0.353800  0.625400  1.0  -0.1826
  C  C849  1  0.548600  0.610050  0.734800  1.0  -0.0308
  C  C850  1  0.564400  0.643800  0.729800  1.0  -0.2124
  C  C851  1  0.619540  0.707240  0.795700  1.0  0.1925
  C  C852  1  0.647600  0.683390  0.806100  1.0  -0.1475
  C  C853  1  0.674500  0.692790  0.837700  1.0  -0.0232
  C  C854  1  0.675100  0.725300  0.858200  1.0  -0.1332
  C  C855  1  0.704500  0.734300  0.895500  1.0  0.6893
  C  C856  1  0.648200  0.749400  0.848000  1.0  -0.0461
  C  C857  1  0.620600  0.740550  0.818400  1.0  -0.1996
  C  C858  1  0.536400  0.723200  0.734500  1.0  -0.1574
  C  C859  1  0.518900  0.749800  0.708300  1.0  -0.0915
  C  C860  1  0.536600  0.774500  0.683500  1.0  -0.2135
  C  C861  1  0.580750  0.837530  0.663100  1.0  0.1163
  C  C862  1  0.573600  0.851060  0.710300  1.0  -0.1851
  C  C863  1  0.558600  0.884450  0.716300  1.0  -0.0767
  C  C864  1  0.551260  0.905270  0.675600  1.0  -0.1351
  C  C865  1  0.534440  0.940740  0.683000  1.0  0.706
  C  C866  1  0.559200  0.892590  0.628300  1.0  -0.0412
  C  C867  1  0.574500  0.858480  0.622800  1.0  -0.2016
  C  C868  1  0.620780  0.793010  0.625400  1.0  0.1881
  C  C869  1  0.647200  0.817750  0.613600  1.0  -0.1607
  C  C870  1  0.674100  0.809250  0.583000  1.0  -0.0417
  C  C871  1  0.675260  0.775780  0.561000  1.0  -0.1316
  C  C872  1  0.704200  0.766800  0.524300  1.0  0.6987
  C  C873  1  0.650600  0.752000  0.572100  1.0  -0.041
  C  C874  1  0.622200  0.760060  0.603800  1.0  -0.2297
  C  C875  1  0.492300  0.500400  0.637800  1.0  0.1203
  C  C876  1  0.442500  0.467800  0.617500  1.0  -0.0113
  C  C877  1  0.444600  0.469500  0.669500  1.0  0.0043
  C  C878  1  0.689900  0.850200  0.929100  1.0  0.1877
  C  C879  1  0.699900  0.892500  0.988600  1.0  0.0472
  C  C880  1  0.724300  0.864000  0.996300  1.0  0.0359
  C  C881  1  0.488100  0.495300  0.546800  1.0  0.1036
  C  C882  1  0.465500  0.491400  0.509500  1.0  -0.0813
  C  C883  1  0.644900  0.902200  0.924900  1.0  -0.0568
  C  C884  1  0.524300  0.503700  0.537100  1.0  -0.17
  C  C885  1  0.073910  0.225340  0.814700  1.0  0.161
  C  C886  1  0.091560  0.251320  0.788400  1.0  -0.1663
  C  C887  1  0.072970  0.276920  0.763900  1.0  0.1259
  C  C888  1  0.075970  0.337480  0.729000  1.0  0.1889
  C  C889  1  0.073100  0.353700  0.684300  1.0  -0.1832
  C  C890  1  0.057400  0.386450  0.678400  1.0  -0.0329
  C  C891  1  0.043990  0.404870  0.718900  1.0  -0.1463
  C  C892  1  0.027140  0.439940  0.712900  1.0  0.6924
  C  C893  1  0.055580  0.530760  0.707100  1.0  0.6948
  C  C894  1  0.090800  0.548360  0.712500  1.0  -0.1419
  C  C895  1  0.110100  0.557700  0.672000  1.0  -0.0012
  C  C896  1  0.144500  0.571600  0.674300  1.0  -0.235
  C  C897  1  0.158580  0.577900  0.721200  1.0  0.1555
  C  C898  1  0.218860  0.573000  0.753400  1.0  0.1935
  C  C899  1  0.245380  0.591300  0.779700  1.0  -0.1903
  C  C900  1  0.270000  0.572800  0.806300  1.0  0.1544
  C  C901  1  0.268500  0.535600  0.809100  1.0  -0.2458
  C  C902  1  0.242500  0.518000  0.784800  1.0  -0.0835
  C  C903  1  0.218200  0.537000  0.755400  1.0  -0.1867
  C  C904  1  0.204300  0.619800  0.693300  1.0  0.1642
  C  C905  1  0.237600  0.621000  0.672800  1.0  -0.1983
  C  C906  1  0.248700  0.647900  0.642000  1.0  -0.0582
  C  C907  1  0.224000  0.676000  0.630600  1.0  -0.1244
  C  C908  1  0.235800  0.704200  0.595700  1.0  0.6966
  C  C909  1  0.189900  0.674900  0.650800  1.0  -0.0359
  C  C910  1  0.180300  0.647300  0.682700  1.0  -0.189
  C  C911  1  0.139750  0.569300  0.761800  1.0  -0.2016
  C  C912  1  0.105940  0.554300  0.757500  1.0  -0.0075
  C  C913  1  0.436550  0.531760  0.813500  1.0  0.7062
  C  C914  1  0.400940  0.549290  0.819200  1.0  -0.1386
  C  C915  1  0.388090  0.559500  0.864200  1.0  -0.0182
  C  C916  1  0.354190  0.573400  0.868700  1.0  -0.2404
  C  C917  1  0.332900  0.577700  0.828100  1.0  0.1793
  C  C918  1  0.345810  0.567700  0.782400  1.0  -0.2146
  C  C919  1  0.379090  0.554000  0.777500  1.0  -0.0208
  C  C920  1  0.289290  0.620600  0.864600  1.0  0.1746
  C  C921  1  0.255880  0.622300  0.887600  1.0  -0.1504
  C  C922  1  0.247200  0.647500  0.917800  1.0  -0.0376
  C  C923  1  0.272600  0.674600  0.931000  1.0  -0.1285
  C  C924  1  0.263600  0.703400  0.966800  1.0  0.723
  C  C925  1  0.306160  0.673300  0.908500  1.0  -0.0368
  C  C926  1  0.313900  0.646200  0.874600  1.0  -0.182
  C  C927  1  0.048600  0.389950  0.765200  1.0  -0.0322
  C  C928  1  0.064400  0.356200  0.770200  1.0  -0.2127
  C  C929  1  0.119540  0.292760  0.704300  1.0  0.1922
  C  C930  1  0.147600  0.316610  0.693900  1.0  -0.1495
  C  C931  1  0.174500  0.307210  0.662300  1.0  -0.0235
  C  C932  1  0.175100  0.274700  0.641800  1.0  -0.1333
  C  C933  1  0.204500  0.265700  0.604500  1.0  0.6893
  C  C934  1  0.148200  0.250600  0.652000  1.0  -0.0442
  C  C935  1  0.120600  0.259450  0.681600  1.0  -0.2002
  C  C936  1  0.036400  0.276800  0.765500  1.0  -0.1568
  C  C937  1  0.018900  0.250200  0.791700  1.0  -0.0917
  C  C938  1  0.036600  0.225500  0.816500  1.0  -0.2136
  C  C939  1  0.080750  0.162470  0.836900  1.0  0.1171
  C  C940  1  0.073600  0.148940  0.789700  1.0  -0.1852
  C  C941  1  0.058600  0.115550  0.783700  1.0  -0.0758
  C  C942  1  0.051260  0.094730  0.824400  1.0  -0.1352
  C  C943  1  0.034440  0.059260  0.817000  1.0  0.7063
  C  C944  1  0.059200  0.107410  0.871700  1.0  -0.0426
  C  C945  1  0.074500  0.141520  0.877200  1.0  -0.2043
  C  C946  1  0.120780  0.206990  0.874600  1.0  0.1884
  C  C947  1  0.147200  0.182250  0.886400  1.0  -0.1596
  C  C948  1  0.174100  0.190750  0.917000  1.0  -0.0414
  C  C949  1  0.175260  0.224220  0.939000  1.0  -0.1322
  C  C950  1  0.204200  0.233200  0.975700  1.0  0.6986
  C  C951  1  0.150600  0.248000  0.927900  1.0  -0.041
  C  C952  1  0.122200  0.239940  0.896200  1.0  -0.2299
  C  C953  1  0.992300  0.499600  0.862200  1.0  0.1199
  C  C954  1  0.942500  0.532200  0.882500  1.0  -0.0111
  C  C955  1  0.944600  0.530500  0.830500  1.0  0.0051
  C  C956  1  0.189900  0.149800  0.570900  1.0  0.1888
  C  C957  1  0.199900  0.107500  0.511400  1.0  0.0444
  C  C958  1  0.224300  0.136000  0.503700  1.0  0.0341
  C  C959  1  0.988100  0.504700  0.953200  1.0  0.1055
  C  C960  1  0.965500  0.508600  0.990500  1.0  -0.0792
  C  C961  1  0.144900  0.097800  0.575100  1.0  -0.0584
  C  C962  1  0.024300  0.496300  0.962900  1.0  -0.1697
  C  C963  1  0.426090  0.274660  0.814700  1.0  0.1616
  C  C964  1  0.408440  0.248680  0.788400  1.0  -0.1655
  C  C965  1  0.427030  0.223080  0.763900  1.0  0.1266
  C  C966  1  0.424030  0.162520  0.729000  1.0  0.1891
  C  C967  1  0.426900  0.146300  0.684300  1.0  -0.184
  C  C968  1  0.442600  0.113550  0.678400  1.0  -0.0322
  C  C969  1  0.456010  0.095130  0.718900  1.0  -0.1467
  C  C970  1  0.472860  0.060060  0.712900  1.0  0.6918
  C  C971  1  0.444420  0.969240  0.707100  1.0  0.6948
  C  C972  1  0.409200  0.951640  0.712500  1.0  -0.1419
  C  C973  1  0.389900  0.942300  0.672000  1.0  -0.0028
  C  C974  1  0.355500  0.928400  0.674300  1.0  -0.2351
  C  C975  1  0.341420  0.922100  0.721200  1.0  0.1555
  C  C976  1  0.281140  0.927000  0.753400  1.0  0.1935
  C  C977  1  0.254620  0.908700  0.779700  1.0  -0.1874
  C  C978  1  0.230000  0.927200  0.806300  1.0  0.1544
  C  C979  1  0.231500  0.964400  0.809100  1.0  -0.2444
  C  C980  1  0.257500  0.982000  0.784800  1.0  -0.0761
  C  C981  1  0.281800  0.963000  0.755400  1.0  -0.1882
  C  C982  1  0.295700  0.880200  0.693300  1.0  0.1646
  C  C983  1  0.262400  0.879000  0.672800  1.0  -0.1982
  C  C984  1  0.251300  0.852100  0.642000  1.0  -0.0579
  C  C985  1  0.276000  0.824000  0.630600  1.0  -0.1264
  C  C986  1  0.264200  0.795800  0.595700  1.0  0.6965
  C  C987  1  0.310100  0.825100  0.650800  1.0  -0.0341
  C  C988  1  0.319700  0.852700  0.682700  1.0  -0.1868
  C  C989  1  0.360250  0.930700  0.761800  1.0  -0.2019
  C  C990  1  0.394060  0.945700  0.757500  1.0  -0.0075
  C  C991  1  0.063450  0.968240  0.813500  1.0  0.707
  C  C992  1  0.099060  0.950710  0.819200  1.0  -0.1376
  C  C993  1  0.111910  0.940500  0.864200  1.0  -0.0189
  C  C994  1  0.145810  0.926600  0.868700  1.0  -0.2394
  C  C995  1  0.167100  0.922300  0.828100  1.0  0.1788
  C  C996  1  0.154190  0.932300  0.782400  1.0  -0.2149
  C  C997  1  0.120910  0.946000  0.777500  1.0  -0.0208
  C  C998  1  0.210710  0.879400  0.864600  1.0  0.1745
  C  C999  1  0.244120  0.877700  0.887600  1.0  -0.1491
  C  C1000  1  0.252800  0.852500  0.917800  1.0  -0.0368
  C  C1001  1  0.227400  0.825400  0.931000  1.0  -0.1279
  C  C1002  1  0.236400  0.796600  0.966800  1.0  0.723
  C  C1003  1  0.193840  0.826700  0.908500  1.0  -0.0378
  C  C1004  1  0.186100  0.853800  0.874600  1.0  -0.1819
  C  C1005  1  0.451400  0.110050  0.765200  1.0  -0.0329
  C  C1006  1  0.435600  0.143800  0.770200  1.0  -0.2134
  C  C1007  1  0.380460  0.207240  0.704300  1.0  0.1929
  C  C1008  1  0.352400  0.183390  0.693900  1.0  -0.1476
  C  C1009  1  0.325500  0.192790  0.662300  1.0  -0.0237
  C  C1010  1  0.324900  0.225300  0.641800  1.0  -0.1336
  C  C1011  1  0.295500  0.234300  0.604500  1.0  0.6898
  C  C1012  1  0.351800  0.249400  0.652000  1.0  -0.0449
  C  C1013  1  0.379400  0.240550  0.681600  1.0  -0.1985
  C  C1014  1  0.463600  0.223200  0.765500  1.0  -0.1584
  C  C1015  1  0.481100  0.249800  0.791700  1.0  -0.0951
  C  C1016  1  0.463400  0.274500  0.816500  1.0  -0.2133
  C  C1017  1  0.419250  0.337530  0.836900  1.0  0.1162
  C  C1018  1  0.426400  0.351060  0.789700  1.0  -0.1843
  C  C1019  1  0.441400  0.384450  0.783700  1.0  -0.0762
  C  C1020  1  0.448740  0.405270  0.824400  1.0  -0.1352
  C  C1021  1  0.465560  0.440740  0.817000  1.0  0.7059
  C  C1022  1  0.440800  0.392590  0.871700  1.0  -0.0414
  C  C1023  1  0.425500  0.358480  0.877200  1.0  -0.2043
  C  C1024  1  0.379220  0.293010  0.874600  1.0  0.1889
  C  C1025  1  0.352800  0.317750  0.886400  1.0  -0.1587
  C  C1026  1  0.325900  0.309250  0.917000  1.0  -0.0434
  C  C1027  1  0.324740  0.275780  0.939000  1.0  -0.1347
  C  C1028  1  0.295800  0.266800  0.975700  1.0  0.6989
  C  C1029  1  0.349400  0.252000  0.927900  1.0  -0.0412
  C  C1030  1  0.377800  0.260060  0.896200  1.0  -0.2295
  C  C1031  1  0.507700  0.000400  0.862200  1.0  0.1194
  C  C1032  1  0.557500  0.967800  0.882500  1.0  -0.0092
  C  C1033  1  0.555400  0.969500  0.830500  1.0  0.0082
  C  C1034  1  0.310100  0.350200  0.570900  1.0  0.1901
  C  C1035  1  0.300100  0.392500  0.511400  1.0  0.0454
  C  C1036  1  0.275700  0.364000  0.503700  1.0  0.0346
  C  C1037  1  0.511900  0.995300  0.953200  1.0  0.1039
  C  C1038  1  0.534500  0.991400  0.990500  1.0  -0.077
  C  C1039  1  0.355100  0.402200  0.575100  1.0  -0.0593
  C  C1040  1  0.475700  0.003700  0.962900  1.0  -0.17
  N  N1041  1  0.093410  0.301350  0.341800  1.0  -0.1425
  N  N1042  1  0.091820  0.196750  0.236000  1.0  -0.1376
  N  N1043  1  0.194450  0.908880  0.224600  1.0  -0.1437
  N  N1044  1  0.297660  0.908200  0.332400  1.0  -0.1698
  N  N1045  1  0.975430  0.989610  0.318000  1.0  -0.3246
  N  N1046  1  0.972000  0.987000  0.402060  1.0  -0.2251
  N  N1047  1  0.218200  0.337850  0.040500  1.0  -0.3
  N  N1048  1  0.178700  0.383900  0.052900  1.0  -0.231
  N  N1049  1  0.406590  0.198650  0.341800  1.0  -0.1427
  N  N1050  1  0.408180  0.303250  0.236000  1.0  -0.1377
  N  N1051  1  0.305550  0.591120  0.224600  1.0  -0.1437
  N  N1052  1  0.202340  0.591800  0.332400  1.0  -0.1703
  N  N1053  1  0.524570  0.510390  0.318000  1.0  -0.3256
  N  N1054  1  0.528000  0.513000  0.402060  1.0  -0.2272
  N  N1055  1  0.281800  0.162150  0.040500  1.0  -0.2998
  N  N1056  1  0.321300  0.116100  0.052900  1.0  -0.232
  N  N1057  1  0.906590  0.801350  0.158200  1.0  -0.1424
  N  N1058  1  0.908180  0.696750  0.264000  1.0  -0.1382
  N  N1059  1  0.805550  0.408880  0.275400  1.0  -0.1445
  N  N1060  1  0.702340  0.408200  0.167600  1.0  -0.17
  N  N1061  1  0.024570  0.489610  0.182000  1.0  -0.3254
  N  N1062  1  0.028000  0.487000  0.097940  1.0  -0.2261
  N  N1063  1  0.781800  0.837850  0.459500  1.0  -0.3005
  N  N1064  1  0.821300  0.883900  0.447100  1.0  -0.2317
  N  N1065  1  0.593410  0.698650  0.158200  1.0  -0.1422
  N  N1066  1  0.591820  0.803250  0.264000  1.0  -0.1375
  N  N1067  1  0.694450  0.091120  0.275400  1.0  -0.1432
  N  N1068  1  0.797660  0.091800  0.167600  1.0  -0.1692
  N  N1069  1  0.475430  0.010390  0.182000  1.0  -0.3249
  N  N1070  1  0.472000  0.013000  0.097940  1.0  -0.2243
  N  N1071  1  0.718200  0.662150  0.459500  1.0  -0.2994
  N  N1072  1  0.678700  0.616100  0.447100  1.0  -0.2303
  N  N1073  1  0.906590  0.698650  0.658200  1.0  -0.1424
  N  N1074  1  0.908180  0.803250  0.764000  1.0  -0.1376
  N  N1075  1  0.805550  0.091120  0.775400  1.0  -0.1439
  N  N1076  1  0.702340  0.091800  0.667600  1.0  -0.1698
  N  N1077  1  0.024570  0.010390  0.682000  1.0  -0.3254
  N  N1078  1  0.028000  0.013000  0.597940  1.0  -0.2263
  N  N1079  1  0.781800  0.662150  0.959500  1.0  -0.2997
  N  N1080  1  0.821300  0.616100  0.947100  1.0  -0.2309
  N  N1081  1  0.593410  0.801350  0.658200  1.0  -0.1422
  N  N1082  1  0.591820  0.696750  0.764000  1.0  -0.1378
  N  N1083  1  0.694450  0.408880  0.775400  1.0  -0.144
  N  N1084  1  0.797660  0.408200  0.667600  1.0  -0.1694
  N  N1085  1  0.475430  0.489610  0.682000  1.0  -0.3249
  N  N1086  1  0.472000  0.487000  0.597940  1.0  -0.2241
  N  N1087  1  0.718200  0.837850  0.959500  1.0  -0.3
  N  N1088  1  0.678700  0.883900  0.947100  1.0  -0.2296
  N  N1089  1  0.093410  0.198650  0.841800  1.0  -0.1426
  N  N1090  1  0.091820  0.303250  0.736000  1.0  -0.1376
  N  N1091  1  0.194450  0.591120  0.724600  1.0  -0.143
  N  N1092  1  0.297660  0.591800  0.832400  1.0  -0.1697
  N  N1093  1  0.975430  0.510390  0.818000  1.0  -0.3249
  N  N1094  1  0.972000  0.513000  0.902060  1.0  -0.2254
  N  N1095  1  0.218200  0.162150  0.540500  1.0  -0.2994
  N  N1096  1  0.178700  0.116100  0.552900  1.0  -0.2322
  N  N1097  1  0.406590  0.301350  0.841800  1.0  -0.1428
  N  N1098  1  0.408180  0.196750  0.736000  1.0  -0.1378
  N  N1099  1  0.305550  0.908880  0.724600  1.0  -0.1441
  N  N1100  1  0.202340  0.908200  0.832400  1.0  -0.1705
  N  N1101  1  0.524570  0.989610  0.818000  1.0  -0.3253
  N  N1102  1  0.528000  0.987000  0.902060  1.0  -0.227
  N  N1103  1  0.281800  0.337850  0.540500  1.0  -0.3006
  N  N1104  1  0.321300  0.383900  0.552900  1.0  -0.2325
  O  O1105  1  0.025200  0.047600  0.170540  1.0  -0.599
  O  O1106  1  0.044970  0.976010  0.164700  1.0  -0.5752
  O  O1107  1  0.266160  0.794920  0.081200  1.0  -0.5413
  O  O1108  1  0.209910  0.775510  0.081700  1.0  -0.5955
  O  O1109  1  0.038890  0.975700  0.245780  1.0  -0.5639
  O  O1110  1  0.014570  0.045530  0.251010  1.0  -0.566
  O  O1111  1  0.445500  0.978110  0.271840  1.0  -0.5784
  O  O1112  1  0.232720  0.794430  0.480200  1.0  -0.5533
  O  O1113  1  0.288870  0.776460  0.478900  1.0  -0.5721
  O  O1114  1  0.455330  0.971110  0.352040  1.0  -0.5745
  O  O1115  1  0.204980  0.266650  0.089100  1.0  -0.5845
  O  O1116  1  0.225130  0.210200  0.090300  1.0  -0.5677
  O  O1117  1  0.025280  0.457070  0.356800  1.0  -0.5871
  O  O1118  1  0.029900  0.451430  0.275130  1.0  -0.5803
  O  O1119  1  0.224720  0.291590  0.490500  1.0  -0.5789
  O  O1120  1  0.205820  0.234820  0.490200  1.0  -0.5868
  O  O1121  1  0.474800  0.452400  0.170540  1.0  -0.599
  O  O1122  1  0.455030  0.523990  0.164700  1.0  -0.5749
  O  O1123  1  0.233840  0.705080  0.081200  1.0  -0.5417
  O  O1124  1  0.290090  0.724490  0.081700  1.0  -0.595
  O  O1125  1  0.461110  0.524300  0.245780  1.0  -0.5633
  O  O1126  1  0.485430  0.454470  0.251010  1.0  -0.5648
  O  O1127  1  0.054500  0.521890  0.271840  1.0  -0.5779
  O  O1128  1  0.267280  0.705570  0.480200  1.0  -0.554
  O  O1129  1  0.211130  0.723540  0.478900  1.0  -0.5718
  O  O1130  1  0.044670  0.528890  0.352040  1.0  -0.5743
  O  O1131  1  0.295020  0.233350  0.089100  1.0  -0.5848
  O  O1132  1  0.274870  0.289800  0.090300  1.0  -0.5666
  O  O1133  1  0.474720  0.042930  0.356800  1.0  -0.5867
  O  O1134  1  0.470100  0.048570  0.275130  1.0  -0.58
  O  O1135  1  0.275280  0.208410  0.490500  1.0  -0.5811
  O  O1136  1  0.294180  0.265180  0.490200  1.0  -0.5858
  O  O1137  1  0.974800  0.547600  0.329460  1.0  -0.5993
  O  O1138  1  0.955030  0.476010  0.335300  1.0  -0.5738
  O  O1139  1  0.733840  0.294920  0.418800  1.0  -0.5414
  O  O1140  1  0.790090  0.275510  0.418300  1.0  -0.596
  O  O1141  1  0.961110  0.475700  0.254220  1.0  -0.5629
  O  O1142  1  0.985430  0.545530  0.248990  1.0  -0.5649
  O  O1143  1  0.554500  0.478110  0.228160  1.0  -0.5775
  O  O1144  1  0.767280  0.294430  0.019800  1.0  -0.554
  O  O1145  1  0.711130  0.276460  0.021100  1.0  -0.5718
  O  O1146  1  0.544670  0.471110  0.147960  1.0  -0.5754
  O  O1147  1  0.795020  0.766650  0.410900  1.0  -0.5851
  O  O1148  1  0.774870  0.710200  0.409700  1.0  -0.5687
  O  O1149  1  0.974720  0.957070  0.143200  1.0  -0.5873
  O  O1150  1  0.970100  0.951430  0.224870  1.0  -0.5794
  O  O1151  1  0.775280  0.791590  0.009500  1.0  -0.5787
  O  O1152  1  0.794180  0.734820  0.009800  1.0  -0.5867
  O  O1153  1  0.525200  0.952400  0.329460  1.0  -0.5973
  O  O1154  1  0.544970  0.023990  0.335300  1.0  -0.5732
  O  O1155  1  0.766160  0.205080  0.418800  1.0  -0.5417
  O  O1156  1  0.709910  0.224490  0.418300  1.0  -0.5952
  O  O1157  1  0.538890  0.024300  0.254220  1.0  -0.5636
  O  O1158  1  0.514570  0.954470  0.248990  1.0  -0.5655
  O  O1159  1  0.945500  0.021890  0.228160  1.0  -0.5782
  O  O1160  1  0.732720  0.205570  0.019800  1.0  -0.5539
  O  O1161  1  0.788870  0.223540  0.021100  1.0  -0.5717
  O  O1162  1  0.955330  0.028890  0.147960  1.0  -0.5757
  O  O1163  1  0.704980  0.733350  0.410900  1.0  -0.5852
  O  O1164  1  0.725130  0.789800  0.409700  1.0  -0.5678
  O  O1165  1  0.525280  0.542930  0.143200  1.0  -0.5874
  O  O1166  1  0.529900  0.548570  0.224870  1.0  -0.5794
  O  O1167  1  0.724720  0.708410  0.009500  1.0  -0.579
  O  O1168  1  0.705820  0.765180  0.009800  1.0  -0.5849
  O  O1169  1  0.974800  0.952400  0.829460  1.0  -0.5991
  O  O1170  1  0.955030  0.023990  0.835300  1.0  -0.5737
  O  O1171  1  0.733840  0.205080  0.918800  1.0  -0.5412
  O  O1172  1  0.790090  0.224490  0.918300  1.0  -0.5953
  O  O1173  1  0.961110  0.024300  0.754220  1.0  -0.5627
  O  O1174  1  0.985430  0.954470  0.748990  1.0  -0.5644
  O  O1175  1  0.554500  0.021890  0.728160  1.0  -0.578
  O  O1176  1  0.767280  0.205570  0.519800  1.0  -0.5542
  O  O1177  1  0.711130  0.223540  0.521100  1.0  -0.5717
  O  O1178  1  0.544670  0.028890  0.647960  1.0  -0.5752
  O  O1179  1  0.795020  0.733350  0.910900  1.0  -0.5851
  O  O1180  1  0.774870  0.789800  0.909700  1.0  -0.5671
  O  O1181  1  0.974720  0.542930  0.643200  1.0  -0.5875
  O  O1182  1  0.970100  0.548570  0.724870  1.0  -0.5799
  O  O1183  1  0.775280  0.708410  0.509500  1.0  -0.5801
  O  O1184  1  0.794180  0.765180  0.509800  1.0  -0.5855
  O  O1185  1  0.525200  0.547600  0.829460  1.0  -0.5978
  O  O1186  1  0.544970  0.476010  0.835300  1.0  -0.5733
  O  O1187  1  0.766160  0.294920  0.918800  1.0  -0.541
  O  O1188  1  0.709910  0.275510  0.918300  1.0  -0.5955
  O  O1189  1  0.538890  0.475700  0.754220  1.0  -0.564
  O  O1190  1  0.514570  0.545530  0.748990  1.0  -0.5655
  O  O1191  1  0.945500  0.478110  0.728160  1.0  -0.5773
  O  O1192  1  0.732720  0.294430  0.519800  1.0  -0.5539
  O  O1193  1  0.788870  0.276460  0.521100  1.0  -0.5721
  O  O1194  1  0.955330  0.471110  0.647960  1.0  -0.5756
  O  O1195  1  0.704980  0.766650  0.910900  1.0  -0.5851
  O  O1196  1  0.725130  0.710200  0.909700  1.0  -0.5686
  O  O1197  1  0.525280  0.957070  0.643200  1.0  -0.5874
  O  O1198  1  0.529900  0.951430  0.724870  1.0  -0.5794
  O  O1199  1  0.724720  0.791590  0.509500  1.0  -0.5777
  O  O1200  1  0.705820  0.734820  0.509800  1.0  -0.5862
  O  O1201  1  0.025200  0.452400  0.670540  1.0  -0.5991
  O  O1202  1  0.044970  0.523990  0.664700  1.0  -0.5751
  O  O1203  1  0.266160  0.705080  0.581200  1.0  -0.5414
  O  O1204  1  0.209910  0.724490  0.581700  1.0  -0.595
  O  O1205  1  0.038890  0.524300  0.745780  1.0  -0.5638
  O  O1206  1  0.014570  0.454470  0.751010  1.0  -0.5662
  O  O1207  1  0.445500  0.521890  0.771840  1.0  -0.578
  O  O1208  1  0.232720  0.705570  0.980200  1.0  -0.5536
  O  O1209  1  0.288870  0.723540  0.978900  1.0  -0.5714
  O  O1210  1  0.455330  0.528890  0.852040  1.0  -0.5742
  O  O1211  1  0.204980  0.233350  0.589100  1.0  -0.5847
  O  O1212  1  0.225130  0.289800  0.590300  1.0  -0.5673
  O  O1213  1  0.025280  0.042930  0.856800  1.0  -0.5872
  O  O1214  1  0.029900  0.048570  0.775130  1.0  -0.5794
  O  O1215  1  0.224720  0.208410  0.990500  1.0  -0.5797
  O  O1216  1  0.205820  0.265180  0.990200  1.0  -0.5856
  O  O1217  1  0.474800  0.047600  0.670540  1.0  -0.5987
  O  O1218  1  0.455030  0.976010  0.664700  1.0  -0.5749
  O  O1219  1  0.233840  0.794920  0.581200  1.0  -0.5416
  O  O1220  1  0.290090  0.775510  0.581700  1.0  -0.5955
  O  O1221  1  0.461110  0.975700  0.745780  1.0  -0.5632
  O  O1222  1  0.485430  0.045530  0.751010  1.0  -0.5652
  O  O1223  1  0.054500  0.978110  0.771840  1.0  -0.5789
  O  O1224  1  0.267280  0.794430  0.980200  1.0  -0.5537
  O  O1225  1  0.211130  0.776460  0.978900  1.0  -0.572
  O  O1226  1  0.044670  0.971110  0.852040  1.0  -0.5746
  O  O1227  1  0.295020  0.266650  0.589100  1.0  -0.5845
  O  O1228  1  0.274870  0.210200  0.590300  1.0  -0.5687
  O  O1229  1  0.474720  0.457070  0.856800  1.0  -0.5863
  O  O1230  1  0.470100  0.451430  0.775130  1.0  -0.5804
  O  O1231  1  0.275280  0.291590  0.990500  1.0  -0.5797
  O  O1232  1  0.294180  0.234820  0.990200  1.0  -0.5872
