# generated using pymatgen
data_MgH20(C9O2)4
_symmetry_space_group_name_H-M   'P 1'
_cell_length_a   27.34890000
_cell_length_b   27.34890000
_cell_length_c   27.34890000
_cell_angle_alpha   90.00000000
_cell_angle_beta   90.00000000
_cell_angle_gamma   90.00000000
_symmetry_Int_Tables_number   1
_chemical_formula_structural   MgH20(C9O2)4
_chemical_formula_sum   'Mg12 H240 C432 O96'
_cell_volume   20455.94700003
_cell_formula_units_Z   12
loop_
 _symmetry_equiv_pos_site_id
 _symmetry_equiv_pos_as_xyz
  1  'x, y, z'
loop_
 _atom_site_type_symbol
 _atom_site_label
 _atom_site_symmetry_multiplicity
 _atom_site_fract_x
 _atom_site_fract_y
 _atom_site_fract_z
 _atom_site_occupancy
 _atom_site_charge
  Mg  Mg1  1  0.172180  0.000000  0.500000  1.0  1.6638
  Mg  Mg2  1  0.827820  0.000000  0.500000  1.0  1.6643
  Mg  Mg3  1  0.500000  0.172180  0.000000  1.0  1.6634
  Mg  Mg4  1  0.500000  0.827820  0.000000  1.0  1.6647
  Mg  Mg5  1  0.000000  0.500000  0.172180  1.0  1.663
  Mg  Mg6  1  0.000000  0.500000  0.827820  1.0  1.6645
  Mg  Mg7  1  0.672180  0.500000  0.000000  1.0  1.6638
  Mg  Mg8  1  0.327820  0.500000  0.000000  1.0  1.6643
  Mg  Mg9  1  0.000000  0.672180  0.500000  1.0  1.6634
  Mg  Mg10  1  0.000000  0.327820  0.500000  1.0  1.6647
  Mg  Mg11  1  0.500000  0.000000  0.672180  1.0  1.663
  Mg  Mg12  1  0.500000  0.000000  0.327820  1.0  1.6645
  H  H13  1  0.088300  0.129900  0.362400  1.0  0.1147
  H  H14  1  0.110500  0.161600  0.288500  1.0  0.1015
  H  H15  1  0.249700  0.136700  0.317500  1.0  0.0889
  H  H16  1  0.228300  0.091500  0.385000  1.0  0.1206
  H  H17  1  0.143300  0.236000  0.255800  1.0  0.1114
  H  H18  1  0.911700  0.870100  0.362400  1.0  0.1146
  H  H19  1  0.889500  0.838400  0.288500  1.0  0.1018
  H  H20  1  0.750300  0.863300  0.317500  1.0  0.0871
  H  H21  1  0.771700  0.908500  0.385000  1.0  0.1208
  H  H22  1  0.856700  0.764000  0.255800  1.0  0.1088
  H  H23  1  0.911700  0.129900  0.637600  1.0  0.1147
  H  H24  1  0.889500  0.161600  0.711500  1.0  0.1022
  H  H25  1  0.750300  0.136700  0.682500  1.0  0.0868
  H  H26  1  0.771700  0.091500  0.615000  1.0  0.1206
  H  H27  1  0.856700  0.236000  0.744200  1.0  0.1086
  H  H28  1  0.088300  0.870100  0.637600  1.0  0.1147
  H  H29  1  0.110500  0.838400  0.711500  1.0  0.1013
  H  H30  1  0.249700  0.863300  0.682500  1.0  0.0886
  H  H31  1  0.228300  0.908500  0.615000  1.0  0.1205
  H  H32  1  0.143300  0.764000  0.744200  1.0  0.1118
  H  H33  1  0.362400  0.088300  0.129900  1.0  0.1135
  H  H34  1  0.288500  0.110500  0.161600  1.0  0.101
  H  H35  1  0.317500  0.249700  0.136700  1.0  0.0891
  H  H36  1  0.385000  0.228300  0.091500  1.0  0.1203
  H  H37  1  0.255800  0.143300  0.236000  1.0  0.1081
  H  H38  1  0.362400  0.911700  0.870100  1.0  0.1136
  H  H39  1  0.288500  0.889500  0.838400  1.0  0.1019
  H  H40  1  0.317500  0.750300  0.863300  1.0  0.0899
  H  H41  1  0.385000  0.771700  0.908500  1.0  0.1207
  H  H42  1  0.255800  0.856700  0.764000  1.0  0.1095
  H  H43  1  0.637600  0.911700  0.129900  1.0  0.1133
  H  H44  1  0.711500  0.889500  0.161600  1.0  0.1013
  H  H45  1  0.682500  0.750300  0.136700  1.0  0.0894
  H  H46  1  0.615000  0.771700  0.091500  1.0  0.1198
  H  H47  1  0.744200  0.856700  0.236000  1.0  0.1093
  H  H48  1  0.637600  0.088300  0.870100  1.0  0.1135
  H  H49  1  0.711500  0.110500  0.838400  1.0  0.1014
  H  H50  1  0.682500  0.249700  0.863300  1.0  0.0893
  H  H51  1  0.615000  0.228300  0.908500  1.0  0.1211
  H  H52  1  0.744200  0.143300  0.764000  1.0  0.1084
  H  H53  1  0.129900  0.362400  0.088300  1.0  0.1136
  H  H54  1  0.161600  0.288500  0.110500  1.0  0.1008
  H  H55  1  0.136700  0.317500  0.249700  1.0  0.0869
  H  H56  1  0.091500  0.385000  0.228300  1.0  0.1212
  H  H57  1  0.236000  0.255800  0.143300  1.0  0.1103
  H  H58  1  0.870100  0.362400  0.911700  1.0  0.1125
  H  H59  1  0.838400  0.288500  0.889500  1.0  0.101
  H  H60  1  0.863300  0.317500  0.750300  1.0  0.0886
  H  H61  1  0.908500  0.385000  0.771700  1.0  0.1208
  H  H62  1  0.764000  0.255800  0.856700  1.0  0.1113
  H  H63  1  0.129900  0.637600  0.911700  1.0  0.1131
  H  H64  1  0.161600  0.711500  0.889500  1.0  0.1015
  H  H65  1  0.136700  0.682500  0.750300  1.0  0.0879
  H  H66  1  0.091500  0.615000  0.771700  1.0  0.1205
  H  H67  1  0.236000  0.744200  0.856700  1.0  0.1115
  H  H68  1  0.870100  0.637600  0.088300  1.0  0.1135
  H  H69  1  0.838400  0.711500  0.110500  1.0  0.1018
  H  H70  1  0.863300  0.682500  0.249700  1.0  0.0872
  H  H71  1  0.908500  0.615000  0.228300  1.0  0.1209
  H  H72  1  0.764000  0.744200  0.143300  1.0  0.1109
  H  H73  1  0.911700  0.870100  0.637600  1.0  0.1147
  H  H74  1  0.889500  0.838400  0.711500  1.0  0.1017
  H  H75  1  0.750300  0.863300  0.682500  1.0  0.0869
  H  H76  1  0.771700  0.908500  0.615000  1.0  0.1208
  H  H77  1  0.856700  0.764000  0.744200  1.0  0.1088
  H  H78  1  0.088300  0.129900  0.637600  1.0  0.1147
  H  H79  1  0.110500  0.161600  0.711500  1.0  0.1017
  H  H80  1  0.249700  0.136700  0.682500  1.0  0.0886
  H  H81  1  0.228300  0.091500  0.615000  1.0  0.1203
  H  H82  1  0.143300  0.236000  0.744200  1.0  0.1117
  H  H83  1  0.088300  0.870100  0.362400  1.0  0.1147
  H  H84  1  0.110500  0.838400  0.288500  1.0  0.1012
  H  H85  1  0.249700  0.863300  0.317500  1.0  0.0888
  H  H86  1  0.228300  0.908500  0.385000  1.0  0.1206
  H  H87  1  0.143300  0.764000  0.255800  1.0  0.1117
  H  H88  1  0.911700  0.129900  0.362400  1.0  0.1146
  H  H89  1  0.889500  0.161600  0.288500  1.0  0.1021
  H  H90  1  0.750300  0.136700  0.317500  1.0  0.0869
  H  H91  1  0.771700  0.091500  0.385000  1.0  0.1209
  H  H92  1  0.856700  0.236000  0.255800  1.0  0.1086
  H  H93  1  0.637600  0.911700  0.870100  1.0  0.1135
  H  H94  1  0.711500  0.889500  0.838400  1.0  0.1015
  H  H95  1  0.682500  0.750300  0.863300  1.0  0.0896
  H  H96  1  0.615000  0.771700  0.908500  1.0  0.1207
  H  H97  1  0.744200  0.856700  0.764000  1.0  0.1096
  H  H98  1  0.637600  0.088300  0.129900  1.0  0.1134
  H  H99  1  0.711500  0.110500  0.161600  1.0  0.1014
  H  H100  1  0.682500  0.249700  0.136700  1.0  0.0887
  H  H101  1  0.615000  0.228300  0.091500  1.0  0.1206
  H  H102  1  0.744200  0.143300  0.236000  1.0  0.108
  H  H103  1  0.362400  0.088300  0.870100  1.0  0.1135
  H  H104  1  0.288500  0.110500  0.838400  1.0  0.101
  H  H105  1  0.317500  0.249700  0.863300  1.0  0.0893
  H  H106  1  0.385000  0.228300  0.908500  1.0  0.1206
  H  H107  1  0.255800  0.143300  0.764000  1.0  0.1086
  H  H108  1  0.362400  0.911700  0.129900  1.0  0.1135
  H  H109  1  0.288500  0.889500  0.161600  1.0  0.1016
  H  H110  1  0.317500  0.750300  0.136700  1.0  0.09
  H  H111  1  0.385000  0.771700  0.091500  1.0  0.1201
  H  H112  1  0.255800  0.856700  0.236000  1.0  0.1092
  H  H113  1  0.870100  0.637600  0.911700  1.0  0.1128
  H  H114  1  0.838400  0.711500  0.889500  1.0  0.1012
  H  H115  1  0.863300  0.682500  0.750300  1.0  0.0889
  H  H116  1  0.908500  0.615000  0.771700  1.0  0.1206
  H  H117  1  0.764000  0.744200  0.856700  1.0  0.1116
  H  H118  1  0.129900  0.637600  0.088300  1.0  0.1135
  H  H119  1  0.161600  0.711500  0.110500  1.0  0.1013
  H  H120  1  0.136700  0.682500  0.249700  1.0  0.087
  H  H121  1  0.091500  0.615000  0.228300  1.0  0.1213
  H  H122  1  0.236000  0.744200  0.143300  1.0  0.1105
  H  H123  1  0.870100  0.362400  0.088300  1.0  0.1135
  H  H124  1  0.838400  0.288500  0.110500  1.0  0.1011
  H  H125  1  0.863300  0.317500  0.249700  1.0  0.087
  H  H126  1  0.908500  0.385000  0.228300  1.0  0.1209
  H  H127  1  0.764000  0.255800  0.143300  1.0  0.1109
  H  H128  1  0.129900  0.362400  0.911700  1.0  0.1131
  H  H129  1  0.161600  0.288500  0.889500  1.0  0.1018
  H  H130  1  0.136700  0.317500  0.750300  1.0  0.088
  H  H131  1  0.091500  0.385000  0.771700  1.0  0.1208
  H  H132  1  0.236000  0.255800  0.856700  1.0  0.1112
  H  H133  1  0.588300  0.629900  0.862400  1.0  0.1147
  H  H134  1  0.610500  0.661600  0.788500  1.0  0.1015
  H  H135  1  0.749700  0.636700  0.817500  1.0  0.0889
  H  H136  1  0.728300  0.591500  0.885000  1.0  0.1206
  H  H137  1  0.643300  0.736000  0.755800  1.0  0.1114
  H  H138  1  0.411700  0.370100  0.862400  1.0  0.1146
  H  H139  1  0.389500  0.338400  0.788500  1.0  0.1018
  H  H140  1  0.250300  0.363300  0.817500  1.0  0.0871
  H  H141  1  0.271700  0.408500  0.885000  1.0  0.1208
  H  H142  1  0.356700  0.264000  0.755800  1.0  0.1088
  H  H143  1  0.411700  0.629900  0.137600  1.0  0.1147
  H  H144  1  0.389500  0.661600  0.211500  1.0  0.1022
  H  H145  1  0.250300  0.636700  0.182500  1.0  0.0868
  H  H146  1  0.271700  0.591500  0.115000  1.0  0.1206
  H  H147  1  0.356700  0.736000  0.244200  1.0  0.1086
  H  H148  1  0.588300  0.370100  0.137600  1.0  0.1147
  H  H149  1  0.610500  0.338400  0.211500  1.0  0.1013
  H  H150  1  0.749700  0.363300  0.182500  1.0  0.0886
  H  H151  1  0.728300  0.408500  0.115000  1.0  0.1205
  H  H152  1  0.643300  0.264000  0.244200  1.0  0.1118
  H  H153  1  0.862400  0.588300  0.629900  1.0  0.1135
  H  H154  1  0.788500  0.610500  0.661600  1.0  0.101
  H  H155  1  0.817500  0.749700  0.636700  1.0  0.0891
  H  H156  1  0.885000  0.728300  0.591500  1.0  0.1203
  H  H157  1  0.755800  0.643300  0.736000  1.0  0.1081
  H  H158  1  0.862400  0.411700  0.370100  1.0  0.1136
  H  H159  1  0.788500  0.389500  0.338400  1.0  0.1019
  H  H160  1  0.817500  0.250300  0.363300  1.0  0.0899
  H  H161  1  0.885000  0.271700  0.408500  1.0  0.1207
  H  H162  1  0.755800  0.356700  0.264000  1.0  0.1095
  H  H163  1  0.137600  0.411700  0.629900  1.0  0.1133
  H  H164  1  0.211500  0.389500  0.661600  1.0  0.1013
  H  H165  1  0.182500  0.250300  0.636700  1.0  0.0894
  H  H166  1  0.115000  0.271700  0.591500  1.0  0.1198
  H  H167  1  0.244200  0.356700  0.736000  1.0  0.1093
  H  H168  1  0.137600  0.588300  0.370100  1.0  0.1135
  H  H169  1  0.211500  0.610500  0.338400  1.0  0.1014
  H  H170  1  0.182500  0.749700  0.363300  1.0  0.0893
  H  H171  1  0.115000  0.728300  0.408500  1.0  0.1211
  H  H172  1  0.244200  0.643300  0.264000  1.0  0.1084
  H  H173  1  0.629900  0.862400  0.588300  1.0  0.1136
  H  H174  1  0.661600  0.788500  0.610500  1.0  0.1008
  H  H175  1  0.636700  0.817500  0.749700  1.0  0.0869
  H  H176  1  0.591500  0.885000  0.728300  1.0  0.1212
  H  H177  1  0.736000  0.755800  0.643300  1.0  0.1103
  H  H178  1  0.370100  0.862400  0.411700  1.0  0.1125
  H  H179  1  0.338400  0.788500  0.389500  1.0  0.101
  H  H180  1  0.363300  0.817500  0.250300  1.0  0.0886
  H  H181  1  0.408500  0.885000  0.271700  1.0  0.1208
  H  H182  1  0.264000  0.755800  0.356700  1.0  0.1113
  H  H183  1  0.629900  0.137600  0.411700  1.0  0.1131
  H  H184  1  0.661600  0.211500  0.389500  1.0  0.1015
  H  H185  1  0.636700  0.182500  0.250300  1.0  0.0879
  H  H186  1  0.591500  0.115000  0.271700  1.0  0.1205
  H  H187  1  0.736000  0.244200  0.356700  1.0  0.1115
  H  H188  1  0.370100  0.137600  0.588300  1.0  0.1135
  H  H189  1  0.338400  0.211500  0.610500  1.0  0.1018
  H  H190  1  0.363300  0.182500  0.749700  1.0  0.0872
  H  H191  1  0.408500  0.115000  0.728300  1.0  0.1209
  H  H192  1  0.264000  0.244200  0.643300  1.0  0.1109
  H  H193  1  0.411700  0.370100  0.137600  1.0  0.1147
  H  H194  1  0.389500  0.338400  0.211500  1.0  0.1017
  H  H195  1  0.250300  0.363300  0.182500  1.0  0.0869
  H  H196  1  0.271700  0.408500  0.115000  1.0  0.1208
  H  H197  1  0.356700  0.264000  0.244200  1.0  0.1088
  H  H198  1  0.588300  0.629900  0.137600  1.0  0.1147
  H  H199  1  0.610500  0.661600  0.211500  1.0  0.1017
  H  H200  1  0.749700  0.636700  0.182500  1.0  0.0886
  H  H201  1  0.728300  0.591500  0.115000  1.0  0.1203
  H  H202  1  0.643300  0.736000  0.244200  1.0  0.1117
  H  H203  1  0.588300  0.370100  0.862400  1.0  0.1147
  H  H204  1  0.610500  0.338400  0.788500  1.0  0.1012
  H  H205  1  0.749700  0.363300  0.817500  1.0  0.0888
  H  H206  1  0.728300  0.408500  0.885000  1.0  0.1206
  H  H207  1  0.643300  0.264000  0.755800  1.0  0.1117
  H  H208  1  0.411700  0.629900  0.862400  1.0  0.1146
  H  H209  1  0.389500  0.661600  0.788500  1.0  0.1021
  H  H210  1  0.250300  0.636700  0.817500  1.0  0.0869
  H  H211  1  0.271700  0.591500  0.885000  1.0  0.1209
  H  H212  1  0.356700  0.736000  0.755800  1.0  0.1086
  H  H213  1  0.137600  0.411700  0.370100  1.0  0.1135
  H  H214  1  0.211500  0.389500  0.338400  1.0  0.1015
  H  H215  1  0.182500  0.250300  0.363300  1.0  0.0896
  H  H216  1  0.115000  0.271700  0.408500  1.0  0.1207
  H  H217  1  0.244200  0.356700  0.264000  1.0  0.1096
  H  H218  1  0.137600  0.588300  0.629900  1.0  0.1134
  H  H219  1  0.211500  0.610500  0.661600  1.0  0.1014
  H  H220  1  0.182500  0.749700  0.636700  1.0  0.0887
  H  H221  1  0.115000  0.728300  0.591500  1.0  0.1206
  H  H222  1  0.244200  0.643300  0.736000  1.0  0.108
  H  H223  1  0.862400  0.588300  0.370100  1.0  0.1135
  H  H224  1  0.788500  0.610500  0.338400  1.0  0.101
  H  H225  1  0.817500  0.749700  0.363300  1.0  0.0893
  H  H226  1  0.885000  0.728300  0.408500  1.0  0.1206
  H  H227  1  0.755800  0.643300  0.264000  1.0  0.1086
  H  H228  1  0.862400  0.411700  0.629900  1.0  0.1135
  H  H229  1  0.788500  0.389500  0.661600  1.0  0.1016
  H  H230  1  0.817500  0.250300  0.636700  1.0  0.09
  H  H231  1  0.885000  0.271700  0.591500  1.0  0.1201
  H  H232  1  0.755800  0.356700  0.736000  1.0  0.1092
  H  H233  1  0.370100  0.137600  0.411700  1.0  0.1128
  H  H234  1  0.338400  0.211500  0.389500  1.0  0.1012
  H  H235  1  0.363300  0.182500  0.250300  1.0  0.0889
  H  H236  1  0.408500  0.115000  0.271700  1.0  0.1206
  H  H237  1  0.264000  0.244200  0.356700  1.0  0.1116
  H  H238  1  0.629900  0.137600  0.588300  1.0  0.1135
  H  H239  1  0.661600  0.211500  0.610500  1.0  0.1013
  H  H240  1  0.636700  0.182500  0.749700  1.0  0.087
  H  H241  1  0.591500  0.115000  0.728300  1.0  0.1213
  H  H242  1  0.736000  0.244200  0.643300  1.0  0.1105
  H  H243  1  0.370100  0.862400  0.588300  1.0  0.1135
  H  H244  1  0.338400  0.788500  0.610500  1.0  0.1011
  H  H245  1  0.363300  0.817500  0.749700  1.0  0.087
  H  H246  1  0.408500  0.885000  0.728300  1.0  0.1209
  H  H247  1  0.264000  0.755800  0.643300  1.0  0.1109
  H  H248  1  0.629900  0.862400  0.411700  1.0  0.1131
  H  H249  1  0.661600  0.788500  0.389500  1.0  0.1018
  H  H250  1  0.636700  0.817500  0.250300  1.0  0.088
  H  H251  1  0.591500  0.885000  0.271700  1.0  0.1208
  H  H252  1  0.736000  0.755800  0.356700  1.0  0.1112
  C  C253  1  0.139430  0.074630  0.422970  1.0  0.7007
  C  C254  1  0.155280  0.101730  0.378520  1.0  -0.1205
  C  C255  1  0.120450  0.127870  0.351660  1.0  -0.1085
  C  C256  1  0.134460  0.150150  0.309720  1.0  -0.1084
  C  C257  1  0.183610  0.156600  0.297170  1.0  0.0814
  C  C258  1  0.216800  0.133860  0.325550  1.0  -0.1353
  C  C259  1  0.204210  0.106520  0.366180  1.0  -0.1063
  C  C260  1  0.196810  0.185280  0.252880  1.0  0.0199
  C  C261  1  0.170650  0.226180  0.238200  1.0  -0.1389
  C  C262  1  0.860570  0.925370  0.422970  1.0  0.7011
  C  C263  1  0.844720  0.898270  0.378520  1.0  -0.1196
  C  C264  1  0.879550  0.872130  0.351660  1.0  -0.1061
  C  C265  1  0.865540  0.849850  0.309720  1.0  -0.1063
  C  C266  1  0.816390  0.843400  0.297170  1.0  0.0799
  C  C267  1  0.783200  0.866140  0.325550  1.0  -0.1392
  C  C268  1  0.795790  0.893480  0.366180  1.0  -0.1078
  C  C269  1  0.803190  0.814720  0.252880  1.0  0.019
  C  C270  1  0.829350  0.773820  0.238200  1.0  -0.1371
  C  C271  1  0.860570  0.074630  0.577030  1.0  0.6988
  C  C272  1  0.844720  0.101730  0.621480  1.0  -0.1181
  C  C273  1  0.879550  0.127870  0.648340  1.0  -0.1069
  C  C274  1  0.865540  0.150150  0.690280  1.0  -0.1062
  C  C275  1  0.816390  0.156600  0.702830  1.0  0.081
  C  C276  1  0.783200  0.133860  0.674450  1.0  -0.1373
  C  C277  1  0.795790  0.106520  0.633820  1.0  -0.1075
  C  C278  1  0.803190  0.185280  0.747120  1.0  0.0209
  C  C279  1  0.829350  0.226180  0.761800  1.0  -0.1387
  C  C280  1  0.139430  0.925370  0.577030  1.0  0.7009
  C  C281  1  0.155280  0.898270  0.621480  1.0  -0.1183
  C  C282  1  0.120450  0.872130  0.648340  1.0  -0.1092
  C  C283  1  0.134460  0.849850  0.690280  1.0  -0.1075
  C  C284  1  0.183610  0.843400  0.702830  1.0  0.0808
  C  C285  1  0.216800  0.866140  0.674450  1.0  -0.1378
  C  C286  1  0.204210  0.893480  0.633820  1.0  -0.1076
  C  C287  1  0.196810  0.814720  0.747120  1.0  0.0189
  C  C288  1  0.170650  0.773820  0.761800  1.0  -0.14
  C  C289  1  0.422970  0.139430  0.074630  1.0  0.6993
  C  C290  1  0.378520  0.155280  0.101730  1.0  -0.1165
  C  C291  1  0.351660  0.120450  0.127870  1.0  -0.109
  C  C292  1  0.309720  0.134460  0.150150  1.0  -0.1109
  C  C293  1  0.297170  0.183610  0.156600  1.0  0.0824
  C  C294  1  0.325550  0.216800  0.133860  1.0  -0.1364
  C  C295  1  0.366180  0.204210  0.106520  1.0  -0.1087
  C  C296  1  0.252880  0.196810  0.185280  1.0  0.0177
  C  C297  1  0.238200  0.170650  0.226180  1.0  -0.139
  C  C298  1  0.422970  0.860570  0.925370  1.0  0.6985
  C  C299  1  0.378520  0.844720  0.898270  1.0  -0.1183
  C  C300  1  0.351660  0.879550  0.872130  1.0  -0.1057
  C  C301  1  0.309720  0.865540  0.849850  1.0  -0.1122
  C  C302  1  0.297170  0.816390  0.843400  1.0  0.0837
  C  C303  1  0.325550  0.783200  0.866140  1.0  -0.1375
  C  C304  1  0.366180  0.795790  0.893480  1.0  -0.1079
  C  C305  1  0.252880  0.803190  0.814720  1.0  0.0166
  C  C306  1  0.238200  0.829350  0.773820  1.0  -0.1393
  C  C307  1  0.577030  0.860570  0.074630  1.0  0.6983
  C  C308  1  0.621480  0.844720  0.101730  1.0  -0.1176
  C  C309  1  0.648340  0.879550  0.127870  1.0  -0.1066
  C  C310  1  0.690280  0.865540  0.150150  1.0  -0.1113
  C  C311  1  0.702830  0.816390  0.156600  1.0  0.0827
  C  C312  1  0.674450  0.783200  0.133860  1.0  -0.1372
  C  C313  1  0.633820  0.795790  0.106520  1.0  -0.1085
  C  C314  1  0.747120  0.803190  0.185280  1.0  0.0179
  C  C315  1  0.761800  0.829350  0.226180  1.0  -0.139
  C  C316  1  0.577030  0.139430  0.925370  1.0  0.6999
  C  C317  1  0.621480  0.155280  0.898270  1.0  -0.1194
  C  C318  1  0.648340  0.120450  0.872130  1.0  -0.1094
  C  C319  1  0.690280  0.134460  0.849850  1.0  -0.1122
  C  C320  1  0.702830  0.183610  0.843400  1.0  0.0837
  C  C321  1  0.674450  0.216800  0.866140  1.0  -0.1369
  C  C322  1  0.633820  0.204210  0.893480  1.0  -0.1086
  C  C323  1  0.747120  0.196810  0.814720  1.0  0.019
  C  C324  1  0.761800  0.170650  0.773820  1.0  -0.1403
  C  C325  1  0.074630  0.422970  0.139430  1.0  0.6981
  C  C326  1  0.101730  0.378520  0.155280  1.0  -0.1169
  C  C327  1  0.127870  0.351660  0.120450  1.0  -0.1077
  C  C328  1  0.150150  0.309720  0.134460  1.0  -0.1073
  C  C329  1  0.156600  0.297170  0.183610  1.0  0.082
  C  C330  1  0.133860  0.325550  0.216800  1.0  -0.135
  C  C331  1  0.106520  0.366180  0.204210  1.0  -0.1061
  C  C332  1  0.185280  0.252880  0.196810  1.0  0.0185
  C  C333  1  0.226180  0.238200  0.170650  1.0  -0.1384
  C  C334  1  0.925370  0.422970  0.860570  1.0  0.6983
  C  C335  1  0.898270  0.378520  0.844720  1.0  -0.1172
  C  C336  1  0.872130  0.351660  0.879550  1.0  -0.1094
  C  C337  1  0.849850  0.309720  0.865540  1.0  -0.109
  C  C338  1  0.843400  0.297170  0.816390  1.0  0.0858
  C  C339  1  0.866140  0.325550  0.783200  1.0  -0.1326
  C  C340  1  0.893480  0.366180  0.795790  1.0  -0.1066
  C  C341  1  0.814720  0.252880  0.803190  1.0  0.017
  C  C342  1  0.773820  0.238200  0.829350  1.0  -0.1403
  C  C343  1  0.074630  0.577030  0.860570  1.0  0.7011
  C  C344  1  0.101730  0.621480  0.844720  1.0  -0.1186
  C  C345  1  0.127870  0.648340  0.879550  1.0  -0.1088
  C  C346  1  0.150150  0.690280  0.865540  1.0  -0.1089
  C  C347  1  0.156600  0.702830  0.816390  1.0  0.084
  C  C348  1  0.133860  0.674450  0.783200  1.0  -0.1347
  C  C349  1  0.106520  0.633820  0.795790  1.0  -0.1058
  C  C350  1  0.185280  0.747120  0.803190  1.0  0.0183
  C  C351  1  0.226180  0.761800  0.829350  1.0  -0.1402
  C  C352  1  0.925370  0.577030  0.139430  1.0  0.6988
  C  C353  1  0.898270  0.621480  0.155280  1.0  -0.1171
  C  C354  1  0.872130  0.648340  0.120450  1.0  -0.109
  C  C355  1  0.849850  0.690280  0.134460  1.0  -0.1088
  C  C356  1  0.843400  0.702830  0.183610  1.0  0.084
  C  C357  1  0.866140  0.674450  0.216800  1.0  -0.1337
  C  C358  1  0.893480  0.633820  0.204210  1.0  -0.1073
  C  C359  1  0.814720  0.747120  0.196810  1.0  0.0174
  C  C360  1  0.773820  0.761800  0.170650  1.0  -0.1379
  C  C361  1  0.860570  0.925370  0.577030  1.0  0.6997
  C  C362  1  0.844720  0.898270  0.621480  1.0  -0.1175
  C  C363  1  0.879550  0.872130  0.648340  1.0  -0.1059
  C  C364  1  0.865540  0.849850  0.690280  1.0  -0.1064
  C  C365  1  0.816390  0.843400  0.702830  1.0  0.0803
  C  C366  1  0.783200  0.866140  0.674450  1.0  -0.1393
  C  C367  1  0.795790  0.893480  0.633820  1.0  -0.108
  C  C368  1  0.803190  0.814720  0.747120  1.0  0.0188
  C  C369  1  0.829350  0.773820  0.761800  1.0  -0.1389
  C  C370  1  0.139430  0.074630  0.577030  1.0  0.7002
  C  C371  1  0.155280  0.101730  0.621480  1.0  -0.1195
  C  C372  1  0.120450  0.127870  0.648340  1.0  -0.1079
  C  C373  1  0.134460  0.150150  0.690280  1.0  -0.1073
  C  C374  1  0.183610  0.156600  0.702830  1.0  0.0818
  C  C375  1  0.216800  0.133860  0.674450  1.0  -0.1356
  C  C376  1  0.204210  0.106520  0.633820  1.0  -0.1078
  C  C377  1  0.196810  0.185280  0.747120  1.0  0.0202
  C  C378  1  0.170650  0.226180  0.761800  1.0  -0.1402
  C  C379  1  0.139430  0.925370  0.422970  1.0  0.7008
  C  C380  1  0.155280  0.898270  0.378520  1.0  -0.1202
  C  C381  1  0.120450  0.872130  0.351660  1.0  -0.1097
  C  C382  1  0.134460  0.849850  0.309720  1.0  -0.1076
  C  C383  1  0.183610  0.843400  0.297170  1.0  0.08
  C  C384  1  0.216800  0.866140  0.325550  1.0  -0.1374
  C  C385  1  0.204210  0.893480  0.366180  1.0  -0.1068
  C  C386  1  0.196810  0.814720  0.252880  1.0  0.0193
  C  C387  1  0.170650  0.773820  0.238200  1.0  -0.1387
  C  C388  1  0.860570  0.074630  0.422970  1.0  0.7008
  C  C389  1  0.844720  0.101730  0.378520  1.0  -0.1197
  C  C390  1  0.879550  0.127870  0.351660  1.0  -0.1071
  C  C391  1  0.865540  0.150150  0.309720  1.0  -0.107
  C  C392  1  0.816390  0.156600  0.297170  1.0  0.0809
  C  C393  1  0.783200  0.133860  0.325550  1.0  -0.1375
  C  C394  1  0.795790  0.106520  0.366180  1.0  -0.1064
  C  C395  1  0.803190  0.185280  0.252880  1.0  0.0203
  C  C396  1  0.829350  0.226180  0.238200  1.0  -0.1371
  C  C397  1  0.577030  0.860570  0.925370  1.0  0.6988
  C  C398  1  0.621480  0.844720  0.898270  1.0  -0.1192
  C  C399  1  0.648340  0.879550  0.872130  1.0  -0.1064
  C  C400  1  0.690280  0.865540  0.849850  1.0  -0.1119
  C  C401  1  0.702830  0.816390  0.843400  1.0  0.0836
  C  C402  1  0.674450  0.783200  0.866140  1.0  -0.1373
  C  C403  1  0.633820  0.795790  0.893480  1.0  -0.1084
  C  C404  1  0.747120  0.803190  0.814720  1.0  0.0178
  C  C405  1  0.761800  0.829350  0.773820  1.0  -0.1395
  C  C406  1  0.577030  0.139430  0.074630  1.0  0.6994
  C  C407  1  0.621480  0.155280  0.101730  1.0  -0.1186
  C  C408  1  0.648340  0.120450  0.127870  1.0  -0.1093
  C  C409  1  0.690280  0.134460  0.150150  1.0  -0.1114
  C  C410  1  0.702830  0.183610  0.156600  1.0  0.0825
  C  C411  1  0.674450  0.216800  0.133860  1.0  -0.1357
  C  C412  1  0.633820  0.204210  0.106520  1.0  -0.1086
  C  C413  1  0.747120  0.196810  0.185280  1.0  0.0184
  C  C414  1  0.761800  0.170650  0.226180  1.0  -0.1388
  C  C415  1  0.422970  0.139430  0.925370  1.0  0.6998
  C  C416  1  0.378520  0.155280  0.898270  1.0  -0.1184
  C  C417  1  0.351660  0.120450  0.872130  1.0  -0.1089
  C  C418  1  0.309720  0.134460  0.849850  1.0  -0.112
  C  C419  1  0.297170  0.183610  0.843400  1.0  0.0833
  C  C420  1  0.325550  0.216800  0.866140  1.0  -0.1371
  C  C421  1  0.366180  0.204210  0.893480  1.0  -0.1075
  C  C422  1  0.252880  0.196810  0.814720  1.0  0.018
  C  C423  1  0.238200  0.170650  0.773820  1.0  -0.1403
  C  C424  1  0.422970  0.860570  0.074630  1.0  0.6982
  C  C425  1  0.378520  0.844720  0.101730  1.0  -0.1164
  C  C426  1  0.351660  0.879550  0.127870  1.0  -0.1058
  C  C427  1  0.309720  0.865540  0.150150  1.0  -0.1114
  C  C428  1  0.297170  0.816390  0.156600  1.0  0.0825
  C  C429  1  0.325550  0.783200  0.133860  1.0  -0.1379
  C  C430  1  0.366180  0.795790  0.106520  1.0  -0.1089
  C  C431  1  0.252880  0.803190  0.185280  1.0  0.0174
  C  C432  1  0.238200  0.829350  0.226180  1.0  -0.1385
  C  C433  1  0.925370  0.577030  0.860570  1.0  0.7008
  C  C434  1  0.898270  0.621480  0.844720  1.0  -0.1174
  C  C435  1  0.872130  0.648340  0.879550  1.0  -0.1095
  C  C436  1  0.849850  0.690280  0.865540  1.0  -0.1095
  C  C437  1  0.843400  0.702830  0.816390  1.0  0.0851
  C  C438  1  0.866140  0.674450  0.783200  1.0  -0.1325
  C  C439  1  0.893480  0.633820  0.795790  1.0  -0.1073
  C  C440  1  0.814720  0.747120  0.803190  1.0  0.0173
  C  C441  1  0.773820  0.761800  0.829350  1.0  -0.1398
  C  C442  1  0.074630  0.577030  0.139430  1.0  0.6997
  C  C443  1  0.101730  0.621480  0.155280  1.0  -0.1183
  C  C444  1  0.127870  0.648340  0.120450  1.0  -0.1077
  C  C445  1  0.150150  0.690280  0.134460  1.0  -0.1086
  C  C446  1  0.156600  0.702830  0.183610  1.0  0.0821
  C  C447  1  0.133860  0.674450  0.216800  1.0  -0.1348
  C  C448  1  0.106520  0.633820  0.204210  1.0  -0.1054
  C  C449  1  0.185280  0.747120  0.196810  1.0  0.0187
  C  C450  1  0.226180  0.761800  0.170650  1.0  -0.1381
  C  C451  1  0.925370  0.422970  0.139430  1.0  0.6974
  C  C452  1  0.898270  0.378520  0.155280  1.0  -0.1168
  C  C453  1  0.872130  0.351660  0.120450  1.0  -0.1091
  C  C454  1  0.849850  0.309720  0.134460  1.0  -0.1079
  C  C455  1  0.843400  0.297170  0.183610  1.0  0.0841
  C  C456  1  0.866140  0.325550  0.216800  1.0  -0.134
  C  C457  1  0.893480  0.366180  0.204210  1.0  -0.1073
  C  C458  1  0.814720  0.252880  0.196810  1.0  0.017
  C  C459  1  0.773820  0.238200  0.170650  1.0  -0.1381
  C  C460  1  0.074630  0.422970  0.860570  1.0  0.6985
  C  C461  1  0.101730  0.378520  0.844720  1.0  -0.1175
  C  C462  1  0.127870  0.351660  0.879550  1.0  -0.1086
  C  C463  1  0.150150  0.309720  0.865540  1.0  -0.1081
  C  C464  1  0.156600  0.297170  0.816390  1.0  0.0845
  C  C465  1  0.133860  0.325550  0.783200  1.0  -0.1349
  C  C466  1  0.106520  0.366180  0.795790  1.0  -0.1056
  C  C467  1  0.185280  0.252880  0.803190  1.0  0.0178
  C  C468  1  0.226180  0.238200  0.829350  1.0  -0.141
  C  C469  1  0.639430  0.574630  0.922970  1.0  0.7007
  C  C470  1  0.655280  0.601730  0.878520  1.0  -0.1205
  C  C471  1  0.620450  0.627870  0.851660  1.0  -0.1085
  C  C472  1  0.634460  0.650150  0.809720  1.0  -0.1084
  C  C473  1  0.683610  0.656600  0.797170  1.0  0.0814
  C  C474  1  0.716800  0.633860  0.825550  1.0  -0.1353
  C  C475  1  0.704210  0.606520  0.866180  1.0  -0.1063
  C  C476  1  0.696810  0.685280  0.752880  1.0  0.0199
  C  C477  1  0.670650  0.726180  0.738200  1.0  -0.1389
  C  C478  1  0.360570  0.425370  0.922970  1.0  0.7011
  C  C479  1  0.344720  0.398270  0.878520  1.0  -0.1196
  C  C480  1  0.379550  0.372130  0.851660  1.0  -0.1061
  C  C481  1  0.365540  0.349850  0.809720  1.0  -0.1063
  C  C482  1  0.316390  0.343400  0.797170  1.0  0.0799
  C  C483  1  0.283200  0.366140  0.825550  1.0  -0.1392
  C  C484  1  0.295790  0.393480  0.866180  1.0  -0.1078
  C  C485  1  0.303190  0.314720  0.752880  1.0  0.019
  C  C486  1  0.329350  0.273820  0.738200  1.0  -0.1371
  C  C487  1  0.360570  0.574630  0.077030  1.0  0.6988
  C  C488  1  0.344720  0.601730  0.121480  1.0  -0.1181
  C  C489  1  0.379550  0.627870  0.148340  1.0  -0.1069
  C  C490  1  0.365540  0.650150  0.190280  1.0  -0.1062
  C  C491  1  0.316390  0.656600  0.202830  1.0  0.081
  C  C492  1  0.283200  0.633860  0.174450  1.0  -0.1373
  C  C493  1  0.295790  0.606520  0.133820  1.0  -0.1075
  C  C494  1  0.303190  0.685280  0.247120  1.0  0.0209
  C  C495  1  0.329350  0.726180  0.261800  1.0  -0.1387
  C  C496  1  0.639430  0.425370  0.077030  1.0  0.7009
  C  C497  1  0.655280  0.398270  0.121480  1.0  -0.1183
  C  C498  1  0.620450  0.372130  0.148340  1.0  -0.1092
  C  C499  1  0.634460  0.349850  0.190280  1.0  -0.1075
  C  C500  1  0.683610  0.343400  0.202830  1.0  0.0808
  C  C501  1  0.716800  0.366140  0.174450  1.0  -0.1378
  C  C502  1  0.704210  0.393480  0.133820  1.0  -0.1076
  C  C503  1  0.696810  0.314720  0.247120  1.0  0.0189
  C  C504  1  0.670650  0.273820  0.261800  1.0  -0.14
  C  C505  1  0.922970  0.639430  0.574630  1.0  0.6993
  C  C506  1  0.878520  0.655280  0.601730  1.0  -0.1165
  C  C507  1  0.851660  0.620450  0.627870  1.0  -0.109
  C  C508  1  0.809720  0.634460  0.650150  1.0  -0.1109
  C  C509  1  0.797170  0.683610  0.656600  1.0  0.0824
  C  C510  1  0.825550  0.716800  0.633860  1.0  -0.1364
  C  C511  1  0.866180  0.704210  0.606520  1.0  -0.1087
  C  C512  1  0.752880  0.696810  0.685280  1.0  0.0177
  C  C513  1  0.738200  0.670650  0.726180  1.0  -0.139
  C  C514  1  0.922970  0.360570  0.425370  1.0  0.6985
  C  C515  1  0.878520  0.344720  0.398270  1.0  -0.1183
  C  C516  1  0.851660  0.379550  0.372130  1.0  -0.1057
  C  C517  1  0.809720  0.365540  0.349850  1.0  -0.1122
  C  C518  1  0.797170  0.316390  0.343400  1.0  0.0837
  C  C519  1  0.825550  0.283200  0.366140  1.0  -0.1375
  C  C520  1  0.866180  0.295790  0.393480  1.0  -0.1079
  C  C521  1  0.752880  0.303190  0.314720  1.0  0.0166
  C  C522  1  0.738200  0.329350  0.273820  1.0  -0.1393
  C  C523  1  0.077030  0.360570  0.574630  1.0  0.6983
  C  C524  1  0.121480  0.344720  0.601730  1.0  -0.1176
  C  C525  1  0.148340  0.379550  0.627870  1.0  -0.1066
  C  C526  1  0.190280  0.365540  0.650150  1.0  -0.1113
  C  C527  1  0.202830  0.316390  0.656600  1.0  0.0827
  C  C528  1  0.174450  0.283200  0.633860  1.0  -0.1372
  C  C529  1  0.133820  0.295790  0.606520  1.0  -0.1085
  C  C530  1  0.247120  0.303190  0.685280  1.0  0.0179
  C  C531  1  0.261800  0.329350  0.726180  1.0  -0.139
  C  C532  1  0.077030  0.639430  0.425370  1.0  0.6999
  C  C533  1  0.121480  0.655280  0.398270  1.0  -0.1194
  C  C534  1  0.148340  0.620450  0.372130  1.0  -0.1094
  C  C535  1  0.190280  0.634460  0.349850  1.0  -0.1122
  C  C536  1  0.202830  0.683610  0.343400  1.0  0.0837
  C  C537  1  0.174450  0.716800  0.366140  1.0  -0.1369
  C  C538  1  0.133820  0.704210  0.393480  1.0  -0.1086
  C  C539  1  0.247120  0.696810  0.314720  1.0  0.019
  C  C540  1  0.261800  0.670650  0.273820  1.0  -0.1403
  C  C541  1  0.574630  0.922970  0.639430  1.0  0.6981
  C  C542  1  0.601730  0.878520  0.655280  1.0  -0.1169
  C  C543  1  0.627870  0.851660  0.620450  1.0  -0.1077
  C  C544  1  0.650150  0.809720  0.634460  1.0  -0.1073
  C  C545  1  0.656600  0.797170  0.683610  1.0  0.082
  C  C546  1  0.633860  0.825550  0.716800  1.0  -0.135
  C  C547  1  0.606520  0.866180  0.704210  1.0  -0.1061
  C  C548  1  0.685280  0.752880  0.696810  1.0  0.0185
  C  C549  1  0.726180  0.738200  0.670650  1.0  -0.1384
  C  C550  1  0.425370  0.922970  0.360570  1.0  0.6983
  C  C551  1  0.398270  0.878520  0.344720  1.0  -0.1172
  C  C552  1  0.372130  0.851660  0.379550  1.0  -0.1094
  C  C553  1  0.349850  0.809720  0.365540  1.0  -0.109
  C  C554  1  0.343400  0.797170  0.316390  1.0  0.0858
  C  C555  1  0.366140  0.825550  0.283200  1.0  -0.1326
  C  C556  1  0.393480  0.866180  0.295790  1.0  -0.1066
  C  C557  1  0.314720  0.752880  0.303190  1.0  0.017
  C  C558  1  0.273820  0.738200  0.329350  1.0  -0.1403
  C  C559  1  0.574630  0.077030  0.360570  1.0  0.7011
  C  C560  1  0.601730  0.121480  0.344720  1.0  -0.1186
  C  C561  1  0.627870  0.148340  0.379550  1.0  -0.1088
  C  C562  1  0.650150  0.190280  0.365540  1.0  -0.1089
  C  C563  1  0.656600  0.202830  0.316390  1.0  0.084
  C  C564  1  0.633860  0.174450  0.283200  1.0  -0.1347
  C  C565  1  0.606520  0.133820  0.295790  1.0  -0.1058
  C  C566  1  0.685280  0.247120  0.303190  1.0  0.0183
  C  C567  1  0.726180  0.261800  0.329350  1.0  -0.1402
  C  C568  1  0.425370  0.077030  0.639430  1.0  0.6988
  C  C569  1  0.398270  0.121480  0.655280  1.0  -0.1171
  C  C570  1  0.372130  0.148340  0.620450  1.0  -0.109
  C  C571  1  0.349850  0.190280  0.634460  1.0  -0.1088
  C  C572  1  0.343400  0.202830  0.683610  1.0  0.084
  C  C573  1  0.366140  0.174450  0.716800  1.0  -0.1337
  C  C574  1  0.393480  0.133820  0.704210  1.0  -0.1073
  C  C575  1  0.314720  0.247120  0.696810  1.0  0.0174
  C  C576  1  0.273820  0.261800  0.670650  1.0  -0.1379
  C  C577  1  0.360570  0.425370  0.077030  1.0  0.6997
  C  C578  1  0.344720  0.398270  0.121480  1.0  -0.1175
  C  C579  1  0.379550  0.372130  0.148340  1.0  -0.1059
  C  C580  1  0.365540  0.349850  0.190280  1.0  -0.1064
  C  C581  1  0.316390  0.343400  0.202830  1.0  0.0803
  C  C582  1  0.283200  0.366140  0.174450  1.0  -0.1393
  C  C583  1  0.295790  0.393480  0.133820  1.0  -0.108
  C  C584  1  0.303190  0.314720  0.247120  1.0  0.0188
  C  C585  1  0.329350  0.273820  0.261800  1.0  -0.1389
  C  C586  1  0.639430  0.574630  0.077030  1.0  0.7002
  C  C587  1  0.655280  0.601730  0.121480  1.0  -0.1195
  C  C588  1  0.620450  0.627870  0.148340  1.0  -0.1079
  C  C589  1  0.634460  0.650150  0.190280  1.0  -0.1073
  C  C590  1  0.683610  0.656600  0.202830  1.0  0.0818
  C  C591  1  0.716800  0.633860  0.174450  1.0  -0.1356
  C  C592  1  0.704210  0.606520  0.133820  1.0  -0.1078
  C  C593  1  0.696810  0.685280  0.247120  1.0  0.0202
  C  C594  1  0.670650  0.726180  0.261800  1.0  -0.1402
  C  C595  1  0.639430  0.425370  0.922970  1.0  0.7008
  C  C596  1  0.655280  0.398270  0.878520  1.0  -0.1202
  C  C597  1  0.620450  0.372130  0.851660  1.0  -0.1097
  C  C598  1  0.634460  0.349850  0.809720  1.0  -0.1076
  C  C599  1  0.683610  0.343400  0.797170  1.0  0.08
  C  C600  1  0.716800  0.366140  0.825550  1.0  -0.1374
  C  C601  1  0.704210  0.393480  0.866180  1.0  -0.1068
  C  C602  1  0.696810  0.314720  0.752880  1.0  0.0193
  C  C603  1  0.670650  0.273820  0.738200  1.0  -0.1387
  C  C604  1  0.360570  0.574630  0.922970  1.0  0.7008
  C  C605  1  0.344720  0.601730  0.878520  1.0  -0.1197
  C  C606  1  0.379550  0.627870  0.851660  1.0  -0.1071
  C  C607  1  0.365540  0.650150  0.809720  1.0  -0.107
  C  C608  1  0.316390  0.656600  0.797170  1.0  0.0809
  C  C609  1  0.283200  0.633860  0.825550  1.0  -0.1375
  C  C610  1  0.295790  0.606520  0.866180  1.0  -0.1064
  C  C611  1  0.303190  0.685280  0.752880  1.0  0.0203
  C  C612  1  0.329350  0.726180  0.738200  1.0  -0.1371
  C  C613  1  0.077030  0.360570  0.425370  1.0  0.6988
  C  C614  1  0.121480  0.344720  0.398270  1.0  -0.1192
  C  C615  1  0.148340  0.379550  0.372130  1.0  -0.1064
  C  C616  1  0.190280  0.365540  0.349850  1.0  -0.1119
  C  C617  1  0.202830  0.316390  0.343400  1.0  0.0836
  C  C618  1  0.174450  0.283200  0.366140  1.0  -0.1373
  C  C619  1  0.133820  0.295790  0.393480  1.0  -0.1084
  C  C620  1  0.247120  0.303190  0.314720  1.0  0.0178
  C  C621  1  0.261800  0.329350  0.273820  1.0  -0.1395
  C  C622  1  0.077030  0.639430  0.574630  1.0  0.6994
  C  C623  1  0.121480  0.655280  0.601730  1.0  -0.1186
  C  C624  1  0.148340  0.620450  0.627870  1.0  -0.1093
  C  C625  1  0.190280  0.634460  0.650150  1.0  -0.1114
  C  C626  1  0.202830  0.683610  0.656600  1.0  0.0825
  C  C627  1  0.174450  0.716800  0.633860  1.0  -0.1357
  C  C628  1  0.133820  0.704210  0.606520  1.0  -0.1086
  C  C629  1  0.247120  0.696810  0.685280  1.0  0.0184
  C  C630  1  0.261800  0.670650  0.726180  1.0  -0.1388
  C  C631  1  0.922970  0.639430  0.425370  1.0  0.6998
  C  C632  1  0.878520  0.655280  0.398270  1.0  -0.1184
  C  C633  1  0.851660  0.620450  0.372130  1.0  -0.1089
  C  C634  1  0.809720  0.634460  0.349850  1.0  -0.112
  C  C635  1  0.797170  0.683610  0.343400  1.0  0.0833
  C  C636  1  0.825550  0.716800  0.366140  1.0  -0.1371
  C  C637  1  0.866180  0.704210  0.393480  1.0  -0.1075
  C  C638  1  0.752880  0.696810  0.314720  1.0  0.018
  C  C639  1  0.738200  0.670650  0.273820  1.0  -0.1403
  C  C640  1  0.922970  0.360570  0.574630  1.0  0.6982
  C  C641  1  0.878520  0.344720  0.601730  1.0  -0.1164
  C  C642  1  0.851660  0.379550  0.627870  1.0  -0.1058
  C  C643  1  0.809720  0.365540  0.650150  1.0  -0.1114
  C  C644  1  0.797170  0.316390  0.656600  1.0  0.0825
  C  C645  1  0.825550  0.283200  0.633860  1.0  -0.1379
  C  C646  1  0.866180  0.295790  0.606520  1.0  -0.1089
  C  C647  1  0.752880  0.303190  0.685280  1.0  0.0174
  C  C648  1  0.738200  0.329350  0.726180  1.0  -0.1385
  C  C649  1  0.425370  0.077030  0.360570  1.0  0.7008
  C  C650  1  0.398270  0.121480  0.344720  1.0  -0.1174
  C  C651  1  0.372130  0.148340  0.379550  1.0  -0.1095
  C  C652  1  0.349850  0.190280  0.365540  1.0  -0.1095
  C  C653  1  0.343400  0.202830  0.316390  1.0  0.0851
  C  C654  1  0.366140  0.174450  0.283200  1.0  -0.1325
  C  C655  1  0.393480  0.133820  0.295790  1.0  -0.1073
  C  C656  1  0.314720  0.247120  0.303190  1.0  0.0173
  C  C657  1  0.273820  0.261800  0.329350  1.0  -0.1398
  C  C658  1  0.574630  0.077030  0.639430  1.0  0.6997
  C  C659  1  0.601730  0.121480  0.655280  1.0  -0.1183
  C  C660  1  0.627870  0.148340  0.620450  1.0  -0.1077
  C  C661  1  0.650150  0.190280  0.634460  1.0  -0.1086
  C  C662  1  0.656600  0.202830  0.683610  1.0  0.0821
  C  C663  1  0.633860  0.174450  0.716800  1.0  -0.1348
  C  C664  1  0.606520  0.133820  0.704210  1.0  -0.1054
  C  C665  1  0.685280  0.247120  0.696810  1.0  0.0187
  C  C666  1  0.726180  0.261800  0.670650  1.0  -0.1381
  C  C667  1  0.425370  0.922970  0.639430  1.0  0.6974
  C  C668  1  0.398270  0.878520  0.655280  1.0  -0.1168
  C  C669  1  0.372130  0.851660  0.620450  1.0  -0.1091
  C  C670  1  0.349850  0.809720  0.634460  1.0  -0.1079
  C  C671  1  0.343400  0.797170  0.683610  1.0  0.0841
  C  C672  1  0.366140  0.825550  0.716800  1.0  -0.134
  C  C673  1  0.393480  0.866180  0.704210  1.0  -0.1073
  C  C674  1  0.314720  0.752880  0.696810  1.0  0.017
  C  C675  1  0.273820  0.738200  0.670650  1.0  -0.1381
  C  C676  1  0.574630  0.922970  0.360570  1.0  0.6985
  C  C677  1  0.601730  0.878520  0.344720  1.0  -0.1175
  C  C678  1  0.627870  0.851660  0.379550  1.0  -0.1086
  C  C679  1  0.650150  0.809720  0.365540  1.0  -0.1081
  C  C680  1  0.656600  0.797170  0.316390  1.0  0.0845
  C  C681  1  0.633860  0.825550  0.283200  1.0  -0.1349
  C  C682  1  0.606520  0.866180  0.295790  1.0  -0.1056
  C  C683  1  0.685280  0.752880  0.303190  1.0  0.0178
  C  C684  1  0.726180  0.738200  0.329350  1.0  -0.141
  O  O685  1  0.171760  0.052480  0.446240  1.0  -0.6231
  O  O686  1  0.096590  0.074310  0.437350  1.0  -0.4136
  O  O687  1  0.828240  0.947520  0.446240  1.0  -0.6227
  O  O688  1  0.903410  0.925690  0.437350  1.0  -0.4145
  O  O689  1  0.828240  0.052480  0.553760  1.0  -0.6241
  O  O690  1  0.903410  0.074310  0.562650  1.0  -0.4134
  O  O691  1  0.171760  0.947520  0.553760  1.0  -0.6238
  O  O692  1  0.096590  0.925690  0.562650  1.0  -0.4139
  O  O693  1  0.446240  0.171760  0.052480  1.0  -0.6251
  O  O694  1  0.437350  0.096590  0.074310  1.0  -0.4044
  O  O695  1  0.446240  0.828240  0.947520  1.0  -0.6245
  O  O696  1  0.437350  0.903410  0.925690  1.0  -0.4051
  O  O697  1  0.553760  0.828240  0.052480  1.0  -0.6251
  O  O698  1  0.562650  0.903410  0.074310  1.0  -0.4039
  O  O699  1  0.553760  0.171760  0.947520  1.0  -0.6251
  O  O700  1  0.562650  0.096590  0.925690  1.0  -0.4057
  O  O701  1  0.052480  0.446240  0.171760  1.0  -0.6222
  O  O702  1  0.074310  0.437350  0.096590  1.0  -0.4077
  O  O703  1  0.947520  0.446240  0.828240  1.0  -0.6231
  O  O704  1  0.925690  0.437350  0.903410  1.0  -0.4108
  O  O705  1  0.052480  0.553760  0.828240  1.0  -0.6225
  O  O706  1  0.074310  0.562650  0.903410  1.0  -0.4096
  O  O707  1  0.947520  0.553760  0.171760  1.0  -0.6222
  O  O708  1  0.925690  0.562650  0.096590  1.0  -0.4075
  O  O709  1  0.828240  0.947520  0.553760  1.0  -0.6237
  O  O710  1  0.903410  0.925690  0.562650  1.0  -0.4136
  O  O711  1  0.171760  0.052480  0.553760  1.0  -0.6245
  O  O712  1  0.096590  0.074310  0.562650  1.0  -0.4137
  O  O713  1  0.171760  0.947520  0.446240  1.0  -0.6228
  O  O714  1  0.096590  0.925690  0.437350  1.0  -0.4137
  O  O715  1  0.828240  0.052480  0.446240  1.0  -0.6229
  O  O716  1  0.903410  0.074310  0.437350  1.0  -0.4146
  O  O717  1  0.553760  0.828240  0.947520  1.0  -0.6247
  O  O718  1  0.562650  0.903410  0.925690  1.0  -0.4042
  O  O719  1  0.553760  0.171760  0.052480  1.0  -0.6256
  O  O720  1  0.562650  0.096590  0.074310  1.0  -0.4049
  O  O721  1  0.446240  0.171760  0.947520  1.0  -0.6248
  O  O722  1  0.437350  0.096590  0.925690  1.0  -0.4052
  O  O723  1  0.446240  0.828240  0.052480  1.0  -0.6248
  O  O724  1  0.437350  0.903410  0.074310  1.0  -0.4047
  O  O725  1  0.947520  0.553760  0.828240  1.0  -0.6226
  O  O726  1  0.925690  0.562650  0.903410  1.0  -0.41
  O  O727  1  0.052480  0.553760  0.171760  1.0  -0.622
  O  O728  1  0.074310  0.562650  0.096590  1.0  -0.4068
  O  O729  1  0.947520  0.446240  0.171760  1.0  -0.6224
  O  O730  1  0.925690  0.437350  0.096590  1.0  -0.4084
  O  O731  1  0.052480  0.446240  0.828240  1.0  -0.6229
  O  O732  1  0.074310  0.437350  0.903410  1.0  -0.4104
  O  O733  1  0.671760  0.552480  0.946240  1.0  -0.6231
  O  O734  1  0.596590  0.574310  0.937350  1.0  -0.4136
  O  O735  1  0.328240  0.447520  0.946240  1.0  -0.6227
  O  O736  1  0.403410  0.425690  0.937350  1.0  -0.4145
  O  O737  1  0.328240  0.552480  0.053760  1.0  -0.6241
  O  O738  1  0.403410  0.574310  0.062650  1.0  -0.4134
  O  O739  1  0.671760  0.447520  0.053760  1.0  -0.6238
  O  O740  1  0.596590  0.425690  0.062650  1.0  -0.4139
  O  O741  1  0.946240  0.671760  0.552480  1.0  -0.6251
  O  O742  1  0.937350  0.596590  0.574310  1.0  -0.4044
  O  O743  1  0.946240  0.328240  0.447520  1.0  -0.6245
  O  O744  1  0.937350  0.403410  0.425690  1.0  -0.4051
  O  O745  1  0.053760  0.328240  0.552480  1.0  -0.6251
  O  O746  1  0.062650  0.403410  0.574310  1.0  -0.4039
  O  O747  1  0.053760  0.671760  0.447520  1.0  -0.6251
  O  O748  1  0.062650  0.596590  0.425690  1.0  -0.4057
  O  O749  1  0.552480  0.946240  0.671760  1.0  -0.6222
  O  O750  1  0.574310  0.937350  0.596590  1.0  -0.4077
  O  O751  1  0.447520  0.946240  0.328240  1.0  -0.6231
  O  O752  1  0.425690  0.937350  0.403410  1.0  -0.4108
  O  O753  1  0.552480  0.053760  0.328240  1.0  -0.6225
  O  O754  1  0.574310  0.062650  0.403410  1.0  -0.4096
  O  O755  1  0.447520  0.053760  0.671760  1.0  -0.6222
  O  O756  1  0.425690  0.062650  0.596590  1.0  -0.4075
  O  O757  1  0.328240  0.447520  0.053760  1.0  -0.6237
  O  O758  1  0.403410  0.425690  0.062650  1.0  -0.4136
  O  O759  1  0.671760  0.552480  0.053760  1.0  -0.6245
  O  O760  1  0.596590  0.574310  0.062650  1.0  -0.4137
  O  O761  1  0.671760  0.447520  0.946240  1.0  -0.6228
  O  O762  1  0.596590  0.425690  0.937350  1.0  -0.4137
  O  O763  1  0.328240  0.552480  0.946240  1.0  -0.6229
  O  O764  1  0.403410  0.574310  0.937350  1.0  -0.4146
  O  O765  1  0.053760  0.328240  0.447520  1.0  -0.6247
  O  O766  1  0.062650  0.403410  0.425690  1.0  -0.4042
  O  O767  1  0.053760  0.671760  0.552480  1.0  -0.6256
  O  O768  1  0.062650  0.596590  0.574310  1.0  -0.4049
  O  O769  1  0.946240  0.671760  0.447520  1.0  -0.6248
  O  O770  1  0.937350  0.596590  0.425690  1.0  -0.4052
  O  O771  1  0.946240  0.328240  0.552480  1.0  -0.6248
  O  O772  1  0.937350  0.403410  0.574310  1.0  -0.4047
  O  O773  1  0.447520  0.053760  0.328240  1.0  -0.6226
  O  O774  1  0.425690  0.062650  0.403410  1.0  -0.41
  O  O775  1  0.552480  0.053760  0.671760  1.0  -0.622
  O  O776  1  0.574310  0.062650  0.596590  1.0  -0.4068
  O  O777  1  0.447520  0.946240  0.671760  1.0  -0.6224
  O  O778  1  0.425690  0.937350  0.596590  1.0  -0.4084
  O  O779  1  0.552480  0.946240  0.328240  1.0  -0.6229
  O  O780  1  0.574310  0.937350  0.403410  1.0  -0.4104
