# generated using pymatgen
data_Co5H32(C21O11)2
_symmetry_space_group_name_H-M   'P 1'
_cell_length_a   23.36200000
_cell_length_b   22.49100000
_cell_length_c   22.73800000
_cell_angle_alpha   90.00000000
_cell_angle_beta   90.00000000
_cell_angle_gamma   90.00000000
_symmetry_Int_Tables_number   1
_chemical_formula_structural   Co5H32(C21O11)2
_chemical_formula_sum   'Co40 H256 C336 O176'
_cell_volume   11947.33516360
_cell_formula_units_Z   8
loop_
 _symmetry_equiv_pos_site_id
 _symmetry_equiv_pos_as_xyz
  1  'x, y, z'
loop_
 _atom_site_type_symbol
 _atom_site_label
 _atom_site_symmetry_multiplicity
 _atom_site_fract_x
 _atom_site_fract_y
 _atom_site_fract_z
 _atom_site_occupancy
 _atom_site_charge
  Co  Co1  1  0.511480  0.615710  0.110140  1.0  1.0545
  Co  Co2  1  0.528740  0.646020  0.246450  1.0  1.0759
  Co  Co3  1  0.511480  0.115710  0.610140  1.0  1.0545
  Co  Co4  1  0.528740  0.146020  0.746450  1.0  1.0759
  Co  Co5  1  0.011480  0.615710  0.610140  1.0  1.0545
  Co  Co6  1  0.028740  0.646020  0.746450  1.0  1.0759
  Co  Co7  1  0.011480  0.115710  0.110140  1.0  1.0545
  Co  Co8  1  0.028740  0.146020  0.246450  1.0  1.0759
  Co  Co9  1  0.488520  0.384290  0.110140  1.0  1.054
  Co  Co10  1  0.471260  0.353980  0.246450  1.0  1.0732
  Co  Co11  1  0.488520  0.884290  0.610140  1.0  1.054
  Co  Co12  1  0.471260  0.853980  0.746450  1.0  1.0732
  Co  Co13  1  0.988520  0.384290  0.610140  1.0  1.054
  Co  Co14  1  0.971260  0.353980  0.746450  1.0  1.0732
  Co  Co15  1  0.988520  0.884290  0.110140  1.0  1.054
  Co  Co16  1  0.971260  0.853980  0.246450  1.0  1.0732
  Co  Co17  1  0.761480  0.634290  0.360140  1.0  1.0541
  Co  Co18  1  0.778740  0.603980  0.496450  1.0  1.0765
  Co  Co19  1  0.761480  0.134290  0.860140  1.0  1.0541
  Co  Co20  1  0.778740  0.103980  0.996450  1.0  1.0765
  Co  Co21  1  0.261480  0.634290  0.860140  1.0  1.0541
  Co  Co22  1  0.278740  0.603980  0.996450  1.0  1.0765
  Co  Co23  1  0.261480  0.134290  0.360140  1.0  1.0541
  Co  Co24  1  0.278740  0.103980  0.496450  1.0  1.0765
  Co  Co25  1  0.738520  0.865710  0.360140  1.0  1.0547
  Co  Co26  1  0.721260  0.896020  0.496450  1.0  1.0733
  Co  Co27  1  0.738520  0.365710  0.860140  1.0  1.0547
  Co  Co28  1  0.721260  0.396020  0.996450  1.0  1.0733
  Co  Co29  1  0.238520  0.865710  0.860140  1.0  1.0547
  Co  Co30  1  0.221260  0.896020  0.996450  1.0  1.0733
  Co  Co31  1  0.238520  0.365710  0.360140  1.0  1.0547
  Co  Co32  1  0.221260  0.396020  0.496450  1.0  1.0733
  Co  Co33  1  0.500000  0.500000  0.199780  1.0  0.9889
  Co  Co34  1  0.500000  0.000000  0.699780  1.0  0.9889
  Co  Co35  1  0.000000  0.500000  0.699780  1.0  0.9889
  Co  Co36  1  0.000000  0.000000  0.199780  1.0  0.9889
  Co  Co37  1  0.750000  0.750000  0.449780  1.0  0.9889
  Co  Co38  1  0.750000  0.250000  0.949780  1.0  0.9889
  Co  Co39  1  0.250000  0.750000  0.949780  1.0  0.9889
  Co  Co40  1  0.250000  0.250000  0.449780  1.0  0.9889
  H  H41  1  0.492400  0.597200  0.896400  1.0  0.063
  H  H42  1  0.599500  0.504300  0.802200  1.0  0.1112
  H  H43  1  0.607500  0.507300  0.979000  1.0  0.1205
  H  H44  1  0.559900  0.546300  0.717300  1.0  0.0813
  H  H45  1  0.590500  0.603600  0.742300  1.0  0.0764
  H  H46  1  0.475900  0.621900  0.706100  1.0  0.0924
  H  H47  1  0.527400  0.666300  0.698000  1.0  0.0839
  H  H48  1  0.562800  0.610000  0.617500  1.0  0.0763
  H  H49  1  0.516000  0.560800  0.627800  1.0  0.0812
  H  H50  1  0.442700  0.631500  0.603700  1.0  0.0734
  H  H51  1  0.489900  0.680000  0.592300  1.0  0.089
  H  H52  1  0.478800  0.648300  0.498600  1.0  0.0833
  H  H53  1  0.525400  0.601300  0.518200  1.0  0.0957
  H  H54  1  0.484300  0.594400  0.416900  1.0  0.1165
  H  H55  1  0.377100  0.484500  0.333400  1.0  0.114
  H  H56  1  0.374200  0.497500  0.510600  1.0  0.1234
  H  H57  1  0.492400  0.097200  0.396400  1.0  0.063
  H  H58  1  0.599500  0.004300  0.302200  1.0  0.1112
  H  H59  1  0.607500  0.007300  0.479000  1.0  0.1205
  H  H60  1  0.559900  0.046300  0.217300  1.0  0.0813
  H  H61  1  0.590500  0.103600  0.242300  1.0  0.0764
  H  H62  1  0.475900  0.121900  0.206100  1.0  0.0924
  H  H63  1  0.527400  0.166300  0.198000  1.0  0.0839
  H  H64  1  0.562800  0.110000  0.117500  1.0  0.0763
  H  H65  1  0.516000  0.060800  0.127800  1.0  0.0812
  H  H66  1  0.442700  0.131500  0.103700  1.0  0.0734
  H  H67  1  0.489900  0.180000  0.092300  1.0  0.089
  H  H68  1  0.478800  0.148300  0.998600  1.0  0.0833
  H  H69  1  0.525400  0.101300  0.018200  1.0  0.0957
  H  H70  1  0.484300  0.094400  0.916900  1.0  0.1165
  H  H71  1  0.377100  0.984500  0.833400  1.0  0.114
  H  H72  1  0.374200  0.997500  0.010600  1.0  0.1234
  H  H73  1  0.992400  0.597200  0.396400  1.0  0.063
  H  H74  1  0.099500  0.504300  0.302200  1.0  0.1112
  H  H75  1  0.107500  0.507300  0.479000  1.0  0.1205
  H  H76  1  0.059900  0.546300  0.217300  1.0  0.0813
  H  H77  1  0.090500  0.603600  0.242300  1.0  0.0764
  H  H78  1  0.975900  0.621900  0.206100  1.0  0.0924
  H  H79  1  0.027400  0.666300  0.198000  1.0  0.0839
  H  H80  1  0.062800  0.610000  0.117500  1.0  0.0763
  H  H81  1  0.016000  0.560800  0.127800  1.0  0.0812
  H  H82  1  0.942700  0.631500  0.103700  1.0  0.0734
  H  H83  1  0.989900  0.680000  0.092300  1.0  0.089
  H  H84  1  0.978800  0.648300  0.998600  1.0  0.0834
  H  H85  1  0.025400  0.601300  0.018200  1.0  0.0957
  H  H86  1  0.984300  0.594400  0.916900  1.0  0.1165
  H  H87  1  0.877100  0.484500  0.833400  1.0  0.114
  H  H88  1  0.874200  0.497500  0.010600  1.0  0.1234
  H  H89  1  0.992400  0.097200  0.896400  1.0  0.063
  H  H90  1  0.099500  0.004300  0.802200  1.0  0.1112
  H  H91  1  0.107500  0.007300  0.979000  1.0  0.1205
  H  H92  1  0.059900  0.046300  0.717300  1.0  0.0813
  H  H93  1  0.090500  0.103600  0.742300  1.0  0.0764
  H  H94  1  0.975900  0.121900  0.706100  1.0  0.0924
  H  H95  1  0.027400  0.166300  0.698000  1.0  0.0839
  H  H96  1  0.062800  0.110000  0.617500  1.0  0.0763
  H  H97  1  0.016000  0.060800  0.627800  1.0  0.0812
  H  H98  1  0.942700  0.131500  0.603700  1.0  0.0734
  H  H99  1  0.989900  0.180000  0.592300  1.0  0.089
  H  H100  1  0.978800  0.148300  0.498600  1.0  0.0834
  H  H101  1  0.025400  0.101300  0.518200  1.0  0.0957
  H  H102  1  0.984300  0.094400  0.416900  1.0  0.1165
  H  H103  1  0.877100  0.984500  0.333400  1.0  0.114
  H  H104  1  0.874200  0.997500  0.510600  1.0  0.1234
  H  H105  1  0.507600  0.402800  0.896400  1.0  0.0631
  H  H106  1  0.400500  0.495700  0.802200  1.0  0.1109
  H  H107  1  0.392500  0.492700  0.979000  1.0  0.1205
  H  H108  1  0.440100  0.453700  0.717300  1.0  0.0812
  H  H109  1  0.409500  0.396400  0.742300  1.0  0.0772
  H  H110  1  0.524100  0.378100  0.706100  1.0  0.0917
  H  H111  1  0.472600  0.333700  0.698000  1.0  0.084
  H  H112  1  0.437200  0.390000  0.617500  1.0  0.0768
  H  H113  1  0.484000  0.439200  0.627800  1.0  0.0801
  H  H114  1  0.557300  0.368500  0.603700  1.0  0.0734
  H  H115  1  0.510100  0.320000  0.592300  1.0  0.0892
  H  H116  1  0.521200  0.351700  0.498600  1.0  0.0823
  H  H117  1  0.474600  0.398700  0.518200  1.0  0.096
  H  H118  1  0.515700  0.405600  0.416900  1.0  0.1168
  H  H119  1  0.622900  0.515500  0.333400  1.0  0.1139
  H  H120  1  0.625800  0.502500  0.510600  1.0  0.1225
  H  H121  1  0.507600  0.902800  0.396400  1.0  0.0631
  H  H122  1  0.400500  0.995700  0.302200  1.0  0.1109
  H  H123  1  0.392500  0.992700  0.479000  1.0  0.1205
  H  H124  1  0.440100  0.953700  0.217300  1.0  0.0812
  H  H125  1  0.409500  0.896400  0.242300  1.0  0.0772
  H  H126  1  0.524100  0.878100  0.206100  1.0  0.0917
  H  H127  1  0.472600  0.833700  0.198000  1.0  0.084
  H  H128  1  0.437200  0.890000  0.117500  1.0  0.0768
  H  H129  1  0.484000  0.939200  0.127800  1.0  0.0801
  H  H130  1  0.557300  0.868500  0.103700  1.0  0.0734
  H  H131  1  0.510100  0.820000  0.092300  1.0  0.0892
  H  H132  1  0.521200  0.851700  0.998600  1.0  0.0823
  H  H133  1  0.474600  0.898700  0.018200  1.0  0.096
  H  H134  1  0.515700  0.905600  0.916900  1.0  0.1168
  H  H135  1  0.622900  0.015500  0.833400  1.0  0.1139
  H  H136  1  0.625800  0.002500  0.010600  1.0  0.1225
  H  H137  1  0.007600  0.402800  0.396400  1.0  0.0631
  H  H138  1  0.900500  0.495700  0.302200  1.0  0.1109
  H  H139  1  0.892500  0.492700  0.479000  1.0  0.1205
  H  H140  1  0.940100  0.453700  0.217300  1.0  0.0813
  H  H141  1  0.909500  0.396400  0.242300  1.0  0.0772
  H  H142  1  0.024100  0.378100  0.206100  1.0  0.0917
  H  H143  1  0.972600  0.333700  0.198000  1.0  0.084
  H  H144  1  0.937200  0.390000  0.117500  1.0  0.0768
  H  H145  1  0.984000  0.439200  0.127800  1.0  0.0801
  H  H146  1  0.057300  0.368500  0.103700  1.0  0.0734
  H  H147  1  0.010100  0.320000  0.092300  1.0  0.0892
  H  H148  1  0.021200  0.351700  0.998600  1.0  0.0823
  H  H149  1  0.974600  0.398700  0.018200  1.0  0.096
  H  H150  1  0.015700  0.405600  0.916900  1.0  0.1168
  H  H151  1  0.122900  0.515500  0.833400  1.0  0.1139
  H  H152  1  0.125800  0.502500  0.010600  1.0  0.1225
  H  H153  1  0.007600  0.902800  0.896400  1.0  0.0631
  H  H154  1  0.900500  0.995700  0.802200  1.0  0.1109
  H  H155  1  0.892500  0.992700  0.979000  1.0  0.1205
  H  H156  1  0.940100  0.953700  0.717300  1.0  0.0813
  H  H157  1  0.909500  0.896400  0.742300  1.0  0.0772
  H  H158  1  0.024100  0.878100  0.706100  1.0  0.0917
  H  H159  1  0.972600  0.833700  0.698000  1.0  0.084
  H  H160  1  0.937200  0.890000  0.617500  1.0  0.0768
  H  H161  1  0.984000  0.939200  0.627800  1.0  0.0801
  H  H162  1  0.057300  0.868500  0.603700  1.0  0.0734
  H  H163  1  0.010100  0.820000  0.592300  1.0  0.0892
  H  H164  1  0.021200  0.851700  0.498600  1.0  0.0823
  H  H165  1  0.974600  0.898700  0.518200  1.0  0.096
  H  H166  1  0.015700  0.905600  0.416900  1.0  0.1168
  H  H167  1  0.122900  0.015500  0.333400  1.0  0.1139
  H  H168  1  0.125800  0.002500  0.510600  1.0  0.1225
  H  H169  1  0.742400  0.652800  0.146400  1.0  0.0631
  H  H170  1  0.849500  0.745700  0.052200  1.0  0.1112
  H  H171  1  0.857500  0.742700  0.229000  1.0  0.1202
  H  H172  1  0.809900  0.703700  0.967300  1.0  0.0815
  H  H173  1  0.840500  0.646400  0.992300  1.0  0.0772
  H  H174  1  0.725900  0.628100  0.956100  1.0  0.0922
  H  H175  1  0.777400  0.583700  0.948000  1.0  0.0831
  H  H176  1  0.812800  0.640000  0.867500  1.0  0.0765
  H  H177  1  0.766000  0.689200  0.877800  1.0  0.0804
  H  H178  1  0.692700  0.618500  0.853700  1.0  0.0737
  H  H179  1  0.739900  0.570000  0.842300  1.0  0.0891
  H  H180  1  0.728800  0.601700  0.748600  1.0  0.0819
  H  H181  1  0.775400  0.648700  0.768200  1.0  0.0957
  H  H182  1  0.734300  0.655600  0.666900  1.0  0.1166
  H  H183  1  0.627100  0.765500  0.583400  1.0  0.1139
  H  H184  1  0.624200  0.752500  0.760600  1.0  0.123
  H  H185  1  0.742400  0.152800  0.646400  1.0  0.0631
  H  H186  1  0.849500  0.245700  0.552200  1.0  0.1112
  H  H187  1  0.857500  0.242700  0.729000  1.0  0.1202
  H  H188  1  0.809900  0.203700  0.467300  1.0  0.0815
  H  H189  1  0.840500  0.146400  0.492300  1.0  0.0772
  H  H190  1  0.725900  0.128100  0.456100  1.0  0.0922
  H  H191  1  0.777400  0.083700  0.448000  1.0  0.0831
  H  H192  1  0.812800  0.140000  0.367500  1.0  0.0765
  H  H193  1  0.766000  0.189200  0.377800  1.0  0.0804
  H  H194  1  0.692700  0.118500  0.353700  1.0  0.0737
  H  H195  1  0.739900  0.070000  0.342300  1.0  0.0891
  H  H196  1  0.728800  0.101700  0.248600  1.0  0.0819
  H  H197  1  0.775400  0.148700  0.268200  1.0  0.0957
  H  H198  1  0.734300  0.155600  0.166900  1.0  0.1166
  H  H199  1  0.627100  0.265500  0.083400  1.0  0.1139
  H  H200  1  0.624200  0.252500  0.260600  1.0  0.123
  H  H201  1  0.242400  0.652800  0.646400  1.0  0.0631
  H  H202  1  0.349500  0.745700  0.552200  1.0  0.1112
  H  H203  1  0.357500  0.742700  0.729000  1.0  0.1202
  H  H204  1  0.309900  0.703700  0.467300  1.0  0.0815
  H  H205  1  0.340500  0.646400  0.492300  1.0  0.0772
  H  H206  1  0.225900  0.628100  0.456100  1.0  0.0922
  H  H207  1  0.277400  0.583700  0.448000  1.0  0.0831
  H  H208  1  0.312800  0.640000  0.367500  1.0  0.0765
  H  H209  1  0.266000  0.689200  0.377800  1.0  0.0804
  H  H210  1  0.192700  0.618500  0.353700  1.0  0.0737
  H  H211  1  0.239900  0.570000  0.342300  1.0  0.0891
  H  H212  1  0.228800  0.601700  0.248600  1.0  0.0819
  H  H213  1  0.275400  0.648700  0.268200  1.0  0.0957
  H  H214  1  0.234300  0.655600  0.166900  1.0  0.1166
  H  H215  1  0.127100  0.765500  0.083400  1.0  0.1139
  H  H216  1  0.124200  0.752500  0.260600  1.0  0.123
  H  H217  1  0.242400  0.152800  0.146400  1.0  0.0631
  H  H218  1  0.349500  0.245700  0.052200  1.0  0.1112
  H  H219  1  0.357500  0.242700  0.229000  1.0  0.1202
  H  H220  1  0.309900  0.203700  0.967300  1.0  0.0815
  H  H221  1  0.340500  0.146400  0.992300  1.0  0.0772
  H  H222  1  0.225900  0.128100  0.956100  1.0  0.0922
  H  H223  1  0.277400  0.083700  0.948000  1.0  0.0831
  H  H224  1  0.312800  0.140000  0.867500  1.0  0.0765
  H  H225  1  0.266000  0.189200  0.877800  1.0  0.0804
  H  H226  1  0.192700  0.118500  0.853700  1.0  0.0737
  H  H227  1  0.239900  0.070000  0.842300  1.0  0.0891
  H  H228  1  0.228800  0.101700  0.748600  1.0  0.0819
  H  H229  1  0.275400  0.148700  0.768200  1.0  0.0957
  H  H230  1  0.234300  0.155600  0.666900  1.0  0.1166
  H  H231  1  0.127100  0.265500  0.583400  1.0  0.1139
  H  H232  1  0.124200  0.252500  0.760600  1.0  0.123
  H  H233  1  0.757600  0.847200  0.146400  1.0  0.0625
  H  H234  1  0.650500  0.754300  0.052200  1.0  0.1111
  H  H235  1  0.642500  0.757300  0.229000  1.0  0.1207
  H  H236  1  0.690100  0.796300  0.967300  1.0  0.0804
  H  H237  1  0.659500  0.853600  0.992300  1.0  0.077
  H  H238  1  0.774100  0.871900  0.956100  1.0  0.092
  H  H239  1  0.722600  0.916300  0.948000  1.0  0.084
  H  H240  1  0.687200  0.860000  0.867500  1.0  0.0766
  H  H241  1  0.734000  0.810800  0.877800  1.0  0.081
  H  H242  1  0.807300  0.881500  0.853700  1.0  0.0734
  H  H243  1  0.760100  0.930000  0.842300  1.0  0.089
  H  H244  1  0.771200  0.898300  0.748600  1.0  0.0843
  H  H245  1  0.724600  0.851300  0.768200  1.0  0.0966
  H  H246  1  0.765700  0.844400  0.666900  1.0  0.1168
  H  H247  1  0.872900  0.734500  0.583400  1.0  0.1142
  H  H248  1  0.875800  0.747500  0.760600  1.0  0.1224
  H  H249  1  0.757600  0.347200  0.646400  1.0  0.0625
  H  H250  1  0.650500  0.254300  0.552200  1.0  0.1111
  H  H251  1  0.642500  0.257300  0.729000  1.0  0.1207
  H  H252  1  0.690100  0.296300  0.467300  1.0  0.0804
  H  H253  1  0.659500  0.353600  0.492300  1.0  0.077
  H  H254  1  0.774100  0.371900  0.456100  1.0  0.092
  H  H255  1  0.722600  0.416300  0.448000  1.0  0.084
  H  H256  1  0.687200  0.360000  0.367500  1.0  0.0766
  H  H257  1  0.734000  0.310800  0.377800  1.0  0.081
  H  H258  1  0.807300  0.381500  0.353700  1.0  0.0734
  H  H259  1  0.760100  0.430000  0.342300  1.0  0.089
  H  H260  1  0.771200  0.398300  0.248600  1.0  0.0843
  H  H261  1  0.724600  0.351300  0.268200  1.0  0.0966
  H  H262  1  0.765700  0.344400  0.166900  1.0  0.1168
  H  H263  1  0.872900  0.234500  0.083400  1.0  0.1142
  H  H264  1  0.875800  0.247500  0.260600  1.0  0.1224
  H  H265  1  0.257600  0.847200  0.646400  1.0  0.0625
  H  H266  1  0.150500  0.754300  0.552200  1.0  0.1111
  H  H267  1  0.142500  0.757300  0.729000  1.0  0.1207
  H  H268  1  0.190100  0.796300  0.467300  1.0  0.0804
  H  H269  1  0.159500  0.853600  0.492300  1.0  0.077
  H  H270  1  0.274100  0.871900  0.456100  1.0  0.092
  H  H271  1  0.222600  0.916300  0.448000  1.0  0.084
  H  H272  1  0.187200  0.860000  0.367500  1.0  0.0766
  H  H273  1  0.234000  0.810800  0.377800  1.0  0.081
  H  H274  1  0.307300  0.881500  0.353700  1.0  0.0734
  H  H275  1  0.260100  0.930000  0.342300  1.0  0.089
  H  H276  1  0.271200  0.898300  0.248600  1.0  0.0843
  H  H277  1  0.224600  0.851300  0.268200  1.0  0.0966
  H  H278  1  0.265700  0.844400  0.166900  1.0  0.1168
  H  H279  1  0.372900  0.734500  0.083400  1.0  0.1142
  H  H280  1  0.375800  0.747500  0.260600  1.0  0.1224
  H  H281  1  0.257600  0.347200  0.146400  1.0  0.0625
  H  H282  1  0.150500  0.254300  0.052200  1.0  0.1111
  H  H283  1  0.142500  0.257300  0.229000  1.0  0.1207
  H  H284  1  0.190100  0.296300  0.967300  1.0  0.0804
  H  H285  1  0.159500  0.353600  0.992300  1.0  0.077
  H  H286  1  0.274100  0.371900  0.956100  1.0  0.092
  H  H287  1  0.222600  0.416300  0.948000  1.0  0.084
  H  H288  1  0.187200  0.360000  0.867500  1.0  0.0766
  H  H289  1  0.234000  0.310800  0.877800  1.0  0.081
  H  H290  1  0.307300  0.381500  0.853700  1.0  0.0734
  H  H291  1  0.260100  0.430000  0.842300  1.0  0.089
  H  H292  1  0.271200  0.398300  0.748600  1.0  0.0843
  H  H293  1  0.224600  0.351300  0.768200  1.0  0.0966
  H  H294  1  0.265700  0.344400  0.666900  1.0  0.1168
  H  H295  1  0.372900  0.234500  0.583400  1.0  0.1142
  H  H296  1  0.375800  0.247500  0.760600  1.0  0.1224
  C  C297  1  0.523000  0.580600  0.004000  1.0  0.6488
  C  C298  1  0.546600  0.559400  0.944000  1.0  0.0677
  C  C299  1  0.525500  0.574200  0.895700  1.0  -0.0642
  C  C300  1  0.547700  0.558800  0.840700  1.0  0.2461
  C  C301  1  0.588000  0.520100  0.838100  1.0  -0.0704
  C  C302  1  0.613600  0.502500  0.889300  1.0  -0.1598
  C  C303  1  0.591700  0.520900  0.944000  1.0  -0.0556
  C  C304  1  0.663600  0.457100  0.893100  1.0  0.6901
  C  C305  1  0.553700  0.585000  0.735000  1.0  0.0639
  C  C306  1  0.515800  0.625000  0.694600  1.0  -0.1518
  C  C307  1  0.523700  0.603100  0.630200  1.0  -0.1089
  C  C308  1  0.481700  0.637800  0.590100  1.0  -0.1329
  C  C309  1  0.487300  0.616500  0.526100  1.0  0.0213
  C  C310  1  0.432100  0.551100  0.472700  1.0  0.2625
  C  C311  1  0.454800  0.566700  0.419000  1.0  -0.1426
  C  C312  1  0.434100  0.541200  0.368900  1.0  -0.1164
  C  C313  1  0.390700  0.499800  0.368700  1.0  -0.0263
  C  C314  1  0.367300  0.481000  0.422000  1.0  -0.0948
  C  C315  1  0.389300  0.508600  0.474400  1.0  -0.1047
  C  C316  1  0.324600  0.439000  0.424900  1.0  0.743
  C  C317  1  0.462100  0.557700  0.309300  1.0  0.6849
  C  C318  1  0.523000  0.080600  0.504000  1.0  0.6488
  C  C319  1  0.546600  0.059400  0.444000  1.0  0.0677
  C  C320  1  0.525500  0.074200  0.395700  1.0  -0.0642
  C  C321  1  0.547700  0.058800  0.340700  1.0  0.2461
  C  C322  1  0.588000  0.020100  0.338100  1.0  -0.0708
  C  C323  1  0.613600  0.002500  0.389300  1.0  -0.1598
  C  C324  1  0.591700  0.020900  0.444000  1.0  -0.0556
  C  C325  1  0.663600  0.957100  0.393100  1.0  0.6901
  C  C326  1  0.553700  0.085000  0.235000  1.0  0.0639
  C  C327  1  0.515800  0.125000  0.194600  1.0  -0.1518
  C  C328  1  0.523700  0.103100  0.130200  1.0  -0.1089
  C  C329  1  0.481700  0.137800  0.090100  1.0  -0.1329
  C  C330  1  0.487300  0.116500  0.026100  1.0  0.0213
  C  C331  1  0.432100  0.051100  0.972700  1.0  0.2625
  C  C332  1  0.454800  0.066700  0.919000  1.0  -0.1424
  C  C333  1  0.434100  0.041200  0.868900  1.0  -0.1164
  C  C334  1  0.390700  0.999800  0.868700  1.0  -0.0263
  C  C335  1  0.367300  0.981000  0.922000  1.0  -0.0948
  C  C336  1  0.389300  0.008600  0.974400  1.0  -0.1047
  C  C337  1  0.324600  0.939000  0.924900  1.0  0.743
  C  C338  1  0.462100  0.057700  0.809300  1.0  0.6848
  C  C339  1  0.023000  0.580600  0.504000  1.0  0.6487
  C  C340  1  0.046600  0.559400  0.444000  1.0  0.0677
  C  C341  1  0.025500  0.574200  0.395700  1.0  -0.0642
  C  C342  1  0.047700  0.558800  0.340700  1.0  0.2461
  C  C343  1  0.088000  0.520100  0.338100  1.0  -0.0704
  C  C344  1  0.113600  0.502500  0.389300  1.0  -0.1598
  C  C345  1  0.091700  0.520900  0.444000  1.0  -0.0556
  C  C346  1  0.163600  0.457100  0.393100  1.0  0.6901
  C  C347  1  0.053700  0.585000  0.235000  1.0  0.0639
  C  C348  1  0.015800  0.625000  0.194600  1.0  -0.1518
  C  C349  1  0.023700  0.603100  0.130200  1.0  -0.1089
  C  C350  1  0.981700  0.637800  0.090100  1.0  -0.1329
  C  C351  1  0.987300  0.616500  0.026100  1.0  0.0213
  C  C352  1  0.932100  0.551100  0.972700  1.0  0.2625
  C  C353  1  0.954800  0.566700  0.919000  1.0  -0.1426
  C  C354  1  0.934100  0.541200  0.868900  1.0  -0.1164
  C  C355  1  0.890700  0.499800  0.868700  1.0  -0.0263
  C  C356  1  0.867300  0.481000  0.922000  1.0  -0.0966
  C  C357  1  0.889300  0.508600  0.974400  1.0  -0.1047
  C  C358  1  0.824600  0.439000  0.924900  1.0  0.7429
  C  C359  1  0.962100  0.557700  0.809300  1.0  0.6849
  C  C360  1  0.023000  0.080600  0.004000  1.0  0.6487
  C  C361  1  0.046600  0.059400  0.944000  1.0  0.0677
  C  C362  1  0.025500  0.074200  0.895700  1.0  -0.0642
  C  C363  1  0.047700  0.058800  0.840700  1.0  0.2461
  C  C364  1  0.088000  0.020100  0.838100  1.0  -0.0708
  C  C365  1  0.113600  0.002500  0.889300  1.0  -0.1598
  C  C366  1  0.091700  0.020900  0.944000  1.0  -0.0556
  C  C367  1  0.163600  0.957100  0.893100  1.0  0.6901
  C  C368  1  0.053700  0.085000  0.735000  1.0  0.0639
  C  C369  1  0.015800  0.125000  0.694600  1.0  -0.1518
  C  C370  1  0.023700  0.103100  0.630200  1.0  -0.1089
  C  C371  1  0.981700  0.137800  0.590100  1.0  -0.1329
  C  C372  1  0.987300  0.116500  0.526100  1.0  0.0213
  C  C373  1  0.932100  0.051100  0.472700  1.0  0.2625
  C  C374  1  0.954800  0.066700  0.419000  1.0  -0.1424
  C  C375  1  0.934100  0.041200  0.368900  1.0  -0.1164
  C  C376  1  0.890700  0.999800  0.368700  1.0  -0.0263
  C  C377  1  0.867300  0.981000  0.422000  1.0  -0.0948
  C  C378  1  0.889300  0.008600  0.474400  1.0  -0.1047
  C  C379  1  0.824600  0.939000  0.424900  1.0  0.743
  C  C380  1  0.962100  0.057700  0.309300  1.0  0.6848
  C  C381  1  0.477000  0.419400  0.004000  1.0  0.6501
  C  C382  1  0.453400  0.440600  0.944000  1.0  0.0653
  C  C383  1  0.474500  0.425800  0.895700  1.0  -0.065
  C  C384  1  0.452300  0.441200  0.840700  1.0  0.2447
  C  C385  1  0.412000  0.479900  0.838100  1.0  -0.0711
  C  C386  1  0.386400  0.497500  0.889300  1.0  -0.1576
  C  C387  1  0.408300  0.479100  0.944000  1.0  -0.0568
  C  C388  1  0.336400  0.542900  0.893100  1.0  0.6909
  C  C389  1  0.446300  0.415000  0.735000  1.0  0.0673
  C  C390  1  0.484200  0.375000  0.694600  1.0  -0.1519
  C  C391  1  0.476300  0.396900  0.630200  1.0  -0.1102
  C  C392  1  0.518300  0.362200  0.590100  1.0  -0.1323
  C  C393  1  0.512700  0.383500  0.526100  1.0  0.0209
  C  C394  1  0.567900  0.448900  0.472700  1.0  0.262
  C  C395  1  0.545200  0.433300  0.419000  1.0  -0.1433
  C  C396  1  0.565900  0.458800  0.368900  1.0  -0.1164
  C  C397  1  0.609300  0.500200  0.368700  1.0  -0.0361
  C  C398  1  0.632700  0.519000  0.422000  1.0  -0.096
  C  C399  1  0.610700  0.491400  0.474400  1.0  -0.1006
  C  C400  1  0.675400  0.561000  0.424900  1.0  0.7428
  C  C401  1  0.537900  0.442300  0.309300  1.0  0.6846
  C  C402  1  0.477000  0.919400  0.504000  1.0  0.6501
  C  C403  1  0.453400  0.940600  0.444000  1.0  0.0653
  C  C404  1  0.474500  0.925800  0.395700  1.0  -0.065
  C  C405  1  0.452300  0.941200  0.340700  1.0  0.2447
  C  C406  1  0.412000  0.979900  0.338100  1.0  -0.0711
  C  C407  1  0.386400  0.997500  0.389300  1.0  -0.1576
  C  C408  1  0.408300  0.979100  0.444000  1.0  -0.0568
  C  C409  1  0.336400  0.042900  0.393100  1.0  0.6909
  C  C410  1  0.446300  0.915000  0.235000  1.0  0.0673
  C  C411  1  0.484200  0.875000  0.194600  1.0  -0.1519
  C  C412  1  0.476300  0.896900  0.130200  1.0  -0.1102
  C  C413  1  0.518300  0.862200  0.090100  1.0  -0.1323
  C  C414  1  0.512700  0.883500  0.026100  1.0  0.0209
  C  C415  1  0.567900  0.948900  0.972700  1.0  0.262
  C  C416  1  0.545200  0.933300  0.919000  1.0  -0.1433
  C  C417  1  0.565900  0.958800  0.868900  1.0  -0.1164
  C  C418  1  0.609300  0.000200  0.868700  1.0  -0.0361
  C  C419  1  0.632700  0.019000  0.922000  1.0  -0.0969
  C  C420  1  0.610700  0.991400  0.974400  1.0  -0.1006
  C  C421  1  0.675400  0.061000  0.924900  1.0  0.743
  C  C422  1  0.537900  0.942300  0.809300  1.0  0.6848
  C  C423  1  0.977000  0.419400  0.504000  1.0  0.6501
  C  C424  1  0.953400  0.440600  0.444000  1.0  0.0653
  C  C425  1  0.974500  0.425800  0.395700  1.0  -0.065
  C  C426  1  0.952300  0.441200  0.340700  1.0  0.252
  C  C427  1  0.912000  0.479900  0.338100  1.0  -0.0711
  C  C428  1  0.886400  0.497500  0.389300  1.0  -0.1576
  C  C429  1  0.908300  0.479100  0.444000  1.0  -0.0568
  C  C430  1  0.836400  0.542900  0.393100  1.0  0.6909
  C  C431  1  0.946300  0.415000  0.235000  1.0  0.0674
  C  C432  1  0.984200  0.375000  0.194600  1.0  -0.1519
  C  C433  1  0.976300  0.396900  0.130200  1.0  -0.1136
  C  C434  1  0.018300  0.362200  0.090100  1.0  -0.1323
  C  C435  1  0.012700  0.383500  0.026100  1.0  0.0209
  C  C436  1  0.067900  0.448900  0.972700  1.0  0.262
  C  C437  1  0.045200  0.433300  0.919000  1.0  -0.1433
  C  C438  1  0.065900  0.458800  0.868900  1.0  -0.1164
  C  C439  1  0.109300  0.500200  0.868700  1.0  -0.0361
  C  C440  1  0.132700  0.519000  0.922000  1.0  -0.0969
  C  C441  1  0.110700  0.491400  0.974400  1.0  -0.1006
  C  C442  1  0.175400  0.561000  0.924900  1.0  0.743
  C  C443  1  0.037900  0.442300  0.809300  1.0  0.6846
  C  C444  1  0.977000  0.919400  0.004000  1.0  0.6501
  C  C445  1  0.953400  0.940600  0.944000  1.0  0.0653
  C  C446  1  0.974500  0.925800  0.895700  1.0  -0.065
  C  C447  1  0.952300  0.941200  0.840700  1.0  0.252
  C  C448  1  0.912000  0.979900  0.838100  1.0  -0.0711
  C  C449  1  0.886400  0.997500  0.889300  1.0  -0.1576
  C  C450  1  0.908300  0.979100  0.944000  1.0  -0.0568
  C  C451  1  0.836400  0.042900  0.893100  1.0  0.6909
  C  C452  1  0.946300  0.915000  0.735000  1.0  0.0674
  C  C453  1  0.984200  0.875000  0.694600  1.0  -0.1519
  C  C454  1  0.976300  0.896900  0.630200  1.0  -0.1136
  C  C455  1  0.018300  0.862200  0.590100  1.0  -0.1323
  C  C456  1  0.012700  0.883500  0.526100  1.0  0.0209
  C  C457  1  0.067900  0.948900  0.472700  1.0  0.262
  C  C458  1  0.045200  0.933300  0.419000  1.0  -0.1433
  C  C459  1  0.065900  0.958800  0.368900  1.0  -0.1164
  C  C460  1  0.109300  0.000200  0.368700  1.0  -0.0361
  C  C461  1  0.132700  0.019000  0.422000  1.0  -0.0969
  C  C462  1  0.110700  0.991400  0.474400  1.0  -0.1006
  C  C463  1  0.175400  0.061000  0.424900  1.0  0.743
  C  C464  1  0.037900  0.942300  0.309300  1.0  0.6848
  C  C465  1  0.773000  0.669400  0.254000  1.0  0.6497
  C  C466  1  0.796600  0.690600  0.194000  1.0  0.0653
  C  C467  1  0.775500  0.675800  0.145700  1.0  -0.0621
  C  C468  1  0.797700  0.691200  0.090700  1.0  0.2471
  C  C469  1  0.838000  0.729900  0.088100  1.0  -0.0709
  C  C470  1  0.863600  0.747500  0.139300  1.0  -0.1601
  C  C471  1  0.841700  0.729100  0.194000  1.0  -0.0556
  C  C472  1  0.913600  0.792900  0.143100  1.0  0.6907
  C  C473  1  0.803700  0.665000  0.985000  1.0  0.0679
  C  C474  1  0.765800  0.625000  0.944600  1.0  -0.152
  C  C475  1  0.773700  0.646900  0.880200  1.0  -0.1122
  C  C476  1  0.731700  0.612200  0.840100  1.0  -0.1327
  C  C477  1  0.737300  0.633500  0.776100  1.0  0.021
  C  C478  1  0.682100  0.698900  0.722700  1.0  0.2622
  C  C479  1  0.704800  0.683300  0.669000  1.0  -0.1419
  C  C480  1  0.684100  0.708800  0.618900  1.0  -0.1171
  C  C481  1  0.640700  0.750200  0.618700  1.0  -0.0308
  C  C482  1  0.617300  0.769000  0.672000  1.0  -0.093
  C  C483  1  0.639300  0.741400  0.724400  1.0  -0.1051
  C  C484  1  0.574600  0.811000  0.674900  1.0  0.7435
  C  C485  1  0.712100  0.692300  0.559300  1.0  0.6846
  C  C486  1  0.773000  0.169400  0.754000  1.0  0.6497
  C  C487  1  0.796600  0.190600  0.694000  1.0  0.0653
  C  C488  1  0.775500  0.175800  0.645700  1.0  -0.0621
  C  C489  1  0.797700  0.191200  0.590700  1.0  0.2471
  C  C490  1  0.838000  0.229900  0.588100  1.0  -0.0709
  C  C491  1  0.863600  0.247500  0.639300  1.0  -0.1601
  C  C492  1  0.841700  0.229100  0.694000  1.0  -0.0556
  C  C493  1  0.913600  0.292900  0.643100  1.0  0.6907
  C  C494  1  0.803700  0.165000  0.485000  1.0  0.0679
  C  C495  1  0.765800  0.125000  0.444600  1.0  -0.152
  C  C496  1  0.773700  0.146900  0.380200  1.0  -0.1122
  C  C497  1  0.731700  0.112200  0.340100  1.0  -0.1327
  C  C498  1  0.737300  0.133500  0.276100  1.0  0.021
  C  C499  1  0.682100  0.198900  0.222700  1.0  0.2622
  C  C500  1  0.704800  0.183300  0.169000  1.0  -0.1419
  C  C501  1  0.684100  0.208800  0.118900  1.0  -0.1171
  C  C502  1  0.640700  0.250200  0.118700  1.0  -0.0308
  C  C503  1  0.617300  0.269000  0.172000  1.0  -0.093
  C  C504  1  0.639300  0.241400  0.224400  1.0  -0.1051
  C  C505  1  0.574600  0.311000  0.174900  1.0  0.7435
  C  C506  1  0.712100  0.192300  0.059300  1.0  0.6846
  C  C507  1  0.273000  0.669400  0.754000  1.0  0.6497
  C  C508  1  0.296600  0.690600  0.694000  1.0  0.0653
  C  C509  1  0.275500  0.675800  0.645700  1.0  -0.0621
  C  C510  1  0.297700  0.691200  0.590700  1.0  0.2471
  C  C511  1  0.338000  0.729900  0.588100  1.0  -0.0709
  C  C512  1  0.363600  0.747500  0.639300  1.0  -0.1601
  C  C513  1  0.341700  0.729100  0.694000  1.0  -0.0556
  C  C514  1  0.413600  0.792900  0.643100  1.0  0.6907
  C  C515  1  0.303700  0.665000  0.485000  1.0  0.0679
  C  C516  1  0.265800  0.625000  0.444600  1.0  -0.152
  C  C517  1  0.273700  0.646900  0.380200  1.0  -0.1122
  C  C518  1  0.231700  0.612200  0.340100  1.0  -0.1327
  C  C519  1  0.237300  0.633500  0.276100  1.0  0.021
  C  C520  1  0.182100  0.698900  0.222700  1.0  0.2622
  C  C521  1  0.204800  0.683300  0.169000  1.0  -0.1419
  C  C522  1  0.184100  0.708800  0.118900  1.0  -0.1171
  C  C523  1  0.140700  0.750200  0.118700  1.0  -0.0308
  C  C524  1  0.117300  0.769000  0.172000  1.0  -0.093
  C  C525  1  0.139300  0.741400  0.224400  1.0  -0.1051
  C  C526  1  0.074600  0.811000  0.174900  1.0  0.7435
  C  C527  1  0.212100  0.692300  0.059300  1.0  0.6846
  C  C528  1  0.273000  0.169400  0.254000  1.0  0.6497
  C  C529  1  0.296600  0.190600  0.194000  1.0  0.0653
  C  C530  1  0.275500  0.175800  0.145700  1.0  -0.0621
  C  C531  1  0.297700  0.191200  0.090700  1.0  0.2471
  C  C532  1  0.338000  0.229900  0.088100  1.0  -0.0709
  C  C533  1  0.363600  0.247500  0.139300  1.0  -0.1601
  C  C534  1  0.341700  0.229100  0.194000  1.0  -0.0556
  C  C535  1  0.413600  0.292900  0.143100  1.0  0.6907
  C  C536  1  0.303700  0.165000  0.985000  1.0  0.0679
  C  C537  1  0.265800  0.125000  0.944600  1.0  -0.152
  C  C538  1  0.273700  0.146900  0.880200  1.0  -0.1122
  C  C539  1  0.231700  0.112200  0.840100  1.0  -0.1327
  C  C540  1  0.237300  0.133500  0.776100  1.0  0.021
  C  C541  1  0.182100  0.198900  0.722700  1.0  0.2622
  C  C542  1  0.204800  0.183300  0.669000  1.0  -0.1419
  C  C543  1  0.184100  0.208800  0.618900  1.0  -0.1171
  C  C544  1  0.140700  0.250200  0.618700  1.0  -0.0308
  C  C545  1  0.117300  0.269000  0.672000  1.0  -0.093
  C  C546  1  0.139300  0.241400  0.724400  1.0  -0.1051
  C  C547  1  0.074600  0.311000  0.674900  1.0  0.7435
  C  C548  1  0.212100  0.192300  0.559300  1.0  0.6846
  C  C549  1  0.727000  0.830600  0.254000  1.0  0.6495
  C  C550  1  0.703400  0.809400  0.194000  1.0  0.0679
  C  C551  1  0.724500  0.824200  0.145700  1.0  -0.0659
  C  C552  1  0.702300  0.808800  0.090700  1.0  0.2525
  C  C553  1  0.662000  0.770100  0.088100  1.0  -0.0713
  C  C554  1  0.636400  0.752500  0.139300  1.0  -0.1583
  C  C555  1  0.658300  0.770900  0.194000  1.0  -0.0568
  C  C556  1  0.586400  0.707100  0.143100  1.0  0.6905
  C  C557  1  0.696300  0.835000  0.985000  1.0  0.0666
  C  C558  1  0.734200  0.875000  0.944600  1.0  -0.1499
  C  C559  1  0.726300  0.853100  0.880200  1.0  -0.1084
  C  C560  1  0.768300  0.887800  0.840100  1.0  -0.1323
  C  C561  1  0.762700  0.866500  0.776100  1.0  0.0214
  C  C562  1  0.817900  0.801100  0.722700  1.0  0.2622
  C  C563  1  0.795200  0.816700  0.669000  1.0  -0.1441
  C  C564  1  0.815900  0.791200  0.618900  1.0  -0.116
  C  C565  1  0.859300  0.749800  0.618700  1.0  -0.0293
  C  C566  1  0.882700  0.731000  0.672000  1.0  -0.0979
  C  C567  1  0.860700  0.758600  0.724400  1.0  -0.1014
  C  C568  1  0.925400  0.689000  0.674900  1.0  0.743
  C  C569  1  0.787900  0.807700  0.559300  1.0  0.6847
  C  C570  1  0.727000  0.330600  0.754000  1.0  0.6495
  C  C571  1  0.703400  0.309400  0.694000  1.0  0.0679
  C  C572  1  0.724500  0.324200  0.645700  1.0  -0.0659
  C  C573  1  0.702300  0.308800  0.590700  1.0  0.2525
  C  C574  1  0.662000  0.270100  0.588100  1.0  -0.0713
  C  C575  1  0.636400  0.252500  0.639300  1.0  -0.1583
  C  C576  1  0.658300  0.270900  0.694000  1.0  -0.0568
  C  C577  1  0.586400  0.207100  0.643100  1.0  0.6905
  C  C578  1  0.696300  0.335000  0.485000  1.0  0.0666
  C  C579  1  0.734200  0.375000  0.444600  1.0  -0.1499
  C  C580  1  0.726300  0.353100  0.380200  1.0  -0.1084
  C  C581  1  0.768300  0.387800  0.340100  1.0  -0.1323
  C  C582  1  0.762700  0.366500  0.276100  1.0  0.0214
  C  C583  1  0.817900  0.301100  0.222700  1.0  0.2622
  C  C584  1  0.795200  0.316700  0.169000  1.0  -0.1441
  C  C585  1  0.815900  0.291200  0.118900  1.0  -0.116
  C  C586  1  0.859300  0.249800  0.118700  1.0  -0.0293
  C  C587  1  0.882700  0.231000  0.172000  1.0  -0.0979
  C  C588  1  0.860700  0.258600  0.224400  1.0  -0.1014
  C  C589  1  0.925400  0.189000  0.174900  1.0  0.743
  C  C590  1  0.787900  0.307700  0.059300  1.0  0.6847
  C  C591  1  0.227000  0.830600  0.754000  1.0  0.6495
  C  C592  1  0.203400  0.809400  0.694000  1.0  0.0679
  C  C593  1  0.224500  0.824200  0.645700  1.0  -0.0659
  C  C594  1  0.202300  0.808800  0.590700  1.0  0.2525
  C  C595  1  0.162000  0.770100  0.588100  1.0  -0.0713
  C  C596  1  0.136400  0.752500  0.639300  1.0  -0.1583
  C  C597  1  0.158300  0.770900  0.694000  1.0  -0.0568
  C  C598  1  0.086400  0.707100  0.643100  1.0  0.6905
  C  C599  1  0.196300  0.835000  0.485000  1.0  0.0666
  C  C600  1  0.234200  0.875000  0.444600  1.0  -0.1499
  C  C601  1  0.226300  0.853100  0.380200  1.0  -0.1084
  C  C602  1  0.268300  0.887800  0.340100  1.0  -0.1323
  C  C603  1  0.262700  0.866500  0.276100  1.0  0.0214
  C  C604  1  0.317900  0.801100  0.222700  1.0  0.2622
  C  C605  1  0.295200  0.816700  0.169000  1.0  -0.1441
  C  C606  1  0.315900  0.791200  0.118900  1.0  -0.116
  C  C607  1  0.359300  0.749800  0.118700  1.0  -0.0293
  C  C608  1  0.382700  0.731000  0.172000  1.0  -0.0979
  C  C609  1  0.360700  0.758600  0.224400  1.0  -0.1014
  C  C610  1  0.425400  0.689000  0.174900  1.0  0.743
  C  C611  1  0.287900  0.807700  0.059300  1.0  0.6847
  C  C612  1  0.227000  0.330600  0.254000  1.0  0.6495
  C  C613  1  0.203400  0.309400  0.194000  1.0  0.0679
  C  C614  1  0.224500  0.324200  0.145700  1.0  -0.0659
  C  C615  1  0.202300  0.308800  0.090700  1.0  0.2525
  C  C616  1  0.162000  0.270100  0.088100  1.0  -0.0713
  C  C617  1  0.136400  0.252500  0.139300  1.0  -0.1583
  C  C618  1  0.158300  0.270900  0.194000  1.0  -0.0568
  C  C619  1  0.086400  0.207100  0.143100  1.0  0.6905
  C  C620  1  0.196300  0.335000  0.985000  1.0  0.0666
  C  C621  1  0.234200  0.375000  0.944600  1.0  -0.1499
  C  C622  1  0.226300  0.353100  0.880200  1.0  -0.1084
  C  C623  1  0.268300  0.387800  0.840100  1.0  -0.1323
  C  C624  1  0.262700  0.366500  0.776100  1.0  0.0214
  C  C625  1  0.317900  0.301100  0.722700  1.0  0.2622
  C  C626  1  0.295200  0.316700  0.669000  1.0  -0.1441
  C  C627  1  0.315900  0.291200  0.618900  1.0  -0.116
  C  C628  1  0.359300  0.249800  0.618700  1.0  -0.0293
  C  C629  1  0.382700  0.231000  0.672000  1.0  -0.0979
  C  C630  1  0.360700  0.258600  0.724400  1.0  -0.1014
  C  C631  1  0.425400  0.189000  0.674900  1.0  0.743
  C  C632  1  0.287900  0.307700  0.559300  1.0  0.6847
  O  O633  1  0.486500  0.617000  0.006700  1.0  -0.5525
  O  O634  1  0.549100  0.559200  0.049000  1.0  -0.6031
  O  O635  1  0.689400  0.456000  0.939800  1.0  -0.623
  O  O636  1  0.674600  0.426700  0.847800  1.0  -0.5849
  O  O637  1  0.522200  0.579800  0.787300  1.0  -0.2929
  O  O638  1  0.450900  0.576300  0.523300  1.0  -0.3516
  O  O639  1  0.303100  0.422100  0.474100  1.0  -0.6219
  O  O640  1  0.305100  0.417700  0.376400  1.0  -0.623
  O  O641  1  0.499800  0.596800  0.311800  1.0  -0.6198
  O  O642  1  0.445700  0.532700  0.264100  1.0  -0.6199
  O  O643  1  0.542200  0.577300  0.185600  1.0  -0.8088
  O  O644  1  0.486500  0.117000  0.506700  1.0  -0.5521
  O  O645  1  0.549100  0.059200  0.549000  1.0  -0.603
  O  O646  1  0.689400  0.956000  0.439800  1.0  -0.623
  O  O647  1  0.674600  0.926700  0.347800  1.0  -0.5849
  O  O648  1  0.522200  0.079800  0.287300  1.0  -0.2929
  O  O649  1  0.450900  0.076300  0.023300  1.0  -0.3516
  O  O650  1  0.303100  0.922100  0.974100  1.0  -0.6219
  O  O651  1  0.305100  0.917700  0.876400  1.0  -0.623
  O  O652  1  0.499800  0.096800  0.811800  1.0  -0.6198
  O  O653  1  0.445700  0.032700  0.764100  1.0  -0.6199
  O  O654  1  0.542200  0.077300  0.685600  1.0  -0.8088
  O  O655  1  0.986500  0.617000  0.506700  1.0  -0.5521
  O  O656  1  0.049100  0.559200  0.549000  1.0  -0.6029
  O  O657  1  0.189400  0.456000  0.439800  1.0  -0.623
  O  O658  1  0.174600  0.426700  0.347800  1.0  -0.5849
  O  O659  1  0.022200  0.579800  0.287300  1.0  -0.2929
  O  O660  1  0.950900  0.576300  0.023300  1.0  -0.3516
  O  O661  1  0.803100  0.422100  0.974100  1.0  -0.6215
  O  O662  1  0.805100  0.417700  0.876400  1.0  -0.623
  O  O663  1  0.999800  0.596800  0.811800  1.0  -0.6198
  O  O664  1  0.945700  0.532700  0.764100  1.0  -0.6199
  O  O665  1  0.042200  0.577300  0.685600  1.0  -0.8088
  O  O666  1  0.986500  0.117000  0.006700  1.0  -0.5525
  O  O667  1  0.049100  0.059200  0.049000  1.0  -0.6029
  O  O668  1  0.189400  0.956000  0.939800  1.0  -0.623
  O  O669  1  0.174600  0.926700  0.847800  1.0  -0.5849
  O  O670  1  0.022200  0.079800  0.787300  1.0  -0.2929
  O  O671  1  0.950900  0.076300  0.523300  1.0  -0.3516
  O  O672  1  0.803100  0.922100  0.474100  1.0  -0.6219
  O  O673  1  0.805100  0.917700  0.376400  1.0  -0.623
  O  O674  1  0.999800  0.096800  0.311800  1.0  -0.6198
  O  O675  1  0.945700  0.032700  0.264100  1.0  -0.6199
  O  O676  1  0.042200  0.077300  0.185600  1.0  -0.8088
  O  O677  1  0.513500  0.383000  0.006700  1.0  -0.5534
  O  O678  1  0.450900  0.440800  0.049000  1.0  -0.6043
  O  O679  1  0.310600  0.544000  0.939800  1.0  -0.6225
  O  O680  1  0.325400  0.573300  0.847800  1.0  -0.585
  O  O681  1  0.477800  0.420200  0.787300  1.0  -0.292
  O  O682  1  0.549100  0.423700  0.523300  1.0  -0.3551
  O  O683  1  0.696900  0.577900  0.474100  1.0  -0.6213
  O  O684  1  0.694900  0.582300  0.376400  1.0  -0.6254
  O  O685  1  0.500200  0.403200  0.311800  1.0  -0.6187
  O  O686  1  0.554300  0.467300  0.264100  1.0  -0.6186
  O  O687  1  0.457800  0.422700  0.185600  1.0  -0.8106
  O  O688  1  0.513500  0.883000  0.506700  1.0  -0.5532
  O  O689  1  0.450900  0.940800  0.549000  1.0  -0.6042
  O  O690  1  0.310600  0.044000  0.439800  1.0  -0.6225
  O  O691  1  0.325400  0.073300  0.347800  1.0  -0.585
  O  O692  1  0.477800  0.920200  0.287300  1.0  -0.292
  O  O693  1  0.549100  0.923700  0.023300  1.0  -0.3551
  O  O694  1  0.696900  0.077900  0.974100  1.0  -0.621
  O  O695  1  0.694900  0.082300  0.876400  1.0  -0.6254
  O  O696  1  0.500200  0.903200  0.811800  1.0  -0.6187
  O  O697  1  0.554300  0.967300  0.764100  1.0  -0.6186
  O  O698  1  0.457800  0.922700  0.685600  1.0  -0.8106
  O  O699  1  0.013500  0.383000  0.506700  1.0  -0.5531
  O  O700  1  0.950900  0.440800  0.549000  1.0  -0.6042
  O  O701  1  0.810600  0.544000  0.439800  1.0  -0.6225
  O  O702  1  0.825400  0.573300  0.347800  1.0  -0.585
  O  O703  1  0.977800  0.420200  0.287300  1.0  -0.292
  O  O704  1  0.049100  0.423700  0.023300  1.0  -0.3551
  O  O705  1  0.196900  0.577900  0.974100  1.0  -0.621
  O  O706  1  0.194900  0.582300  0.876400  1.0  -0.6254
  O  O707  1  0.000200  0.403200  0.811800  1.0  -0.6187
  O  O708  1  0.054300  0.467300  0.764100  1.0  -0.6186
  O  O709  1  0.957800  0.422700  0.685600  1.0  -0.8106
  O  O710  1  0.013500  0.883000  0.006700  1.0  -0.5535
  O  O711  1  0.950900  0.940800  0.049000  1.0  -0.6043
  O  O712  1  0.810600  0.044000  0.939800  1.0  -0.6225
  O  O713  1  0.825400  0.073300  0.847800  1.0  -0.585
  O  O714  1  0.977800  0.920200  0.787300  1.0  -0.292
  O  O715  1  0.049100  0.923700  0.523300  1.0  -0.3551
  O  O716  1  0.196900  0.077900  0.474100  1.0  -0.621
  O  O717  1  0.194900  0.082300  0.376400  1.0  -0.6254
  O  O718  1  0.000200  0.903200  0.311800  1.0  -0.6187
  O  O719  1  0.054300  0.967300  0.264100  1.0  -0.6186
  O  O720  1  0.957800  0.922700  0.185600  1.0  -0.8106
  O  O721  1  0.736500  0.633000  0.256700  1.0  -0.5541
  O  O722  1  0.799100  0.690800  0.299000  1.0  -0.6029
  O  O723  1  0.939400  0.794000  0.189800  1.0  -0.6231
  O  O724  1  0.924600  0.823300  0.097800  1.0  -0.5848
  O  O725  1  0.772200  0.670200  0.037300  1.0  -0.292
  O  O726  1  0.700900  0.673700  0.773300  1.0  -0.3527
  O  O727  1  0.553100  0.827900  0.724100  1.0  -0.6224
  O  O728  1  0.555100  0.832300  0.626400  1.0  -0.6236
  O  O729  1  0.749800  0.653200  0.561800  1.0  -0.6193
  O  O730  1  0.695700  0.717300  0.514100  1.0  -0.6199
  O  O731  1  0.792200  0.672700  0.435600  1.0  -0.8087
  O  O732  1  0.736500  0.133000  0.756700  1.0  -0.5541
  O  O733  1  0.799100  0.190800  0.799000  1.0  -0.6029
  O  O734  1  0.939400  0.294000  0.689800  1.0  -0.6231
  O  O735  1  0.924600  0.323300  0.597800  1.0  -0.5848
  O  O736  1  0.772200  0.170200  0.537300  1.0  -0.292
  O  O737  1  0.700900  0.173700  0.273300  1.0  -0.3527
  O  O738  1  0.553100  0.327900  0.224100  1.0  -0.6224
  O  O739  1  0.555100  0.332300  0.126400  1.0  -0.6236
  O  O740  1  0.749800  0.153200  0.061800  1.0  -0.6193
  O  O741  1  0.695700  0.217300  0.014100  1.0  -0.6199
  O  O742  1  0.792200  0.172700  0.935600  1.0  -0.8087
  O  O743  1  0.236500  0.633000  0.756700  1.0  -0.5541
  O  O744  1  0.299100  0.690800  0.799000  1.0  -0.6029
  O  O745  1  0.439400  0.794000  0.689800  1.0  -0.6231
  O  O746  1  0.424600  0.823300  0.597800  1.0  -0.5848
  O  O747  1  0.272200  0.670200  0.537300  1.0  -0.292
  O  O748  1  0.200900  0.673700  0.273300  1.0  -0.3527
  O  O749  1  0.053100  0.827900  0.224100  1.0  -0.6224
  O  O750  1  0.055100  0.832300  0.126400  1.0  -0.6236
  O  O751  1  0.249800  0.653200  0.061800  1.0  -0.6193
  O  O752  1  0.195700  0.717300  0.014100  1.0  -0.6199
  O  O753  1  0.292200  0.672700  0.935600  1.0  -0.8087
  O  O754  1  0.236500  0.133000  0.256700  1.0  -0.5541
  O  O755  1  0.299100  0.190800  0.299000  1.0  -0.6029
  O  O756  1  0.439400  0.294000  0.189800  1.0  -0.6231
  O  O757  1  0.424600  0.323300  0.097800  1.0  -0.5848
  O  O758  1  0.272200  0.170200  0.037300  1.0  -0.292
  O  O759  1  0.200900  0.173700  0.773300  1.0  -0.3527
  O  O760  1  0.053100  0.327900  0.724100  1.0  -0.6224
  O  O761  1  0.055100  0.332300  0.626400  1.0  -0.6236
  O  O762  1  0.249800  0.153200  0.561800  1.0  -0.6193
  O  O763  1  0.195700  0.217300  0.514100  1.0  -0.6199
  O  O764  1  0.292200  0.172700  0.435600  1.0  -0.8087
  O  O765  1  0.763500  0.867000  0.256700  1.0  -0.5518
  O  O766  1  0.700900  0.809200  0.299000  1.0  -0.6042
  O  O767  1  0.560600  0.706000  0.189800  1.0  -0.6226
  O  O768  1  0.575400  0.676700  0.097800  1.0  -0.5849
  O  O769  1  0.727800  0.829800  0.037300  1.0  -0.2929
  O  O770  1  0.799100  0.826300  0.773300  1.0  -0.3508
  O  O771  1  0.946900  0.672100  0.724100  1.0  -0.6212
  O  O772  1  0.944900  0.667700  0.626400  1.0  -0.6244
  O  O773  1  0.750200  0.846800  0.561800  1.0  -0.6193
  O  O774  1  0.804300  0.782700  0.514100  1.0  -0.62
  O  O775  1  0.707800  0.827300  0.435600  1.0  -0.8109
  O  O776  1  0.763500  0.367000  0.756700  1.0  -0.5518
  O  O777  1  0.700900  0.309200  0.799000  1.0  -0.6042
  O  O778  1  0.560600  0.206000  0.689800  1.0  -0.6226
  O  O779  1  0.575400  0.176700  0.597800  1.0  -0.5849
  O  O780  1  0.727800  0.329800  0.537300  1.0  -0.2929
  O  O781  1  0.799100  0.326300  0.273300  1.0  -0.3508
  O  O782  1  0.946900  0.172100  0.224100  1.0  -0.6212
  O  O783  1  0.944900  0.167700  0.126400  1.0  -0.6244
  O  O784  1  0.750200  0.346800  0.061800  1.0  -0.6193
  O  O785  1  0.804300  0.282700  0.014100  1.0  -0.62
  O  O786  1  0.707800  0.327300  0.935600  1.0  -0.8109
  O  O787  1  0.263500  0.867000  0.756700  1.0  -0.5518
  O  O788  1  0.200900  0.809200  0.799000  1.0  -0.6042
  O  O789  1  0.060600  0.706000  0.689800  1.0  -0.6226
  O  O790  1  0.075400  0.676700  0.597800  1.0  -0.5849
  O  O791  1  0.227800  0.829800  0.537300  1.0  -0.2929
  O  O792  1  0.299100  0.826300  0.273300  1.0  -0.3508
  O  O793  1  0.446900  0.672100  0.224100  1.0  -0.6212
  O  O794  1  0.444900  0.667700  0.126400  1.0  -0.6244
  O  O795  1  0.250200  0.846800  0.061800  1.0  -0.6193
  O  O796  1  0.304300  0.782700  0.014100  1.0  -0.62
  O  O797  1  0.207800  0.827300  0.935600  1.0  -0.8109
  O  O798  1  0.263500  0.367000  0.256700  1.0  -0.5518
  O  O799  1  0.200900  0.309200  0.299000  1.0  -0.6042
  O  O800  1  0.060600  0.206000  0.189800  1.0  -0.6226
  O  O801  1  0.075400  0.176700  0.097800  1.0  -0.5849
  O  O802  1  0.227800  0.329800  0.037300  1.0  -0.2929
  O  O803  1  0.299100  0.326300  0.773300  1.0  -0.3508
  O  O804  1  0.446900  0.172100  0.724100  1.0  -0.6212
  O  O805  1  0.444900  0.167700  0.626400  1.0  -0.6244
  O  O806  1  0.250200  0.346800  0.561800  1.0  -0.6193
  O  O807  1  0.304300  0.282700  0.514100  1.0  -0.62
  O  O808  1  0.207800  0.327300  0.435600  1.0  -0.8109
