# generated using pymatgen
data_Cu3H40(C5N)10
_symmetry_space_group_name_H-M   'P 1'
_cell_length_a   29.88600000
_cell_length_b   28.35000000
_cell_length_c   15.27190000
_cell_angle_alpha   90.00000000
_cell_angle_beta   90.00000000
_cell_angle_gamma   90.00000000
_symmetry_Int_Tables_number   1
_chemical_formula_structural   Cu3H40(C5N)10
_chemical_formula_sum   'Cu24 H320 C400 N80'
_cell_volume   12939.39369639
_cell_formula_units_Z   8
loop_
 _symmetry_equiv_pos_site_id
 _symmetry_equiv_pos_as_xyz
  1  'x, y, z'
loop_
 _atom_site_type_symbol
 _atom_site_label
 _atom_site_symmetry_multiplicity
 _atom_site_fract_x
 _atom_site_fract_y
 _atom_site_fract_z
 _atom_site_occupancy
 _atom_site_charge
  Cu  Cu1  1  0.816310  0.195530  0.942960  1.0  0.3689
  Cu  Cu2  1  0.184270  0.164100  0.861570  1.0  0.3161
  Cu  Cu3  1  0.365380  0.478270  0.626190  1.0  0.3708
  Cu  Cu4  1  0.183690  0.804470  0.442960  1.0  0.3688
  Cu  Cu5  1  0.815730  0.835900  0.361570  1.0  0.3158
  Cu  Cu6  1  0.634620  0.521730  0.126190  1.0  0.3698
  Cu  Cu7  1  0.316310  0.804470  0.942960  1.0  0.3689
  Cu  Cu8  1  0.684270  0.835900  0.861570  1.0  0.316
  Cu  Cu9  1  0.865380  0.521730  0.626190  1.0  0.371
  Cu  Cu10  1  0.683690  0.195530  0.442960  1.0  0.3689
  Cu  Cu11  1  0.315730  0.164100  0.361570  1.0  0.3158
  Cu  Cu12  1  0.134620  0.478270  0.126190  1.0  0.3695
  Cu  Cu13  1  0.670430  0.331580  0.320500  1.0  0.3278
  Cu  Cu14  1  0.306520  0.313300  0.457300  1.0  0.4026
  Cu  Cu15  1  0.133960  0.984420  0.657990  1.0  0.3605
  Cu  Cu16  1  0.329570  0.668420  0.820500  1.0  0.3268
  Cu  Cu17  1  0.693480  0.686700  0.957300  1.0  0.4024
  Cu  Cu18  1  0.866040  0.015580  0.157990  1.0  0.3616
  Cu  Cu19  1  0.170430  0.668420  0.320500  1.0  0.3278
  Cu  Cu20  1  0.806520  0.686700  0.457300  1.0  0.4029
  Cu  Cu21  1  0.633960  0.015580  0.657990  1.0  0.3608
  Cu  Cu22  1  0.829570  0.331580  0.820500  1.0  0.3268
  Cu  Cu23  1  0.193480  0.313300  0.957300  1.0  0.4021
  Cu  Cu24  1  0.366040  0.984420  0.157990  1.0  0.3613
  H  H25  1  0.883400  0.169300  0.803200  1.0  0.0575
  H  H26  1  0.958900  0.163800  0.782200  1.0  0.1098
  H  H27  1  0.974600  0.203900  0.031600  1.0  0.1055
  H  H28  1  0.898300  0.209600  0.043400  1.0  0.0619
  H  H29  1  0.104200  0.172300  0.753700  1.0  0.0693
  H  H30  1  0.028600  0.182800  0.766200  1.0  0.093
  H  H31  1  0.038700  0.169200  0.024000  1.0  0.1093
  H  H32  1  0.114100  0.162200  0.007600  1.0  0.064
  H  H33  1  0.154000  0.076800  0.945100  1.0  0.0569
  H  H34  1  0.180000  0.998300  0.970700  1.0  0.1138
  H  H35  1  0.297600  0.038700  0.867800  1.0  0.1023
  H  H36  1  0.269400  0.113000  0.850800  1.0  0.0553
  H  H37  1  0.227200  0.851900  0.931600  1.0  0.064
  H  H38  1  0.199600  0.926700  0.923400  1.0  0.0953
  H  H39  1  0.323100  0.976700  0.920500  1.0  0.0969
  H  H40  1  0.348900  0.901500  0.928900  1.0  0.0687
  H  H41  1  0.278200  0.195300  0.833900  1.0  0.0512
  H  H42  1  0.316900  0.257400  0.775600  1.0  0.1091
  H  H43  1  0.198800  0.312500  0.706200  1.0  0.1061
  H  H44  1  0.165500  0.246700  0.756900  1.0  0.0564
  H  H45  1  0.382500  0.374700  0.639400  1.0  0.0549
  H  H46  1  0.347700  0.307600  0.684700  1.0  0.1004
  H  H47  1  0.233600  0.379900  0.697500  1.0  0.1015
  H  H48  1  0.270700  0.444000  0.648100  1.0  0.0701
  H  H49  1  0.372000  0.559500  0.508200  1.0  0.0516
  H  H50  1  0.339300  0.630900  0.479800  1.0  0.0956
  H  H51  1  0.240200  0.594900  0.633000  1.0  0.0801
  H  H52  1  0.275100  0.523800  0.659200  1.0  0.0606
  H  H53  1  0.277600  0.771100  0.453700  1.0  0.0656
  H  H54  1  0.314200  0.701100  0.484200  1.0  0.0902
  H  H55  1  0.200100  0.646300  0.560400  1.0  0.095
  H  H56  1  0.165200  0.714500  0.513100  1.0  0.0558
  H  H57  1  0.415200  0.417800  0.486100  1.0  0.04
  H  H58  1  0.470100  0.425300  0.384600  1.0  0.0977
  H  H59  1  0.505700  0.544200  0.501400  1.0  0.0878
  H  H60  1  0.444200  0.538900  0.586500  1.0  0.0647
  H  H61  1  0.599800  0.437500  0.235300  1.0  0.0652
  H  H62  1  0.542400  0.424800  0.333333  1.0  0.082
  H  H63  1  0.537000  0.563200  0.374300  1.0  0.0913
  H  H64  1  0.593100  0.573100  0.277700  1.0  0.062
  H  H65  1  0.116600  0.830700  0.303200  1.0  0.0578
  H  H66  1  0.041100  0.836200  0.282200  1.0  0.1097
  H  H67  1  0.025400  0.796100  0.531600  1.0  0.104
  H  H68  1  0.101700  0.790400  0.543400  1.0  0.0622
  H  H69  1  0.895800  0.827700  0.253700  1.0  0.069
  H  H70  1  0.971400  0.817200  0.266200  1.0  0.093
  H  H71  1  0.961300  0.830800  0.524000  1.0  0.109
  H  H72  1  0.885900  0.837800  0.507600  1.0  0.0637
  H  H73  1  0.846000  0.923200  0.445100  1.0  0.0577
  H  H74  1  0.820000  0.001700  0.470700  1.0  0.1133
  H  H75  1  0.702400  0.961300  0.367800  1.0  0.1023
  H  H76  1  0.730600  0.887000  0.350800  1.0  0.0545
  H  H77  1  0.772800  0.148100  0.431600  1.0  0.0644
  H  H78  1  0.800400  0.073300  0.423400  1.0  0.0946
  H  H79  1  0.676900  0.023300  0.420500  1.0  0.0966
  H  H80  1  0.651100  0.098500  0.428900  1.0  0.0691
  H  H81  1  0.721800  0.804700  0.333900  1.0  0.0526
  H  H82  1  0.683100  0.742600  0.275600  1.0  0.1093
  H  H83  1  0.801200  0.687500  0.206200  1.0  0.107
  H  H84  1  0.834500  0.753300  0.256900  1.0  0.0563
  H  H85  1  0.617500  0.625300  0.139400  1.0  0.0532
  H  H86  1  0.652300  0.692400  0.184700  1.0  0.1003
  H  H87  1  0.766400  0.620100  0.197500  1.0  0.1014
  H  H88  1  0.729300  0.556000  0.148100  1.0  0.0695
  H  H89  1  0.628000  0.440500  0.008200  1.0  0.0524
  H  H90  1  0.660700  0.369100  0.979800  1.0  0.0952
  H  H91  1  0.759800  0.405100  0.133000  1.0  0.0815
  H  H92  1  0.724900  0.476200  0.159200  1.0  0.0598
  H  H93  1  0.722400  0.228900  0.953700  1.0  0.0614
  H  H94  1  0.685800  0.298900  0.984200  1.0  0.0903
  H  H95  1  0.799900  0.353700  0.060400  1.0  0.0958
  H  H96  1  0.834800  0.285500  0.013100  1.0  0.0563
  H  H97  1  0.584800  0.582200  0.986100  1.0  0.0399
  H  H98  1  0.529900  0.574700  0.884600  1.0  0.098
  H  H99  1  0.494300  0.455800  0.001400  1.0  0.0873
  H  H100  1  0.555800  0.461100  0.086500  1.0  0.064
  H  H101  1  0.400200  0.562500  0.735300  1.0  0.0647
  H  H102  1  0.457600  0.575200  0.833300  1.0  0.0824
  H  H103  1  0.463000  0.436800  0.874300  1.0  0.0915
  H  H104  1  0.406900  0.426900  0.777700  1.0  0.0612
  H  H105  1  0.383400  0.830700  0.803200  1.0  0.0575
  H  H106  1  0.458900  0.836200  0.782200  1.0  0.1098
  H  H107  1  0.474600  0.796100  0.031600  1.0  0.1056
  H  H108  1  0.398300  0.790400  0.043400  1.0  0.0614
  H  H109  1  0.604200  0.827700  0.753700  1.0  0.0688
  H  H110  1  0.528600  0.817200  0.766200  1.0  0.0929
  H  H111  1  0.538700  0.830800  0.024000  1.0  0.1091
  H  H112  1  0.614100  0.837800  0.007600  1.0  0.0638
  H  H113  1  0.654000  0.923200  0.945100  1.0  0.0572
  H  H114  1  0.680000  0.001700  0.970700  1.0  0.1138
  H  H115  1  0.797600  0.961300  0.867800  1.0  0.1018
  H  H116  1  0.769400  0.887000  0.850800  1.0  0.055
  H  H117  1  0.727200  0.148100  0.931600  1.0  0.0642
  H  H118  1  0.699600  0.073300  0.923400  1.0  0.0955
  H  H119  1  0.823100  0.023300  0.920500  1.0  0.0966
  H  H120  1  0.848900  0.098500  0.928900  1.0  0.0686
  H  H121  1  0.778200  0.804700  0.833900  1.0  0.0513
  H  H122  1  0.816900  0.742600  0.775600  1.0  0.1089
  H  H123  1  0.698800  0.687500  0.706200  1.0  0.1024
  H  H124  1  0.665500  0.753300  0.756900  1.0  0.0564
  H  H125  1  0.882500  0.625300  0.639400  1.0  0.0545
  H  H126  1  0.847700  0.692400  0.684700  1.0  0.1003
  H  H127  1  0.733600  0.620100  0.697500  1.0  0.1014
  H  H128  1  0.770700  0.556000  0.648100  1.0  0.0697
  H  H129  1  0.872000  0.440500  0.508200  1.0  0.052
  H  H130  1  0.839300  0.369100  0.479800  1.0  0.0955
  H  H131  1  0.740200  0.405100  0.633000  1.0  0.0812
  H  H132  1  0.775100  0.476200  0.659200  1.0  0.0602
  H  H133  1  0.777600  0.228900  0.453700  1.0  0.0656
  H  H134  1  0.814200  0.298900  0.484200  1.0  0.0897
  H  H135  1  0.700100  0.353700  0.560400  1.0  0.0953
  H  H136  1  0.665200  0.285500  0.513100  1.0  0.056
  H  H137  1  0.915200  0.582200  0.486100  1.0  0.0401
  H  H138  1  0.970100  0.574700  0.384600  1.0  0.0975
  H  H139  1  0.005700  0.455800  0.501400  1.0  0.0874
  H  H140  1  0.944200  0.461100  0.586500  1.0  0.0641
  H  H141  1  0.099800  0.562500  0.235300  1.0  0.0648
  H  H142  1  0.042400  0.575200  0.333333  1.0  0.0825
  H  H143  1  0.037000  0.436800  0.374300  1.0  0.0909
  H  H144  1  0.093100  0.426900  0.277700  1.0  0.0608
  H  H145  1  0.616600  0.169300  0.303200  1.0  0.0579
  H  H146  1  0.541100  0.163800  0.282200  1.0  0.1095
  H  H147  1  0.525400  0.203900  0.531600  1.0  0.1039
  H  H148  1  0.601700  0.209600  0.543400  1.0  0.0625
  H  H149  1  0.395800  0.172300  0.253700  1.0  0.0692
  H  H150  1  0.471400  0.182800  0.266200  1.0  0.0931
  H  H151  1  0.461300  0.169200  0.524000  1.0  0.1093
  H  H152  1  0.385900  0.162200  0.507600  1.0  0.0637
  H  H153  1  0.346000  0.076800  0.445100  1.0  0.0573
  H  H154  1  0.320000  0.998300  0.470700  1.0  0.1134
  H  H155  1  0.202400  0.038700  0.367800  1.0  0.1037
  H  H156  1  0.230600  0.113000  0.350800  1.0  0.0545
  H  H157  1  0.272800  0.851900  0.431600  1.0  0.0644
  H  H158  1  0.300400  0.926700  0.423400  1.0  0.0949
  H  H159  1  0.176900  0.976700  0.420500  1.0  0.0968
  H  H160  1  0.151100  0.901500  0.428900  1.0  0.0695
  H  H161  1  0.221800  0.195300  0.333900  1.0  0.0522
  H  H162  1  0.183100  0.257400  0.275600  1.0  0.1095
  H  H163  1  0.301200  0.312500  0.206200  1.0  0.107
  H  H164  1  0.334500  0.246700  0.256900  1.0  0.0563
  H  H165  1  0.117500  0.374700  0.139400  1.0  0.0545
  H  H166  1  0.152300  0.307600  0.184700  1.0  0.0984
  H  H167  1  0.266400  0.379900  0.197500  1.0  0.1017
  H  H168  1  0.229300  0.444000  0.148100  1.0  0.0697
  H  H169  1  0.128000  0.559500  0.008200  1.0  0.0517
  H  H170  1  0.160700  0.630900  0.979800  1.0  0.0953
  H  H171  1  0.259800  0.594900  0.133000  1.0  0.0816
  H  H172  1  0.224900  0.523800  0.159200  1.0  0.0603
  H  H173  1  0.222400  0.771100  0.953700  1.0  0.0624
  H  H174  1  0.185800  0.701100  0.984200  1.0  0.0908
  H  H175  1  0.299900  0.646300  0.060400  1.0  0.096
  H  H176  1  0.334800  0.714500  0.013100  1.0  0.0565
  H  H177  1  0.084800  0.417800  0.986100  1.0  0.04
  H  H178  1  0.029900  0.425300  0.884600  1.0  0.0981
  H  H179  1  0.994300  0.544200  0.001400  1.0  0.0881
  H  H180  1  0.055800  0.538900  0.086500  1.0  0.0644
  H  H181  1  0.900200  0.437500  0.735300  1.0  0.0647
  H  H182  1  0.957600  0.424800  0.833300  1.0  0.0821
  H  H183  1  0.963000  0.563200  0.874300  1.0  0.0914
  H  H184  1  0.906900  0.573100  0.777700  1.0  0.0621
  H  H185  1  0.587900  0.314000  0.228900  1.0  0.0695
  H  H186  1  0.512400  0.300000  0.253600  1.0  0.1
  H  H187  1  0.531800  0.332700  0.505300  1.0  0.1006
  H  H188  1  0.605500  0.342300  0.476400  1.0  0.0626
  H  H189  1  0.368900  0.331700  0.307400  1.0  0.0801
  H  H190  1  0.443900  0.333400  0.277800  1.0  0.1031
  H  H191  1  0.467200  0.289600  0.522900  1.0  0.0988
  H  H192  1  0.392200  0.285900  0.545300  1.0  0.0625
  H  H193  1  0.337800  0.409500  0.424500  1.0  0.0439
  H  H194  1  0.313500  0.480400  0.386700  1.0  0.1028
  H  H195  1  0.188400  0.434400  0.422300  1.0  0.0986
  H  H196  1  0.218300  0.362300  0.450400  1.0  0.0602
  H  H197  1  0.141900  0.580100  0.409300  1.0  0.0698
  H  H198  1  0.168500  0.507000  0.446000  1.0  0.1137
  H  H199  1  0.283600  0.542800  0.332400  1.0  0.097
  H  H200  1  0.253100  0.613400  0.295400  1.0  0.0561
  H  H201  1  0.211800  0.278300  0.477400  1.0  0.0726
  H  H202  1  0.176400  0.212600  0.524700  1.0  0.094
  H  H203  1  0.293700  0.158000  0.594300  1.0  0.1012
  H  H204  1  0.328300  0.226300  0.540000  1.0  0.0538
  H  H205  1  0.123000  0.067900  0.544800  1.0  0.0565
  H  H206  1  0.154700  0.138800  0.512300  1.0  0.1
  H  H207  1  0.255400  0.107500  0.668700  1.0  0.0949
  H  H208  1  0.220600  0.038500  0.703700  1.0  0.0548
  H  H209  1  0.103600  0.061600  0.780300  1.0  0.0522
  H  H210  1  0.046400  0.070600  0.878400  1.0  0.0815
  H  H211  1  0.042700  0.929900  0.909300  1.0  0.1021
  H  H212  1  0.096400  0.924900  0.804200  1.0  0.0664
  H  H213  1  0.913600  0.071500  0.016600  1.0  0.0418
  H  H214  1  0.967900  0.065900  0.914000  1.0  0.108
  H  H215  1  0.011300  0.949400  0.040100  1.0  0.0907
  H  H216  1  0.950400  0.955200  0.130700  1.0  0.0785
  H  H217  1  0.118300  0.879800  0.650600  1.0  0.0605
  H  H218  1  0.157600  0.811400  0.676800  1.0  0.0913
  H  H219  1  0.270700  0.888500  0.685600  1.0  0.1062
  H  H220  1  0.228000  0.952800  0.654500  1.0  0.0564
  H  H221  1  0.234400  0.694300  0.787000  1.0  0.0501
  H  H222  1  0.193300  0.755700  0.739500  1.0  0.0955
  H  H223  1  0.306100  0.822600  0.690200  1.0  0.0971
  H  H224  1  0.343800  0.756900  0.732100  1.0  0.0533
  H  H225  1  0.412100  0.686000  0.728900  1.0  0.0695
  H  H226  1  0.487600  0.700000  0.753600  1.0  0.1005
  H  H227  1  0.468200  0.667300  0.005300  1.0  0.1009
  H  H228  1  0.394500  0.657700  0.976400  1.0  0.0625
  H  H229  1  0.631100  0.668300  0.807400  1.0  0.0799
  H  H230  1  0.556100  0.666667  0.777800  1.0  0.1024
  H  H231  1  0.532800  0.710400  0.022900  1.0  0.0976
  H  H232  1  0.607800  0.714100  0.045300  1.0  0.0629
  H  H233  1  0.662200  0.590500  0.924500  1.0  0.0422
  H  H234  1  0.686500  0.519600  0.886700  1.0  0.1024
  H  H235  1  0.811600  0.565600  0.922300  1.0  0.0984
  H  H236  1  0.781700  0.637700  0.950400  1.0  0.0608
  H  H237  1  0.858100  0.419900  0.909300  1.0  0.0707
  H  H238  1  0.831500  0.493000  0.946000  1.0  0.1136
  H  H239  1  0.716400  0.457200  0.832400  1.0  0.0956
  H  H240  1  0.746900  0.386600  0.795400  1.0  0.0562
  H  H241  1  0.788200  0.721700  0.977400  1.0  0.0726
  H  H242  1  0.823600  0.787400  0.024700  1.0  0.0924
  H  H243  1  0.706300  0.842000  0.094300  1.0  0.1019
  H  H244  1  0.671700  0.773700  0.040000  1.0  0.0549
  H  H245  1  0.877000  0.932100  0.044800  1.0  0.0568
  H  H246  1  0.845300  0.861200  0.012300  1.0  0.0998
  H  H247  1  0.744600  0.892500  0.168700  1.0  0.0941
  H  H248  1  0.779400  0.961500  0.203700  1.0  0.0547
  H  H249  1  0.896400  0.938400  0.280300  1.0  0.0546
  H  H250  1  0.953600  0.929400  0.378400  1.0  0.081
  H  H251  1  0.957300  0.070100  0.409300  1.0  0.1028
  H  H252  1  0.903600  0.075100  0.304200  1.0  0.0672
  H  H253  1  0.086400  0.928500  0.516600  1.0  0.0403
  H  H254  1  0.032100  0.934100  0.414000  1.0  0.109
  H  H255  1  0.988700  0.050600  0.540100  1.0  0.0907
  H  H256  1  0.049600  0.044800  0.630700  1.0  0.079
  H  H257  1  0.881700  0.120200  0.150600  1.0  0.0618
  H  H258  1  0.842400  0.188600  0.176800  1.0  0.0932
  H  H259  1  0.729300  0.111500  0.185600  1.0  0.1065
  H  H260  1  0.772000  0.047200  0.154500  1.0  0.0568
  H  H261  1  0.765600  0.305700  0.287000  1.0  0.0499
  H  H262  1  0.806700  0.244300  0.239500  1.0  0.0953
  H  H263  1  0.693900  0.177400  0.190200  1.0  0.095
  H  H264  1  0.656200  0.243100  0.232100  1.0  0.0515
  H  H265  1  0.087900  0.686000  0.228900  1.0  0.068
  H  H266  1  0.012400  0.700000  0.253600  1.0  0.1002
  H  H267  1  0.031800  0.667300  0.505300  1.0  0.1005
  H  H268  1  0.105500  0.657700  0.476400  1.0  0.0627
  H  H269  1  0.868900  0.668300  0.307400  1.0  0.08
  H  H270  1  0.943900  0.666667  0.277800  1.0  0.1007
  H  H271  1  0.967200  0.710400  0.522900  1.0  0.0986
  H  H272  1  0.892200  0.714100  0.545300  1.0  0.0619
  H  H273  1  0.837800  0.590500  0.424500  1.0  0.0443
  H  H274  1  0.813500  0.519600  0.386700  1.0  0.1027
  H  H275  1  0.688400  0.565600  0.422300  1.0  0.0982
  H  H276  1  0.718300  0.637700  0.450400  1.0  0.0604
  H  H277  1  0.641900  0.419900  0.409300  1.0  0.0698
  H  H278  1  0.668500  0.493000  0.446000  1.0  0.1134
  H  H279  1  0.783600  0.457200  0.332400  1.0  0.0973
  H  H280  1  0.753100  0.386600  0.295400  1.0  0.0558
  H  H281  1  0.711800  0.721700  0.477400  1.0  0.0715
  H  H282  1  0.676400  0.787400  0.524700  1.0  0.0942
  H  H283  1  0.793700  0.842000  0.594300  1.0  0.1011
  H  H284  1  0.828300  0.773700  0.540000  1.0  0.0534
  H  H285  1  0.623000  0.932100  0.544800  1.0  0.0567
  H  H286  1  0.654700  0.861200  0.512300  1.0  0.0994
  H  H287  1  0.755400  0.892500  0.668700  1.0  0.0946
  H  H288  1  0.720600  0.961500  0.703700  1.0  0.0544
  H  H289  1  0.603600  0.938400  0.780300  1.0  0.0517
  H  H290  1  0.546400  0.929400  0.878400  1.0  0.0811
  H  H291  1  0.542700  0.070100  0.909300  1.0  0.1025
  H  H292  1  0.596400  0.075100  0.804200  1.0  0.0668
  H  H293  1  0.413600  0.928500  0.016600  1.0  0.0418
  H  H294  1  0.467900  0.934100  0.914000  1.0  0.1087
  H  H295  1  0.511300  0.050600  0.040100  1.0  0.0906
  H  H296  1  0.450400  0.044800  0.130700  1.0  0.0794
  H  H297  1  0.618300  0.120200  0.650600  1.0  0.0605
  H  H298  1  0.657600  0.188600  0.676800  1.0  0.0923
  H  H299  1  0.770700  0.111500  0.685600  1.0  0.1059
  H  H300  1  0.728000  0.047200  0.654500  1.0  0.0571
  H  H301  1  0.734400  0.305700  0.787000  1.0  0.0483
  H  H302  1  0.693300  0.244300  0.739500  1.0  0.0953
  H  H303  1  0.806100  0.177400  0.690200  1.0  0.0967
  H  H304  1  0.843800  0.243100  0.732100  1.0  0.0526
  H  H305  1  0.912100  0.314000  0.728900  1.0  0.0693
  H  H306  1  0.987600  0.300000  0.753600  1.0  0.1004
  H  H307  1  0.968200  0.332700  0.005300  1.0  0.1008
  H  H308  1  0.894500  0.342300  0.976400  1.0  0.0625
  H  H309  1  0.131100  0.331700  0.807400  1.0  0.0799
  H  H310  1  0.056100  0.333400  0.777800  1.0  0.1032
  H  H311  1  0.032800  0.289600  0.022900  1.0  0.0977
  H  H312  1  0.107800  0.285900  0.045300  1.0  0.0633
  H  H313  1  0.162200  0.409500  0.924500  1.0  0.0422
  H  H314  1  0.186500  0.480400  0.886700  1.0  0.1023
  H  H315  1  0.311600  0.434400  0.922300  1.0  0.099
  H  H316  1  0.281700  0.362300  0.950400  1.0  0.0613
  H  H317  1  0.358100  0.580100  0.909300  1.0  0.0709
  H  H318  1  0.331500  0.507000  0.946000  1.0  0.1135
  H  H319  1  0.216400  0.542800  0.832400  1.0  0.0957
  H  H320  1  0.246900  0.613400  0.795400  1.0  0.0565
  H  H321  1  0.288200  0.278300  0.977400  1.0  0.0731
  H  H322  1  0.323600  0.212600  0.024700  1.0  0.0926
  H  H323  1  0.206300  0.158000  0.094300  1.0  0.1008
  H  H324  1  0.171700  0.226300  0.040000  1.0  0.055
  H  H325  1  0.377000  0.067900  0.044800  1.0  0.0568
  H  H326  1  0.345300  0.138800  0.012300  1.0  0.1001
  H  H327  1  0.244600  0.107500  0.168700  1.0  0.093
  H  H328  1  0.279400  0.038500  0.203700  1.0  0.055
  H  H329  1  0.396400  0.061600  0.280300  1.0  0.0558
  H  H330  1  0.453600  0.070600  0.378400  1.0  0.0812
  H  H331  1  0.457300  0.929900  0.409300  1.0  0.1024
  H  H332  1  0.403600  0.924900  0.304200  1.0  0.0668
  H  H333  1  0.586400  0.071500  0.516600  1.0  0.0401
  H  H334  1  0.532100  0.065900  0.414000  1.0  0.1087
  H  H335  1  0.488700  0.949400  0.540100  1.0  0.0902
  H  H336  1  0.549600  0.955200  0.630700  1.0  0.0768
  H  H337  1  0.381700  0.879800  0.150600  1.0  0.0621
  H  H338  1  0.342400  0.811400  0.176800  1.0  0.0929
  H  H339  1  0.229300  0.888500  0.185600  1.0  0.1067
  H  H340  1  0.272000  0.952800  0.154500  1.0  0.0561
  H  H341  1  0.265600  0.694300  0.287000  1.0  0.0505
  H  H342  1  0.306700  0.755700  0.239500  1.0  0.0949
  H  H343  1  0.193900  0.822600  0.190200  1.0  0.0964
  H  H344  1  0.156200  0.756900  0.232100  1.0  0.0521
  C  C345  1  0.902300  0.177000  0.849500  1.0  0.1446
  C  C346  1  0.947700  0.173000  0.836400  1.0  -0.2219
  C  C347  1  0.975500  0.182500  0.903600  1.0  0.064
  C  C348  1  0.956500  0.196900  0.983800  1.0  -0.2179
  C  C349  1  0.910600  0.200400  0.990100  1.0  0.1531
  C  C350  1  0.091300  0.172600  0.809100  1.0  0.1275
  C  C351  1  0.045800  0.178400  0.816400  1.0  -0.1644
  C  C352  1  0.025400  0.177800  0.897800  1.0  0.0428
  C  C353  1  0.051400  0.170800  0.968400  1.0  -0.2253
  C  C354  1  0.096600  0.166300  0.957700  1.0  0.1451
  C  C355  1  0.183200  0.068800  0.930100  1.0  0.1354
  C  C356  1  0.198000  0.020800  0.943800  1.0  -0.1913
  C  C357  1  0.241200  0.010300  0.913800  1.0  -0.0032
  C  C358  1  0.268100  0.045000  0.882900  1.0  -0.2351
  C  C359  1  0.250900  0.089900  0.874100  1.0  0.1677
  C  C360  1  0.247100  0.877000  0.927900  1.0  0.1509
  C  C361  1  0.230400  0.922000  0.923300  1.0  -0.1623
  C  C362  1  0.258200  0.959500  0.918500  1.0  0.0048
  C  C363  1  0.303100  0.951600  0.921600  1.0  -0.2147
  C  C364  1  0.318200  0.906600  0.926300  1.0  0.142
  C  C365  1  0.262200  0.218900  0.805400  1.0  0.1536
  C  C366  1  0.285800  0.256400  0.771400  1.0  -0.2358
  C  C367  1  0.262900  0.292400  0.731300  1.0  0.0642
  C  C368  1  0.216100  0.288400  0.729500  1.0  -0.212
  C  C369  1  0.196400  0.249300  0.761800  1.0  0.1625
  C  C370  1  0.352100  0.376000  0.652000  1.0  0.1606
  C  C371  1  0.331300  0.335400  0.679400  1.0  -0.2314
  C  C372  1  0.286200  0.335600  0.699100  1.0  0.0649
  C  C373  1  0.264100  0.377800  0.686400  1.0  -0.1976
  C  C374  1  0.286700  0.416300  0.657800  1.0  0.156
  C  C375  1  0.345000  0.566600  0.535700  1.0  0.1563
  C  C376  1  0.324600  0.609400  0.515700  1.0  -0.2158
  C  C377  1  0.283600  0.620200  0.547900  1.0  0.0731
  C  C378  1  0.267100  0.588400  0.604800  1.0  -0.1886
  C  C379  1  0.289200  0.545600  0.623000  1.0  0.1497
  C  C380  1  0.261100  0.745400  0.473500  1.0  0.1111
  C  C381  1  0.283500  0.703300  0.493500  1.0  -0.1937
  C  C382  1  0.260800  0.665500  0.526400  1.0  0.0789
  C  C383  1  0.217000  0.670600  0.536300  1.0  -0.19
  C  C384  1  0.196300  0.712800  0.510100  1.0  0.1583
  C  C385  1  0.432400  0.445100  0.487000  1.0  0.1713
  C  C386  1  0.466300  0.448500  0.426900  1.0  -0.2403
  C  C387  1  0.494600  0.486700  0.429900  1.0  0.0705
  C  C388  1  0.486300  0.518900  0.494000  1.0  -0.2294
  C  C389  1  0.450100  0.514700  0.547000  1.0  0.1328
  C  C390  1  0.586400  0.463300  0.262500  1.0  0.1243
  C  C391  1  0.552100  0.455400  0.322300  1.0  -0.1788
  C  C392  1  0.532200  0.492600  0.365400  1.0  0.0467
  C  C393  1  0.548900  0.537000  0.346300  1.0  -0.2039
  C  C394  1  0.582500  0.542700  0.287400  1.0  0.1535
  C  C395  1  0.097700  0.823000  0.349500  1.0  0.1446
  C  C396  1  0.052300  0.827000  0.336400  1.0  -0.2226
  C  C397  1  0.024500  0.817500  0.403600  1.0  0.0636
  C  C398  1  0.043500  0.803100  0.483800  1.0  -0.2173
  C  C399  1  0.089400  0.799600  0.490100  1.0  0.1511
  C  C400  1  0.908700  0.827400  0.309100  1.0  0.1288
  C  C401  1  0.954200  0.821600  0.316400  1.0  -0.1662
  C  C402  1  0.974600  0.822200  0.397800  1.0  0.0431
  C  C403  1  0.948600  0.829200  0.468400  1.0  -0.2242
  C  C404  1  0.903400  0.833700  0.457700  1.0  0.1455
  C  C405  1  0.816800  0.931200  0.430100  1.0  0.1334
  C  C406  1  0.802000  0.979200  0.443800  1.0  -0.1867
  C  C407  1  0.758800  0.989700  0.413800  1.0  -0.0009
  C  C408  1  0.731900  0.955000  0.382900  1.0  -0.2399
  C  C409  1  0.749100  0.910100  0.374100  1.0  0.168
  C  C410  1  0.752900  0.123000  0.427900  1.0  0.1483
  C  C411  1  0.769600  0.078000  0.423300  1.0  -0.1683
  C  C412  1  0.741800  0.040500  0.418500  1.0  0.0045
  C  C413  1  0.696900  0.048400  0.421600  1.0  -0.2133
  C  C414  1  0.681800  0.093400  0.426300  1.0  0.142
  C  C415  1  0.737800  0.781100  0.305400  1.0  0.1528
  C  C416  1  0.714200  0.743600  0.271400  1.0  -0.2382
  C  C417  1  0.737100  0.707600  0.231300  1.0  0.065
  C  C418  1  0.783900  0.711600  0.229500  1.0  -0.2121
  C  C419  1  0.803600  0.750700  0.261800  1.0  0.1631
  C  C420  1  0.647900  0.624000  0.152000  1.0  0.1611
  C  C421  1  0.668700  0.664600  0.179400  1.0  -0.2318
  C  C422  1  0.713800  0.664400  0.199100  1.0  0.0638
  C  C423  1  0.735900  0.622200  0.186400  1.0  -0.1973
  C  C424  1  0.713300  0.583700  0.157800  1.0  0.1549
  C  C425  1  0.655000  0.433400  0.035700  1.0  0.1565
  C  C426  1  0.675400  0.390600  0.015700  1.0  -0.2173
  C  C427  1  0.716400  0.379800  0.047900  1.0  0.0726
  C  C428  1  0.732900  0.411600  0.104800  1.0  -0.1844
  C  C429  1  0.710800  0.454400  0.123000  1.0  0.1491
  C  C430  1  0.738900  0.254600  0.973500  1.0  0.1106
  C  C431  1  0.716500  0.296700  0.993500  1.0  -0.2037
  C  C432  1  0.739200  0.334500  0.026400  1.0  0.0795
  C  C433  1  0.783000  0.329400  0.036300  1.0  -0.1885
  C  C434  1  0.803700  0.287200  0.010100  1.0  0.1583
  C  C435  1  0.567600  0.554900  0.987000  1.0  0.1711
  C  C436  1  0.533700  0.551500  0.926900  1.0  -0.242
  C  C437  1  0.505400  0.513300  0.929900  1.0  0.0705
  C  C438  1  0.513700  0.481100  0.994000  1.0  -0.2272
  C  C439  1  0.549900  0.485300  0.047000  1.0  0.1328
  C  C440  1  0.413600  0.536700  0.762500  1.0  0.1232
  C  C441  1  0.447900  0.544600  0.822300  1.0  -0.179
  C  C442  1  0.467800  0.507400  0.865400  1.0  0.0458
  C  C443  1  0.451100  0.463000  0.846300  1.0  -0.2051
  C  C444  1  0.417500  0.457300  0.787400  1.0  0.1536
  C  C445  1  0.402300  0.823000  0.849500  1.0  0.1444
  C  C446  1  0.447700  0.827000  0.836400  1.0  -0.2222
  C  C447  1  0.475500  0.817500  0.903600  1.0  0.0637
  C  C448  1  0.456500  0.803100  0.983800  1.0  -0.2177
  C  C449  1  0.410600  0.799600  0.990100  1.0  0.1533
  C  C450  1  0.591300  0.827400  0.809100  1.0  0.1286
  C  C451  1  0.545800  0.821600  0.816400  1.0  -0.1646
  C  C452  1  0.525400  0.822200  0.897800  1.0  0.0427
  C  C453  1  0.551400  0.829200  0.968400  1.0  -0.2254
  C  C454  1  0.596600  0.833700  0.957700  1.0  0.1449
  C  C455  1  0.683200  0.931200  0.930100  1.0  0.1362
  C  C456  1  0.698000  0.979200  0.943800  1.0  -0.1911
  C  C457  1  0.741200  0.989700  0.913800  1.0  -0.0023
  C  C458  1  0.768100  0.955000  0.882900  1.0  -0.2402
  C  C459  1  0.750900  0.910100  0.874100  1.0  0.1671
  C  C460  1  0.747100  0.123000  0.927900  1.0  0.1507
  C  C461  1  0.730400  0.078000  0.923300  1.0  -0.1685
  C  C462  1  0.758200  0.040500  0.918500  1.0  0.005
  C  C463  1  0.803100  0.048400  0.921600  1.0  -0.2147
  C  C464  1  0.818200  0.093400  0.926300  1.0  0.1432
  C  C465  1  0.762200  0.781100  0.805400  1.0  0.1529
  C  C466  1  0.785800  0.743600  0.771400  1.0  -0.2362
  C  C467  1  0.762900  0.707600  0.731300  1.0  0.0646
  C  C468  1  0.716100  0.711600  0.729500  1.0  -0.2119
  C  C469  1  0.696400  0.750700  0.761800  1.0  0.1609
  C  C470  1  0.852100  0.624000  0.652000  1.0  0.1603
  C  C471  1  0.831300  0.664600  0.679400  1.0  -0.2324
  C  C472  1  0.786200  0.664400  0.699100  1.0  0.0646
  C  C473  1  0.764100  0.622200  0.686400  1.0  -0.1971
  C  C474  1  0.786700  0.583700  0.657800  1.0  0.1568
  C  C475  1  0.845000  0.433400  0.535700  1.0  0.1566
  C  C476  1  0.824600  0.390600  0.515700  1.0  -0.2165
  C  C477  1  0.783600  0.379800  0.547900  1.0  0.0728
  C  C478  1  0.767100  0.411600  0.604800  1.0  -0.1895
  C  C479  1  0.789200  0.454400  0.623000  1.0  0.1494
  C  C480  1  0.761100  0.254600  0.473500  1.0  0.1121
  C  C481  1  0.783500  0.296700  0.493500  1.0  -0.1937
  C  C482  1  0.760800  0.334500  0.526400  1.0  0.079
  C  C483  1  0.717000  0.329400  0.536300  1.0  -0.1892
  C  C484  1  0.696300  0.287200  0.510100  1.0  0.1598
  C  C485  1  0.932400  0.554900  0.487000  1.0  0.1711
  C  C486  1  0.966300  0.551500  0.426900  1.0  -0.2404
  C  C487  1  0.994600  0.513300  0.429900  1.0  0.0706
  C  C488  1  0.986300  0.481100  0.494000  1.0  -0.2282
  C  C489  1  0.950100  0.485300  0.547000  1.0  0.1332
  C  C490  1  0.086400  0.536700  0.262500  1.0  0.1234
  C  C491  1  0.052100  0.544600  0.322300  1.0  -0.1799
  C  C492  1  0.032200  0.507400  0.365400  1.0  0.0467
  C  C493  1  0.048900  0.463000  0.346300  1.0  -0.2053
  C  C494  1  0.082500  0.457300  0.287400  1.0  0.1542
  C  C495  1  0.597700  0.177000  0.349500  1.0  0.1445
  C  C496  1  0.552300  0.173000  0.336400  1.0  -0.2226
  C  C497  1  0.524500  0.182500  0.403600  1.0  0.0637
  C  C498  1  0.543500  0.196900  0.483800  1.0  -0.2176
  C  C499  1  0.589400  0.200400  0.490100  1.0  0.1523
  C  C500  1  0.408700  0.172600  0.309100  1.0  0.1275
  C  C501  1  0.454200  0.178400  0.316400  1.0  -0.1655
  C  C502  1  0.474600  0.177800  0.397800  1.0  0.0434
  C  C503  1  0.448600  0.170800  0.468400  1.0  -0.224
  C  C504  1  0.403400  0.166300  0.457700  1.0  0.1462
  C  C505  1  0.316800  0.068800  0.430100  1.0  0.1355
  C  C506  1  0.302000  0.020800  0.443800  1.0  -0.1871
  C  C507  1  0.258800  0.010300  0.413800  1.0  -0.0012
  C  C508  1  0.231900  0.045000  0.382900  1.0  -0.2347
  C  C509  1  0.249100  0.089900  0.374100  1.0  0.1676
  C  C510  1  0.252900  0.877000  0.427900  1.0  0.1498
  C  C511  1  0.269600  0.922000  0.423300  1.0  -0.1628
  C  C512  1  0.241800  0.959500  0.418500  1.0  0.0045
  C  C513  1  0.196900  0.951600  0.421600  1.0  -0.2142
  C  C514  1  0.181800  0.906600  0.426300  1.0  0.1418
  C  C515  1  0.237800  0.218900  0.305400  1.0  0.1539
  C  C516  1  0.214200  0.256400  0.271400  1.0  -0.2381
  C  C517  1  0.237100  0.292400  0.231300  1.0  0.0648
  C  C518  1  0.283900  0.288400  0.229500  1.0  -0.2124
  C  C519  1  0.303600  0.249300  0.261800  1.0  0.1627
  C  C520  1  0.147900  0.376000  0.152000  1.0  0.1606
  C  C521  1  0.168700  0.335400  0.179400  1.0  -0.2318
  C  C522  1  0.213800  0.335600  0.199100  1.0  0.0641
  C  C523  1  0.235900  0.377800  0.186400  1.0  -0.1979
  C  C524  1  0.213300  0.416300  0.157800  1.0  0.1544
  C  C525  1  0.155000  0.566600  0.035700  1.0  0.1553
  C  C526  1  0.175400  0.609400  0.015700  1.0  -0.2162
  C  C527  1  0.216400  0.620200  0.047900  1.0  0.0731
  C  C528  1  0.232900  0.588400  0.104800  1.0  -0.1836
  C  C529  1  0.210800  0.545600  0.123000  1.0  0.1493
  C  C530  1  0.238900  0.745400  0.973500  1.0  0.1093
  C  C531  1  0.216500  0.703300  0.993500  1.0  -0.2048
  C  C532  1  0.239200  0.665500  0.026400  1.0  0.0795
  C  C533  1  0.283000  0.670600  0.036300  1.0  -0.1887
  C  C534  1  0.303700  0.712800  0.010100  1.0  0.1603
  C  C535  1  0.067600  0.445100  0.987000  1.0  0.1715
  C  C536  1  0.033700  0.448500  0.926900  1.0  -0.244
  C  C537  1  0.005400  0.486700  0.929900  1.0  0.0708
  C  C538  1  0.013700  0.518900  0.994000  1.0  -0.2283
  C  C539  1  0.049900  0.514700  0.047000  1.0  0.1315
  C  C540  1  0.913600  0.463300  0.762500  1.0  0.1231
  C  C541  1  0.947900  0.455400  0.822300  1.0  -0.1785
  C  C542  1  0.967800  0.492600  0.865400  1.0  0.0458
  C  C543  1  0.951100  0.537000  0.846300  1.0  -0.2039
  C  C544  1  0.917500  0.542700  0.787400  1.0  0.1534
  C  C545  1  0.576800  0.316000  0.285800  1.0  0.1516
  C  C546  1  0.530700  0.309300  0.299700  1.0  -0.1842
  C  C547  1  0.512600  0.316600  0.382500  1.0  0.0415
  C  C548  1  0.542200  0.328200  0.448600  1.0  -0.2134
  C  C549  1  0.586800  0.333000  0.430900  1.0  0.1421
  C  C550  1  0.388800  0.323300  0.351400  1.0  0.1416
  C  C551  1  0.434100  0.324600  0.333200  1.0  -0.2063
  C  C552  1  0.464600  0.313000  0.397100  1.0  0.0744
  C  C553  1  0.447700  0.298300  0.478200  1.0  -0.225
  C  C554  1  0.402600  0.296800  0.491500  1.0  0.1461
  C  C555  1  0.307100  0.413800  0.418700  1.0  0.1666
  C  C556  1  0.293200  0.456700  0.400300  1.0  -0.2054
  C  C557  1  0.246300  0.466000  0.401700  1.0  0.0539
  C  C558  1  0.219200  0.430100  0.419900  1.0  -0.2217
  C  C559  1  0.237800  0.386500  0.435100  1.0  0.1485
  C  C560  1  0.170900  0.572000  0.392800  1.0  0.148
  C  C561  1  0.186000  0.527700  0.413600  1.0  -0.2108
  C  C562  1  0.228900  0.514500  0.384500  1.0  0.0515
  C  C563  1  0.253800  0.548700  0.346000  1.0  -0.226
  C  C564  1  0.235600  0.592000  0.326600  1.0  0.1568
  C  C565  1  0.228800  0.253900  0.501100  1.0  0.1349
  C  C566  1  0.207500  0.214300  0.528000  1.0  -0.1965
  C  C567  1  0.231300  0.176200  0.560300  1.0  0.0137
  C  C568  1  0.276500  0.181700  0.568800  1.0  -0.1765
  C  C569  1  0.297200  0.224000  0.538000  1.0  0.1578
  C  C570  1  0.149900  0.076000  0.571400  1.0  0.1424
  C  C571  1  0.169100  0.118200  0.550400  1.0  -0.2177
  C  C572  1  0.209700  0.130300  0.585500  1.0  0.0474
  C  C573  1  0.228100  0.100200  0.642800  1.0  -0.1888
  C  C574  1  0.207000  0.058600  0.663600  1.0  0.1589
  C  C575  1  0.090500  0.035000  0.804700  1.0  0.1183
  C  C576  1  0.056400  0.040400  0.864900  1.0  -0.1749
  C  C577  1  0.036500  0.001300  0.906300  1.0  0.0424
  C  C578  1  0.053500  0.957200  0.882800  1.0  -0.2044
  C  C579  1  0.086200  0.954600  0.820500  1.0  0.1399
  C  C580  1  0.932300  0.045200  0.018600  1.0  0.1594
  C  C581  1  0.965800  0.043500  0.958400  1.0  -0.2193
  C  C582  1  0.998100  0.005500  0.965900  1.0  0.0299
  C  C583  1  0.991000  0.974000  0.031900  1.0  -0.1825
  C  C584  1  0.954300  0.977700  0.087100  1.0  0.1097
  C  C585  1  0.149100  0.881500  0.658500  1.0  0.1367
  C  C586  1  0.172900  0.839900  0.674000  1.0  -0.1893
  C  C587  1  0.219500  0.840600  0.685500  1.0  0.039
  C  C588  1  0.240000  0.885300  0.678700  1.0  -0.2275
  C  C589  1  0.213700  0.923900  0.661700  1.0  0.1487
  C  C590  1  0.249400  0.720700  0.766000  1.0  0.1502
  C  C591  1  0.224400  0.757900  0.738900  1.0  -0.228
  C  C592  1  0.243700  0.797500  0.711500  1.0  0.0268
  C  C593  1  0.290200  0.796400  0.709400  1.0  -0.2316
  C  C594  1  0.312700  0.756700  0.735600  1.0  0.1771
  C  C595  1  0.423200  0.684000  0.785800  1.0  0.147
  C  C596  1  0.469300  0.690700  0.799700  1.0  -0.1838
  C  C597  1  0.487400  0.683400  0.882500  1.0  0.0412
  C  C598  1  0.457800  0.671800  0.948600  1.0  -0.2122
  C  C599  1  0.413200  0.667000  0.930900  1.0  0.1421
  C  C600  1  0.611200  0.676700  0.851400  1.0  0.1443
  C  C601  1  0.565900  0.675400  0.833200  1.0  -0.2039
  C  C602  1  0.535400  0.687000  0.897100  1.0  0.0746
  C  C603  1  0.552300  0.701700  0.978200  1.0  -0.2258
  C  C604  1  0.597400  0.703200  0.991500  1.0  0.1489
  C  C605  1  0.692900  0.586200  0.918700  1.0  0.1666
  C  C606  1  0.706800  0.543300  0.900300  1.0  -0.2056
  C  C607  1  0.753700  0.534000  0.901700  1.0  0.0537
  C  C608  1  0.780800  0.569900  0.919900  1.0  -0.2222
  C  C609  1  0.762200  0.613500  0.935100  1.0  0.1525
  C  C610  1  0.829100  0.428000  0.892800  1.0  0.1445
  C  C611  1  0.814000  0.472300  0.913600  1.0  -0.21
  C  C612  1  0.771100  0.485500  0.884500  1.0  0.0524
  C  C613  1  0.746200  0.451300  0.846000  1.0  -0.2256
  C  C614  1  0.764400  0.408000  0.826600  1.0  0.1548
  C  C615  1  0.771200  0.746100  0.001100  1.0  0.1334
  C  C616  1  0.792500  0.785700  0.028000  1.0  -0.1958
  C  C617  1  0.768700  0.823800  0.060300  1.0  0.0138
  C  C618  1  0.723500  0.818300  0.068800  1.0  -0.175
  C  C619  1  0.702800  0.776000  0.038000  1.0  0.1587
  C  C620  1  0.850100  0.924000  0.071400  1.0  0.1432
  C  C621  1  0.830900  0.881800  0.050400  1.0  -0.2167
  C  C622  1  0.790300  0.869700  0.085500  1.0  0.0478
  C  C623  1  0.771900  0.899800  0.142800  1.0  -0.1876
  C  C624  1  0.793000  0.941400  0.163600  1.0  0.1586
  C  C625  1  0.909500  0.965000  0.304700  1.0  0.1165
  C  C626  1  0.943600  0.959600  0.364900  1.0  -0.1734
  C  C627  1  0.963500  0.998700  0.406300  1.0  0.0418
  C  C628  1  0.946500  0.042800  0.382800  1.0  -0.2043
  C  C629  1  0.913800  0.045400  0.320500  1.0  0.1361
  C  C630  1  0.067700  0.954800  0.518600  1.0  0.1591
  C  C631  1  0.034200  0.956500  0.458400  1.0  -0.2178
  C  C632  1  0.001900  0.994500  0.465900  1.0  0.0298
  C  C633  1  0.009000  0.026000  0.531900  1.0  -0.1838
  C  C634  1  0.045700  0.022300  0.587100  1.0  0.1097
  C  C635  1  0.850900  0.118500  0.158500  1.0  0.137
  C  C636  1  0.827100  0.160100  0.174000  1.0  -0.1889
  C  C637  1  0.780500  0.159400  0.185500  1.0  0.0395
  C  C638  1  0.760000  0.114700  0.178700  1.0  -0.2193
  C  C639  1  0.786300  0.076100  0.161700  1.0  0.1533
  C  C640  1  0.750600  0.279300  0.266000  1.0  0.151
  C  C641  1  0.775600  0.242100  0.238900  1.0  -0.2295
  C  C642  1  0.756300  0.202500  0.211500  1.0  0.0269
  C  C643  1  0.709800  0.203600  0.209400  1.0  -0.2342
  C  C644  1  0.687300  0.243300  0.235600  1.0  0.1738
  C  C645  1  0.076800  0.684000  0.285800  1.0  0.1508
  C  C646  1  0.030700  0.690700  0.299700  1.0  -0.1842
  C  C647  1  0.012600  0.683400  0.382500  1.0  0.0416
  C  C648  1  0.042200  0.671800  0.448600  1.0  -0.2167
  C  C649  1  0.086800  0.667000  0.430900  1.0  0.1426
  C  C650  1  0.888800  0.676700  0.351400  1.0  0.1421
  C  C651  1  0.934100  0.675400  0.333200  1.0  -0.2042
  C  C652  1  0.964600  0.687000  0.397100  1.0  0.0745
  C  C653  1  0.947700  0.701700  0.478200  1.0  -0.2251
  C  C654  1  0.902600  0.703200  0.491500  1.0  0.1457
  C  C655  1  0.807100  0.586200  0.418700  1.0  0.167
  C  C656  1  0.793200  0.543300  0.400300  1.0  -0.2048
  C  C657  1  0.746300  0.534000  0.401700  1.0  0.0542
  C  C658  1  0.719200  0.569900  0.419900  1.0  -0.222
  C  C659  1  0.737800  0.613500  0.435100  1.0  0.1504
  C  C660  1  0.670900  0.428000  0.392800  1.0  0.1495
  C  C661  1  0.686000  0.472300  0.413600  1.0  -0.2111
  C  C662  1  0.728900  0.485500  0.384500  1.0  0.0524
  C  C663  1  0.753800  0.451300  0.346000  1.0  -0.2263
  C  C664  1  0.735600  0.408000  0.326600  1.0  0.1562
  C  C665  1  0.728800  0.746100  0.501100  1.0  0.1335
  C  C666  1  0.707500  0.785700  0.528000  1.0  -0.1965
  C  C667  1  0.731300  0.823800  0.560300  1.0  0.0138
  C  C668  1  0.776500  0.818300  0.568800  1.0  -0.1762
  C  C669  1  0.797200  0.776000  0.538000  1.0  0.156
  C  C670  1  0.649900  0.924000  0.571400  1.0  0.1411
  C  C671  1  0.669100  0.881800  0.550400  1.0  -0.2175
  C  C672  1  0.709700  0.869700  0.585500  1.0  0.0473
  C  C673  1  0.728100  0.899800  0.642800  1.0  -0.1883
  C  C674  1  0.707000  0.941400  0.663600  1.0  0.1584
  C  C675  1  0.590500  0.965000  0.804700  1.0  0.1178
  C  C676  1  0.556400  0.959600  0.864900  1.0  -0.1746
  C  C677  1  0.536500  0.998700  0.906300  1.0  0.0424
  C  C678  1  0.553500  0.042800  0.882800  1.0  -0.2033
  C  C679  1  0.586200  0.045400  0.820500  1.0  0.1412
  C  C680  1  0.432300  0.954800  0.018600  1.0  0.1592
  C  C681  1  0.465800  0.956500  0.958400  1.0  -0.2205
  C  C682  1  0.498100  0.994500  0.965900  1.0  0.0299
  C  C683  1  0.491000  0.026000  0.031900  1.0  -0.183
  C  C684  1  0.454300  0.022300  0.087100  1.0  0.1101
  C  C685  1  0.649100  0.118500  0.658500  1.0  0.1375
  C  C686  1  0.672900  0.160100  0.674000  1.0  -0.1893
  C  C687  1  0.719500  0.159400  0.685500  1.0  0.0389
  C  C688  1  0.740000  0.114700  0.678700  1.0  -0.2225
  C  C689  1  0.713700  0.076100  0.661700  1.0  0.1503
  C  C690  1  0.749400  0.279300  0.766000  1.0  0.1499
  C  C691  1  0.724400  0.242100  0.738900  1.0  -0.2289
  C  C692  1  0.743700  0.202500  0.711500  1.0  0.0268
  C  C693  1  0.790200  0.203600  0.709400  1.0  -0.2315
  C  C694  1  0.812700  0.243300  0.735600  1.0  0.1765
  C  C695  1  0.923200  0.316000  0.785800  1.0  0.1482
  C  C696  1  0.969300  0.309300  0.799700  1.0  -0.184
  C  C697  1  0.987400  0.316600  0.882500  1.0  0.0412
  C  C698  1  0.957800  0.328200  0.948600  1.0  -0.2132
  C  C699  1  0.913200  0.333000  0.930900  1.0  0.1414
  C  C700  1  0.111200  0.323300  0.851400  1.0  0.1419
  C  C701  1  0.065900  0.324600  0.833200  1.0  -0.2058
  C  C702  1  0.035400  0.313000  0.897100  1.0  0.0746
  C  C703  1  0.052300  0.298300  0.978200  1.0  -0.2259
  C  C704  1  0.097400  0.296800  0.991500  1.0  0.1498
  C  C705  1  0.192900  0.413800  0.918700  1.0  0.1662
  C  C706  1  0.206800  0.456700  0.900300  1.0  -0.2067
  C  C707  1  0.253700  0.466000  0.901700  1.0  0.0534
  C  C708  1  0.280800  0.430100  0.919900  1.0  -0.222
  C  C709  1  0.262200  0.386500  0.935100  1.0  0.1515
  C  C710  1  0.329100  0.572000  0.892800  1.0  0.1475
  C  C711  1  0.314000  0.527700  0.913600  1.0  -0.2103
  C  C712  1  0.271100  0.514500  0.884500  1.0  0.0491
  C  C713  1  0.246200  0.548700  0.846000  1.0  -0.2255
  C  C714  1  0.264400  0.592000  0.826600  1.0  0.1556
  C  C715  1  0.271200  0.253900  0.001100  1.0  0.133
  C  C716  1  0.292500  0.214300  0.028000  1.0  -0.1959
  C  C717  1  0.268700  0.176200  0.060300  1.0  0.0138
  C  C718  1  0.223500  0.181700  0.068800  1.0  -0.1749
  C  C719  1  0.202800  0.224000  0.038000  1.0  0.1587
  C  C720  1  0.350100  0.076000  0.071400  1.0  0.1425
  C  C721  1  0.330900  0.118200  0.050400  1.0  -0.2173
  C  C722  1  0.290300  0.130300  0.085500  1.0  0.0479
  C  C723  1  0.271900  0.100200  0.142800  1.0  -0.1882
  C  C724  1  0.293000  0.058600  0.163600  1.0  0.1592
  C  C725  1  0.409500  0.035000  0.304700  1.0  0.1174
  C  C726  1  0.443600  0.040400  0.364900  1.0  -0.1737
  C  C727  1  0.463500  0.001300  0.406300  1.0  0.0417
  C  C728  1  0.446500  0.957200  0.382800  1.0  -0.205
  C  C729  1  0.413800  0.954600  0.320500  1.0  0.1347
  C  C730  1  0.567700  0.045200  0.518600  1.0  0.1574
  C  C731  1  0.534200  0.043500  0.458400  1.0  -0.2176
  C  C732  1  0.501900  0.005500  0.465900  1.0  0.0295
  C  C733  1  0.509000  0.974000  0.531900  1.0  -0.1816
  C  C734  1  0.545700  0.977700  0.587100  1.0  0.1105
  C  C735  1  0.350900  0.881500  0.158500  1.0  0.137
  C  C736  1  0.327100  0.839900  0.174000  1.0  -0.1886
  C  C737  1  0.280500  0.840600  0.185500  1.0  0.0396
  C  C738  1  0.260000  0.885300  0.178700  1.0  -0.2246
  C  C739  1  0.286300  0.923900  0.161700  1.0  0.1522
  C  C740  1  0.250600  0.720700  0.266000  1.0  0.1509
  C  C741  1  0.275600  0.757900  0.238900  1.0  -0.2283
  C  C742  1  0.256300  0.797500  0.211500  1.0  0.0268
  C  C743  1  0.209800  0.796400  0.209400  1.0  -0.2323
  C  C744  1  0.187300  0.756700  0.235600  1.0  0.1753
  N  N745  1  0.883300  0.191300  0.924800  1.0  -0.3431
  N  N746  1  0.117600  0.167200  0.879200  1.0  -0.345
  N  N747  1  0.210000  0.102300  0.896600  1.0  -0.345
  N  N748  1  0.290400  0.868200  0.927400  1.0  -0.3528
  N  N749  1  0.218500  0.214000  0.800400  1.0  -0.3492
  N  N750  1  0.331300  0.416600  0.642700  1.0  -0.3454
  N  N751  1  0.328500  0.535100  0.591400  1.0  -0.3523
  N  N752  1  0.218000  0.749500  0.481900  1.0  -0.3154
  N  N753  1  0.422200  0.476900  0.545300  1.0  -0.3525
  N  N754  1  0.601100  0.507600  0.242700  1.0  -0.3641
  N  N755  1  0.116700  0.808700  0.424800  1.0  -0.3425
  N  N756  1  0.882400  0.832800  0.379200  1.0  -0.3442
  N  N757  1  0.790000  0.897700  0.396600  1.0  -0.3446
  N  N758  1  0.709600  0.131800  0.427400  1.0  -0.3525
  N  N759  1  0.781500  0.786000  0.300400  1.0  -0.3488
  N  N760  1  0.668700  0.583400  0.142700  1.0  -0.3462
  N  N761  1  0.671500  0.464900  0.091400  1.0  -0.3537
  N  N762  1  0.782000  0.250500  0.981900  1.0  -0.3144
  N  N763  1  0.577800  0.523100  0.045300  1.0  -0.3538
  N  N764  1  0.398900  0.492400  0.742700  1.0  -0.3622
  N  N765  1  0.383300  0.808700  0.924800  1.0  -0.3434
  N  N766  1  0.617600  0.832800  0.879200  1.0  -0.3448
  N  N767  1  0.710000  0.897700  0.896600  1.0  -0.3477
  N  N768  1  0.790400  0.131800  0.927400  1.0  -0.3529
  N  N769  1  0.718500  0.786000  0.800400  1.0  -0.3505
  N  N770  1  0.831300  0.583400  0.642700  1.0  -0.3448
  N  N771  1  0.828500  0.464900  0.591400  1.0  -0.3541
  N  N772  1  0.718000  0.250500  0.481900  1.0  -0.3162
  N  N773  1  0.922200  0.523100  0.545300  1.0  -0.3527
  N  N774  1  0.101100  0.492400  0.242700  1.0  -0.364
  N  N775  1  0.616700  0.191300  0.424800  1.0  -0.3429
  N  N776  1  0.382400  0.167200  0.379200  1.0  -0.3449
  N  N777  1  0.290000  0.102300  0.396600  1.0  -0.3453
  N  N778  1  0.209600  0.868200  0.427400  1.0  -0.3528
  N  N779  1  0.281500  0.214000  0.300400  1.0  -0.3471
  N  N780  1  0.168700  0.416600  0.142700  1.0  -0.3459
  N  N781  1  0.171500  0.535100  0.091400  1.0  -0.3532
  N  N782  1  0.282000  0.749500  0.981900  1.0  -0.3146
  N  N783  1  0.077800  0.476900  0.045300  1.0  -0.3537
  N  N784  1  0.898900  0.507600  0.742700  1.0  -0.3621
  N  N785  1  0.605600  0.325200  0.351500  1.0  -0.3642
  N  N786  1  0.372000  0.310100  0.430900  1.0  -0.3606
  N  N787  1  0.281200  0.375700  0.429900  1.0  -0.3258
  N  N788  1  0.195900  0.604700  0.349200  1.0  -0.3541
  N  N789  1  0.274100  0.259900  0.506900  1.0  -0.3549
  N  N790  1  0.168100  0.045700  0.628800  1.0  -0.352
  N  N791  1  0.104900  0.992700  0.780900  1.0  -0.3493
  N  N792  1  0.923300  0.013500  0.079800  1.0  -0.3844
  N  N793  1  0.168900  0.923100  0.654600  1.0  -0.3612
  N  N794  1  0.293700  0.719300  0.764600  1.0  -0.3373
  N  N795  1  0.394400  0.674800  0.851500  1.0  -0.3661
  N  N796  1  0.628000  0.689900  0.930900  1.0  -0.3598
  N  N797  1  0.718800  0.624300  0.929900  1.0  -0.3279
  N  N798  1  0.804100  0.395300  0.849200  1.0  -0.3531
  N  N799  1  0.725900  0.740100  0.006900  1.0  -0.3544
  N  N800  1  0.831900  0.954300  0.128800  1.0  -0.3512
  N  N801  1  0.895100  0.007300  0.280900  1.0  -0.3483
  N  N802  1  0.076700  0.986500  0.579800  1.0  -0.3853
  N  N803  1  0.831100  0.076900  0.154600  1.0  -0.3591
  N  N804  1  0.706300  0.280700  0.264600  1.0  -0.3395
  N  N805  1  0.105600  0.674800  0.351500  1.0  -0.3638
  N  N806  1  0.872000  0.689900  0.430900  1.0  -0.3606
  N  N807  1  0.781200  0.624300  0.429900  1.0  -0.3282
  N  N808  1  0.695900  0.395300  0.349200  1.0  -0.3534
  N  N809  1  0.774100  0.740100  0.506900  1.0  -0.3546
  N  N810  1  0.668100  0.954300  0.628800  1.0  -0.3514
  N  N811  1  0.604900  0.007300  0.780900  1.0  -0.3493
  N  N812  1  0.423300  0.986500  0.079800  1.0  -0.3843
  N  N813  1  0.668900  0.076900  0.654600  1.0  -0.3606
  N  N814  1  0.793700  0.280700  0.764600  1.0  -0.3387
  N  N815  1  0.894400  0.325200  0.851500  1.0  -0.3643
  N  N816  1  0.128000  0.310100  0.930900  1.0  -0.3599
  N  N817  1  0.218800  0.375700  0.929900  1.0  -0.3258
  N  N818  1  0.304100  0.604700  0.849200  1.0  -0.3543
  N  N819  1  0.225900  0.259900  0.006900  1.0  -0.3563
  N  N820  1  0.331900  0.045700  0.128800  1.0  -0.3505
  N  N821  1  0.395100  0.992700  0.280900  1.0  -0.3487
  N  N822  1  0.576700  0.013500  0.579800  1.0  -0.3852
  N  N823  1  0.331100  0.923100  0.154600  1.0  -0.3608
  N  N824  1  0.206300  0.719300  0.264600  1.0  -0.3388
