# generated using pymatgen
data_CuH6(C4N3)2
_symmetry_space_group_name_H-M   'P 1'
_cell_length_a   29.69570000
_cell_length_b   29.69570000
_cell_length_c   29.69570000
_cell_angle_alpha   109.47100000
_cell_angle_beta   109.47100000
_cell_angle_gamma   109.47100000
_symmetry_Int_Tables_number   1
_chemical_formula_structural   CuH6(C4N3)2
_chemical_formula_sum   'Cu48 H288 C384 N288'
_cell_volume   20158.69240712
_cell_formula_units_Z   48
loop_
 _symmetry_equiv_pos_site_id
 _symmetry_equiv_pos_as_xyz
  1  'x, y, z'
loop_
 _atom_site_type_symbol
 _atom_site_label
 _atom_site_symmetry_multiplicity
 _atom_site_fract_x
 _atom_site_fract_y
 _atom_site_fract_z
 _atom_site_occupancy
 _atom_site_charge
  Cu  Cu1  1  0.278540  0.923070  0.352490  1.0  0.7908
  Cu  Cu2  1  0.070580  0.926050  0.147510  1.0  0.7833
  Cu  Cu3  1  0.429420  0.576930  0.855470  1.0  0.7841
  Cu  Cu4  1  0.221460  0.573950  0.644530  1.0  0.7899
  Cu  Cu5  1  0.355470  0.429420  0.076930  1.0  0.7848
  Cu  Cu6  1  0.144530  0.221460  0.073950  1.0  0.7908
  Cu  Cu7  1  0.852490  0.278540  0.423070  1.0  0.789
  Cu  Cu8  1  0.647510  0.070580  0.426050  1.0  0.7864
  Cu  Cu9  1  0.926050  0.647510  0.570580  1.0  0.7907
  Cu  Cu10  1  0.923070  0.852490  0.778540  1.0  0.7822
  Cu  Cu11  1  0.573950  0.144530  0.721460  1.0  0.7833
  Cu  Cu12  1  0.576930  0.355470  0.929420  1.0  0.7919
  Cu  Cu13  1  0.576930  0.221460  0.147510  1.0  0.7887
  Cu  Cu14  1  0.573950  0.429420  0.352490  1.0  0.7841
  Cu  Cu15  1  0.923070  0.070580  0.644530  1.0  0.7859
  Cu  Cu16  1  0.926050  0.278540  0.855470  1.0  0.7907
  Cu  Cu17  1  0.070580  0.144530  0.423070  1.0  0.7832
  Cu  Cu18  1  0.278540  0.355470  0.426050  1.0  0.7898
  Cu  Cu19  1  0.221460  0.647510  0.076930  1.0  0.7925
  Cu  Cu20  1  0.429420  0.852490  0.073950  1.0  0.7827
  Cu  Cu21  1  0.852490  0.573950  0.929420  1.0  0.7909
  Cu  Cu22  1  0.647510  0.576930  0.721460  1.0  0.7836
  Cu  Cu23  1  0.355470  0.926050  0.778540  1.0  0.7838
  Cu  Cu24  1  0.144530  0.923070  0.570580  1.0  0.7889
  Cu  Cu25  1  0.721460  0.076930  0.647510  1.0  0.7893
  Cu  Cu26  1  0.929420  0.073950  0.852490  1.0  0.7841
  Cu  Cu27  1  0.570580  0.423070  0.144530  1.0  0.7831
  Cu  Cu28  1  0.778540  0.426050  0.355470  1.0  0.7912
  Cu  Cu29  1  0.644530  0.570580  0.923070  1.0  0.7861
  Cu  Cu30  1  0.855470  0.778540  0.926050  1.0  0.7887
  Cu  Cu31  1  0.147510  0.721460  0.576930  1.0  0.7908
  Cu  Cu32  1  0.352490  0.929420  0.573950  1.0  0.7844
  Cu  Cu33  1  0.073950  0.352490  0.429420  1.0  0.7916
  Cu  Cu34  1  0.076930  0.147510  0.221460  1.0  0.7835
  Cu  Cu35  1  0.426050  0.855470  0.278540  1.0  0.7825
  Cu  Cu36  1  0.423070  0.644530  0.070580  1.0  0.7903
  Cu  Cu37  1  0.423070  0.778540  0.852490  1.0  0.7907
  Cu  Cu38  1  0.426050  0.570580  0.647510  1.0  0.7863
  Cu  Cu39  1  0.076930  0.929420  0.355470  1.0  0.7845
  Cu  Cu40  1  0.073950  0.721460  0.144530  1.0  0.789
  Cu  Cu41  1  0.929420  0.855470  0.576930  1.0  0.7829
  Cu  Cu42  1  0.721460  0.644530  0.573950  1.0  0.7929
  Cu  Cu43  1  0.778540  0.352490  0.923070  1.0  0.7904
  Cu  Cu44  1  0.570580  0.147510  0.926050  1.0  0.7831
  Cu  Cu45  1  0.147510  0.426050  0.070580  1.0  0.7895
  Cu  Cu46  1  0.352490  0.423070  0.278540  1.0  0.7836
  Cu  Cu47  1  0.644530  0.073950  0.221460  1.0  0.7839
  Cu  Cu48  1  0.855470  0.076930  0.429420  1.0  0.7911
  H  H49  1  0.313500  0.854900  0.273200  1.0  0.0623
  H  H50  1  0.459800  0.984600  0.366800  1.0  0.0878
  H  H51  1  0.147300  0.876700  0.320800  1.0  0.0476
  H  H52  1  0.201700  0.023100  0.439200  1.0  0.084
  H  H53  1  0.445100  0.051100  0.429600  1.0  0.0998
  H  H54  1  0.303500  0.064100  0.481400  1.0  0.2507
  H  H55  1  0.081700  0.040300  0.226800  1.0  0.0625
  H  H56  1  0.117800  0.093000  0.133200  1.0  0.0893
  H  H57  1  0.055900  0.826500  0.179200  1.0  0.0469
  H  H58  1  0.083900  0.762500  0.060800  1.0  0.084
  H  H59  1  0.121500  0.015500  0.070400  1.0  0.1002
  H  H60  1  0.082700  0.822100  0.018600  1.0  0.2455
  H  H61  1  0.418300  0.645100  0.958600  1.0  0.0617
  H  H62  1  0.382200  0.515400  0.975200  1.0  0.0893
  H  H63  1  0.444100  0.623300  0.770600  1.0  0.0475
  H  H64  1  0.416100  0.476900  0.678600  1.0  0.0837
  H  H65  1  0.378500  0.448900  0.894000  1.0  0.0956
  H  H66  1  0.417300  0.435900  0.739400  1.0  0.2478
  H  H67  1  0.186500  0.459700  0.541400  1.0  0.0633
  H  H68  1  0.040200  0.407000  0.524800  1.0  0.0893
  H  H69  1  0.352700  0.673500  0.729400  1.0  0.0462
  H  H70  1  0.298300  0.737500  0.821400  1.0  0.0841
  H  H71  1  0.054900  0.484500  0.606000  1.0  0.1026
  H  H72  1  0.196500  0.677900  0.760600  1.0  0.247
  H  H73  1  0.458600  0.418300  0.145100  1.0  0.0614
  H  H74  1  0.475200  0.382200  0.015400  1.0  0.0898
  H  H75  1  0.270600  0.444100  0.123300  1.0  0.0455
  H  H76  1  0.178600  0.416100  0.976900  1.0  0.0837
  H  H77  1  0.394000  0.378500  0.948900  1.0  0.0992
  H  H78  1  0.239400  0.417300  0.935900  1.0  0.2459
  H  H79  1  0.041400  0.186500  0.959700  1.0  0.0614
  H  H80  1  0.024800  0.040200  0.907000  1.0  0.091
  H  H81  1  0.229400  0.352700  0.173500  1.0  0.0461
  H  H82  1  0.321400  0.298300  0.237500  1.0  0.0839
  H  H83  1  0.106000  0.054900  0.984500  1.0  0.1019
  H  H84  1  0.260600  0.196500  0.177900  1.0  0.2462
  H  H85  1  0.773200  0.313500  0.354900  1.0  0.0609
  H  H86  1  0.866800  0.459800  0.484600  1.0  0.0891
  H  H87  1  0.820800  0.147300  0.376700  1.0  0.0466
  H  H88  1  0.939200  0.201700  0.523100  1.0  0.0843
  H  H89  1  0.929600  0.445100  0.551100  1.0  0.1008
  H  H90  1  0.981400  0.303500  0.564100  1.0  0.2467
  H  H91  1  0.726800  0.081700  0.540300  1.0  0.0618
  H  H92  1  0.633200  0.117800  0.593000  1.0  0.089
  H  H93  1  0.679200  0.055900  0.326500  1.0  0.047
  H  H94  1  0.560800  0.083900  0.262500  1.0  0.0832
  H  H95  1  0.570400  0.121500  0.515500  1.0  0.0979
  H  H96  1  0.518600  0.082700  0.322100  1.0  0.2449
  H  H97  1  0.040300  0.726800  0.581700  1.0  0.0618
  H  H98  1  0.093000  0.633200  0.617800  1.0  0.089
  H  H99  1  0.826500  0.679200  0.555900  1.0  0.0459
  H  H100  1  0.762500  0.560800  0.583900  1.0  0.0844
  H  H101  1  0.015500  0.570400  0.621500  1.0  0.1004
  H  H102  1  0.822100  0.518600  0.582700  1.0  0.246
  H  H103  1  0.854900  0.773200  0.813500  1.0  0.06
  H  H104  1  0.984600  0.866800  0.959800  1.0  0.089
  H  H105  1  0.876700  0.820800  0.647300  1.0  0.0462
  H  H106  1  0.023100  0.939200  0.701700  1.0  0.0821
  H  H107  1  0.051100  0.929600  0.945100  1.0  0.1006
  H  H108  1  0.064100  0.981400  0.803500  1.0  0.2463
  H  H109  1  0.459700  0.041400  0.686500  1.0  0.0625
  H  H110  1  0.407000  0.024800  0.540200  1.0  0.09
  H  H111  1  0.673500  0.229400  0.852700  1.0  0.047
  H  H112  1  0.737500  0.321400  0.798300  1.0  0.0831
  H  H113  1  0.484500  0.106000  0.554900  1.0  0.1026
  H  H114  1  0.677900  0.260600  0.696500  1.0  0.2463
  H  H115  1  0.645100  0.458600  0.918300  1.0  0.0625
  H  H116  1  0.515400  0.475200  0.882200  1.0  0.0894
  H  H117  1  0.623300  0.270600  0.944100  1.0  0.048
  H  H118  1  0.476900  0.178600  0.916100  1.0  0.0818
  H  H119  1  0.448900  0.394000  0.878500  1.0  0.0989
  H  H120  1  0.435900  0.239400  0.917300  1.0  0.2475
  H  H121  1  0.645100  0.186500  0.226800  1.0  0.0618
  H  H122  1  0.515400  0.040200  0.133200  1.0  0.0909
  H  H123  1  0.623300  0.352700  0.179200  1.0  0.0466
  H  H124  1  0.476900  0.298300  0.060800  1.0  0.0838
  H  H125  1  0.448900  0.054900  0.070400  1.0  0.102
  H  H126  1  0.435900  0.196500  0.018600  1.0  0.2457
  H  H127  1  0.459700  0.418300  0.273200  1.0  0.0614
  H  H128  1  0.407000  0.382200  0.366800  1.0  0.0901
  H  H129  1  0.673500  0.444100  0.320800  1.0  0.0467
  H  H130  1  0.737500  0.416100  0.439200  1.0  0.0844
  H  H131  1  0.484500  0.378500  0.429600  1.0  0.0999
  H  H132  1  0.677900  0.417300  0.481400  1.0  0.2457
  H  H133  1  0.854900  0.081700  0.541400  1.0  0.0609
  H  H134  1  0.984600  0.117800  0.524800  1.0  0.0889
  H  H135  1  0.876700  0.055900  0.729400  1.0  0.0461
  H  H136  1  0.023100  0.083900  0.821400  1.0  0.083
  H  H137  1  0.051100  0.121500  0.606000  1.0  0.0965
  H  H138  1  0.064100  0.082700  0.760600  1.0  0.245
  H  H139  1  0.040300  0.313500  0.958600  1.0  0.0614
  H  H140  1  0.093000  0.459800  0.975200  1.0  0.0889
  H  H141  1  0.826500  0.147300  0.770600  1.0  0.0467
  H  H142  1  0.762500  0.201700  0.678600  1.0  0.0838
  H  H143  1  0.015500  0.445100  0.894000  1.0  0.1015
  H  H144  1  0.822100  0.303500  0.739400  1.0  0.2468
  H  H145  1  0.081700  0.041400  0.354900  1.0  0.0622
  H  H146  1  0.117800  0.024800  0.484600  1.0  0.0896
  H  H147  1  0.055900  0.229400  0.376700  1.0  0.0477
  H  H148  1  0.083900  0.321400  0.523100  1.0  0.0835
  H  H149  1  0.121500  0.106000  0.551100  1.0  0.098
  H  H150  1  0.082700  0.260600  0.564100  1.0  0.2474
  H  H151  1  0.313500  0.458600  0.540300  1.0  0.0622
  H  H152  1  0.459800  0.475200  0.593000  1.0  0.0894
  H  H153  1  0.147300  0.270600  0.326500  1.0  0.0471
  H  H154  1  0.201700  0.178600  0.262500  1.0  0.082
  H  H155  1  0.445100  0.394000  0.515500  1.0  0.1039
  H  H156  1  0.303500  0.239400  0.322100  1.0  0.2456
  H  H157  1  0.186500  0.726800  0.145100  1.0  0.0591
  H  H158  1  0.040200  0.633200  0.015400  1.0  0.0888
  H  H159  1  0.352700  0.679200  0.123300  1.0  0.0459
  H  H160  1  0.298300  0.560800  0.976900  1.0  0.0836
  H  H161  1  0.054900  0.570400  0.948900  1.0  0.1022
  H  H162  1  0.196500  0.518600  0.935900  1.0  0.2453
  H  H163  1  0.418300  0.773200  0.959700  1.0  0.061
  H  H164  1  0.382200  0.866800  0.907000  1.0  0.0893
  H  H165  1  0.444100  0.820800  0.173500  1.0  0.0479
  H  H166  1  0.416100  0.939200  0.237500  1.0  0.0819
  H  H167  1  0.378500  0.929600  0.984500  1.0  0.0997
  H  H168  1  0.417300  0.981400  0.177900  1.0  0.2485
  H  H169  1  0.773200  0.459700  0.918300  1.0  0.0618
  H  H170  1  0.866800  0.407000  0.882200  1.0  0.089
  H  H171  1  0.820800  0.673500  0.944100  1.0  0.0458
  H  H172  1  0.939200  0.737500  0.916100  1.0  0.0829
  H  H173  1  0.929600  0.484500  0.878500  1.0  0.0997
  H  H174  1  0.981400  0.677900  0.917300  1.0  0.247
  H  H175  1  0.726800  0.645100  0.686500  1.0  0.0578
  H  H176  1  0.633200  0.515400  0.540200  1.0  0.0889
  H  H177  1  0.679200  0.623300  0.852700  1.0  0.0476
  H  H178  1  0.560800  0.476900  0.798300  1.0  0.0833
  H  H179  1  0.570400  0.448900  0.554900  1.0  0.0995
  H  H180  1  0.518600  0.435900  0.696500  1.0  0.2482
  H  H181  1  0.458600  0.040300  0.813500  1.0  0.062
  H  H182  1  0.475200  0.093000  0.959800  1.0  0.089
  H  H183  1  0.270600  0.826500  0.647300  1.0  0.0473
  H  H184  1  0.178600  0.762500  0.701700  1.0  0.0846
  H  H185  1  0.394000  0.015500  0.945100  1.0  0.1021
  H  H186  1  0.239400  0.822100  0.803500  1.0  0.2465
  H  H187  1  0.041400  0.854900  0.581700  1.0  0.0631
  H  H188  1  0.024800  0.984600  0.617800  1.0  0.0887
  H  H189  1  0.229400  0.876700  0.555900  1.0  0.0475
  H  H190  1  0.321400  0.023100  0.583900  1.0  0.0839
  H  H191  1  0.106000  0.051100  0.621500  1.0  0.0975
  H  H192  1  0.260600  0.064100  0.582700  1.0  0.2486
  H  H193  1  0.686500  0.145100  0.726800  1.0  0.0597
  H  H194  1  0.540200  0.015400  0.633200  1.0  0.0893
  H  H195  1  0.852700  0.123300  0.679200  1.0  0.0472
  H  H196  1  0.798300  0.976900  0.560800  1.0  0.0842
  H  H197  1  0.554900  0.948900  0.570400  1.0  0.1015
  H  H198  1  0.696500  0.935900  0.518600  1.0  0.247
  H  H199  1  0.918300  0.959700  0.773200  1.0  0.0618
  H  H200  1  0.882200  0.907000  0.866800  1.0  0.0896
  H  H201  1  0.944100  0.173500  0.820800  1.0  0.0475
  H  H202  1  0.916100  0.237500  0.939200  1.0  0.0839
  H  H203  1  0.878500  0.984500  0.929600  1.0  0.0991
  H  H204  1  0.917300  0.177900  0.981400  1.0  0.2474
  H  H205  1  0.581700  0.354900  0.041400  1.0  0.0614
  H  H206  1  0.617800  0.484600  0.024800  1.0  0.0886
  H  H207  1  0.555900  0.376700  0.229400  1.0  0.048
  H  H208  1  0.583900  0.523100  0.321400  1.0  0.0834
  H  H209  1  0.621500  0.551100  0.106000  1.0  0.0961
  H  H210  1  0.582700  0.564100  0.260600  1.0  0.2507
  H  H211  1  0.813500  0.540300  0.458600  1.0  0.0619
  H  H212  1  0.959800  0.593000  0.475200  1.0  0.0885
  H  H213  1  0.647300  0.326500  0.270600  1.0  0.0459
  H  H214  1  0.701700  0.262500  0.178600  1.0  0.0837
  H  H215  1  0.945100  0.515500  0.394000  1.0  0.1026
  H  H216  1  0.803500  0.322100  0.239400  1.0  0.2465
  H  H217  1  0.541400  0.581700  0.854900  1.0  0.0617
  H  H218  1  0.524800  0.617800  0.984600  1.0  0.0902
  H  H219  1  0.729400  0.555900  0.876700  1.0  0.0468
  H  H220  1  0.821400  0.583900  0.023100  1.0  0.0837
  H  H221  1  0.606000  0.621500  0.051100  1.0  0.0979
  H  H222  1  0.760600  0.582700  0.064100  1.0  0.2445
  H  H223  1  0.958600  0.813500  0.040300  1.0  0.062
  H  H224  1  0.975200  0.959800  0.093000  1.0  0.0904
  H  H225  1  0.770600  0.647300  0.826500  1.0  0.0461
  H  H226  1  0.678600  0.701700  0.762500  1.0  0.0839
  H  H227  1  0.894000  0.945100  0.015500  1.0  0.1023
  H  H228  1  0.739400  0.803500  0.822100  1.0  0.2467
  H  H229  1  0.226800  0.686500  0.645100  1.0  0.0617
  H  H230  1  0.133200  0.540200  0.515400  1.0  0.0897
  H  H231  1  0.179200  0.852700  0.623300  1.0  0.0467
  H  H232  1  0.060800  0.798300  0.476900  1.0  0.0837
  H  H233  1  0.070400  0.554900  0.448900  1.0  0.1005
  H  H234  1  0.018600  0.696500  0.435900  1.0  0.2458
  H  H235  1  0.273200  0.918300  0.459700  1.0  0.0604
  H  H236  1  0.366800  0.882200  0.407000  1.0  0.0889
  H  H237  1  0.320800  0.944100  0.673500  1.0  0.0456
  H  H238  1  0.439200  0.916100  0.737500  1.0  0.0833
  H  H239  1  0.429600  0.878500  0.484500  1.0  0.0988
  H  H240  1  0.481400  0.917300  0.677900  1.0  0.2468
  H  H241  1  0.959700  0.273200  0.418300  1.0  0.0623
  H  H242  1  0.907000  0.366800  0.382200  1.0  0.0886
  H  H243  1  0.173500  0.320800  0.444100  1.0  0.0467
  H  H244  1  0.237500  0.439200  0.416100  1.0  0.0835
  H  H245  1  0.984500  0.429600  0.378500  1.0  0.1008
  H  H246  1  0.177900  0.481400  0.417300  1.0  0.2465
  H  H247  1  0.145100  0.226800  0.186500  1.0  0.0603
  H  H248  1  0.015400  0.133200  0.040200  1.0  0.0893
  H  H249  1  0.123300  0.179200  0.352700  1.0  0.0471
  H  H250  1  0.976900  0.060800  0.298300  1.0  0.0818
  H  H251  1  0.948900  0.070400  0.054900  1.0  0.1009
  H  H252  1  0.935900  0.018600  0.196500  1.0  0.2474
  H  H253  1  0.540300  0.958600  0.313500  1.0  0.0619
  H  H254  1  0.593000  0.975200  0.459800  1.0  0.0899
  H  H255  1  0.326500  0.770600  0.147300  1.0  0.0474
  H  H256  1  0.262500  0.678600  0.201700  1.0  0.0836
  H  H257  1  0.515500  0.894000  0.445100  1.0  0.1028
  H  H258  1  0.322100  0.739400  0.303500  1.0  0.2465
  H  H259  1  0.354900  0.541400  0.081700  1.0  0.0625
  H  H260  1  0.484600  0.524800  0.117800  1.0  0.0893
  H  H261  1  0.376700  0.729400  0.055900  1.0  0.047
  H  H262  1  0.523100  0.821400  0.083900  1.0  0.0822
  H  H263  1  0.551100  0.606000  0.121500  1.0  0.0985
  H  H264  1  0.564100  0.760600  0.082700  1.0  0.2459
  H  H265  1  0.354900  0.813500  0.773200  1.0  0.0609
  H  H266  1  0.484600  0.959800  0.866800  1.0  0.0904
  H  H267  1  0.376700  0.647300  0.820800  1.0  0.0453
  H  H268  1  0.523100  0.701700  0.939200  1.0  0.084
  H  H269  1  0.551100  0.945100  0.929600  1.0  0.1004
  H  H270  1  0.564100  0.803500  0.981400  1.0  0.2471
  H  H271  1  0.540300  0.581700  0.726800  1.0  0.0615
  H  H272  1  0.593000  0.617800  0.633200  1.0  0.0898
  H  H273  1  0.326500  0.555900  0.679200  1.0  0.0459
  H  H274  1  0.262500  0.583900  0.560800  1.0  0.0835
  H  H275  1  0.515500  0.621500  0.570400  1.0  0.1011
  H  H276  1  0.322100  0.582700  0.518600  1.0  0.2442
  H  H277  1  0.145100  0.918300  0.458600  1.0  0.0615
  H  H278  1  0.015400  0.882200  0.475200  1.0  0.0893
  H  H279  1  0.123300  0.944100  0.270600  1.0  0.0471
  H  H280  1  0.976900  0.916100  0.178600  1.0  0.0832
  H  H281  1  0.948900  0.878500  0.394000  1.0  0.096
  H  H282  1  0.935900  0.917300  0.239400  1.0  0.2463
  H  H283  1  0.959700  0.686500  0.041400  1.0  0.0614
  H  H284  1  0.907000  0.540200  0.024800  1.0  0.0898
  H  H285  1  0.173500  0.852700  0.229400  1.0  0.0471
  H  H286  1  0.237500  0.798300  0.321400  1.0  0.0846
  H  H287  1  0.984500  0.554900  0.106000  1.0  0.1022
  H  H288  1  0.177900  0.696500  0.260600  1.0  0.2461
  H  H289  1  0.918300  0.958600  0.645100  1.0  0.0625
  H  H290  1  0.882200  0.975200  0.515400  1.0  0.0896
  H  H291  1  0.944100  0.770600  0.623300  1.0  0.0467
  H  H292  1  0.916100  0.678600  0.476900  1.0  0.0831
  H  H293  1  0.878500  0.894000  0.448900  1.0  0.0989
  H  H294  1  0.917300  0.739400  0.435900  1.0  0.2452
  H  H295  1  0.686500  0.541400  0.459700  1.0  0.0626
  H  H296  1  0.540200  0.524800  0.407000  1.0  0.0893
  H  H297  1  0.852700  0.729400  0.673500  1.0  0.0478
  H  H298  1  0.798300  0.821400  0.737500  1.0  0.0822
  H  H299  1  0.554900  0.606000  0.484500  1.0  0.1035
  H  H300  1  0.696500  0.760600  0.677900  1.0  0.2492
  H  H301  1  0.813500  0.273200  0.854900  1.0  0.0619
  H  H302  1  0.959800  0.366800  0.984600  1.0  0.0887
  H  H303  1  0.647300  0.320800  0.876700  1.0  0.0462
  H  H304  1  0.701700  0.439200  0.023100  1.0  0.0841
  H  H305  1  0.945100  0.429600  0.051100  1.0  0.1018
  H  H306  1  0.803500  0.481400  0.064100  1.0  0.2466
  H  H307  1  0.581700  0.226800  0.040300  1.0  0.0605
  H  H308  1  0.617800  0.133200  0.093000  1.0  0.0895
  H  H309  1  0.555900  0.179200  0.826500  1.0  0.0465
  H  H310  1  0.583900  0.060800  0.762500  1.0  0.082
  H  H311  1  0.621500  0.070400  0.015500  1.0  0.0991
  H  H312  1  0.582700  0.018600  0.822100  1.0  0.2464
  H  H313  1  0.226800  0.540300  0.081700  1.0  0.0634
  H  H314  1  0.133200  0.593000  0.117800  1.0  0.0889
  H  H315  1  0.179200  0.326500  0.055900  1.0  0.046
  H  H316  1  0.060800  0.262500  0.083900  1.0  0.0848
  H  H317  1  0.070400  0.515500  0.121500  1.0  0.1003
  H  H318  1  0.018600  0.322100  0.082700  1.0  0.246
  H  H319  1  0.273200  0.354900  0.313500  1.0  0.0613
  H  H320  1  0.366800  0.484600  0.459800  1.0  0.0884
  H  H321  1  0.320800  0.376700  0.147300  1.0  0.0475
  H  H322  1  0.439200  0.523100  0.201700  1.0  0.0835
  H  H323  1  0.429600  0.551100  0.445100  1.0  0.099
  H  H324  1  0.481400  0.564100  0.303500  1.0  0.2492
  H  H325  1  0.541400  0.959700  0.186500  1.0  0.0624
  H  H326  1  0.524800  0.907000  0.040200  1.0  0.0897
  H  H327  1  0.729400  0.173500  0.352700  1.0  0.0469
  H  H328  1  0.821400  0.237500  0.298300  1.0  0.0832
  H  H329  1  0.606000  0.984500  0.054900  1.0  0.1025
  H  H330  1  0.760600  0.177900  0.196500  1.0  0.2459
  H  H331  1  0.958600  0.145100  0.418300  1.0  0.0626
  H  H332  1  0.975200  0.015400  0.382200  1.0  0.0883
  H  H333  1  0.770600  0.123300  0.444100  1.0  0.0474
  H  H334  1  0.678600  0.976900  0.416100  1.0  0.0839
  H  H335  1  0.894000  0.948900  0.378500  1.0  0.0962
  H  H336  1  0.739400  0.935900  0.417300  1.0  0.2479
  C  C337  1  0.342370  0.890360  0.300130  1.0  0.2564
  C  C338  1  0.244020  0.990510  0.409850  1.0  0.0044
  C  C339  1  0.422310  0.960650  0.350920  1.0  0.0189
  C  C340  1  0.387900  0.973170  0.366730  1.0  0.1096
  C  C341  1  0.170920  0.913050  0.349190  1.0  0.2555
  C  C342  1  0.199840  0.992890  0.413930  1.0  -0.0098
  C  C343  1  0.408000  0.026270  0.413670  1.0  0.1657
  C  C344  1  0.300400  0.037600  0.451000  1.0  0.1387
  C  C345  1  0.090230  0.042240  0.199870  1.0  0.2583
  C  C346  1  0.080660  0.834170  0.090150  1.0  0.0041
  C  C347  1  0.109730  0.071390  0.149080  1.0  0.0205
  C  C348  1  0.106440  0.021170  0.133270  1.0  0.1093
  C  C349  1  0.063860  0.821730  0.150810  1.0  0.2583
  C  C350  1  0.078960  0.785910  0.086070  1.0  -0.0061
  C  C351  1  0.112600  0.994330  0.086330  1.0  0.166
  C  C352  1  0.086600  0.849400  0.049000  1.0  0.1418
  C  C353  1  0.409770  0.609640  0.952010  1.0  0.2546
  C  C354  1  0.419340  0.509490  0.753510  1.0  0.0045
  C  C355  1  0.390270  0.539350  0.961660  1.0  0.0201
  C  C356  1  0.393560  0.526830  0.914730  1.0  0.1092
  C  C357  1  0.436140  0.586950  0.757870  1.0  0.2576
  C  C358  1  0.421040  0.507110  0.706950  1.0  -0.0072
  C  C359  1  0.387400  0.473730  0.881730  1.0  0.1664
  C  C360  1  0.413400  0.462400  0.762800  1.0  0.1388
  C  C361  1  0.157630  0.457760  0.547990  1.0  0.2555
  C  C362  1  0.255980  0.665830  0.746490  1.0  0.0045
  C  C363  1  0.077690  0.428610  0.538340  1.0  0.0197
  C  C364  1  0.112100  0.478830  0.585270  1.0  0.1158
  C  C365  1  0.329080  0.678270  0.742130  1.0  0.257
  C  C366  1  0.300160  0.714090  0.793050  1.0  -0.0062
  C  C367  1  0.092000  0.505670  0.618270  1.0  0.1646
  C  C368  1  0.199600  0.650600  0.737200  1.0  0.1393
  C  C369  1  0.452010  0.409770  0.109640  1.0  0.257
  C  C370  1  0.253510  0.419340  0.009490  1.0  0.0054
  C  C371  1  0.461660  0.390270  0.039350  1.0  0.0191
  C  C372  1  0.414730  0.393560  0.026830  1.0  0.1119
  C  C373  1  0.257870  0.436140  0.086950  1.0  0.2587
  C  C374  1  0.206950  0.421040  0.007110  1.0  -0.0069
  C  C375  1  0.381730  0.387400  0.973730  1.0  0.1626
  C  C376  1  0.262800  0.413400  0.962400  1.0  0.1409
  C  C377  1  0.047990  0.157630  0.957760  1.0  0.2526
  C  C378  1  0.246490  0.255980  0.165830  1.0  0.0042
  C  C379  1  0.038340  0.077690  0.928610  1.0  0.017
  C  C380  1  0.085270  0.112100  0.978830  1.0  0.1096
  C  C381  1  0.242130  0.329080  0.178270  1.0  0.2579
  C  C382  1  0.293050  0.300160  0.214090  1.0  -0.004
  C  C383  1  0.118270  0.092000  0.005670  1.0  0.1659
  C  C384  1  0.237200  0.199600  0.150600  1.0  0.1395
  C  C385  1  0.800130  0.342370  0.390360  1.0  0.2545
  C  C386  1  0.909850  0.244020  0.490510  1.0  0.0027
  C  C387  1  0.850920  0.422310  0.460650  1.0  0.0171
  C  C388  1  0.866730  0.387900  0.473170  1.0  0.1129
  C  C389  1  0.849190  0.170920  0.413050  1.0  0.2568
  C  C390  1  0.913930  0.199840  0.492890  1.0  -0.0045
  C  C391  1  0.913670  0.408000  0.526270  1.0  0.1647
  C  C392  1  0.951000  0.300400  0.537600  1.0  0.1391
  C  C393  1  0.699870  0.090230  0.542240  1.0  0.2548
  C  C394  1  0.590150  0.080660  0.334170  1.0  0.0042
  C  C395  1  0.649080  0.109730  0.571390  1.0  0.02
  C  C396  1  0.633270  0.106440  0.521170  1.0  0.1091
  C  C397  1  0.650810  0.063860  0.321730  1.0  0.259
  C  C398  1  0.586070  0.078960  0.285910  1.0  -0.0056
  C  C399  1  0.586330  0.112600  0.494330  1.0  0.1657
  C  C400  1  0.549000  0.086600  0.349400  1.0  0.1367
  C  C401  1  0.042240  0.699870  0.590230  1.0  0.2536
  C  C402  1  0.834170  0.590150  0.580660  1.0  0.0056
  C  C403  1  0.071390  0.649080  0.609730  1.0  0.0196
  C  C404  1  0.021170  0.633270  0.606440  1.0  0.1158
  C  C405  1  0.821730  0.650810  0.563860  1.0  0.2565
  C  C406  1  0.785910  0.586070  0.578960  1.0  -0.0073
  C  C407  1  0.994330  0.586330  0.612600  1.0  0.1638
  C  C408  1  0.849400  0.549000  0.586600  1.0  0.1402
  C  C409  1  0.890360  0.800130  0.842370  1.0  0.2511
  C  C410  1  0.990510  0.909850  0.744020  1.0  1e-04
  C  C411  1  0.960650  0.850920  0.922310  1.0  0.0209
  C  C412  1  0.973170  0.866730  0.887900  1.0  0.1076
  C  C413  1  0.913050  0.849190  0.670920  1.0  0.2592
  C  C414  1  0.992890  0.913930  0.699840  1.0  -0.0046
  C  C415  1  0.026270  0.913670  0.908000  1.0  0.1657
  C  C416  1  0.037600  0.951000  0.800400  1.0  0.1351
  C  C417  1  0.457760  0.047990  0.657630  1.0  0.2573
  C  C418  1  0.665830  0.246490  0.755980  1.0  0.0049
  C  C419  1  0.428610  0.038340  0.577690  1.0  0.0194
  C  C420  1  0.478830  0.085270  0.612100  1.0  0.1103
  C  C421  1  0.678270  0.242130  0.829080  1.0  0.2585
  C  C422  1  0.714090  0.293050  0.800160  1.0  -0.0075
  C  C423  1  0.505670  0.118270  0.592000  1.0  0.1649
  C  C424  1  0.650600  0.237200  0.699600  1.0  0.1438
  C  C425  1  0.609640  0.452010  0.909770  1.0  0.2534
  C  C426  1  0.509490  0.253510  0.919340  1.0  0.0035
  C  C427  1  0.539350  0.461660  0.890270  1.0  0.0182
  C  C428  1  0.526830  0.414730  0.893560  1.0  0.1108
  C  C429  1  0.586950  0.257870  0.936140  1.0  0.2578
  C  C430  1  0.507110  0.206950  0.921040  1.0  -0.0073
  C  C431  1  0.473730  0.381730  0.887400  1.0  0.1646
  C  C432  1  0.462400  0.262800  0.913400  1.0  0.1406
  C  C433  1  0.609640  0.157630  0.199870  1.0  0.2515
  C  C434  1  0.509490  0.255980  0.090150  1.0  0.0052
  C  C435  1  0.539350  0.077690  0.149080  1.0  0.0176
  C  C436  1  0.526830  0.112100  0.133270  1.0  0.1101
  C  C437  1  0.586950  0.329080  0.150810  1.0  0.259
  C  C438  1  0.507110  0.300160  0.086070  1.0  -0.0062
  C  C439  1  0.473730  0.092000  0.086330  1.0  0.166
  C  C440  1  0.462400  0.199600  0.049000  1.0  0.1417
  C  C441  1  0.457760  0.409770  0.300130  1.0  0.256
  C  C442  1  0.665830  0.419340  0.409850  1.0  0.0046
  C  C443  1  0.428610  0.390270  0.350920  1.0  0.0185
  C  C444  1  0.478830  0.393560  0.366730  1.0  0.1108
  C  C445  1  0.678270  0.436140  0.349190  1.0  0.2578
  C  C446  1  0.714090  0.421040  0.413930  1.0  -0.0035
  C  C447  1  0.505670  0.387400  0.413670  1.0  0.1609
  C  C448  1  0.650600  0.413400  0.451000  1.0  0.1401
  C  C449  1  0.890360  0.090230  0.547990  1.0  0.2544
  C  C450  1  0.990510  0.080660  0.746490  1.0  0.0034
  C  C451  1  0.960650  0.109730  0.538340  1.0  0.0206
  C  C452  1  0.973170  0.106440  0.585270  1.0  0.1093
  C  C453  1  0.913050  0.063860  0.742130  1.0  0.2589
  C  C454  1  0.992890  0.078960  0.793050  1.0  -0.0025
  C  C455  1  0.026270  0.112600  0.618270  1.0  0.1655
  C  C456  1  0.037600  0.086600  0.737200  1.0  0.1389
  C  C457  1  0.042240  0.342370  0.952010  1.0  0.2548
  C  C458  1  0.834170  0.244020  0.753510  1.0  0.0045
  C  C459  1  0.071390  0.422310  0.961660  1.0  0.018
  C  C460  1  0.021170  0.387900  0.914730  1.0  0.1096
  C  C461  1  0.821730  0.170920  0.757870  1.0  0.2578
  C  C462  1  0.785910  0.199840  0.706950  1.0  -0.007
  C  C463  1  0.994330  0.408000  0.881730  1.0  0.1657
  C  C464  1  0.849400  0.300400  0.762800  1.0  0.1369
  C  C465  1  0.090230  0.047990  0.390360  1.0  0.2559
  C  C466  1  0.080660  0.246490  0.490510  1.0  0.0036
  C  C467  1  0.109730  0.038340  0.460650  1.0  0.0188
  C  C468  1  0.106440  0.085270  0.473170  1.0  0.1102
  C  C469  1  0.063860  0.242130  0.413050  1.0  0.2573
  C  C470  1  0.078960  0.293050  0.492890  1.0  -0.0083
  C  C471  1  0.112600  0.118270  0.526270  1.0  0.1635
  C  C472  1  0.086600  0.237200  0.537600  1.0  0.1443
  C  C473  1  0.342370  0.452010  0.542240  1.0  0.253
  C  C474  1  0.244020  0.253510  0.334170  1.0  0.0031
  C  C475  1  0.422310  0.461660  0.571390  1.0  0.0183
  C  C476  1  0.387900  0.414730  0.521170  1.0  0.1107
  C  C477  1  0.170920  0.257870  0.321730  1.0  0.2574
  C  C478  1  0.199840  0.206950  0.285910  1.0  -0.007
  C  C479  1  0.408000  0.381730  0.494330  1.0  0.1665
  C  C480  1  0.300400  0.262800  0.349400  1.0  0.142
  C  C481  1  0.157630  0.699870  0.109640  1.0  0.2537
  C  C482  1  0.255980  0.590150  0.009490  1.0  0.0056
  C  C483  1  0.077690  0.649080  0.039350  1.0  0.0198
  C  C484  1  0.112100  0.633270  0.026830  1.0  0.1121
  C  C485  1  0.329080  0.650810  0.086950  1.0  0.2575
  C  C486  1  0.300160  0.586070  0.007110  1.0  -0.0063
  C  C487  1  0.092000  0.586330  0.973730  1.0  0.1648
  C  C488  1  0.199600  0.549000  0.962400  1.0  0.1394
  C  C489  1  0.409770  0.800130  0.957760  1.0  0.2518
  C  C490  1  0.419340  0.909850  0.165830  1.0  0.0005
  C  C491  1  0.390270  0.850920  0.928610  1.0  0.0214
  C  C492  1  0.393560  0.866730  0.978830  1.0  0.1091
  C  C493  1  0.436140  0.849190  0.178270  1.0  0.2593
  C  C494  1  0.421040  0.913930  0.214090  1.0  -0.0052
  C  C495  1  0.387400  0.913670  0.005670  1.0  0.1643
  C  C496  1  0.413400  0.951000  0.150600  1.0  0.1382
  C  C497  1  0.800130  0.457760  0.909770  1.0  0.2554
  C  C498  1  0.909850  0.665830  0.919340  1.0  0.0037
  C  C499  1  0.850920  0.428610  0.890270  1.0  0.0193
  C  C500  1  0.866730  0.478830  0.893560  1.0  0.1137
  C  C501  1  0.849190  0.678270  0.936140  1.0  0.2574
  C  C502  1  0.913930  0.714090  0.921040  1.0  -0.0059
  C  C503  1  0.913670  0.505670  0.887400  1.0  0.1647
  C  C504  1  0.951000  0.650600  0.913400  1.0  0.1394
  C  C505  1  0.699870  0.609640  0.657630  1.0  0.2546
  C  C506  1  0.590150  0.509490  0.755980  1.0  0.0043
  C  C507  1  0.649080  0.539350  0.577690  1.0  0.0194
  C  C508  1  0.633270  0.526830  0.612100  1.0  0.1094
  C  C509  1  0.650810  0.586950  0.829080  1.0  0.2579
  C  C510  1  0.586070  0.507110  0.800160  1.0  -0.0075
  C  C511  1  0.586330  0.473730  0.592000  1.0  0.1662
  C  C512  1  0.549000  0.462400  0.699600  1.0  0.1401
  C  C513  1  0.452010  0.042240  0.842370  1.0  0.2569
  C  C514  1  0.253510  0.834170  0.744020  1.0  0.0051
  C  C515  1  0.461660  0.071390  0.922310  1.0  0.0202
  C  C516  1  0.414730  0.021170  0.887900  1.0  0.1079
  C  C517  1  0.257870  0.821730  0.670920  1.0  0.2582
  C  C518  1  0.206950  0.785910  0.699840  1.0  -0.0069
  C  C519  1  0.381730  0.994330  0.908000  1.0  0.1646
  C  C520  1  0.262800  0.849400  0.800400  1.0  0.1425
  C  C521  1  0.047990  0.890360  0.590230  1.0  0.2546
  C  C522  1  0.246490  0.990510  0.580660  1.0  0.0023
  C  C523  1  0.038340  0.960650  0.609730  1.0  0.0183
  C  C524  1  0.085270  0.973170  0.606440  1.0  0.1112
  C  C525  1  0.242130  0.913050  0.563860  1.0  0.2561
  C  C526  1  0.293050  0.992890  0.578960  1.0  -0.0086
  C  C527  1  0.118270  0.026270  0.612600  1.0  0.1659
  C  C528  1  0.237200  0.037600  0.586600  1.0  0.1403
  C  C529  1  0.657630  0.109640  0.699870  1.0  0.2542
  C  C530  1  0.755980  0.009490  0.590150  1.0  0.0042
  C  C531  1  0.577690  0.039350  0.649080  1.0  0.0178
  C  C532  1  0.612100  0.026830  0.633270  1.0  0.1107
  C  C533  1  0.829080  0.086950  0.650810  1.0  0.2577
  C  C534  1  0.800160  0.007110  0.586070  1.0  -0.0085
  C  C535  1  0.592000  0.973730  0.586330  1.0  0.1666
  C  C536  1  0.699600  0.962400  0.549000  1.0  0.1419
  C  C537  1  0.909770  0.957760  0.800130  1.0  0.2569
  C  C538  1  0.919340  0.165830  0.909850  1.0  0.0058
  C  C539  1  0.890270  0.928610  0.850920  1.0  0.0202
  C  C540  1  0.893560  0.978830  0.866730  1.0  0.1099
  C  C541  1  0.936140  0.178270  0.849190  1.0  0.258
  C  C542  1  0.921040  0.214090  0.913930  1.0  -0.006
  C  C543  1  0.887400  0.005670  0.913670  1.0  0.1647
  C  C544  1  0.913400  0.150600  0.951000  1.0  0.144
  C  C545  1  0.590230  0.390360  0.047990  1.0  0.2554
  C  C546  1  0.580660  0.490510  0.246490  1.0  0.0033
  C  C547  1  0.609730  0.460650  0.038340  1.0  0.0204
  C  C548  1  0.606440  0.473170  0.085270  1.0  0.11
  C  C549  1  0.563860  0.413050  0.242130  1.0  0.2561
  C  C550  1  0.578960  0.492890  0.293050  1.0  -0.0078
  C  C551  1  0.612600  0.526270  0.118270  1.0  0.1649
  C  C552  1  0.586600  0.537600  0.237200  1.0  0.139
  C  C553  1  0.842370  0.542240  0.452010  1.0  0.2551
  C  C554  1  0.744020  0.334170  0.253510  1.0  0.0038
  C  C555  1  0.922310  0.571390  0.461660  1.0  0.0194
  C  C556  1  0.887900  0.521170  0.414730  1.0  0.1116
  C  C557  1  0.670920  0.321730  0.257870  1.0  0.2575
  C  C558  1  0.699840  0.285910  0.206950  1.0  -0.0068
  C  C559  1  0.908000  0.494330  0.381730  1.0  0.1644
  C  C560  1  0.800400  0.349400  0.262800  1.0  0.1381
  C  C561  1  0.547990  0.590230  0.890360  1.0  0.2558
  C  C562  1  0.746490  0.580660  0.990510  1.0  0.0037
  C  C563  1  0.538340  0.609730  0.960650  1.0  0.018
  C  C564  1  0.585270  0.606440  0.973170  1.0  0.1099
  C  C565  1  0.742130  0.563860  0.913050  1.0  0.2579
  C  C566  1  0.793050  0.578960  0.992890  1.0  -0.0028
  C  C567  1  0.618270  0.612600  0.026270  1.0  0.1612
  C  C568  1  0.737200  0.586600  0.037600  1.0  0.1419
  C  C569  1  0.952010  0.842370  0.042240  1.0  0.2522
  C  C570  1  0.753510  0.744020  0.834170  1.0  0.0046
  C  C571  1  0.961660  0.922310  0.071390  1.0  0.0173
  C  C572  1  0.914730  0.887900  0.021170  1.0  0.1095
  C  C573  1  0.757870  0.670920  0.821730  1.0  0.259
  C  C574  1  0.706950  0.699840  0.785910  1.0  -0.0066
  C  C575  1  0.881730  0.908000  0.994330  1.0  0.1657
  C  C576  1  0.762800  0.800400  0.849400  1.0  0.1413
  C  C577  1  0.199870  0.657630  0.609640  1.0  0.2545
  C  C578  1  0.090150  0.755980  0.509490  1.0  0.0042
  C  C579  1  0.149080  0.577690  0.539350  1.0  0.0181
  C  C580  1  0.133270  0.612100  0.526830  1.0  0.1101
  C  C581  1  0.150810  0.829080  0.586950  1.0  0.2576
  C  C582  1  0.086070  0.800160  0.507110  1.0  -0.007
  C  C583  1  0.086330  0.592000  0.473730  1.0  0.1656
  C  C584  1  0.049000  0.699600  0.462400  1.0  0.1396
  C  C585  1  0.300130  0.909770  0.457760  1.0  0.2546
  C  C586  1  0.409850  0.919340  0.665830  1.0  0.0037
  C  C587  1  0.350920  0.890270  0.428610  1.0  0.0202
  C  C588  1  0.366730  0.893560  0.478830  1.0  0.1095
  C  C589  1  0.349190  0.936140  0.678270  1.0  0.2583
  C  C590  1  0.413930  0.921040  0.714090  1.0  -0.0032
  C  C591  1  0.413670  0.887400  0.505670  1.0  0.1656
  C  C592  1  0.451000  0.913400  0.650600  1.0  0.1395
  C  C593  1  0.957760  0.300130  0.409770  1.0  0.253
  C  C594  1  0.165830  0.409850  0.419340  1.0  0.0058
  C  C595  1  0.928610  0.350920  0.390270  1.0  0.02
  C  C596  1  0.978830  0.366730  0.393560  1.0  0.1137
  C  C597  1  0.178270  0.349190  0.436140  1.0  0.2575
  C  C598  1  0.214090  0.413930  0.421040  1.0  -0.0065
  C  C599  1  0.005670  0.413670  0.387400  1.0  0.1646
  C  C600  1  0.150600  0.451000  0.413400  1.0  0.1384
  C  C601  1  0.109640  0.199870  0.157630  1.0  0.2527
  C  C602  1  0.009490  0.090150  0.255980  1.0  0.0005
  C  C603  1  0.039350  0.149080  0.077690  1.0  0.0212
  C  C604  1  0.026830  0.133270  0.112100  1.0  0.1081
  C  C605  1  0.086950  0.150810  0.329080  1.0  0.2594
  C  C606  1  0.007110  0.086070  0.300160  1.0  -0.0054
  C  C607  1  0.973730  0.086330  0.092000  1.0  0.1645
  C  C608  1  0.962400  0.049000  0.199600  1.0  0.1391
  C  C609  1  0.542240  0.952010  0.342370  1.0  0.2555
  C  C610  1  0.334170  0.753510  0.244020  1.0  0.0036
  C  C611  1  0.571390  0.961660  0.422310  1.0  0.0184
  C  C612  1  0.521170  0.914730  0.387900  1.0  0.1102
  C  C613  1  0.321730  0.757870  0.170920  1.0  0.2571
  C  C614  1  0.285910  0.706950  0.199840  1.0  -0.0075
  C  C615  1  0.494330  0.881730  0.408000  1.0  0.1629
  C  C616  1  0.349400  0.762800  0.300400  1.0  0.1439
  C  C617  1  0.390360  0.547990  0.090230  1.0  0.2528
  C  C618  1  0.490510  0.746490  0.080660  1.0  0.0033
  C  C619  1  0.460650  0.538340  0.109730  1.0  0.0192
  C  C620  1  0.473170  0.585270  0.106440  1.0  0.1106
  C  C621  1  0.413050  0.742130  0.063860  1.0  0.258
  C  C622  1  0.492890  0.793050  0.078960  1.0  -0.0078
  C  C623  1  0.526270  0.618270  0.112600  1.0  0.1675
  C  C624  1  0.537600  0.737200  0.086600  1.0  0.1415
  C  C625  1  0.390360  0.842370  0.800130  1.0  0.2518
  C  C626  1  0.490510  0.744020  0.909850  1.0  0.0039
  C  C627  1  0.460650  0.922310  0.850920  1.0  0.0166
  C  C628  1  0.473170  0.887900  0.866730  1.0  0.1099
  C  C629  1  0.413050  0.670920  0.849190  1.0  0.2586
  C  C630  1  0.492890  0.699840  0.913930  1.0  -0.0037
  C  C631  1  0.526270  0.908000  0.913670  1.0  0.165
  C  C632  1  0.537600  0.800400  0.951000  1.0  0.139
  C  C633  1  0.542240  0.590230  0.699870  1.0  0.2565
  C  C634  1  0.334170  0.580660  0.590150  1.0  0.005
  C  C635  1  0.571390  0.609730  0.649080  1.0  0.0193
  C  C636  1  0.521170  0.606440  0.633270  1.0  0.11
  C  C637  1  0.321730  0.563860  0.650810  1.0  0.2594
  C  C638  1  0.285910  0.578960  0.586070  1.0  -0.0059
  C  C639  1  0.494330  0.612600  0.586330  1.0  0.1621
  C  C640  1  0.349400  0.586600  0.549000  1.0  0.1388
  C  C641  1  0.109640  0.909770  0.452010  1.0  0.2546
  C  C642  1  0.009490  0.919340  0.253510  1.0  0.0046
  C  C643  1  0.039350  0.890270  0.461660  1.0  0.0209
  C  C644  1  0.026830  0.893560  0.414730  1.0  0.1109
  C  C645  1  0.086950  0.936140  0.257870  1.0  0.2592
  C  C646  1  0.007110  0.921040  0.206950  1.0  -0.0064
  C  C647  1  0.973730  0.887400  0.381730  1.0  0.1649
  C  C648  1  0.962400  0.913400  0.262800  1.0  0.1384
  C  C649  1  0.957760  0.657630  0.047990  1.0  0.2541
  C  C650  1  0.165830  0.755980  0.246490  1.0  0.0037
  C  C651  1  0.928610  0.577690  0.038340  1.0  0.0173
  C  C652  1  0.978830  0.612100  0.085270  1.0  0.1124
  C  C653  1  0.178270  0.829080  0.242130  1.0  0.2562
  C  C654  1  0.214090  0.800160  0.293050  1.0  -0.0046
  C  C655  1  0.005670  0.592000  0.118270  1.0  0.1654
  C  C656  1  0.150600  0.699600  0.237200  1.0  0.1391
  C  C657  1  0.909770  0.952010  0.609640  1.0  0.2571
  C  C658  1  0.919340  0.753510  0.509490  1.0  0.0048
  C  C659  1  0.890270  0.961660  0.539350  1.0  0.0191
  C  C660  1  0.893560  0.914730  0.526830  1.0  0.1104
  C  C661  1  0.936140  0.757870  0.586950  1.0  0.2582
  C  C662  1  0.921040  0.706950  0.507110  1.0  -0.0079
  C  C663  1  0.887400  0.881730  0.473730  1.0  0.1647
  C  C664  1  0.913400  0.762800  0.462400  1.0  0.145
  C  C665  1  0.657630  0.547990  0.457760  1.0  0.2542
  C  C666  1  0.755980  0.746490  0.665830  1.0  0.0034
  C  C667  1  0.577690  0.538340  0.428610  1.0  0.0183
  C  C668  1  0.612100  0.585270  0.478830  1.0  0.1098
  C  C669  1  0.829080  0.742130  0.678270  1.0  0.2578
  C  C670  1  0.800160  0.793050  0.714090  1.0  -0.007
  C  C671  1  0.592000  0.618270  0.505670  1.0  0.1654
  C  C672  1  0.699600  0.737200  0.650600  1.0  0.1409
  C  C673  1  0.842370  0.300130  0.890360  1.0  0.2532
  C  C674  1  0.744020  0.409850  0.990510  1.0  0.0054
  C  C675  1  0.922310  0.350920  0.960650  1.0  0.0198
  C  C676  1  0.887900  0.366730  0.973170  1.0  0.1157
  C  C677  1  0.670920  0.349190  0.913050  1.0  0.2566
  C  C678  1  0.699840  0.413930  0.992890  1.0  -0.0082
  C  C679  1  0.908000  0.413670  0.026270  1.0  0.1635
  C  C680  1  0.800400  0.451000  0.037600  1.0  0.1397
  C  C681  1  0.590230  0.199870  0.042240  1.0  0.2524
  C  C682  1  0.580660  0.090150  0.834170  1.0  1e-04
  C  C683  1  0.609730  0.149080  0.071390  1.0  0.0209
  C  C684  1  0.606440  0.133270  0.021170  1.0  0.1074
  C  C685  1  0.563860  0.150810  0.821730  1.0  0.2592
  C  C686  1  0.578960  0.086070  0.785910  1.0  -0.0042
  C  C687  1  0.612600  0.086330  0.994330  1.0  0.1658
  C  C688  1  0.586600  0.049000  0.849400  1.0  0.1363
  C  C689  1  0.199870  0.542240  0.090230  1.0  0.2557
  C  C690  1  0.090150  0.334170  0.080660  1.0  0.0029
  C  C691  1  0.149080  0.571390  0.109730  1.0  0.0193
  C  C692  1  0.133270  0.521170  0.106440  1.0  0.1153
  C  C693  1  0.150810  0.321730  0.063860  1.0  0.2572
  C  C694  1  0.086070  0.285910  0.078960  1.0  -0.0069
  C  C695  1  0.086330  0.494330  0.112600  1.0  0.1644
  C  C696  1  0.049000  0.349400  0.086600  1.0  0.1361
  C  C697  1  0.300130  0.390360  0.342370  1.0  0.2547
  C  C698  1  0.409850  0.490510  0.244020  1.0  0.0028
  C  C699  1  0.350920  0.460650  0.422310  1.0  0.02
  C  C700  1  0.366730  0.473170  0.387900  1.0  0.1092
  C  C701  1  0.349190  0.413050  0.170920  1.0  0.2565
  C  C702  1  0.413930  0.492890  0.199840  1.0  -0.0073
  C  C703  1  0.413670  0.526270  0.408000  1.0  0.166
  C  C704  1  0.451000  0.537600  0.300400  1.0  0.138
  C  C705  1  0.547990  0.957760  0.157630  1.0  0.2584
  C  C706  1  0.746490  0.165830  0.255980  1.0  0.0043
  C  C707  1  0.538340  0.928610  0.077690  1.0  0.0204
  C  C708  1  0.585270  0.978830  0.112100  1.0  0.1099
  C  C709  1  0.742130  0.178270  0.329080  1.0  0.258
  C  C710  1  0.793050  0.214090  0.300160  1.0  -0.0053
  C  C711  1  0.618270  0.005670  0.092000  1.0  0.1661
  C  C712  1  0.737200  0.150600  0.199600  1.0  0.1418
  C  C713  1  0.952010  0.109640  0.409770  1.0  0.256
  C  C714  1  0.753510  0.009490  0.419340  1.0  0.0054
  C  C715  1  0.961660  0.039350  0.390270  1.0  0.0178
  C  C716  1  0.914730  0.026830  0.393560  1.0  0.1103
  C  C717  1  0.757870  0.086950  0.436140  1.0  0.2569
  C  C718  1  0.706950  0.007110  0.421040  1.0  -0.0096
  C  C719  1  0.881730  0.973730  0.387400  1.0  0.1659
  C  C720  1  0.762800  0.962400  0.413400  1.0  0.1416
  N  N721  1  0.336100  0.927630  0.333370  1.0  -0.4536
  N  N722  1  0.393620  0.908270  0.308810  1.0  -0.407
  N  N723  1  0.224740  0.939210  0.367970  1.0  -0.4591
  N  N724  1  0.153730  0.944320  0.375370  1.0  -0.3974
  N  N725  1  0.327300  0.006950  0.410050  1.0  -0.4437
  N  N726  1  0.383260  0.044850  0.436970  1.0  -0.1951
  N  N727  1  0.094260  0.002730  0.166630  1.0  -0.4528
  N  N728  1  0.099460  0.084810  0.191190  1.0  -0.4084
  N  N729  1  0.071240  0.856770  0.132030  1.0  -0.4622
  N  N730  1  0.068950  0.778360  0.124630  1.0  -0.398
  N  N731  1  0.096900  0.917250  0.089950  1.0  -0.4438
  N  N732  1  0.107880  0.946290  0.063030  1.0  -0.1993
  N  N733  1  0.405740  0.572370  0.908470  1.0  -0.4535
  N  N734  1  0.400540  0.591730  0.985350  1.0  -0.4051
  N  N735  1  0.428760  0.560790  0.785530  1.0  -0.4571
  N  N736  1  0.431050  0.555680  0.709410  1.0  -0.3983
  N  N737  1  0.403100  0.493050  0.820350  1.0  -0.4432
  N  N738  1  0.392120  0.455150  0.838410  1.0  -0.1961
  N  N739  1  0.163900  0.497270  0.591530  1.0  -0.4515
  N  N740  1  0.106380  0.415190  0.514650  1.0  -0.4089
  N  N741  1  0.275260  0.643230  0.714470  1.0  -0.46
  N  N742  1  0.346270  0.721640  0.790590  1.0  -0.3981
  N  N743  1  0.172700  0.582750  0.679650  1.0  -0.4429
  N  N744  1  0.116740  0.553710  0.661590  1.0  -0.1937
  N  N745  1  0.408470  0.405740  0.072370  1.0  -0.4549
  N  N746  1  0.485350  0.400540  0.091730  1.0  -0.4074
  N  N747  1  0.285530  0.428760  0.060790  1.0  -0.459
  N  N748  1  0.209410  0.431050  0.055680  1.0  -0.3986
  N  N749  1  0.320350  0.403100  0.993050  1.0  -0.4426
  N  N750  1  0.338410  0.392120  0.955150  1.0  -0.2003
  N  N751  1  0.091530  0.163900  0.997270  1.0  -0.4539
  N  N752  1  0.014650  0.106380  0.915190  1.0  -0.406
  N  N753  1  0.214470  0.275260  0.143230  1.0  -0.4608
  N  N754  1  0.290590  0.346270  0.221640  1.0  -0.3993
  N  N755  1  0.179650  0.172700  0.082750  1.0  -0.4454
  N  N756  1  0.161590  0.116740  0.053710  1.0  -0.1963
  N  N757  1  0.833370  0.336100  0.427630  1.0  -0.4538
  N  N758  1  0.808810  0.393620  0.408270  1.0  -0.4083
  N  N759  1  0.867970  0.224740  0.439210  1.0  -0.4608
  N  N760  1  0.875370  0.153730  0.444320  1.0  -0.3988
  N  N761  1  0.910050  0.327300  0.506950  1.0  -0.4423
  N  N762  1  0.936970  0.383260  0.544850  1.0  -0.1938
  N  N763  1  0.666667  0.094260  0.502730  1.0  -0.4571
  N  N764  1  0.691190  0.099460  0.584810  1.0  -0.4075
  N  N765  1  0.632030  0.071240  0.356770  1.0  -0.4565
  N  N766  1  0.624630  0.068950  0.278360  1.0  -0.3991
  N  N767  1  0.589950  0.096900  0.417250  1.0  -0.4423
  N  N768  1  0.563030  0.107880  0.446290  1.0  -0.1982
  N  N769  1  0.002730  0.666667  0.594260  1.0  -0.4541
  N  N770  1  0.084810  0.691190  0.599460  1.0  -0.4093
  N  N771  1  0.856770  0.632030  0.571240  1.0  -0.4585
  N  N772  1  0.778360  0.624630  0.568950  1.0  -0.3968
  N  N773  1  0.917250  0.589950  0.596900  1.0  -0.4429
  N  N774  1  0.946290  0.563030  0.607880  1.0  -0.194
  N  N775  1  0.927630  0.833370  0.836100  1.0  -0.4548
  N  N776  1  0.908270  0.808810  0.893620  1.0  -0.4076
  N  N777  1  0.939210  0.867970  0.724740  1.0  -0.457
  N  N778  1  0.944320  0.875370  0.653730  1.0  -0.3978
  N  N779  1  0.006950  0.910050  0.827300  1.0  -0.447
  N  N780  1  0.044850  0.936970  0.883260  1.0  -0.1977
  N  N781  1  0.497270  0.091530  0.663900  1.0  -0.456
  N  N782  1  0.415190  0.014650  0.606380  1.0  -0.4075
  N  N783  1  0.643230  0.214470  0.775260  1.0  -0.4586
  N  N784  1  0.721640  0.290590  0.846270  1.0  -0.398
  N  N785  1  0.582750  0.179650  0.672700  1.0  -0.4438
  N  N786  1  0.553710  0.161590  0.616740  1.0  -0.2031
  N  N787  1  0.572370  0.408470  0.905740  1.0  -0.4526
  N  N788  1  0.591730  0.485350  0.900540  1.0  -0.4073
  N  N789  1  0.560790  0.285530  0.928760  1.0  -0.4588
  N  N790  1  0.555680  0.209410  0.931050  1.0  -0.3984
  N  N791  1  0.493050  0.320350  0.903100  1.0  -0.4466
  N  N792  1  0.455150  0.338410  0.892120  1.0  -0.198
  N  N793  1  0.572370  0.163900  0.166630  1.0  -0.4506
  N  N794  1  0.591730  0.106380  0.191190  1.0  -0.4072
  N  N795  1  0.560790  0.275260  0.132030  1.0  -0.4598
  N  N796  1  0.555680  0.346270  0.124630  1.0  -0.3993
  N  N797  1  0.493050  0.172700  0.089950  1.0  -0.4448
  N  N798  1  0.455150  0.116740  0.063030  1.0  -0.1973
  N  N799  1  0.497270  0.405740  0.333370  1.0  -0.4567
  N  N800  1  0.415190  0.400540  0.308810  1.0  -0.4076
  N  N801  1  0.643230  0.428760  0.367970  1.0  -0.4592
  N  N802  1  0.721640  0.431050  0.375370  1.0  -0.3978
  N  N803  1  0.582750  0.403100  0.410050  1.0  -0.4432
  N  N804  1  0.553710  0.392120  0.436970  1.0  -0.2031
  N  N805  1  0.927630  0.094260  0.591530  1.0  -0.4535
  N  N806  1  0.908270  0.099460  0.514650  1.0  -0.4079
  N  N807  1  0.939210  0.071240  0.714470  1.0  -0.4579
  N  N808  1  0.944320  0.068950  0.790590  1.0  -0.3988
  N  N809  1  0.006950  0.096900  0.679650  1.0  -0.4407
  N  N810  1  0.044850  0.107880  0.661590  1.0  -0.199
  N  N811  1  0.002730  0.336100  0.908470  1.0  -0.4537
  N  N812  1  0.084810  0.393620  0.985350  1.0  -0.4072
  N  N813  1  0.856770  0.224740  0.785530  1.0  -0.4594
  N  N814  1  0.778360  0.153730  0.709410  1.0  -0.3988
  N  N815  1  0.917250  0.327300  0.820350  1.0  -0.4475
  N  N816  1  0.946290  0.383260  0.838410  1.0  -0.1927
  N  N817  1  0.094260  0.091530  0.427630  1.0  -0.4551
  N  N818  1  0.099460  0.014650  0.408270  1.0  -0.4075
  N  N819  1  0.071240  0.214470  0.439210  1.0  -0.4578
  N  N820  1  0.068950  0.290590  0.444320  1.0  -0.3982
  N  N821  1  0.096900  0.179650  0.506950  1.0  -0.4441
  N  N822  1  0.107880  0.161590  0.544850  1.0  -0.2009
  N  N823  1  0.336100  0.408470  0.502730  1.0  -0.451
  N  N824  1  0.393620  0.485350  0.584810  1.0  -0.4074
  N  N825  1  0.224740  0.285530  0.356770  1.0  -0.4568
  N  N826  1  0.153730  0.209410  0.278360  1.0  -0.3988
  N  N827  1  0.327300  0.320350  0.417250  1.0  -0.4454
  N  N828  1  0.383260  0.338410  0.446290  1.0  -0.1987
  N  N829  1  0.163900  0.666667  0.072370  1.0  -0.4538
  N  N830  1  0.106380  0.691190  0.091730  1.0  -0.409
  N  N831  1  0.275260  0.632030  0.060790  1.0  -0.4598
  N  N832  1  0.346270  0.624630  0.055680  1.0  -0.3978
  N  N833  1  0.172700  0.589950  0.993050  1.0  -0.4481
  N  N834  1  0.116740  0.563030  0.955150  1.0  -0.195
  N  N835  1  0.405740  0.833370  0.997270  1.0  -0.4519
  N  N836  1  0.400540  0.808810  0.915190  1.0  -0.4091
  N  N837  1  0.428760  0.867970  0.143230  1.0  -0.4594
  N  N838  1  0.431050  0.875370  0.221640  1.0  -0.3972
  N  N839  1  0.403100  0.910050  0.082750  1.0  -0.445
  N  N840  1  0.392120  0.936970  0.053710  1.0  -0.1983
  N  N841  1  0.833370  0.497270  0.905740  1.0  -0.4504
  N  N842  1  0.808810  0.415190  0.900540  1.0  -0.4095
  N  N843  1  0.867970  0.643230  0.928760  1.0  -0.4605
  N  N844  1  0.875370  0.721640  0.931050  1.0  -0.3988
  N  N845  1  0.910050  0.582750  0.903100  1.0  -0.4475
  N  N846  1  0.936970  0.553710  0.892120  1.0  -0.1935
  N  N847  1  0.666667  0.572370  0.663900  1.0  -0.4521
  N  N848  1  0.691190  0.591730  0.606380  1.0  -0.405
  N  N849  1  0.632030  0.560790  0.775260  1.0  -0.4571
  N  N850  1  0.624630  0.555680  0.846270  1.0  -0.398
  N  N851  1  0.589950  0.493050  0.672700  1.0  -0.4414
  N  N852  1  0.563030  0.455150  0.616740  1.0  -0.197
  N  N853  1  0.408470  0.002730  0.836100  1.0  -0.4536
  N  N854  1  0.485350  0.084810  0.893620  1.0  -0.4097
  N  N855  1  0.285530  0.856770  0.724740  1.0  -0.4619
  N  N856  1  0.209410  0.778360  0.653730  1.0  -0.3978
  N  N857  1  0.320350  0.917250  0.827300  1.0  -0.444
  N  N858  1  0.338410  0.946290  0.883260  1.0  -0.1992
  N  N859  1  0.091530  0.927630  0.594260  1.0  -0.4535
  N  N860  1  0.014650  0.908270  0.599460  1.0  -0.407
  N  N861  1  0.214470  0.939210  0.571240  1.0  -0.459
  N  N862  1  0.290590  0.944320  0.568950  1.0  -0.3976
  N  N863  1  0.179650  0.006950  0.596900  1.0  -0.4408
  N  N864  1  0.161590  0.044850  0.607880  1.0  -0.1948
  N  N865  1  0.663900  0.072370  0.666667  1.0  -0.4529
  N  N866  1  0.606380  0.091730  0.691190  1.0  -0.4061
  N  N867  1  0.775260  0.060790  0.632030  1.0  -0.4586
  N  N868  1  0.846270  0.055680  0.624630  1.0  -0.3977
  N  N869  1  0.672700  0.993050  0.589950  1.0  -0.4427
  N  N870  1  0.616740  0.955150  0.563030  1.0  -0.1951
  N  N871  1  0.905740  0.997270  0.833370  1.0  -0.4526
  N  N872  1  0.900540  0.915190  0.808810  1.0  -0.4096
  N  N873  1  0.928760  0.143230  0.867970  1.0  -0.4603
  N  N874  1  0.931050  0.221640  0.875370  1.0  -0.3974
  N  N875  1  0.903100  0.082750  0.910050  1.0  -0.4445
  N  N876  1  0.892120  0.053710  0.936970  1.0  -0.198
  N  N877  1  0.594260  0.427630  0.091530  1.0  -0.4525
  N  N878  1  0.599460  0.408270  0.014650  1.0  -0.4061
  N  N879  1  0.571240  0.439210  0.214470  1.0  -0.4577
  N  N880  1  0.568950  0.444320  0.290590  1.0  -0.3982
  N  N881  1  0.596900  0.506950  0.179650  1.0  -0.4405
  N  N882  1  0.607880  0.544850  0.161590  1.0  -0.1958
  N  N883  1  0.836100  0.502730  0.408470  1.0  -0.4511
  N  N884  1  0.893620  0.584810  0.485350  1.0  -0.4097
  N  N885  1  0.724740  0.356770  0.285530  1.0  -0.4618
  N  N886  1  0.653730  0.278360  0.209410  1.0  -0.3986
  N  N887  1  0.827300  0.417250  0.320350  1.0  -0.447
  N  N888  1  0.883260  0.446290  0.338410  1.0  -0.1952
  N  N889  1  0.591530  0.594260  0.927630  1.0  -0.4565
  N  N890  1  0.514650  0.599460  0.908270  1.0  -0.4074
  N  N891  1  0.714470  0.571240  0.939210  1.0  -0.4591
  N  N892  1  0.790590  0.568950  0.944320  1.0  -0.3985
  N  N893  1  0.679650  0.596900  0.006950  1.0  -0.4423
  N  N894  1  0.661590  0.607880  0.044850  1.0  -0.199
  N  N895  1  0.908470  0.836100  0.002730  1.0  -0.4517
  N  N896  1  0.985350  0.893620  0.084810  1.0  -0.4066
  N  N897  1  0.785530  0.724740  0.856770  1.0  -0.4599
  N  N898  1  0.709410  0.653730  0.778360  1.0  -0.3982
  N  N899  1  0.820350  0.827300  0.917250  1.0  -0.4461
  N  N900  1  0.838410  0.883260  0.946290  1.0  -0.1969
  N  N901  1  0.166630  0.663900  0.572370  1.0  -0.453
  N  N902  1  0.191190  0.606380  0.591730  1.0  -0.408
  N  N903  1  0.132030  0.775260  0.560790  1.0  -0.4595
  N  N904  1  0.124630  0.846270  0.555680  1.0  -0.3998
  N  N905  1  0.089950  0.672700  0.493050  1.0  -0.4463
  N  N906  1  0.063030  0.616740  0.455150  1.0  -0.193
  N  N907  1  0.333370  0.905740  0.497270  1.0  -0.4531
  N  N908  1  0.308810  0.900540  0.415190  1.0  -0.4081
  N  N909  1  0.367970  0.928760  0.643230  1.0  -0.4578
  N  N910  1  0.375370  0.931050  0.721640  1.0  -0.3985
  N  N911  1  0.410050  0.903100  0.582750  1.0  -0.4429
  N  N912  1  0.436970  0.892120  0.553710  1.0  -0.199
  N  N913  1  0.997270  0.333370  0.405740  1.0  -0.4542
  N  N914  1  0.915190  0.308810  0.400540  1.0  -0.4095
  N  N915  1  0.143230  0.367970  0.428760  1.0  -0.4601
  N  N916  1  0.221640  0.375370  0.431050  1.0  -0.3973
  N  N917  1  0.082750  0.410050  0.403100  1.0  -0.4481
  N  N918  1  0.053710  0.436970  0.392120  1.0  -0.1945
  N  N919  1  0.072370  0.166630  0.163900  1.0  -0.4528
  N  N920  1  0.091730  0.191190  0.106380  1.0  -0.4084
  N  N921  1  0.060790  0.132030  0.275260  1.0  -0.4593
  N  N922  1  0.055680  0.124630  0.346270  1.0  -0.3973
  N  N923  1  0.993050  0.089950  0.172700  1.0  -0.4446
  N  N924  1  0.955150  0.063030  0.116740  1.0  -0.1987
  N  N925  1  0.502730  0.908470  0.336100  1.0  -0.4563
  N  N926  1  0.584810  0.985350  0.393620  1.0  -0.4069
  N  N927  1  0.356770  0.785530  0.224740  1.0  -0.4569
  N  N928  1  0.278360  0.709410  0.153730  1.0  -0.3988
  N  N929  1  0.417250  0.820350  0.327300  1.0  -0.4448
  N  N930  1  0.446290  0.838410  0.383260  1.0  -0.2047
  N  N931  1  0.427630  0.591530  0.094260  1.0  -0.4506
  N  N932  1  0.408270  0.514650  0.099460  1.0  -0.408
  N  N933  1  0.439210  0.714470  0.071240  1.0  -0.4579
  N  N934  1  0.444320  0.790590  0.068950  1.0  -0.3987
  N  N935  1  0.506950  0.679650  0.096900  1.0  -0.4449
  N  N936  1  0.544850  0.661590  0.107880  1.0  -0.1995
  N  N937  1  0.427630  0.836100  0.833370  1.0  -0.4534
  N  N938  1  0.408270  0.893620  0.808810  1.0  -0.4056
  N  N939  1  0.439210  0.724740  0.867970  1.0  -0.4606
  N  N940  1  0.444320  0.653730  0.875370  1.0  -0.3982
  N  N941  1  0.506950  0.827300  0.910050  1.0  -0.4459
  N  N942  1  0.544850  0.883260  0.936970  1.0  -0.1968
  N  N943  1  0.502730  0.594260  0.666667  1.0  -0.4559
  N  N944  1  0.584810  0.599460  0.691190  1.0  -0.4082
  N  N945  1  0.356770  0.571240  0.632030  1.0  -0.4595
  N  N946  1  0.278360  0.568950  0.624630  1.0  -0.3988
  N  N947  1  0.417250  0.596900  0.589950  1.0  -0.4404
  N  N948  1  0.446290  0.607880  0.563030  1.0  -0.2004
  N  N949  1  0.072370  0.905740  0.408470  1.0  -0.4547
  N  N950  1  0.091730  0.900540  0.485350  1.0  -0.407
  N  N951  1  0.060790  0.928760  0.285530  1.0  -0.4559
  N  N952  1  0.055680  0.931050  0.209410  1.0  -0.3985
  N  N953  1  0.993050  0.903100  0.320350  1.0  -0.4445
  N  N954  1  0.955150  0.892120  0.338410  1.0  -0.1991
  N  N955  1  0.997270  0.663900  0.091530  1.0  -0.4546
  N  N956  1  0.915190  0.606380  0.014650  1.0  -0.4084
  N  N957  1  0.143230  0.775260  0.214470  1.0  -0.461
  N  N958  1  0.221640  0.846270  0.290590  1.0  -0.3998
  N  N959  1  0.082750  0.672700  0.179650  1.0  -0.4421
  N  N960  1  0.053710  0.616740  0.161590  1.0  -0.1936
  N  N961  1  0.905740  0.908470  0.572370  1.0  -0.4549
  N  N962  1  0.900540  0.985350  0.591730  1.0  -0.4071
  N  N963  1  0.928760  0.785530  0.560790  1.0  -0.4575
  N  N964  1  0.931050  0.709410  0.555680  1.0  -0.3982
  N  N965  1  0.903100  0.820350  0.493050  1.0  -0.4449
  N  N966  1  0.892120  0.838410  0.455150  1.0  -0.202
  N  N967  1  0.663900  0.591530  0.497270  1.0  -0.4536
  N  N968  1  0.606380  0.514650  0.415190  1.0  -0.4082
  N  N969  1  0.775260  0.714470  0.643230  1.0  -0.4592
  N  N970  1  0.846270  0.790590  0.721640  1.0  -0.3985
  N  N971  1  0.672700  0.679650  0.582750  1.0  -0.4461
  N  N972  1  0.616740  0.661590  0.553710  1.0  -0.1974
  N  N973  1  0.836100  0.333370  0.927630  1.0  -0.4531
  N  N974  1  0.893620  0.308810  0.908270  1.0  -0.4094
  N  N975  1  0.724740  0.367970  0.939210  1.0  -0.4585
  N  N976  1  0.653730  0.375370  0.944320  1.0  -0.3967
  N  N977  1  0.827300  0.410050  0.006950  1.0  -0.4424
  N  N978  1  0.883260  0.436970  0.044850  1.0  -0.194
  N  N979  1  0.594260  0.166630  0.002730  1.0  -0.4552
  N  N980  1  0.599460  0.191190  0.084810  1.0  -0.4076
  N  N981  1  0.571240  0.132030  0.856770  1.0  -0.457
  N  N982  1  0.568950  0.124630  0.778360  1.0  -0.3977
  N  N983  1  0.596900  0.089950  0.917250  1.0  -0.4474
  N  N984  1  0.607880  0.063030  0.946290  1.0  -0.1974
  N  N985  1  0.166630  0.502730  0.094260  1.0  -0.4518
  N  N986  1  0.191190  0.584810  0.099460  1.0  -0.4089
  N  N987  1  0.132030  0.356770  0.071240  1.0  -0.4614
  N  N988  1  0.124630  0.278360  0.068950  1.0  -0.398
  N  N989  1  0.089950  0.417250  0.096900  1.0  -0.4434
  N  N990  1  0.063030  0.446290  0.107880  1.0  -0.1939
  N  N991  1  0.333370  0.427630  0.336100  1.0  -0.4537
  N  N992  1  0.308810  0.408270  0.393620  1.0  -0.4058
  N  N993  1  0.367970  0.439210  0.224740  1.0  -0.4576
  N  N994  1  0.375370  0.444320  0.153730  1.0  -0.3987
  N  N995  1  0.410050  0.506950  0.327300  1.0  -0.4416
  N  N996  1  0.436970  0.544850  0.383260  1.0  -0.1971
  N  N997  1  0.591530  0.997270  0.163900  1.0  -0.4528
  N  N998  1  0.514650  0.915190  0.106380  1.0  -0.4086
  N  N999  1  0.714470  0.143230  0.275260  1.0  -0.4615
  N  N1000  1  0.790590  0.221640  0.346270  1.0  -0.3981
  N  N1001  1  0.679650  0.082750  0.172700  1.0  -0.4439
  N  N1002  1  0.661590  0.053710  0.116740  1.0  -0.1992
  N  N1003  1  0.908470  0.072370  0.405740  1.0  -0.4536
  N  N1004  1  0.985350  0.091730  0.400540  1.0  -0.4062
  N  N1005  1  0.785530  0.060790  0.428760  1.0  -0.4587
  N  N1006  1  0.709410  0.055680  0.431050  1.0  -0.3974
  N  N1007  1  0.820350  0.993050  0.403100  1.0  -0.4438
  N  N1008  1  0.838410  0.955150  0.392120  1.0  -0.1969
