# generated using pymatgen
data_ZnH6(C4N3)2
_symmetry_space_group_name_H-M   'P 1'
_cell_length_a   30.00530000
_cell_length_b   30.00530000
_cell_length_c   30.00530000
_cell_angle_alpha   109.47100000
_cell_angle_beta   109.47100000
_cell_angle_gamma   109.47100000
_symmetry_Int_Tables_number   1
_chemical_formula_structural   ZnH6(C4N3)2
_chemical_formula_sum   'Zn48 H288 C384 N288'
_cell_volume   20795.79735331
_cell_formula_units_Z   48
loop_
 _symmetry_equiv_pos_site_id
 _symmetry_equiv_pos_as_xyz
  1  'x, y, z'
loop_
 _atom_site_type_symbol
 _atom_site_label
 _atom_site_symmetry_multiplicity
 _atom_site_fract_x
 _atom_site_fract_y
 _atom_site_fract_z
 _atom_site_occupancy
 _atom_site_charge
  Zn  Zn1  1  0.916070  0.056260  0.638030  1.0  0.7563
  Zn  Zn2  1  0.918230  0.278040  0.861970  1.0  0.7573
  Zn  Zn3  1  0.581770  0.443740  0.359810  1.0  0.7586
  Zn  Zn4  1  0.583930  0.221960  0.140190  1.0  0.7586
  Zn  Zn5  1  0.859810  0.581770  0.943740  1.0  0.7568
  Zn  Zn6  1  0.640190  0.583930  0.721960  1.0  0.7565
  Zn  Zn7  1  0.138030  0.916070  0.556260  1.0  0.758
  Zn  Zn8  1  0.361970  0.918230  0.778040  1.0  0.7567
  Zn  Zn9  1  0.278040  0.361970  0.418230  1.0  0.7617
  Zn  Zn10  1  0.056260  0.138030  0.416070  1.0  0.7581
  Zn  Zn11  1  0.221960  0.640190  0.083930  1.0  0.7598
  Zn  Zn12  1  0.443740  0.859810  0.081770  1.0  0.7568
  Zn  Zn13  1  0.443740  0.583930  0.861970  1.0  0.7567
  Zn  Zn14  1  0.221960  0.581770  0.638030  1.0  0.7567
  Zn  Zn15  1  0.056260  0.918230  0.140190  1.0  0.7561
  Zn  Zn16  1  0.278040  0.916070  0.359810  1.0  0.7579
  Zn  Zn17  1  0.918230  0.640190  0.556260  1.0  0.7611
  Zn  Zn18  1  0.916070  0.859810  0.778040  1.0  0.7569
  Zn  Zn19  1  0.583930  0.361970  0.943740  1.0  0.7593
  Zn  Zn20  1  0.581770  0.138030  0.721960  1.0  0.7582
  Zn  Zn21  1  0.138030  0.221960  0.081770  1.0  0.7588
  Zn  Zn22  1  0.361970  0.443740  0.083930  1.0  0.7604
  Zn  Zn23  1  0.859810  0.278040  0.416070  1.0  0.7578
  Zn  Zn24  1  0.640190  0.056260  0.418230  1.0  0.7574
  Zn  Zn25  1  0.083930  0.943740  0.361970  1.0  0.7569
  Zn  Zn26  1  0.081770  0.721960  0.138030  1.0  0.7582
  Zn  Zn27  1  0.418230  0.556260  0.640190  1.0  0.7607
  Zn  Zn28  1  0.416070  0.778040  0.859810  1.0  0.7584
  Zn  Zn29  1  0.140190  0.418230  0.056260  1.0  0.7565
  Zn  Zn30  1  0.359810  0.416070  0.278040  1.0  0.7567
  Zn  Zn31  1  0.861970  0.083930  0.443740  1.0  0.7578
  Zn  Zn32  1  0.638030  0.081770  0.221960  1.0  0.7563
  Zn  Zn33  1  0.721960  0.638030  0.581770  1.0  0.7599
  Zn  Zn34  1  0.943740  0.861970  0.583930  1.0  0.7575
  Zn  Zn35  1  0.778040  0.359810  0.916070  1.0  0.7608
  Zn  Zn36  1  0.556260  0.140190  0.918230  1.0  0.757
  Zn  Zn37  1  0.556260  0.416070  0.138030  1.0  0.7567
  Zn  Zn38  1  0.778040  0.418230  0.361970  1.0  0.7567
  Zn  Zn39  1  0.943740  0.081770  0.859810  1.0  0.7568
  Zn  Zn40  1  0.721960  0.083930  0.640190  1.0  0.758
  Zn  Zn41  1  0.081770  0.359810  0.443740  1.0  0.7595
  Zn  Zn42  1  0.083930  0.140190  0.221960  1.0  0.7573
  Zn  Zn43  1  0.416070  0.638030  0.056260  1.0  0.7623
  Zn  Zn44  1  0.418230  0.861970  0.278040  1.0  0.7576
  Zn  Zn45  1  0.861970  0.778040  0.918230  1.0  0.7581
  Zn  Zn46  1  0.638030  0.556260  0.916070  1.0  0.759
  Zn  Zn47  1  0.140190  0.721960  0.583930  1.0  0.7577
  Zn  Zn48  1  0.359810  0.943740  0.581770  1.0  0.7562
  H  H49  1  0.856400  0.079900  0.545500  1.0  0.0606
  H  H50  1  0.985100  0.121300  0.530000  1.0  0.0873
  H  H51  1  0.887400  0.059100  0.734900  1.0  0.0378
  H  H52  1  0.035800  0.097500  0.824500  1.0  0.0789
  H  H53  1  0.050500  0.123200  0.604300  1.0  0.0904
  H  H54  1  0.069900  0.123000  0.746100  1.0  0.0772
  H  H55  1  0.034400  0.310900  0.954500  1.0  0.0609
  H  H56  1  0.091300  0.455100  0.970000  1.0  0.0874
  H  H57  1  0.824200  0.152500  0.765100  1.0  0.0384
  H  H58  1  0.773000  0.211300  0.675500  1.0  0.0803
  H  H59  1  0.018900  0.446200  0.895700  1.0  0.0929
  H  H60  1  0.876900  0.323800  0.753900  1.0  0.0776
  H  H61  1  0.465600  0.420100  0.276500  1.0  0.0615
  H  H62  1  0.408700  0.378700  0.363800  1.0  0.0857
  H  H63  1  0.675800  0.440900  0.328300  1.0  0.0371
  H  H64  1  0.727000  0.402500  0.438300  1.0  0.0809
  H  H65  1  0.481100  0.376800  0.427300  1.0  0.093
  H  H66  1  0.623100  0.377000  0.446900  1.0  0.0779
  H  H67  1  0.643600  0.189100  0.223500  1.0  0.0626
  H  H68  1  0.514900  0.044900  0.136200  1.0  0.088
  H  H69  1  0.612600  0.347500  0.171700  1.0  0.0384
  H  H70  1  0.464200  0.288700  0.061700  1.0  0.0789
  H  H71  1  0.449500  0.053800  0.072700  1.0  0.0925
  H  H72  1  0.430100  0.176200  0.053100  1.0  0.0771
  H  H73  1  0.776500  0.465600  0.920100  1.0  0.0599
  H  H74  1  0.863800  0.408700  0.878700  1.0  0.0871
  H  H75  1  0.828300  0.675800  0.940900  1.0  0.0365
  H  H76  1  0.938300  0.727000  0.902500  1.0  0.079
  H  H77  1  0.927300  0.481100  0.876800  1.0  0.0929
  H  H78  1  0.946900  0.623100  0.877000  1.0  0.0773
  H  H79  1  0.723500  0.643600  0.689100  1.0  0.0618
  H  H80  1  0.636200  0.514900  0.544900  1.0  0.0865
  H  H81  1  0.671700  0.612600  0.847500  1.0  0.0377
  H  H82  1  0.561700  0.464200  0.788700  1.0  0.0807
  H  H83  1  0.572700  0.449500  0.553800  1.0  0.0913
  H  H84  1  0.553100  0.430100  0.676200  1.0  0.0781
  H  H85  1  0.045500  0.856400  0.579900  1.0  0.0631
  H  H86  1  0.030000  0.985100  0.621300  1.0  0.0864
  H  H87  1  0.234900  0.887400  0.559100  1.0  0.0391
  H  H88  1  0.324500  0.035800  0.597500  1.0  0.0812
  H  H89  1  0.104300  0.050500  0.623200  1.0  0.0914
  H  H90  1  0.246100  0.069900  0.623000  1.0  0.0772
  H  H91  1  0.454500  0.034400  0.810900  1.0  0.0624
  H  H92  1  0.470000  0.091300  0.955100  1.0  0.0849
  H  H93  1  0.265100  0.824200  0.652500  1.0  0.0373
  H  H94  1  0.175500  0.773000  0.711300  1.0  0.0795
  H  H95  1  0.395700  0.018900  0.946200  1.0  0.093
  H  H96  1  0.253900  0.876900  0.823800  1.0  0.0782
  H  H97  1  0.310900  0.454500  0.534400  1.0  0.0622
  H  H98  1  0.455100  0.470000  0.591300  1.0  0.0872
  H  H99  1  0.152500  0.265100  0.324200  1.0  0.0386
  H  H100  1  0.211300  0.175500  0.273000  1.0  0.0784
  H  H101  1  0.446200  0.395700  0.518900  1.0  0.0939
  H  H102  1  0.323800  0.253900  0.376900  1.0  0.0783
  H  H103  1  0.079900  0.045500  0.356400  1.0  0.0622
  H  H104  1  0.121300  0.030000  0.485100  1.0  0.0861
  H  H105  1  0.059100  0.234900  0.387400  1.0  0.0375
  H  H106  1  0.097500  0.324500  0.535800  1.0  0.0792
  H  H107  1  0.123200  0.104300  0.550500  1.0  0.0908
  H  H108  1  0.123000  0.246100  0.569900  1.0  0.0776
  H  H109  1  0.189100  0.723500  0.143600  1.0  0.062
  H  H110  1  0.044900  0.636200  0.014900  1.0  0.0871
  H  H111  1  0.347500  0.671700  0.112600  1.0  0.0376
  H  H112  1  0.288700  0.561700  0.964200  1.0  0.0788
  H  H113  1  0.053800  0.572700  0.949500  1.0  0.0931
  H  H114  1  0.176200  0.553100  0.930100  1.0  0.0774
  H  H115  1  0.420100  0.776500  0.965600  1.0  0.0619
  H  H116  1  0.378700  0.863800  0.908700  1.0  0.0875
  H  H117  1  0.440900  0.828300  0.175800  1.0  0.036
  H  H118  1  0.402500  0.938300  0.227000  1.0  0.0794
  H  H119  1  0.376800  0.927300  0.981100  1.0  0.0928
  H  H120  1  0.377000  0.946900  0.123100  1.0  0.077
  H  H121  1  0.420100  0.643600  0.954500  1.0  0.0617
  H  H122  1  0.378700  0.514900  0.970000  1.0  0.0862
  H  H123  1  0.440900  0.612600  0.765100  1.0  0.0379
  H  H124  1  0.402500  0.464200  0.675500  1.0  0.0811
  H  H125  1  0.376800  0.449500  0.895700  1.0  0.0904
  H  H126  1  0.377000  0.430100  0.753900  1.0  0.0779
  H  H127  1  0.189100  0.465600  0.545500  1.0  0.0612
  H  H128  1  0.044900  0.408700  0.530000  1.0  0.087
  H  H129  1  0.347500  0.675800  0.734900  1.0  0.0369
  H  H130  1  0.288700  0.727000  0.824500  1.0  0.0795
  H  H131  1  0.053800  0.481100  0.604300  1.0  0.0928
  H  H132  1  0.176200  0.623100  0.746100  1.0  0.0779
  H  H133  1  0.079900  0.034400  0.223500  1.0  0.0622
  H  H134  1  0.121300  0.091300  0.136200  1.0  0.0858
  H  H135  1  0.059100  0.824200  0.171700  1.0  0.0371
  H  H136  1  0.097500  0.773000  0.061700  1.0  0.0793
  H  H137  1  0.123200  0.018900  0.072700  1.0  0.0929
  H  H138  1  0.123000  0.876900  0.053100  1.0  0.0779
  H  H139  1  0.310900  0.856400  0.276500  1.0  0.0629
  H  H140  1  0.455100  0.985100  0.363800  1.0  0.0865
  H  H141  1  0.152500  0.887400  0.328300  1.0  0.0396
  H  H142  1  0.211300  0.035800  0.438300  1.0  0.081
  H  H143  1  0.446200  0.050500  0.427300  1.0  0.0923
  H  H144  1  0.323800  0.069900  0.446900  1.0  0.0764
  H  H145  1  0.034400  0.723500  0.579900  1.0  0.0629
  H  H146  1  0.091300  0.636200  0.621300  1.0  0.0876
  H  H147  1  0.824200  0.671700  0.559100  1.0  0.0375
  H  H148  1  0.773000  0.561700  0.597500  1.0  0.0794
  H  H149  1  0.018900  0.572700  0.623200  1.0  0.0922
  H  H150  1  0.876900  0.553100  0.623000  1.0  0.0776
  H  H151  1  0.856400  0.776500  0.810900  1.0  0.0618
  H  H152  1  0.985100  0.863800  0.955100  1.0  0.0871
  H  H153  1  0.887400  0.828300  0.652500  1.0  0.0364
  H  H154  1  0.035800  0.938300  0.711300  1.0  0.0795
  H  H155  1  0.050500  0.927300  0.946200  1.0  0.0922
  H  H156  1  0.069900  0.946900  0.823800  1.0  0.0778
  H  H157  1  0.643600  0.454500  0.920100  1.0  0.0621
  H  H158  1  0.514900  0.470000  0.878700  1.0  0.0868
  H  H159  1  0.612600  0.265100  0.940900  1.0  0.0379
  H  H160  1  0.464200  0.175500  0.902500  1.0  0.0782
  H  H161  1  0.449500  0.395700  0.876800  1.0  0.0907
  H  H162  1  0.430100  0.253900  0.877000  1.0  0.0779
  H  H163  1  0.465600  0.045500  0.689100  1.0  0.0618
  H  H164  1  0.408700  0.030000  0.544900  1.0  0.0867
  H  H165  1  0.675800  0.234900  0.847500  1.0  0.0371
  H  H166  1  0.727000  0.324500  0.788700  1.0  0.0785
  H  H167  1  0.481100  0.104300  0.553800  1.0  0.0925
  H  H168  1  0.623100  0.246100  0.676200  1.0  0.0777
  H  H169  1  0.045500  0.189100  0.965600  1.0  0.0626
  H  H170  1  0.030000  0.044900  0.908700  1.0  0.0877
  H  H171  1  0.234900  0.347500  0.175800  1.0  0.0378
  H  H172  1  0.324500  0.288700  0.227000  1.0  0.0798
  H  H173  1  0.104300  0.053800  0.981100  1.0  0.0913
  H  H174  1  0.246100  0.176200  0.123100  1.0  0.0767
  H  H175  1  0.454500  0.420100  0.143600  1.0  0.0611
  H  H176  1  0.470000  0.378700  0.014900  1.0  0.0863
  H  H177  1  0.265100  0.440900  0.112600  1.0  0.0368
  H  H178  1  0.175500  0.402500  0.964200  1.0  0.0798
  H  H179  1  0.395700  0.376800  0.949500  1.0  0.0921
  H  H180  1  0.253900  0.377000  0.930100  1.0  0.078
  H  H181  1  0.776500  0.310900  0.356400  1.0  0.0619
  H  H182  1  0.863800  0.455100  0.485100  1.0  0.0869
  H  H183  1  0.828300  0.152500  0.387400  1.0  0.0386
  H  H184  1  0.938300  0.211300  0.535800  1.0  0.0813
  H  H185  1  0.927300  0.446200  0.550500  1.0  0.0924
  H  H186  1  0.946900  0.323800  0.569900  1.0  0.0777
  H  H187  1  0.723500  0.079900  0.534400  1.0  0.0608
  H  H188  1  0.636200  0.121300  0.591300  1.0  0.0868
  H  H189  1  0.671700  0.059100  0.324200  1.0  0.0374
  H  H190  1  0.561700  0.097500  0.273000  1.0  0.0786
  H  H191  1  0.572700  0.123200  0.518900  1.0  0.0912
  H  H192  1  0.553100  0.123000  0.376900  1.0  0.077
  H  H193  1  0.143600  0.920100  0.454500  1.0  0.0607
  H  H194  1  0.014900  0.878700  0.470000  1.0  0.0866
  H  H195  1  0.112600  0.940900  0.265100  1.0  0.0381
  H  H196  1  0.964200  0.902500  0.175500  1.0  0.0779
  H  H197  1  0.949500  0.876800  0.395700  1.0  0.0905
  H  H198  1  0.930100  0.877000  0.253900  1.0  0.0774
  H  H199  1  0.965600  0.689100  0.045500  1.0  0.0626
  H  H200  1  0.908700  0.544900  0.030000  1.0  0.0871
  H  H201  1  0.175800  0.847500  0.234900  1.0  0.0384
  H  H202  1  0.227000  0.788700  0.324500  1.0  0.0815
  H  H203  1  0.981100  0.553800  0.104300  1.0  0.0929
  H  H204  1  0.123100  0.676200  0.246100  1.0  0.0778
  H  H205  1  0.534400  0.579900  0.723500  1.0  0.0608
  H  H206  1  0.591300  0.621300  0.636200  1.0  0.0866
  H  H207  1  0.324200  0.559100  0.671700  1.0  0.0368
  H  H208  1  0.273000  0.597500  0.561700  1.0  0.0804
  H  H209  1  0.518900  0.623200  0.572700  1.0  0.0933
  H  H210  1  0.376900  0.623000  0.553100  1.0  0.0773
  H  H211  1  0.356400  0.810900  0.776500  1.0  0.062
  H  H212  1  0.485100  0.955100  0.863800  1.0  0.0878
  H  H213  1  0.387400  0.652500  0.828300  1.0  0.0378
  H  H214  1  0.535800  0.711300  0.938300  1.0  0.0795
  H  H215  1  0.550500  0.946200  0.927300  1.0  0.0914
  H  H216  1  0.569900  0.823800  0.946900  1.0  0.0774
  H  H217  1  0.223500  0.534400  0.079900  1.0  0.0612
  H  H218  1  0.136200  0.591300  0.121300  1.0  0.0868
  H  H219  1  0.171700  0.324200  0.059100  1.0  0.0366
  H  H220  1  0.061700  0.273000  0.097500  1.0  0.0795
  H  H221  1  0.072700  0.518900  0.123200  1.0  0.0928
  H  H222  1  0.053100  0.376900  0.123000  1.0  0.0777
  H  H223  1  0.276500  0.356400  0.310900  1.0  0.0618
  H  H224  1  0.363800  0.485100  0.455100  1.0  0.0863
  H  H225  1  0.328300  0.387400  0.152500  1.0  0.0384
  H  H226  1  0.438300  0.535800  0.211300  1.0  0.0813
  H  H227  1  0.427300  0.550500  0.446200  1.0  0.0916
  H  H228  1  0.446900  0.569900  0.323800  1.0  0.0766
  H  H229  1  0.954500  0.143600  0.420100  1.0  0.0627
  H  H230  1  0.970000  0.014900  0.378700  1.0  0.086
  H  H231  1  0.765100  0.112600  0.440900  1.0  0.0388
  H  H232  1  0.675500  0.964200  0.402500  1.0  0.081
  H  H233  1  0.895700  0.949500  0.376800  1.0  0.0905
  H  H234  1  0.753900  0.930100  0.377000  1.0  0.0786
  H  H235  1  0.545500  0.965600  0.189100  1.0  0.0622
  H  H236  1  0.530000  0.908700  0.044900  1.0  0.0859
  H  H237  1  0.734900  0.175800  0.347500  1.0  0.0372
  H  H238  1  0.824500  0.227000  0.288700  1.0  0.0794
  H  H239  1  0.604300  0.981100  0.053800  1.0  0.093
  H  H240  1  0.746100  0.123100  0.176200  1.0  0.078
  H  H241  1  0.689100  0.545500  0.465600  1.0  0.062
  H  H242  1  0.544900  0.530000  0.408700  1.0  0.0867
  H  H243  1  0.847500  0.734900  0.675800  1.0  0.0377
  H  H244  1  0.788700  0.824500  0.727000  1.0  0.0788
  H  H245  1  0.553800  0.604300  0.481100  1.0  0.0921
  H  H246  1  0.676200  0.746100  0.623100  1.0  0.0773
  H  H247  1  0.920100  0.954500  0.643600  1.0  0.062
  H  H248  1  0.878700  0.970000  0.514900  1.0  0.0867
  H  H249  1  0.940900  0.765100  0.612600  1.0  0.0371
  H  H250  1  0.902500  0.675500  0.464200  1.0  0.0777
  H  H251  1  0.876800  0.895700  0.449500  1.0  0.0912
  H  H252  1  0.877000  0.753900  0.430100  1.0  0.0781
  H  H253  1  0.810900  0.276500  0.856400  1.0  0.0628
  H  H254  1  0.955100  0.363800  0.985100  1.0  0.0875
  H  H255  1  0.652500  0.328300  0.887400  1.0  0.0379
  H  H256  1  0.711300  0.438300  0.035800  1.0  0.0799
  H  H257  1  0.946200  0.427300  0.050500  1.0  0.0929
  H  H258  1  0.823800  0.446900  0.069900  1.0  0.0776
  H  H259  1  0.579900  0.223500  0.034400  1.0  0.0625
  H  H260  1  0.621300  0.136200  0.091300  1.0  0.0872
  H  H261  1  0.559100  0.171700  0.824200  1.0  0.0368
  H  H262  1  0.597500  0.061700  0.773000  1.0  0.0786
  H  H263  1  0.623200  0.072700  0.018900  1.0  0.0917
  H  H264  1  0.623000  0.053100  0.876900  1.0  0.0768
  H  H265  1  0.579900  0.356400  0.045500  1.0  0.0622
  H  H266  1  0.621300  0.485100  0.030000  1.0  0.0867
  H  H267  1  0.559100  0.387400  0.234900  1.0  0.0376
  H  H268  1  0.597500  0.535800  0.324500  1.0  0.0807
  H  H269  1  0.623200  0.550500  0.104300  1.0  0.0905
  H  H270  1  0.623000  0.569900  0.246100  1.0  0.0757
  H  H271  1  0.810900  0.534400  0.454500  1.0  0.0599
  H  H272  1  0.955100  0.591300  0.470000  1.0  0.087
  H  H273  1  0.652500  0.324200  0.265100  1.0  0.0364
  H  H274  1  0.711300  0.273000  0.175500  1.0  0.079
  H  H275  1  0.946200  0.518900  0.395700  1.0  0.0935
  H  H276  1  0.823800  0.376900  0.253900  1.0  0.0771
  H  H277  1  0.920100  0.965600  0.776500  1.0  0.0623
  H  H278  1  0.878700  0.908700  0.863800  1.0  0.0853
  H  H279  1  0.940900  0.175800  0.828300  1.0  0.0376
  H  H280  1  0.902500  0.227000  0.938300  1.0  0.0794
  H  H281  1  0.876800  0.981100  0.927300  1.0  0.0919
  H  H282  1  0.877000  0.123100  0.946900  1.0  0.0784
  H  H283  1  0.689100  0.143600  0.723500  1.0  0.0629
  H  H284  1  0.544900  0.014900  0.636200  1.0  0.0866
  H  H285  1  0.847500  0.112600  0.671700  1.0  0.0396
  H  H286  1  0.788700  0.964200  0.561700  1.0  0.0813
  H  H287  1  0.553800  0.949500  0.572700  1.0  0.0928
  H  H288  1  0.676200  0.930100  0.553100  1.0  0.0788
  H  H289  1  0.965600  0.276500  0.420100  1.0  0.0618
  H  H290  1  0.908700  0.363800  0.378700  1.0  0.087
  H  H291  1  0.175800  0.328300  0.440900  1.0  0.0374
  H  H292  1  0.227000  0.438300  0.402500  1.0  0.0798
  H  H293  1  0.981100  0.427300  0.376800  1.0  0.0934
  H  H294  1  0.123100  0.446900  0.377000  1.0  0.0778
  H  H295  1  0.143600  0.223500  0.189100  1.0  0.0618
  H  H296  1  0.014900  0.136200  0.044900  1.0  0.0875
  H  H297  1  0.112600  0.171700  0.347500  1.0  0.0366
  H  H298  1  0.964200  0.061700  0.288700  1.0  0.0785
  H  H299  1  0.949500  0.072700  0.053800  1.0  0.0927
  H  H300  1  0.930100  0.053100  0.176200  1.0  0.0772
  H  H301  1  0.356400  0.545500  0.079900  1.0  0.0622
  H  H302  1  0.485100  0.530000  0.121300  1.0  0.0867
  H  H303  1  0.387400  0.734900  0.059100  1.0  0.0384
  H  H304  1  0.535800  0.824500  0.097500  1.0  0.079
  H  H305  1  0.550500  0.604300  0.123200  1.0  0.0909
  H  H306  1  0.569900  0.746100  0.123000  1.0  0.078
  H  H307  1  0.534400  0.954500  0.310900  1.0  0.062
  H  H308  1  0.591300  0.970000  0.455100  1.0  0.0866
  H  H309  1  0.324200  0.765100  0.152500  1.0  0.0378
  H  H310  1  0.273000  0.675500  0.211300  1.0  0.0791
  H  H311  1  0.518900  0.895700  0.446200  1.0  0.093
  H  H312  1  0.376900  0.753900  0.323800  1.0  0.0779
  H  H313  1  0.954500  0.810900  0.034400  1.0  0.0624
  H  H314  1  0.970000  0.955100  0.091300  1.0  0.0874
  H  H315  1  0.765100  0.652500  0.824200  1.0  0.0376
  H  H316  1  0.675500  0.711300  0.773000  1.0  0.0792
  H  H317  1  0.895700  0.946200  0.018900  1.0  0.0924
  H  H318  1  0.753900  0.823800  0.876900  1.0  0.0769
  H  H319  1  0.545500  0.579900  0.856400  1.0  0.0614
  H  H320  1  0.530000  0.621300  0.985100  1.0  0.0859
  H  H321  1  0.734900  0.559100  0.887400  1.0  0.0367
  H  H322  1  0.824500  0.597500  0.035800  1.0  0.0812
  H  H323  1  0.604300  0.623200  0.050500  1.0  0.0923
  H  H324  1  0.746100  0.623000  0.069900  1.0  0.0776
  H  H325  1  0.223500  0.689100  0.643600  1.0  0.0615
  H  H326  1  0.136200  0.544900  0.514900  1.0  0.0874
  H  H327  1  0.171700  0.847500  0.612600  1.0  0.0388
  H  H328  1  0.061700  0.788700  0.464200  1.0  0.0799
  H  H329  1  0.072700  0.553800  0.449500  1.0  0.0928
  H  H330  1  0.053100  0.676200  0.430100  1.0  0.0772
  H  H331  1  0.276500  0.920100  0.465600  1.0  0.0608
  H  H332  1  0.363800  0.878700  0.408700  1.0  0.0869
  H  H333  1  0.328300  0.940900  0.675800  1.0  0.0376
  H  H334  1  0.438300  0.902500  0.727000  1.0  0.0785
  H  H335  1  0.427300  0.876800  0.481100  1.0  0.0917
  H  H336  1  0.446900  0.877000  0.623100  1.0  0.0773
  C  C337  1  0.974110  0.106580  0.588010  1.0  0.0866
  C  C338  1  0.891710  0.089230  0.552040  1.0  0.2447
  C  C339  1  0.961380  0.111710  0.543010  1.0  0.019
  C  C340  1  0.923700  0.068220  0.746660  1.0  0.2488
  C  C341  1  0.003910  0.088750  0.795520  1.0  0.0403
  C  C342  1  0.999010  0.085400  0.747390  1.0  0.0379
  C  C343  1  0.027200  0.112700  0.617500  1.0  0.1252
  C  C344  1  0.032100  0.103300  0.724400  1.0  0.188
  C  C345  1  0.018570  0.386100  0.911990  1.0  0.0888
  C  C346  1  0.037190  0.339670  0.947960  1.0  0.2425
  C  C347  1  0.068700  0.418370  0.956990  1.0  0.014
  C  C348  1  0.821560  0.177040  0.753340  1.0  0.2477
  C  C349  1  0.793230  0.208390  0.704480  1.0  0.042
  C  C350  1  0.838010  0.251620  0.752610  1.0  0.0396
  C  C351  1  0.995200  0.409700  0.882500  1.0  0.1237
  C  C352  1  0.878900  0.307700  0.775600  1.0  0.1869
  C  C353  1  0.481430  0.393420  0.367530  1.0  0.0875
  C  C354  1  0.462810  0.410770  0.302480  1.0  0.2441
  C  C355  1  0.431300  0.388290  0.349670  1.0  0.0179
  C  C356  1  0.678440  0.431780  0.355480  1.0  0.2473
  C  C357  1  0.706770  0.411250  0.415160  1.0  0.0402
  C  C358  1  0.661990  0.414600  0.413610  1.0  0.0384
  C  C359  1  0.504800  0.387300  0.414500  1.0  0.1222
  C  C360  1  0.621100  0.396700  0.428800  1.0  0.185
  C  C361  1  0.525890  0.113900  0.132470  1.0  0.0908
  C  C362  1  0.608290  0.160330  0.197520  1.0  0.2401
  C  C363  1  0.538620  0.081630  0.150330  1.0  0.0153
  C  C364  1  0.576300  0.322960  0.144520  1.0  0.2483
  C  C365  1  0.496090  0.291610  0.084840  1.0  0.0405
  C  C366  1  0.500990  0.248380  0.086390  1.0  0.0388
  C  C367  1  0.472800  0.090300  0.085500  1.0  0.1264
  C  C368  1  0.467900  0.192300  0.071200  1.0  0.1869
  C  C369  1  0.867530  0.481430  0.893420  1.0  0.0901
  C  C370  1  0.802480  0.462810  0.910770  1.0  0.2434
  C  C371  1  0.849670  0.431300  0.888290  1.0  0.0163
  C  C372  1  0.855480  0.678440  0.931780  1.0  0.2492
  C  C373  1  0.915160  0.706770  0.911250  1.0  0.0409
  C  C374  1  0.913610  0.661990  0.914600  1.0  0.0393
  C  C375  1  0.914500  0.504800  0.887300  1.0  0.123
  C  C376  1  0.928800  0.621100  0.896700  1.0  0.1863
  C  C377  1  0.632470  0.525890  0.613900  1.0  0.0865
  C  C378  1  0.697520  0.608290  0.660330  1.0  0.2423
  C  C379  1  0.650330  0.538620  0.581630  1.0  0.019
  C  C380  1  0.644520  0.576300  0.822960  1.0  0.2463
  C  C381  1  0.584840  0.496090  0.791610  1.0  0.0382
  C  C382  1  0.586390  0.500990  0.748380  1.0  0.0383
  C  C383  1  0.585500  0.472800  0.590300  1.0  0.1248
  C  C384  1  0.571200  0.467900  0.692300  1.0  0.1881
  C  C385  1  0.088010  0.974110  0.606580  1.0  0.0876
  C  C386  1  0.052040  0.891710  0.589230  1.0  0.2432
  C  C387  1  0.043010  0.961380  0.611710  1.0  0.0158
  C  C388  1  0.246660  0.923700  0.568220  1.0  0.2451
  C  C389  1  0.295520  0.003910  0.588750  1.0  0.0379
  C  C390  1  0.247390  0.999010  0.585400  1.0  0.0354
  C  C391  1  0.117500  0.027200  0.612700  1.0  0.1234
  C  C392  1  0.224400  0.032100  0.603300  1.0  0.1883
  C  C393  1  0.411990  0.018570  0.886100  1.0  0.089
  C  C394  1  0.447960  0.037190  0.839670  1.0  0.2459
  C  C395  1  0.456990  0.068700  0.918370  1.0  0.0191
  C  C396  1  0.253340  0.821560  0.677040  1.0  0.2487
  C  C397  1  0.204480  0.793230  0.708390  1.0  0.0406
  C  C398  1  0.252610  0.838010  0.751620  1.0  0.0384
  C  C399  1  0.382500  0.995200  0.909700  1.0  0.1262
  C  C400  1  0.275600  0.878900  0.807700  1.0  0.1857
  C  C401  1  0.386100  0.411990  0.518570  1.0  0.0875
  C  C402  1  0.339670  0.447960  0.537190  1.0  0.2436
  C  C403  1  0.418370  0.456990  0.568700  1.0  0.0163
  C  C404  1  0.177040  0.253340  0.321560  1.0  0.2488
  C  C405  1  0.208390  0.204480  0.293230  1.0  0.0378
  C  C406  1  0.251620  0.252610  0.338010  1.0  0.0385
  C  C407  1  0.409700  0.382500  0.495200  1.0  0.1252
  C  C408  1  0.307700  0.275600  0.378900  1.0  0.1855
  C  C409  1  0.106580  0.088010  0.474110  1.0  0.0891
  C  C410  1  0.089230  0.052040  0.391710  1.0  0.2448
  C  C411  1  0.111710  0.043010  0.461380  1.0  0.0172
  C  C412  1  0.068220  0.246660  0.423700  1.0  0.2487
  C  C413  1  0.088750  0.295520  0.503910  1.0  0.0371
  C  C414  1  0.085400  0.247390  0.499010  1.0  0.0386
  C  C415  1  0.112700  0.117500  0.527200  1.0  0.1231
  C  C416  1  0.103300  0.224400  0.532100  1.0  0.1844
  C  C417  1  0.113900  0.632470  0.025890  1.0  0.0912
  C  C418  1  0.160330  0.697520  0.108290  1.0  0.2413
  C  C419  1  0.081630  0.650330  0.038620  1.0  0.0172
  C  C420  1  0.322960  0.644520  0.076300  1.0  0.2476
  C  C421  1  0.291610  0.584840  0.996090  1.0  0.0389
  C  C422  1  0.248380  0.586390  0.000990  1.0  0.0377
  C  C423  1  0.090300  0.585500  0.972800  1.0  0.1228
  C  C424  1  0.192300  0.571200  0.967900  1.0  0.1873
  C  C425  1  0.393420  0.867530  0.981430  1.0  0.0882
  C  C426  1  0.410770  0.802480  0.962810  1.0  0.241
  C  C427  1  0.388290  0.849670  0.931300  1.0  0.0201
  C  C428  1  0.431780  0.855480  0.178440  1.0  0.2485
  C  C429  1  0.411250  0.915160  0.206770  1.0  0.0392
  C  C430  1  0.414600  0.913610  0.161990  1.0  0.0376
  C  C431  1  0.387300  0.914500  0.004800  1.0  0.1241
  C  C432  1  0.396700  0.928800  0.121100  1.0  0.1875
  C  C433  1  0.393420  0.525890  0.911990  1.0  0.0871
  C  C434  1  0.410770  0.608290  0.947960  1.0  0.2423
  C  C435  1  0.388290  0.538620  0.956990  1.0  0.0195
  C  C436  1  0.431780  0.576300  0.753340  1.0  0.2456
  C  C437  1  0.411250  0.496090  0.704480  1.0  0.0379
  C  C438  1  0.414600  0.500990  0.752610  1.0  0.0415
  C  C439  1  0.387300  0.472800  0.882500  1.0  0.1248
  C  C440  1  0.396700  0.467900  0.775600  1.0  0.1888
  C  C441  1  0.113900  0.481430  0.588010  1.0  0.0898
  C  C442  1  0.160330  0.462810  0.552040  1.0  0.2442
  C  C443  1  0.081630  0.431300  0.543010  1.0  0.0159
  C  C444  1  0.322960  0.678440  0.746660  1.0  0.2492
  C  C445  1  0.291610  0.706770  0.795520  1.0  0.0392
  C  C446  1  0.248380  0.661990  0.747390  1.0  0.039
  C  C447  1  0.090300  0.504800  0.617500  1.0  0.1246
  C  C448  1  0.192300  0.621100  0.724400  1.0  0.1861
  C  C449  1  0.106580  0.018570  0.132470  1.0  0.0877
  C  C450  1  0.089230  0.037190  0.197520  1.0  0.2465
  C  C451  1  0.111710  0.068700  0.150330  1.0  0.0178
  C  C452  1  0.068220  0.821560  0.144520  1.0  0.2484
  C  C453  1  0.088750  0.793230  0.084840  1.0  0.0412
  C  C454  1  0.085400  0.838010  0.086390  1.0  0.0367
  C  C455  1  0.112700  0.995200  0.085500  1.0  0.1253
  C  C456  1  0.103300  0.878900  0.071200  1.0  0.1855
  C  C457  1  0.386100  0.974110  0.367530  1.0  0.0903
  C  C458  1  0.339670  0.891710  0.302480  1.0  0.2441
  C  C459  1  0.418370  0.961380  0.349670  1.0  0.0176
  C  C460  1  0.177040  0.923700  0.355480  1.0  0.2446
  C  C461  1  0.208390  0.003910  0.415160  1.0  0.038
  C  C462  1  0.251620  0.999010  0.413610  1.0  0.0374
  C  C463  1  0.409700  0.027200  0.414500  1.0  0.1239
  C  C464  1  0.307700  0.032100  0.428800  1.0  0.1909
  C  C465  1  0.018570  0.632470  0.606580  1.0  0.091
  C  C466  1  0.037190  0.697520  0.589230  1.0  0.2411
  C  C467  1  0.068700  0.650330  0.611710  1.0  0.0166
  C  C468  1  0.821560  0.644520  0.568220  1.0  0.2476
  C  C469  1  0.793230  0.584840  0.588750  1.0  0.0378
  C  C470  1  0.838010  0.586390  0.585400  1.0  0.0405
  C  C471  1  0.995200  0.585500  0.612700  1.0  0.124
  C  C472  1  0.878900  0.571200  0.603300  1.0  0.1859
  C  C473  1  0.974110  0.867530  0.886100  1.0  0.0866
  C  C474  1  0.891710  0.802480  0.839670  1.0  0.2401
  C  C475  1  0.961380  0.849670  0.918370  1.0  0.0199
  C  C476  1  0.923700  0.855480  0.677040  1.0  0.248
  C  C477  1  0.003910  0.915160  0.708390  1.0  0.0392
  C  C478  1  0.999010  0.913610  0.751620  1.0  0.0374
  C  C479  1  0.027200  0.914500  0.909700  1.0  0.1257
  C  C480  1  0.032100  0.928800  0.807700  1.0  0.1857
  C  C481  1  0.525890  0.411990  0.893420  1.0  0.0901
  C  C482  1  0.608290  0.447960  0.910770  1.0  0.243
  C  C483  1  0.538620  0.456990  0.888290  1.0  0.0166
  C  C484  1  0.576300  0.253340  0.931780  1.0  0.248
  C  C485  1  0.496090  0.204480  0.911250  1.0  0.0399
  C  C486  1  0.500990  0.252610  0.914600  1.0  0.0355
  C  C487  1  0.472800  0.382500  0.887300  1.0  0.1238
  C  C488  1  0.467900  0.275600  0.896700  1.0  0.1877
  C  C489  1  0.481430  0.088010  0.613900  1.0  0.0902
  C  C490  1  0.462810  0.052040  0.660330  1.0  0.246
  C  C491  1  0.431300  0.043010  0.581630  1.0  0.0161
  C  C492  1  0.678440  0.246660  0.822960  1.0  0.2498
  C  C493  1  0.706770  0.295520  0.791610  1.0  0.0383
  C  C494  1  0.661990  0.247390  0.748380  1.0  0.0362
  C  C495  1  0.504800  0.117500  0.590300  1.0  0.1233
  C  C496  1  0.621100  0.224400  0.692300  1.0  0.1856
  C  C497  1  0.088010  0.113900  0.981430  1.0  0.0887
  C  C498  1  0.052040  0.160330  0.962810  1.0  0.2409
  C  C499  1  0.043010  0.081630  0.931300  1.0  0.015
  C  C500  1  0.246660  0.322960  0.178440  1.0  0.2478
  C  C501  1  0.295520  0.291610  0.206770  1.0  0.0404
  C  C502  1  0.247390  0.248380  0.161990  1.0  0.0381
  C  C503  1  0.117500  0.090300  0.004800  1.0  0.1269
  C  C504  1  0.224400  0.192300  0.121100  1.0  0.186
  C  C505  1  0.411990  0.393420  0.025890  1.0  0.0889
  C  C506  1  0.447960  0.410770  0.108290  1.0  0.245
  C  C507  1  0.456990  0.388290  0.038620  1.0  0.0177
  C  C508  1  0.253340  0.431780  0.076300  1.0  0.2491
  C  C509  1  0.204480  0.411250  0.996090  1.0  0.041
  C  C510  1  0.252610  0.414600  0.000990  1.0  0.0366
  C  C511  1  0.382500  0.387300  0.972800  1.0  0.1227
  C  C512  1  0.275600  0.396700  0.967900  1.0  0.1856
  C  C513  1  0.867530  0.386100  0.474110  1.0  0.0902
  C  C514  1  0.802480  0.339670  0.391710  1.0  0.2423
  C  C515  1  0.849670  0.418370  0.461380  1.0  0.012
  C  C516  1  0.855480  0.177040  0.423700  1.0  0.2473
  C  C517  1  0.915160  0.208390  0.503910  1.0  0.0406
  C  C518  1  0.913610  0.251620  0.499010  1.0  0.0399
  C  C519  1  0.914500  0.409700  0.527200  1.0  0.1252
  C  C520  1  0.928800  0.307700  0.532100  1.0  0.1887
  C  C521  1  0.632470  0.106580  0.518570  1.0  0.0874
  C  C522  1  0.697520  0.089230  0.537190  1.0  0.2442
  C  C523  1  0.650330  0.111710  0.568700  1.0  0.0183
  C  C524  1  0.644520  0.068220  0.321560  1.0  0.2474
  C  C525  1  0.584840  0.088750  0.293230  1.0  0.0411
  C  C526  1  0.586390  0.085400  0.338010  1.0  0.0363
  C  C527  1  0.585500  0.112700  0.495200  1.0  0.1247
  C  C528  1  0.571200  0.103300  0.378900  1.0  0.188
  C  C529  1  0.025890  0.893420  0.411990  1.0  0.0872
  C  C530  1  0.108290  0.910770  0.447960  1.0  0.244
  C  C531  1  0.038620  0.888290  0.456990  1.0  0.0192
  C  C532  1  0.076300  0.931780  0.253340  1.0  0.2477
  C  C533  1  0.996090  0.911250  0.204480  1.0  0.04
  C  C534  1  0.000990  0.914600  0.252610  1.0  0.0366
  C  C535  1  0.972800  0.887300  0.382500  1.0  0.1249
  C  C536  1  0.967900  0.896700  0.275600  1.0  0.1878
  C  C537  1  0.981430  0.613900  0.088010  1.0  0.0905
  C  C538  1  0.962810  0.660330  0.052040  1.0  0.2416
  C  C539  1  0.931300  0.581630  0.043010  1.0  0.0128
  C  C540  1  0.178440  0.822960  0.246660  1.0  0.2472
  C  C541  1  0.206770  0.791610  0.295520  1.0  0.0402
  C  C542  1  0.161990  0.748380  0.247390  1.0  0.0411
  C  C543  1  0.004800  0.590300  0.117500  1.0  0.1257
  C  C544  1  0.121100  0.692300  0.224400  1.0  0.189
  C  C545  1  0.518570  0.606580  0.632470  1.0  0.0886
  C  C546  1  0.537190  0.589230  0.697520  1.0  0.2448
  C  C547  1  0.568700  0.611710  0.650330  1.0  0.0176
  C  C548  1  0.321560  0.568220  0.644520  1.0  0.2491
  C  C549  1  0.293230  0.588750  0.584840  1.0  0.042
  C  C550  1  0.338010  0.585400  0.586390  1.0  0.0365
  C  C551  1  0.495200  0.612700  0.585500  1.0  0.1221
  C  C552  1  0.378900  0.603300  0.571200  1.0  0.1842
  C  C553  1  0.474110  0.886100  0.867530  1.0  0.0887
  C  C554  1  0.391710  0.839670  0.802480  1.0  0.2403
  C  C555  1  0.461380  0.918370  0.849670  1.0  0.0149
  C  C556  1  0.423700  0.677040  0.855480  1.0  0.2482
  C  C557  1  0.503910  0.708390  0.915160  1.0  0.0409
  C  C558  1  0.499010  0.751620  0.913610  1.0  0.0375
  C  C559  1  0.527200  0.909700  0.914500  1.0  0.1254
  C  C560  1  0.532100  0.807700  0.928800  1.0  0.1854
  C  C561  1  0.132470  0.518570  0.106580  1.0  0.0893
  C  C562  1  0.197520  0.537190  0.089230  1.0  0.2442
  C  C563  1  0.150330  0.568700  0.111710  1.0  0.0151
  C  C564  1  0.144520  0.321560  0.068220  1.0  0.2493
  C  C565  1  0.084840  0.293230  0.088750  1.0  0.0393
  C  C566  1  0.086390  0.338010  0.085400  1.0  0.0392
  C  C567  1  0.085500  0.495200  0.112700  1.0  0.125
  C  C568  1  0.071200  0.378900  0.103300  1.0  0.1868
  C  C569  1  0.367530  0.474110  0.386100  1.0  0.089
  C  C570  1  0.302480  0.391710  0.339670  1.0  0.2433
  C  C571  1  0.349670  0.461380  0.418370  1.0  0.0191
  C  C572  1  0.355480  0.423700  0.177040  1.0  0.245
  C  C573  1  0.415160  0.503910  0.208390  1.0  0.0385
  C  C574  1  0.413610  0.499010  0.251620  1.0  0.0385
  C  C575  1  0.414500  0.527200  0.409700  1.0  0.1242
  C  C576  1  0.428800  0.532100  0.307700  1.0  0.1902
  C  C577  1  0.911990  0.025890  0.393420  1.0  0.0892
  C  C578  1  0.947960  0.108290  0.410770  1.0  0.243
  C  C579  1  0.956990  0.038620  0.388290  1.0  0.0171
  C  C580  1  0.753340  0.076300  0.431780  1.0  0.2454
  C  C581  1  0.704480  0.996090  0.411250  1.0  0.0386
  C  C582  1  0.752610  0.000990  0.414600  1.0  0.0409
  C  C583  1  0.882500  0.972800  0.387300  1.0  0.1236
  C  C584  1  0.775600  0.967900  0.396700  1.0  0.1889
  C  C585  1  0.588010  0.981430  0.113900  1.0  0.0887
  C  C586  1  0.552040  0.962810  0.160330  1.0  0.2466
  C  C587  1  0.543010  0.931300  0.081630  1.0  0.0177
  C  C588  1  0.746660  0.178440  0.322960  1.0  0.2483
  C  C589  1  0.795520  0.206770  0.291610  1.0  0.0408
  C  C590  1  0.747390  0.161990  0.248380  1.0  0.0366
  C  C591  1  0.617500  0.004800  0.090300  1.0  0.1253
  C  C592  1  0.724400  0.121100  0.192300  1.0  0.1862
  C  C593  1  0.613900  0.588010  0.481430  1.0  0.0916
  C  C594  1  0.660330  0.552040  0.462810  1.0  0.2433
  C  C595  1  0.581630  0.543010  0.431300  1.0  0.0164
  C  C596  1  0.822960  0.746660  0.678440  1.0  0.2478
  C  C597  1  0.791610  0.795520  0.706770  1.0  0.0386
  C  C598  1  0.748380  0.747390  0.661990  1.0  0.0351
  C  C599  1  0.590300  0.617500  0.504800  1.0  0.1234
  C  C600  1  0.692300  0.724400  0.621100  1.0  0.1876
  C  C601  1  0.893420  0.911990  0.525890  1.0  0.0879
  C  C602  1  0.910770  0.947960  0.608290  1.0  0.246
  C  C603  1  0.888290  0.956990  0.538620  1.0  0.0164
  C  C604  1  0.931780  0.753340  0.576300  1.0  0.2498
  C  C605  1  0.911250  0.704480  0.496090  1.0  0.038
  C  C606  1  0.914600  0.752610  0.500990  1.0  0.0363
  C  C607  1  0.887300  0.882500  0.472800  1.0  0.1235
  C  C608  1  0.896700  0.775600  0.467900  1.0  0.186
  C  C609  1  0.886100  0.367530  0.974110  1.0  0.0908
  C  C610  1  0.839670  0.302480  0.891710  1.0  0.2416
  C  C611  1  0.918370  0.349670  0.961380  1.0  0.0171
  C  C612  1  0.677040  0.355480  0.923700  1.0  0.2472
  C  C613  1  0.708390  0.415160  0.003910  1.0  0.0357
  C  C614  1  0.751620  0.413610  0.999010  1.0  0.0389
  C  C615  1  0.909700  0.414500  0.027200  1.0  0.1244
  C  C616  1  0.807700  0.428800  0.032100  1.0  0.1863
  C  C617  1  0.606580  0.132470  0.018570  1.0  0.0857
  C  C618  1  0.589230  0.197520  0.037190  1.0  0.2406
  C  C619  1  0.611710  0.150330  0.068700  1.0  0.0197
  C  C620  1  0.568220  0.144520  0.821560  1.0  0.2481
  C  C621  1  0.588750  0.084840  0.793230  1.0  0.0389
  C  C622  1  0.585400  0.086390  0.838010  1.0  0.0383
  C  C623  1  0.612700  0.085500  0.995200  1.0  0.1253
  C  C624  1  0.603300  0.071200  0.878900  1.0  0.1853
  C  C625  1  0.606580  0.474110  0.088010  1.0  0.0877
  C  C626  1  0.589230  0.391710  0.052040  1.0  0.2435
  C  C627  1  0.611710  0.461380  0.043010  1.0  0.0192
  C  C628  1  0.568220  0.423700  0.246660  1.0  0.2454
  C  C629  1  0.588750  0.503910  0.295520  1.0  0.0375
  C  C630  1  0.585400  0.499010  0.247390  1.0  0.0352
  C  C631  1  0.612700  0.527200  0.117500  1.0  0.1241
  C  C632  1  0.603300  0.532100  0.224400  1.0  0.1896
  C  C633  1  0.886100  0.518570  0.411990  1.0  0.0894
  C  C634  1  0.839670  0.537190  0.447960  1.0  0.2433
  C  C635  1  0.918370  0.568700  0.456990  1.0  0.0164
  C  C636  1  0.677040  0.321560  0.253340  1.0  0.2493
  C  C637  1  0.708390  0.293230  0.204480  1.0  0.0406
  C  C638  1  0.751620  0.338010  0.252610  1.0  0.0395
  C  C639  1  0.909700  0.495200  0.382500  1.0  0.123
  C  C640  1  0.807700  0.378900  0.275600  1.0  0.1861
  C  C641  1  0.893420  0.981430  0.867530  1.0  0.0902
  C  C642  1  0.910770  0.962810  0.802480  1.0  0.246
  C  C643  1  0.888290  0.931300  0.849670  1.0  0.0191
  C  C644  1  0.931780  0.178440  0.855480  1.0  0.2486
  C  C645  1  0.911250  0.206770  0.915160  1.0  0.0411
  C  C646  1  0.914600  0.161990  0.913610  1.0  0.0382
  C  C647  1  0.887300  0.004800  0.914500  1.0  0.1261
  C  C648  1  0.896700  0.121100  0.928800  1.0  0.1856
  C  C649  1  0.613900  0.025890  0.632470  1.0  0.0862
  C  C650  1  0.660330  0.108290  0.697520  1.0  0.2419
  C  C651  1  0.581630  0.038620  0.650330  1.0  0.016
  C  C652  1  0.822960  0.076300  0.644520  1.0  0.2459
  C  C653  1  0.791610  0.996090  0.584840  1.0  0.0382
  C  C654  1  0.748380  0.000990  0.586390  1.0  0.0382
  C  C655  1  0.590300  0.972800  0.585500  1.0  0.1243
  C  C656  1  0.692300  0.967900  0.571200  1.0  0.1871
  C  C657  1  0.981430  0.367530  0.393420  1.0  0.0916
  C  C658  1  0.962810  0.302480  0.410770  1.0  0.2408
  C  C659  1  0.931300  0.349670  0.388290  1.0  0.0174
  C  C660  1  0.178440  0.355480  0.431780  1.0  0.2474
  C  C661  1  0.206770  0.415160  0.411250  1.0  0.0388
  C  C662  1  0.161990  0.413610  0.414600  1.0  0.0381
  C  C663  1  0.004800  0.414500  0.387300  1.0  0.1231
  C  C664  1  0.121100  0.428800  0.396700  1.0  0.1873
  C  C665  1  0.025890  0.132470  0.113900  1.0  0.0877
  C  C666  1  0.108290  0.197520  0.160330  1.0  0.2411
  C  C667  1  0.038620  0.150330  0.081630  1.0  0.0197
  C  C668  1  0.076300  0.144520  0.322960  1.0  0.2489
  C  C669  1  0.996090  0.084840  0.291610  1.0  0.0411
  C  C670  1  0.000990  0.086390  0.248380  1.0  0.0382
  C  C671  1  0.972800  0.085500  0.090300  1.0  0.1237
  C  C672  1  0.967900  0.071200  0.192300  1.0  0.1873
  C  C673  1  0.474110  0.588010  0.106580  1.0  0.089
  C  C674  1  0.391710  0.552040  0.089230  1.0  0.243
  C  C675  1  0.461380  0.543010  0.111710  1.0  0.0161
  C  C676  1  0.423700  0.746660  0.068220  1.0  0.249
  C  C677  1  0.503910  0.795520  0.088750  1.0  0.0385
  C  C678  1  0.499010  0.747390  0.085400  1.0  0.038
  C  C679  1  0.527200  0.617500  0.112700  1.0  0.126
  C  C680  1  0.532100  0.724400  0.103300  1.0  0.1863
  C  C681  1  0.518570  0.911990  0.386100  1.0  0.0877
  C  C682  1  0.537190  0.947960  0.339670  1.0  0.2445
  C  C683  1  0.568700  0.956990  0.418370  1.0  0.0173
  C  C684  1  0.321560  0.753340  0.177040  1.0  0.2486
  C  C685  1  0.293230  0.704480  0.208390  1.0  0.0377
  C  C686  1  0.338010  0.752610  0.251620  1.0  0.0384
  C  C687  1  0.495200  0.882500  0.409700  1.0  0.1233
  C  C688  1  0.378900  0.775600  0.307700  1.0  0.1849
  C  C689  1  0.911990  0.886100  0.018570  1.0  0.0905
  C  C690  1  0.947960  0.839670  0.037190  1.0  0.2414
  C  C691  1  0.956990  0.918370  0.068700  1.0  0.0151
  C  C692  1  0.753340  0.677040  0.821560  1.0  0.2485
  C  C693  1  0.704480  0.708390  0.793230  1.0  0.0409
  C  C694  1  0.752610  0.751620  0.838010  1.0  0.0388
  C  C695  1  0.882500  0.909700  0.995200  1.0  0.1264
  C  C696  1  0.775600  0.807700  0.878900  1.0  0.1864
  C  C697  1  0.588010  0.606580  0.974110  1.0  0.0882
  C  C698  1  0.552040  0.589230  0.891710  1.0  0.2444
  C  C699  1  0.543010  0.611710  0.961380  1.0  0.0171
  C  C700  1  0.746660  0.568220  0.923700  1.0  0.2472
  C  C701  1  0.795520  0.588750  0.003910  1.0  0.0404
  C  C702  1  0.747390  0.585400  0.999010  1.0  0.0385
  C  C703  1  0.617500  0.612700  0.027200  1.0  0.1214
  C  C704  1  0.724400  0.603300  0.032100  1.0  0.1839
  C  C705  1  0.132470  0.613900  0.525890  1.0  0.0889
  C  C706  1  0.197520  0.660330  0.608290  1.0  0.2419
  C  C707  1  0.150330  0.581630  0.538620  1.0  0.0141
  C  C708  1  0.144520  0.822960  0.576300  1.0  0.2473
  C  C709  1  0.084840  0.791610  0.496090  1.0  0.0413
  C  C710  1  0.086390  0.748380  0.500990  1.0  0.039
  C  C711  1  0.085500  0.590300  0.472800  1.0  0.1242
  C  C712  1  0.071200  0.692300  0.467900  1.0  0.1872
  C  C713  1  0.367530  0.893420  0.481430  1.0  0.0852
  C  C714  1  0.302480  0.910770  0.462810  1.0  0.245
  C  C715  1  0.349670  0.888290  0.431300  1.0  0.019
  C  C716  1  0.355480  0.931780  0.678440  1.0  0.2488
  C  C717  1  0.415160  0.911250  0.706770  1.0  0.0406
  C  C718  1  0.413610  0.914600  0.661990  1.0  0.0382
  C  C719  1  0.414500  0.887300  0.504800  1.0  0.1256
  C  C720  1  0.428800  0.896700  0.621100  1.0  0.1878
  N  N721  1  0.956790  0.077820  0.795490  1.0  -0.4047
  N  N722  1  0.909250  0.100790  0.519740  1.0  -0.4105
  N  N723  1  0.928490  0.092130  0.594140  1.0  -0.4574
  N  N724  1  0.946290  0.072730  0.716040  1.0  -0.4328
  N  N725  1  0.010600  0.092800  0.675600  1.0  -0.2068
  N  N726  1  0.049000  0.106400  0.659400  1.0  -0.2678
  N  N727  1  0.782330  0.161300  0.704510  1.0  -0.4082
  N  N728  1  0.081050  0.389510  0.980260  1.0  -0.4114
  N  N729  1  0.997990  0.334350  0.905860  1.0  -0.4562
  N  N730  1  0.856690  0.230250  0.783960  1.0  -0.4333
  N  N731  1  0.917200  0.335000  0.824400  1.0  -0.208
  N  N732  1  0.947000  0.389600  0.840600  1.0  -0.2644
  N  N733  1  0.717670  0.422180  0.378970  1.0  -0.4062
  N  N734  1  0.418950  0.399210  0.308460  1.0  -0.4106
  N  N735  1  0.502010  0.407870  0.336360  1.0  -0.458
  N  N736  1  0.643310  0.427270  0.373560  1.0  -0.4319
  N  N737  1  0.582800  0.407200  0.417800  1.0  -0.2057
  N  N738  1  0.553000  0.393600  0.442600  1.0  -0.2701
  N  N739  1  0.543210  0.338700  0.121030  1.0  -0.4076
  N  N740  1  0.590750  0.110490  0.191540  1.0  -0.4105
  N  N741  1  0.571510  0.165650  0.163640  1.0  -0.4537
  N  N742  1  0.553710  0.269750  0.126440  1.0  -0.4337
  N  N743  1  0.489400  0.165000  0.082200  1.0  -0.2049
  N  N744  1  0.451000  0.110400  0.057400  1.0  -0.264
  N  N745  1  0.878970  0.717670  0.922180  1.0  -0.406
  N  N746  1  0.808460  0.418950  0.899210  1.0  -0.4119
  N  N747  1  0.836360  0.502010  0.907870  1.0  -0.454
  N  N748  1  0.873560  0.643310  0.927270  1.0  -0.433
  N  N749  1  0.917800  0.582800  0.907200  1.0  -0.2072
  N  N750  1  0.942600  0.553000  0.893600  1.0  -0.2685
  N  N751  1  0.621030  0.543210  0.838700  1.0  -0.4058
  N  N752  1  0.691540  0.590750  0.610490  1.0  -0.4097
  N  N753  1  0.663640  0.571510  0.665650  1.0  -0.4549
  N  N754  1  0.626440  0.553710  0.769750  1.0  -0.4323
  N  N755  1  0.582200  0.489400  0.665000  1.0  -0.2062
  N  N756  1  0.557400  0.451000  0.610400  1.0  -0.2644
  N  N757  1  0.295490  0.956790  0.577820  1.0  -0.4071
  N  N758  1  0.019740  0.909250  0.600790  1.0  -0.4113
  N  N759  1  0.094140  0.928490  0.592130  1.0  -0.4549
  N  N760  1  0.216040  0.946290  0.572730  1.0  -0.4316
  N  N761  1  0.175600  0.010600  0.592800  1.0  -0.2084
  N  N762  1  0.159400  0.049000  0.606400  1.0  -0.2629
  N  N763  1  0.204510  0.782330  0.661300  1.0  -0.4064
  N  N764  1  0.480260  0.081050  0.889510  1.0  -0.4112
  N  N765  1  0.405860  0.997990  0.834350  1.0  -0.4547
  N  N766  1  0.283960  0.856690  0.730250  1.0  -0.4333
  N  N767  1  0.324400  0.917200  0.835000  1.0  -0.2061
  N  N768  1  0.340600  0.947000  0.889600  1.0  -0.2667
  N  N769  1  0.161300  0.204510  0.282330  1.0  -0.4072
  N  N770  1  0.389510  0.480260  0.581050  1.0  -0.4111
  N  N771  1  0.334350  0.405860  0.497990  1.0  -0.4526
  N  N772  1  0.230250  0.283960  0.356690  1.0  -0.4325
  N  N773  1  0.335000  0.324400  0.417200  1.0  -0.2069
  N  N774  1  0.389600  0.340600  0.447000  1.0  -0.2686
  N  N775  1  0.077820  0.295490  0.456790  1.0  -0.4068
  N  N776  1  0.100790  0.019740  0.409250  1.0  -0.411
  N  N777  1  0.092130  0.094140  0.428490  1.0  -0.4552
  N  N778  1  0.072730  0.216040  0.446290  1.0  -0.4309
  N  N779  1  0.092800  0.175600  0.510600  1.0  -0.2076
  N  N780  1  0.106400  0.159400  0.549000  1.0  -0.2693
  N  N781  1  0.338700  0.621030  0.043210  1.0  -0.407
  N  N782  1  0.110490  0.691540  0.090750  1.0  -0.4125
  N  N783  1  0.165650  0.663640  0.071510  1.0  -0.4561
  N  N784  1  0.269750  0.626440  0.053710  1.0  -0.4351
  N  N785  1  0.165000  0.582200  0.989400  1.0  -0.2096
  N  N786  1  0.110400  0.557400  0.951000  1.0  -0.2655
  N  N787  1  0.422180  0.878970  0.217670  1.0  -0.4062
  N  N788  1  0.399210  0.808460  0.918950  1.0  -0.4112
  N  N789  1  0.407870  0.836360  0.002010  1.0  -0.4552
  N  N790  1  0.427270  0.873560  0.143310  1.0  -0.4337
  N  N791  1  0.407200  0.917800  0.082800  1.0  -0.2064
  N  N792  1  0.393600  0.942600  0.053000  1.0  -0.2654
  N  N793  1  0.422180  0.543210  0.704510  1.0  -0.4067
  N  N794  1  0.399210  0.590750  0.980260  1.0  -0.4103
  N  N795  1  0.407870  0.571510  0.905860  1.0  -0.453
  N  N796  1  0.427270  0.553710  0.783960  1.0  -0.4332
  N  N797  1  0.407200  0.489400  0.824400  1.0  -0.2075
  N  N798  1  0.393600  0.451000  0.840600  1.0  -0.2642
  N  N799  1  0.338700  0.717670  0.795490  1.0  -0.4064
  N  N800  1  0.110490  0.418950  0.519740  1.0  -0.4109
  N  N801  1  0.165650  0.502010  0.594140  1.0  -0.4556
  N  N802  1  0.269750  0.643310  0.716040  1.0  -0.4333
  N  N803  1  0.165000  0.582800  0.675600  1.0  -0.204
  N  N804  1  0.110400  0.553000  0.659400  1.0  -0.2649
  N  N805  1  0.077820  0.782330  0.121030  1.0  -0.4056
  N  N806  1  0.100790  0.081050  0.191540  1.0  -0.4119
  N  N807  1  0.092130  0.997990  0.163640  1.0  -0.4566
  N  N808  1  0.072730  0.856690  0.126440  1.0  -0.4338
  N  N809  1  0.092800  0.917200  0.082200  1.0  -0.2055
  N  N810  1  0.106400  0.947000  0.057400  1.0  -0.2694
  N  N811  1  0.161300  0.956790  0.378970  1.0  -0.4072
  N  N812  1  0.389510  0.909250  0.308460  1.0  -0.4129
  N  N813  1  0.334350  0.928490  0.336360  1.0  -0.4536
  N  N814  1  0.230250  0.946290  0.373560  1.0  -0.4324
  N  N815  1  0.335000  0.010600  0.417800  1.0  -0.2082
  N  N816  1  0.389600  0.049000  0.442600  1.0  -0.2628
  N  N817  1  0.782330  0.621030  0.577820  1.0  -0.4079
  N  N818  1  0.081050  0.691540  0.600790  1.0  -0.4125
  N  N819  1  0.997990  0.663640  0.592130  1.0  -0.4551
  N  N820  1  0.856690  0.626440  0.572730  1.0  -0.4357
  N  N821  1  0.917200  0.582200  0.592800  1.0  -0.207
  N  N822  1  0.947000  0.557400  0.606400  1.0  -0.2655
  N  N823  1  0.956790  0.878970  0.661300  1.0  -0.4066
  N  N824  1  0.909250  0.808460  0.889510  1.0  -0.4118
  N  N825  1  0.928490  0.836360  0.834350  1.0  -0.4546
  N  N826  1  0.946290  0.873560  0.730250  1.0  -0.4327
  N  N827  1  0.010600  0.917800  0.835000  1.0  -0.206
  N  N828  1  0.049000  0.942600  0.889600  1.0  -0.2685
  N  N829  1  0.543210  0.204510  0.922180  1.0  -0.4067
  N  N830  1  0.590750  0.480260  0.899210  1.0  -0.4124
  N  N831  1  0.571510  0.405860  0.907870  1.0  -0.4536
  N  N832  1  0.553710  0.283960  0.927270  1.0  -0.4325
  N  N833  1  0.489400  0.324400  0.907200  1.0  -0.2061
  N  N834  1  0.451000  0.340600  0.893600  1.0  -0.2662
  N  N835  1  0.717670  0.295490  0.838700  1.0  -0.407
  N  N836  1  0.418950  0.019740  0.610490  1.0  -0.4116
  N  N837  1  0.502010  0.094140  0.665650  1.0  -0.4553
  N  N838  1  0.643310  0.216040  0.769750  1.0  -0.4325
  N  N839  1  0.582800  0.175600  0.665000  1.0  -0.2088
  N  N840  1  0.553000  0.159400  0.610400  1.0  -0.2714
  N  N841  1  0.295490  0.338700  0.217670  1.0  -0.408
  N  N842  1  0.019740  0.110490  0.918950  1.0  -0.4121
  N  N843  1  0.094140  0.165650  0.002010  1.0  -0.4564
  N  N844  1  0.216040  0.269750  0.143310  1.0  -0.4327
  N  N845  1  0.175600  0.165000  0.082800  1.0  -0.2035
  N  N846  1  0.159400  0.110400  0.053000  1.0  -0.2667
  N  N847  1  0.204510  0.422180  0.043210  1.0  -0.4069
  N  N848  1  0.480260  0.399210  0.090750  1.0  -0.4108
  N  N849  1  0.405860  0.407870  0.071510  1.0  -0.4558
  N  N850  1  0.283960  0.427270  0.053710  1.0  -0.4323
  N  N851  1  0.324400  0.407200  0.989400  1.0  -0.2056
  N  N852  1  0.340600  0.393600  0.951000  1.0  -0.2671
  N  N853  1  0.878970  0.161300  0.456790  1.0  -0.4083
  N  N854  1  0.808460  0.389510  0.409250  1.0  -0.412
  N  N855  1  0.836360  0.334350  0.428490  1.0  -0.4551
  N  N856  1  0.873560  0.230250  0.446290  1.0  -0.4346
  N  N857  1  0.917800  0.335000  0.510600  1.0  -0.2072
  N  N858  1  0.942600  0.389600  0.549000  1.0  -0.2641
  N  N859  1  0.621030  0.077820  0.282330  1.0  -0.405
  N  N860  1  0.691540  0.100790  0.581050  1.0  -0.4105
  N  N861  1  0.663640  0.092130  0.497990  1.0  -0.4549
  N  N862  1  0.626440  0.072730  0.356690  1.0  -0.4327
  N  N863  1  0.582200  0.092800  0.417200  1.0  -0.207
  N  N864  1  0.557400  0.106400  0.447000  1.0  -0.263
  N  N865  1  0.043210  0.922180  0.204510  1.0  -0.4048
  N  N866  1  0.090750  0.899210  0.480260  1.0  -0.411
  N  N867  1  0.071510  0.907870  0.405860  1.0  -0.4553
  N  N868  1  0.053710  0.927270  0.283960  1.0  -0.4317
  N  N869  1  0.989400  0.907200  0.324400  1.0  -0.2054
  N  N870  1  0.951000  0.893600  0.340600  1.0  -0.2641
  N  N871  1  0.217670  0.838700  0.295490  1.0  -0.4086
  N  N872  1  0.918950  0.610490  0.019740  1.0  -0.4118
  N  N873  1  0.002010  0.665650  0.094140  1.0  -0.4567
  N  N874  1  0.143310  0.769750  0.216040  1.0  -0.4352
  N  N875  1  0.082800  0.665000  0.175600  1.0  -0.2067
  N  N876  1  0.053000  0.610400  0.159400  1.0  -0.2639
  N  N877  1  0.282330  0.577820  0.621030  1.0  -0.4068
  N  N878  1  0.581050  0.600790  0.691540  1.0  -0.4116
  N  N879  1  0.497990  0.592130  0.663640  1.0  -0.455
  N  N880  1  0.356690  0.572730  0.626440  1.0  -0.4332
  N  N881  1  0.417200  0.592800  0.582200  1.0  -0.2068
  N  N882  1  0.447000  0.606400  0.557400  1.0  -0.2687
  N  N883  1  0.456790  0.661300  0.878970  1.0  -0.4082
  N  N884  1  0.409250  0.889510  0.808460  1.0  -0.4121
  N  N885  1  0.428490  0.834350  0.836360  1.0  -0.4547
  N  N886  1  0.446290  0.730250  0.873560  1.0  -0.432
  N  N887  1  0.510600  0.835000  0.917800  1.0  -0.2039
  N  N888  1  0.549000  0.889600  0.942600  1.0  -0.2671
  N  N889  1  0.121030  0.282330  0.077820  1.0  -0.4061
  N  N890  1  0.191540  0.581050  0.100790  1.0  -0.4117
  N  N891  1  0.163640  0.497990  0.092130  1.0  -0.4556
  N  N892  1  0.126440  0.356690  0.072730  1.0  -0.4344
  N  N893  1  0.082200  0.417200  0.092800  1.0  -0.2048
  N  N894  1  0.057400  0.447000  0.106400  1.0  -0.2659
  N  N895  1  0.378970  0.456790  0.161300  1.0  -0.407
  N  N896  1  0.308460  0.409250  0.389510  1.0  -0.4104
  N  N897  1  0.336360  0.428490  0.334350  1.0  -0.4526
  N  N898  1  0.373560  0.446290  0.230250  1.0  -0.4329
  N  N899  1  0.417800  0.510600  0.335000  1.0  -0.2088
  N  N900  1  0.442600  0.549000  0.389600  1.0  -0.2649
  N  N901  1  0.704510  0.043210  0.422180  1.0  -0.4073
  N  N902  1  0.980260  0.090750  0.399210  1.0  -0.4127
  N  N903  1  0.905860  0.071510  0.407870  1.0  -0.4538
  N  N904  1  0.783960  0.053710  0.427270  1.0  -0.432
  N  N905  1  0.824400  0.989400  0.407200  1.0  -0.2071
  N  N906  1  0.840600  0.951000  0.393600  1.0  -0.2645
  N  N907  1  0.795490  0.217670  0.338700  1.0  -0.4062
  N  N908  1  0.519740  0.918950  0.110490  1.0  -0.4112
  N  N909  1  0.594140  0.002010  0.165650  1.0  -0.4561
  N  N910  1  0.716040  0.143310  0.269750  1.0  -0.4324
  N  N911  1  0.675600  0.082800  0.165000  1.0  -0.2054
  N  N912  1  0.659400  0.053000  0.110400  1.0  -0.268
  N  N913  1  0.838700  0.795490  0.717670  1.0  -0.4068
  N  N914  1  0.610490  0.519740  0.418950  1.0  -0.4129
  N  N915  1  0.665650  0.594140  0.502010  1.0  -0.4555
  N  N916  1  0.769750  0.716040  0.643310  1.0  -0.433
  N  N917  1  0.665000  0.675600  0.582800  1.0  -0.2064
  N  N918  1  0.610400  0.659400  0.553000  1.0  -0.2658
  N  N919  1  0.922180  0.704510  0.543210  1.0  -0.4068
  N  N920  1  0.899210  0.980260  0.590750  1.0  -0.4115
  N  N921  1  0.907870  0.905860  0.571510  1.0  -0.4527
  N  N922  1  0.927270  0.783960  0.553710  1.0  -0.4322
  N  N923  1  0.907200  0.824400  0.489400  1.0  -0.2077
  N  N924  1  0.893600  0.840600  0.451000  1.0  -0.2687
  N  N925  1  0.661300  0.378970  0.956790  1.0  -0.4082
  N  N926  1  0.889510  0.308460  0.909250  1.0  -0.4114
  N  N927  1  0.834350  0.336360  0.928490  1.0  -0.4561
  N  N928  1  0.730250  0.373560  0.946290  1.0  -0.4357
  N  N929  1  0.835000  0.417800  0.010600  1.0  -0.207
  N  N930  1  0.889600  0.442600  0.049000  1.0  -0.2648
  N  N931  1  0.577820  0.121030  0.782330  1.0  -0.4061
  N  N932  1  0.600790  0.191540  0.081050  1.0  -0.4113
  N  N933  1  0.592130  0.163640  0.997990  1.0  -0.4536
  N  N934  1  0.572730  0.126440  0.856690  1.0  -0.4328
  N  N935  1  0.592800  0.082200  0.917200  1.0  -0.206
  N  N936  1  0.606400  0.057400  0.947000  1.0  -0.2676
  N  N937  1  0.577820  0.456790  0.295490  1.0  -0.4056
  N  N938  1  0.600790  0.409250  0.019740  1.0  -0.4097
  N  N939  1  0.592130  0.428490  0.094140  1.0  -0.4549
  N  N940  1  0.572730  0.446290  0.216040  1.0  -0.4328
  N  N941  1  0.592800  0.510600  0.175600  1.0  -0.208
  N  N942  1  0.606400  0.549000  0.159400  1.0  -0.2632
  N  N943  1  0.661300  0.282330  0.204510  1.0  -0.406
  N  N944  1  0.889510  0.581050  0.480260  1.0  -0.4127
  N  N945  1  0.834350  0.497990  0.405860  1.0  -0.454
  N  N946  1  0.730250  0.356690  0.283960  1.0  -0.4345
  N  N947  1  0.835000  0.417200  0.324400  1.0  -0.2073
  N  N948  1  0.889600  0.447000  0.340600  1.0  -0.2701
  N  N949  1  0.922180  0.217670  0.878970  1.0  -0.4061
  N  N950  1  0.899210  0.918950  0.808460  1.0  -0.4103
  N  N951  1  0.907870  0.002010  0.836360  1.0  -0.4555
  N  N952  1  0.927270  0.143310  0.873560  1.0  -0.4323
  N  N953  1  0.907200  0.082800  0.917800  1.0  -0.2058
  N  N954  1  0.893600  0.053000  0.942600  1.0  -0.2657
  N  N955  1  0.838700  0.043210  0.621030  1.0  -0.4075
  N  N956  1  0.610490  0.090750  0.691540  1.0  -0.4116
  N  N957  1  0.665650  0.071510  0.663640  1.0  -0.4548
  N  N958  1  0.769750  0.053710  0.626440  1.0  -0.4317
  N  N959  1  0.665000  0.989400  0.582200  1.0  -0.2068
  N  N960  1  0.610400  0.951000  0.557400  1.0  -0.2634
  N  N961  1  0.217670  0.378970  0.422180  1.0  -0.4071
  N  N962  1  0.918950  0.308460  0.399210  1.0  -0.4125
  N  N963  1  0.002010  0.336360  0.407870  1.0  -0.4562
  N  N964  1  0.143310  0.373560  0.427270  1.0  -0.4352
  N  N965  1  0.082800  0.417800  0.407200  1.0  -0.2098
  N  N966  1  0.053000  0.442600  0.393600  1.0  -0.2656
  N  N967  1  0.043210  0.121030  0.338700  1.0  -0.4061
  N  N968  1  0.090750  0.191540  0.110490  1.0  -0.4118
  N  N969  1  0.071510  0.163640  0.165650  1.0  -0.4556
  N  N970  1  0.053710  0.126440  0.269750  1.0  -0.4335
  N  N971  1  0.989400  0.082200  0.165000  1.0  -0.2061
  N  N972  1  0.951000  0.057400  0.110400  1.0  -0.2648
  N  N973  1  0.456790  0.795490  0.077820  1.0  -0.407
  N  N974  1  0.409250  0.519740  0.100790  1.0  -0.4119
  N  N975  1  0.428490  0.594140  0.092130  1.0  -0.4538
  N  N976  1  0.446290  0.716040  0.072730  1.0  -0.4328
  N  N977  1  0.510600  0.675600  0.092800  1.0  -0.2074
  N  N978  1  0.549000  0.659400  0.106400  1.0  -0.2695
  N  N979  1  0.282330  0.704510  0.161300  1.0  -0.4071
  N  N980  1  0.581050  0.980260  0.389510  1.0  -0.4104
  N  N981  1  0.497990  0.905860  0.334350  1.0  -0.4551
  N  N982  1  0.356690  0.783960  0.230250  1.0  -0.4308
  N  N983  1  0.417200  0.824400  0.335000  1.0  -0.2069
  N  N984  1  0.447000  0.840600  0.389600  1.0  -0.2698
  N  N985  1  0.704510  0.661300  0.782330  1.0  -0.408
  N  N986  1  0.980260  0.889510  0.081050  1.0  -0.4104
  N  N987  1  0.905860  0.834350  0.997990  1.0  -0.4529
  N  N988  1  0.783960  0.730250  0.856690  1.0  -0.4338
  N  N989  1  0.824400  0.835000  0.917200  1.0  -0.2055
  N  N990  1  0.840600  0.889600  0.947000  1.0  -0.264
  N  N991  1  0.795490  0.577820  0.956790  1.0  -0.4063
  N  N992  1  0.519740  0.600790  0.909250  1.0  -0.4102
  N  N993  1  0.594140  0.592130  0.928490  1.0  -0.458
  N  N994  1  0.716040  0.572730  0.946290  1.0  -0.432
  N  N995  1  0.675600  0.592800  0.010600  1.0  -0.2082
  N  N996  1  0.659400  0.606400  0.049000  1.0  -0.2663
  N  N997  1  0.121030  0.838700  0.543210  1.0  -0.4078
  N  N998  1  0.191540  0.610490  0.590750  1.0  -0.4117
  N  N999  1  0.163640  0.665650  0.571510  1.0  -0.4566
  N  N1000  1  0.126440  0.769750  0.553710  1.0  -0.4335
  N  N1001  1  0.082200  0.665000  0.489400  1.0  -0.2072
  N  N1002  1  0.057400  0.610400  0.451000  1.0  -0.2645
  N  N1003  1  0.378970  0.922180  0.717670  1.0  -0.4046
  N  N1004  1  0.308460  0.899210  0.418950  1.0  -0.4108
  N  N1005  1  0.336360  0.907870  0.502010  1.0  -0.4572
  N  N1006  1  0.373560  0.927270  0.643310  1.0  -0.4323
  N  N1007  1  0.417800  0.907200  0.582800  1.0  -0.2051
  N  N1008  1  0.442600  0.893600  0.553000  1.0  -0.2679
