# generated using pymatgen
data_MnH6(C4N3)2
_symmetry_space_group_name_H-M   'P 1'
_cell_length_a   30.99940000
_cell_length_b   30.99940000
_cell_length_c   30.99940000
_cell_angle_alpha   109.47100000
_cell_angle_beta   109.47100000
_cell_angle_gamma   109.47100000
_symmetry_Int_Tables_number   1
_chemical_formula_structural   MnH6(C4N3)2
_chemical_formula_sum   'Mn48 H288 C384 N288'
_cell_volume   22931.97824045
_cell_formula_units_Z   48
loop_
 _symmetry_equiv_pos_site_id
 _symmetry_equiv_pos_as_xyz
  1  'x, y, z'
loop_
 _atom_site_type_symbol
 _atom_site_label
 _atom_site_symmetry_multiplicity
 _atom_site_fract_x
 _atom_site_fract_y
 _atom_site_fract_z
 _atom_site_occupancy
 _atom_site_charge
  Mn  Mn1  1  0.221400  0.572170  0.632930  1.0  0.9465
  Mn  Mn2  1  0.439240  0.588470  0.867070  1.0  0.9452
  Mn  Mn3  1  0.060760  0.927820  0.149230  1.0  0.9449
  Mn  Mn4  1  0.278600  0.911540  0.350770  1.0  0.9438
  Mn  Mn5  1  0.649230  0.060760  0.427830  1.0  0.9451
  Mn  Mn6  1  0.850770  0.278600  0.411530  1.0  0.9454
  Mn  Mn7  1  0.132940  0.221410  0.072180  1.0  0.9465
  Mn  Mn8  1  0.367060  0.439230  0.088460  1.0  0.9434
  Mn  Mn9  1  0.588470  0.367070  0.939240  1.0  0.9461
  Mn  Mn10  1  0.572170  0.132930  0.721400  1.0  0.9443
  Mn  Mn11  1  0.911530  0.850770  0.778590  1.0  0.9451
  Mn  Mn12  1  0.927830  0.649230  0.560770  1.0  0.945
  Mn  Mn13  1  0.927830  0.278600  0.867070  1.0  0.9451
  Mn  Mn14  1  0.911530  0.060760  0.632930  1.0  0.9444
  Mn  Mn15  1  0.572170  0.439230  0.350770  1.0  0.9435
  Mn  Mn16  1  0.588470  0.221410  0.149230  1.0  0.9452
  Mn  Mn17  1  0.439240  0.850770  0.072180  1.0  0.9433
  Mn  Mn18  1  0.221400  0.649230  0.088460  1.0  0.9446
  Mn  Mn19  1  0.278600  0.367070  0.427830  1.0  0.9461
  Mn  Mn20  1  0.060760  0.132930  0.411530  1.0  0.9451
  Mn  Mn21  1  0.132940  0.911540  0.560770  1.0  0.9456
  Mn  Mn22  1  0.367060  0.927820  0.778590  1.0  0.9434
  Mn  Mn23  1  0.649230  0.588470  0.721400  1.0  0.945
  Mn  Mn24  1  0.850770  0.572170  0.939240  1.0  0.9443
  Mn  Mn25  1  0.778600  0.427830  0.367070  1.0  0.9445
  Mn  Mn26  1  0.560760  0.411530  0.132930  1.0  0.9456
  Mn  Mn27  1  0.939240  0.072180  0.850770  1.0  0.943
  Mn  Mn28  1  0.721400  0.088460  0.649230  1.0  0.9453
  Mn  Mn29  1  0.350770  0.939240  0.572170  1.0  0.9435
  Mn  Mn30  1  0.149230  0.721400  0.588470  1.0  0.9456
  Mn  Mn31  1  0.867060  0.778590  0.927820  1.0  0.9442
  Mn  Mn32  1  0.632940  0.560770  0.911540  1.0  0.9442
  Mn  Mn33  1  0.411530  0.632930  0.060760  1.0  0.9463
  Mn  Mn34  1  0.427830  0.867070  0.278600  1.0  0.9445
  Mn  Mn35  1  0.088470  0.149230  0.221410  1.0  0.9434
  Mn  Mn36  1  0.072180  0.350780  0.439240  1.0  0.945
  Mn  Mn37  1  0.072170  0.721400  0.132930  1.0  0.946
  Mn  Mn38  1  0.088470  0.939240  0.367070  1.0  0.9444
  Mn  Mn39  1  0.427830  0.560770  0.649230  1.0  0.9438
  Mn  Mn40  1  0.411530  0.778590  0.850770  1.0  0.9459
  Mn  Mn41  1  0.560760  0.149230  0.927820  1.0  0.9449
  Mn  Mn42  1  0.778600  0.350770  0.911540  1.0  0.9452
  Mn  Mn43  1  0.721400  0.632930  0.572170  1.0  0.9468
  Mn  Mn44  1  0.939240  0.867070  0.588470  1.0  0.9433
  Mn  Mn45  1  0.867060  0.088460  0.439230  1.0  0.9436
  Mn  Mn46  1  0.632940  0.072180  0.221410  1.0  0.9448
  Mn  Mn47  1  0.350770  0.411530  0.278600  1.0  0.9452
  Mn  Mn48  1  0.149230  0.427830  0.060760  1.0  0.9466
  H  H49  1  0.178900  0.450900  0.541600  1.0  0.065
  H  H50  1  0.039900  0.407800  0.527900  1.0  0.0794
  H  H51  1  0.282400  0.725600  0.808400  1.0  0.0889
  H  H52  1  0.347700  0.676000  0.730900  1.0  0.044
  H  H53  1  0.055000  0.487800  0.596800  1.0  0.0862
  H  H54  1  0.174700  0.636700  0.731400  1.0  0.1055
  H  H55  1  0.409300  0.637300  0.958400  1.0  0.0668
  H  H56  1  0.379900  0.512000  0.972100  1.0  0.0797
  H  H57  1  0.417200  0.474000  0.691600  1.0  0.0921
  H  H58  1  0.445100  0.616800  0.769100  1.0  0.0458
  H  H59  1  0.391000  0.458200  0.903200  1.0  0.0824
  H  H60  1  0.405300  0.443300  0.768600  1.0  0.1048
  H  H61  1  0.090700  0.049100  0.228000  1.0  0.066
  H  H62  1  0.120100  0.092200  0.132100  1.0  0.0781
  H  H63  1  0.082800  0.774400  0.056800  1.0  0.0896
  H  H64  1  0.054900  0.824000  0.171700  1.0  0.0444
  H  H65  1  0.109000  0.012200  0.067200  1.0  0.0831
  H  H66  1  0.094700  0.863300  0.038000  1.0  0.105
  H  H67  1  0.321100  0.862700  0.272000  1.0  0.0674
  H  H68  1  0.460100  0.988000  0.367900  1.0  0.0781
  H  H69  1  0.217600  0.026000  0.443200  1.0  0.0925
  H  H70  1  0.152300  0.883200  0.328300  1.0  0.0459
  H  H71  1  0.445000  0.041800  0.432800  1.0  0.0819
  H  H72  1  0.325300  0.056700  0.462000  1.0  0.1052
  H  H73  1  0.728000  0.090700  0.549100  1.0  0.0655
  H  H74  1  0.632100  0.120100  0.592200  1.0  0.0794
  H  H75  1  0.556800  0.082800  0.274400  1.0  0.0893
  H  H76  1  0.671700  0.054900  0.324000  1.0  0.044
  H  H77  1  0.567200  0.109000  0.512200  1.0  0.0827
  H  H78  1  0.538000  0.094700  0.363300  1.0  0.1037
  H  H79  1  0.772000  0.321100  0.362700  1.0  0.0661
  H  H80  1  0.867900  0.460100  0.488000  1.0  0.0793
  H  H81  1  0.943200  0.217600  0.526000  1.0  0.0943
  H  H82  1  0.828300  0.152300  0.383200  1.0  0.0442
  H  H83  1  0.932800  0.445000  0.541800  1.0  0.08
  H  H84  1  0.962000  0.325300  0.556700  1.0  0.1068
  H  H85  1  0.041600  0.178900  0.950900  1.0  0.068
  H  H86  1  0.027900  0.039900  0.907800  1.0  0.08
  H  H87  1  0.308400  0.282400  0.225600  1.0  0.0877
  H  H88  1  0.230900  0.347700  0.176000  1.0  0.0439
  H  H89  1  0.096800  0.055000  0.987800  1.0  0.0811
  H  H90  1  0.231400  0.174700  0.136700  1.0  0.1038
  H  H91  1  0.458400  0.409300  0.137300  1.0  0.0649
  H  H92  1  0.472100  0.379900  0.012000  1.0  0.0793
  H  H93  1  0.191600  0.417200  0.974000  1.0  0.0897
  H  H94  1  0.269100  0.445100  0.116800  1.0  0.0429
  H  H95  1  0.403200  0.391000  0.958200  1.0  0.0836
  H  H96  1  0.268600  0.405300  0.943300  1.0  0.1046
  H  H97  1  0.637300  0.458400  0.909300  1.0  0.0668
  H  H98  1  0.512000  0.472100  0.879900  1.0  0.0785
  H  H99  1  0.474000  0.191600  0.917200  1.0  0.0885
  H  H100  1  0.616800  0.269100  0.945100  1.0  0.0447
  H  H101  1  0.458200  0.403200  0.891000  1.0  0.0837
  H  H102  1  0.443300  0.268600  0.905300  1.0  0.1046
  H  H103  1  0.450900  0.041600  0.678900  1.0  0.0653
  H  H104  1  0.407800  0.027900  0.539900  1.0  0.0792
  H  H105  1  0.725600  0.308400  0.782400  1.0  0.089
  H  H106  1  0.676000  0.230900  0.847700  1.0  0.044
  H  H107  1  0.487800  0.096800  0.555000  1.0  0.0855
  H  H108  1  0.636700  0.231400  0.674700  1.0  0.1046
  H  H109  1  0.862700  0.772000  0.821100  1.0  0.0667
  H  H110  1  0.988000  0.867900  0.960100  1.0  0.0795
  H  H111  1  0.026000  0.943200  0.717600  1.0  0.0891
  H  H112  1  0.883200  0.828300  0.652300  1.0  0.0423
  H  H113  1  0.041800  0.932800  0.945000  1.0  0.082
  H  H114  1  0.056700  0.962000  0.825300  1.0  0.1042
  H  H115  1  0.049100  0.728000  0.590700  1.0  0.0669
  H  H116  1  0.092200  0.632100  0.620100  1.0  0.0795
  H  H117  1  0.774400  0.556800  0.582800  1.0  0.0942
  H  H118  1  0.824000  0.671700  0.554900  1.0  0.0437
  H  H119  1  0.012200  0.567200  0.609000  1.0  0.0845
  H  H120  1  0.863300  0.538000  0.594700  1.0  0.1064
  H  H121  1  0.049100  0.321100  0.958400  1.0  0.0655
  H  H122  1  0.092200  0.460100  0.972100  1.0  0.0793
  H  H123  1  0.774400  0.217600  0.691600  1.0  0.0942
  H  H124  1  0.824000  0.152300  0.769100  1.0  0.0447
  H  H125  1  0.012200  0.445000  0.903200  1.0  0.0825
  H  H126  1  0.863300  0.325300  0.768600  1.0  0.1054
  H  H127  1  0.862700  0.090700  0.541600  1.0  0.0661
  H  H128  1  0.988000  0.120100  0.527900  1.0  0.0792
  H  H129  1  0.026000  0.082800  0.808400  1.0  0.0882
  H  H130  1  0.883200  0.054900  0.730900  1.0  0.0451
  H  H131  1  0.041800  0.109000  0.596800  1.0  0.0823
  H  H132  1  0.056700  0.094700  0.731400  1.0  0.1041
  H  H133  1  0.450900  0.409300  0.272000  1.0  0.066
  H  H134  1  0.407800  0.379900  0.367900  1.0  0.0795
  H  H135  1  0.725600  0.417200  0.443200  1.0  0.0897
  H  H136  1  0.676000  0.445100  0.328300  1.0  0.0442
  H  H137  1  0.487800  0.391000  0.432800  1.0  0.083
  H  H138  1  0.636700  0.405300  0.462000  1.0  0.1056
  H  H139  1  0.637300  0.178900  0.228000  1.0  0.0665
  H  H140  1  0.512000  0.039900  0.132100  1.0  0.0804
  H  H141  1  0.474000  0.282400  0.056800  1.0  0.087
  H  H142  1  0.616800  0.347700  0.171700  1.0  0.0438
  H  H143  1  0.458200  0.055000  0.067200  1.0  0.0785
  H  H144  1  0.443300  0.174700  0.038000  1.0  0.104
  H  H145  1  0.409300  0.772000  0.950900  1.0  0.065
  H  H146  1  0.379900  0.867900  0.907800  1.0  0.0799
  H  H147  1  0.417200  0.943200  0.225600  1.0  0.089
  H  H148  1  0.445100  0.828300  0.176000  1.0  0.0437
  H  H149  1  0.391000  0.932800  0.987800  1.0  0.0825
  H  H150  1  0.405300  0.962000  0.136700  1.0  0.1048
  H  H151  1  0.178900  0.728000  0.137300  1.0  0.0661
  H  H152  1  0.039900  0.632100  0.012000  1.0  0.0789
  H  H153  1  0.282400  0.556800  0.974000  1.0  0.0889
  H  H154  1  0.347700  0.671700  0.116800  1.0  0.0433
  H  H155  1  0.055000  0.567200  0.958200  1.0  0.084
  H  H156  1  0.174700  0.538000  0.943300  1.0  0.1041
  H  H157  1  0.321100  0.458400  0.549100  1.0  0.0654
  H  H158  1  0.460100  0.472100  0.592200  1.0  0.0788
  H  H159  1  0.217600  0.191600  0.274400  1.0  0.088
  H  H160  1  0.152300  0.269100  0.324000  1.0  0.0452
  H  H161  1  0.445000  0.403200  0.512200  1.0  0.0856
  H  H162  1  0.325300  0.268600  0.363300  1.0  0.1045
  H  H163  1  0.090700  0.041600  0.362700  1.0  0.0668
  H  H164  1  0.120100  0.027900  0.488000  1.0  0.0795
  H  H165  1  0.082800  0.308400  0.526000  1.0  0.0901
  H  H166  1  0.054900  0.230900  0.383200  1.0  0.0451
  H  H167  1  0.109000  0.096800  0.541800  1.0  0.0813
  H  H168  1  0.094700  0.231400  0.556700  1.0  0.1057
  H  H169  1  0.041600  0.862700  0.590700  1.0  0.0675
  H  H170  1  0.027900  0.988000  0.620100  1.0  0.0785
  H  H171  1  0.308400  0.026000  0.582800  1.0  0.0893
  H  H172  1  0.230900  0.883200  0.554900  1.0  0.0466
  H  H173  1  0.096800  0.041800  0.609000  1.0  0.0819
  H  H174  1  0.231400  0.056700  0.594700  1.0  0.1052
  H  H175  1  0.458400  0.049100  0.821100  1.0  0.0653
  H  H176  1  0.472100  0.092200  0.960100  1.0  0.0783
  H  H177  1  0.191600  0.774400  0.717600  1.0  0.0899
  H  H178  1  0.269100  0.824000  0.652300  1.0  0.0449
  H  H179  1  0.403200  0.012200  0.945000  1.0  0.0824
  H  H180  1  0.268600  0.863300  0.825300  1.0  0.1057
  H  H181  1  0.728000  0.637300  0.678900  1.0  0.066
  H  H182  1  0.632100  0.512000  0.539900  1.0  0.0788
  H  H183  1  0.556800  0.474000  0.782400  1.0  0.0919
  H  H184  1  0.671700  0.616800  0.847700  1.0  0.0457
  H  H185  1  0.567200  0.458200  0.555000  1.0  0.0818
  H  H186  1  0.538000  0.443300  0.674700  1.0  0.1049
  H  H187  1  0.772000  0.450900  0.909300  1.0  0.0646
  H  H188  1  0.867900  0.407800  0.879900  1.0  0.0788
  H  H189  1  0.943200  0.725600  0.917200  1.0  0.09
  H  H190  1  0.828300  0.676000  0.945100  1.0  0.0437
  H  H191  1  0.932800  0.487800  0.891000  1.0  0.0846
  H  H192  1  0.962000  0.636700  0.905300  1.0  0.1049
  H  H193  1  0.821100  0.549100  0.458400  1.0  0.0647
  H  H194  1  0.960100  0.592200  0.472100  1.0  0.0788
  H  H195  1  0.717600  0.274400  0.191600  1.0  0.0897
  H  H196  1  0.652300  0.324000  0.269100  1.0  0.0438
  H  H197  1  0.945000  0.512200  0.403200  1.0  0.0859
  H  H198  1  0.825300  0.363300  0.268600  1.0  0.1046
  H  H199  1  0.590700  0.362700  0.041600  1.0  0.0666
  H  H200  1  0.620100  0.488000  0.027900  1.0  0.0787
  H  H201  1  0.582800  0.526000  0.308400  1.0  0.0909
  H  H202  1  0.554900  0.383200  0.230900  1.0  0.0466
  H  H203  1  0.609000  0.541800  0.096800  1.0  0.0817
  H  H204  1  0.594700  0.556700  0.231400  1.0  0.1054
  H  H205  1  0.909300  0.950900  0.772000  1.0  0.0647
  H  H206  1  0.879900  0.907800  0.867900  1.0  0.0787
  H  H207  1  0.917200  0.225600  0.943200  1.0  0.0898
  H  H208  1  0.945100  0.176000  0.828300  1.0  0.0448
  H  H209  1  0.891000  0.987800  0.932800  1.0  0.0807
  H  H210  1  0.905300  0.136700  0.962000  1.0  0.1056
  H  H211  1  0.678900  0.137300  0.728000  1.0  0.0662
  H  H212  1  0.539900  0.012000  0.632100  1.0  0.0787
  H  H213  1  0.782400  0.974000  0.556800  1.0  0.0906
  H  H214  1  0.847700  0.116800  0.671700  1.0  0.0459
  H  H215  1  0.555000  0.958200  0.567200  1.0  0.0824
  H  H216  1  0.674700  0.943300  0.538000  1.0  0.1046
  H  H217  1  0.272000  0.909300  0.450900  1.0  0.0654
  H  H218  1  0.367900  0.879900  0.407800  1.0  0.0793
  H  H219  1  0.443200  0.917200  0.725600  1.0  0.0879
  H  H220  1  0.328300  0.945100  0.676000  1.0  0.0446
  H  H221  1  0.432800  0.891000  0.487800  1.0  0.0836
  H  H222  1  0.462000  0.905300  0.636700  1.0  0.1037
  H  H223  1  0.228000  0.678900  0.637300  1.0  0.0663
  H  H224  1  0.132100  0.539900  0.512000  1.0  0.0801
  H  H225  1  0.056800  0.782400  0.474000  1.0  0.0886
  H  H226  1  0.171700  0.847700  0.616800  1.0  0.0441
  H  H227  1  0.067200  0.555000  0.458200  1.0  0.0796
  H  H228  1  0.038000  0.674700  0.443300  1.0  0.1043
  H  H229  1  0.958400  0.821100  0.049100  1.0  0.0664
  H  H230  1  0.972100  0.960100  0.092200  1.0  0.0795
  H  H231  1  0.691600  0.717600  0.774400  1.0  0.0926
  H  H232  1  0.769100  0.652300  0.824000  1.0  0.0442
  H  H233  1  0.903200  0.945000  0.012200  1.0  0.0809
  H  H234  1  0.768600  0.825300  0.863300  1.0  0.1044
  H  H235  1  0.541600  0.590700  0.862700  1.0  0.0661
  H  H236  1  0.527900  0.620100  0.988000  1.0  0.0794
  H  H237  1  0.808400  0.582800  0.026000  1.0  0.0899
  H  H238  1  0.730900  0.554900  0.883200  1.0  0.0442
  H  H239  1  0.596800  0.609000  0.041800  1.0  0.0823
  H  H240  1  0.731400  0.594700  0.056700  1.0  0.106
  H  H241  1  0.362700  0.541600  0.090700  1.0  0.0659
  H  H242  1  0.488000  0.527900  0.120100  1.0  0.0787
  H  H243  1  0.526000  0.808400  0.082800  1.0  0.0886
  H  H244  1  0.383200  0.730900  0.054900  1.0  0.0451
  H  H245  1  0.541800  0.596800  0.109000  1.0  0.0837
  H  H246  1  0.556700  0.731400  0.094700  1.0  0.1047
  H  H247  1  0.549100  0.958400  0.321100  1.0  0.0668
  H  H248  1  0.592200  0.972100  0.460100  1.0  0.0796
  H  H249  1  0.274400  0.691600  0.217600  1.0  0.0896
  H  H250  1  0.324000  0.769100  0.152300  1.0  0.0451
  H  H251  1  0.512200  0.903200  0.445000  1.0  0.0834
  H  H252  1  0.363300  0.768600  0.325300  1.0  0.1052
  H  H253  1  0.137300  0.228000  0.178900  1.0  0.0651
  H  H254  1  0.012000  0.132100  0.039900  1.0  0.0797
  H  H255  1  0.974000  0.056800  0.282400  1.0  0.0895
  H  H256  1  0.116800  0.171700  0.347700  1.0  0.0431
  H  H257  1  0.958200  0.067200  0.055000  1.0  0.0823
  H  H258  1  0.943300  0.038000  0.174700  1.0  0.1044
  H  H259  1  0.950900  0.272000  0.409300  1.0  0.0667
  H  H260  1  0.907800  0.367900  0.379900  1.0  0.079
  H  H261  1  0.225600  0.443200  0.417200  1.0  0.0881
  H  H262  1  0.176000  0.328300  0.445100  1.0  0.0436
  H  H263  1  0.987800  0.432800  0.391000  1.0  0.0848
  H  H264  1  0.136700  0.462000  0.405300  1.0  0.1056
  H  H265  1  0.950900  0.678900  0.041600  1.0  0.066
  H  H266  1  0.907800  0.539900  0.027900  1.0  0.0802
  H  H267  1  0.225600  0.782400  0.308400  1.0  0.0897
  H  H268  1  0.176000  0.847700  0.230900  1.0  0.0447
  H  H269  1  0.987800  0.555000  0.096800  1.0  0.0825
  H  H270  1  0.136700  0.674700  0.231400  1.0  0.1066
  H  H271  1  0.137300  0.909300  0.458400  1.0  0.0643
  H  H272  1  0.012000  0.879900  0.472100  1.0  0.0797
  H  H273  1  0.974000  0.917200  0.191600  1.0  0.089
  H  H274  1  0.116800  0.945100  0.269100  1.0  0.044
  H  H275  1  0.958200  0.891000  0.403200  1.0  0.0831
  H  H276  1  0.943300  0.905300  0.268600  1.0  0.1039
  H  H277  1  0.549100  0.590700  0.728000  1.0  0.0655
  H  H278  1  0.592200  0.620100  0.632100  1.0  0.0792
  H  H279  1  0.274400  0.582800  0.556800  1.0  0.0903
  H  H280  1  0.324000  0.554900  0.671700  1.0  0.0432
  H  H281  1  0.512200  0.609000  0.567200  1.0  0.0829
  H  H282  1  0.363300  0.594700  0.538000  1.0  0.1052
  H  H283  1  0.362700  0.821100  0.772000  1.0  0.0677
  H  H284  1  0.488000  0.960100  0.867900  1.0  0.0795
  H  H285  1  0.526000  0.717600  0.943200  1.0  0.0927
  H  H286  1  0.383200  0.652300  0.828300  1.0  0.0432
  H  H287  1  0.541800  0.945000  0.932800  1.0  0.0791
  H  H288  1  0.556700  0.825300  0.962000  1.0  0.1027
  H  H289  1  0.590700  0.228000  0.049100  1.0  0.0672
  H  H290  1  0.620100  0.132100  0.092200  1.0  0.0798
  H  H291  1  0.582800  0.056800  0.774400  1.0  0.0888
  H  H292  1  0.554900  0.171700  0.824000  1.0  0.0432
  H  H293  1  0.609000  0.067200  0.012200  1.0  0.0834
  H  H294  1  0.594700  0.038000  0.863300  1.0  0.1034
  H  H295  1  0.821100  0.272000  0.862700  1.0  0.0668
  H  H296  1  0.960100  0.367900  0.988000  1.0  0.0794
  H  H297  1  0.717600  0.443200  0.026000  1.0  0.0914
  H  H298  1  0.652300  0.328300  0.883200  1.0  0.0429
  H  H299  1  0.945000  0.432800  0.041800  1.0  0.0836
  H  H300  1  0.825300  0.462000  0.056700  1.0  0.1064
  H  H301  1  0.678900  0.541600  0.450900  1.0  0.066
  H  H302  1  0.539900  0.527900  0.407800  1.0  0.0787
  H  H303  1  0.782400  0.808400  0.725600  1.0  0.0893
  H  H304  1  0.847700  0.730900  0.676000  1.0  0.0447
  H  H305  1  0.555000  0.596800  0.487800  1.0  0.0868
  H  H306  1  0.674700  0.731400  0.636700  1.0  0.1049
  H  H307  1  0.909300  0.958400  0.637300  1.0  0.0655
  H  H308  1  0.879900  0.972100  0.512000  1.0  0.079
  H  H309  1  0.917200  0.691600  0.474000  1.0  0.0878
  H  H310  1  0.945100  0.769100  0.616800  1.0  0.0439
  H  H311  1  0.891000  0.903200  0.458200  1.0  0.0835
  H  H312  1  0.905300  0.768600  0.443300  1.0  0.1045
  H  H313  1  0.958400  0.137300  0.409300  1.0  0.0672
  H  H314  1  0.972100  0.012000  0.379900  1.0  0.078
  H  H315  1  0.691600  0.974000  0.417200  1.0  0.0923
  H  H316  1  0.769100  0.116800  0.445100  1.0  0.0463
  H  H317  1  0.903200  0.958200  0.391000  1.0  0.0821
  H  H318  1  0.768600  0.943300  0.405300  1.0  0.1048
  H  H319  1  0.541600  0.950900  0.178900  1.0  0.066
  H  H320  1  0.527900  0.907800  0.039900  1.0  0.0781
  H  H321  1  0.808400  0.225600  0.282400  1.0  0.0894
  H  H322  1  0.730900  0.176000  0.347700  1.0  0.0444
  H  H323  1  0.596800  0.987800  0.055000  1.0  0.0848
  H  H324  1  0.731400  0.136700  0.174700  1.0  0.105
  H  H325  1  0.272000  0.362700  0.321100  1.0  0.0667
  H  H326  1  0.367900  0.488000  0.460100  1.0  0.0793
  H  H327  1  0.443200  0.526000  0.217600  1.0  0.092
  H  H328  1  0.328300  0.383200  0.152300  1.0  0.0455
  H  H329  1  0.432800  0.541800  0.445000  1.0  0.0821
  H  H330  1  0.462000  0.556700  0.325300  1.0  0.1059
  H  H331  1  0.228000  0.549100  0.090700  1.0  0.0656
  H  H332  1  0.132100  0.592200  0.120100  1.0  0.0791
  H  H333  1  0.056800  0.274400  0.082800  1.0  0.0876
  H  H334  1  0.171700  0.324000  0.054900  1.0  0.044
  H  H335  1  0.067200  0.512200  0.109000  1.0  0.0839
  H  H336  1  0.038000  0.363300  0.094700  1.0  0.1059
  C  C337  1  0.151990  0.451610  0.548320  1.0  0.2975
  C  C338  1  0.075700  0.427220  0.539800  1.0  0.0006
  C  C339  1  0.110260  0.478080  0.582700  1.0  0.0922
  C  C340  1  0.247970  0.659780  0.736070  1.0  0.0925
  C  C341  1  0.287360  0.705680  0.782480  1.0  0.0043
  C  C342  1  0.322530  0.677930  0.740120  1.0  0.2678
  C  C343  1  0.091400  0.506300  0.611300  1.0  0.0524
  C  C344  1  0.192600  0.627100  0.714700  1.0  0.104
  C  C345  1  0.403290  0.603670  0.951680  1.0  0.2953
  C  C346  1  0.387420  0.535900  0.960200  1.0  0.003
  C  C347  1  0.395380  0.527560  0.917300  1.0  0.0876
  C  C348  1  0.423710  0.511900  0.763930  1.0  0.0895
  C  C349  1  0.423200  0.504880  0.717520  1.0  0.0027
  C  C350  1  0.437810  0.582410  0.759880  1.0  0.2655
  C  C351  1  0.395000  0.480100  0.888700  1.0  0.0525
  C  C352  1  0.412400  0.477900  0.785300  1.0  0.1068
  C  C353  1  0.096710  0.048390  0.200380  1.0  0.2999
  C  C354  1  0.112580  0.072780  0.148480  1.0  0.0042
  C  C355  1  0.104620  0.021920  0.132180  1.0  0.0922
  C  C356  1  0.076290  0.840220  0.088190  1.0  0.0901
  C  C357  1  0.076800  0.794320  0.081680  1.0  0.0053
  C  C358  1  0.062190  0.822070  0.144600  1.0  0.2672
  C  C359  1  0.105000  0.993700  0.085100  1.0  0.0555
  C  C360  1  0.087600  0.872900  0.065500  1.0  0.1014
  C  C361  1  0.348010  0.896330  0.299620  1.0  0.2981
  C  C362  1  0.424300  0.964100  0.351520  1.0  0.0035
  C  C363  1  0.389740  0.972440  0.367820  1.0  0.0936
  C  C364  1  0.252030  0.988100  0.411810  1.0  0.0864
  C  C365  1  0.212640  0.995120  0.418320  1.0  0.003
  C  C366  1  0.177470  0.917590  0.355400  1.0  0.2638
  C  C367  1  0.408600  0.019900  0.414900  1.0  0.0538
  C  C368  1  0.307400  0.022100  0.434500  1.0  0.1054
  C  C369  1  0.700380  0.096710  0.548390  1.0  0.2969
  C  C370  1  0.648480  0.112580  0.572780  1.0  0.0032
  C  C371  1  0.632180  0.104620  0.521920  1.0  0.0889
  C  C372  1  0.588190  0.076290  0.340220  1.0  0.0899
  C  C373  1  0.581680  0.076800  0.294320  1.0  0.0048
  C  C374  1  0.644600  0.062190  0.322070  1.0  0.266
  C  C375  1  0.585100  0.105000  0.493700  1.0  0.0529
  C  C376  1  0.565500  0.087600  0.372900  1.0  0.1061
  C  C377  1  0.799620  0.348010  0.396330  1.0  0.2956
  C  C378  1  0.851520  0.424300  0.464100  1.0  -0.0019
  C  C379  1  0.867820  0.389740  0.472440  1.0  0.0919
  C  C380  1  0.911810  0.252030  0.488100  1.0  0.0912
  C  C381  1  0.918320  0.212640  0.495120  1.0  0.0053
  C  C382  1  0.855400  0.177470  0.417590  1.0  0.2661
  C  C383  1  0.914900  0.408600  0.519900  1.0  0.0547
  C  C384  1  0.934500  0.307400  0.522100  1.0  0.106
  C  C385  1  0.048320  0.151990  0.951610  1.0  0.2953
  C  C386  1  0.039800  0.075700  0.927220  1.0  0.0008
  C  C387  1  0.082700  0.110260  0.978080  1.0  0.0932
  C  C388  1  0.236070  0.247970  0.159780  1.0  0.0919
  C  C389  1  0.282480  0.287360  0.205680  1.0  0.0076
  C  C390  1  0.240120  0.322530  0.177930  1.0  0.2665
  C  C391  1  0.111300  0.091400  0.006300  1.0  0.0544
  C  C392  1  0.214700  0.192600  0.127100  1.0  0.1053
  C  C393  1  0.451680  0.403290  0.103670  1.0  0.2987
  C  C394  1  0.460200  0.387420  0.035900  1.0  0.002
  C  C395  1  0.417300  0.395380  0.027560  1.0  0.093
  C  C396  1  0.263930  0.423710  0.011900  1.0  0.0886
  C  C397  1  0.217520  0.423200  0.004880  1.0  0.004
  C  C398  1  0.259880  0.437810  0.082410  1.0  0.2662
  C  C399  1  0.388700  0.395000  0.980100  1.0  0.0582
  C  C400  1  0.285300  0.412400  0.977900  1.0  0.1017
  C  C401  1  0.603670  0.451680  0.903290  1.0  0.2975
  C  C402  1  0.535900  0.460200  0.887420  1.0  0.0025
  C  C403  1  0.527560  0.417300  0.895380  1.0  0.0927
  C  C404  1  0.511900  0.263930  0.923710  1.0  0.0893
  C  C405  1  0.504880  0.217520  0.923200  1.0  0.0048
  C  C406  1  0.582410  0.259880  0.937810  1.0  0.2667
  C  C407  1  0.480100  0.388700  0.895000  1.0  0.0523
  C  C408  1  0.477900  0.285300  0.912400  1.0  0.1086
  C  C409  1  0.451610  0.048320  0.651990  1.0  0.2996
  C  C410  1  0.427220  0.039800  0.575700  1.0  0.001
  C  C411  1  0.478080  0.082700  0.610260  1.0  0.0907
  C  C412  1  0.659780  0.236070  0.747970  1.0  0.0894
  C  C413  1  0.705680  0.282480  0.787360  1.0  0.0019
  C  C414  1  0.677930  0.240120  0.822530  1.0  0.267
  C  C415  1  0.506300  0.111300  0.591400  1.0  0.0538
  C  C416  1  0.627100  0.214700  0.692600  1.0  0.1016
  C  C417  1  0.896330  0.799620  0.848010  1.0  0.294
  C  C418  1  0.964100  0.851520  0.924300  1.0  0.0042
  C  C419  1  0.972440  0.867820  0.889740  1.0  0.0889
  C  C420  1  0.988100  0.911810  0.752030  1.0  0.0866
  C  C421  1  0.995120  0.918320  0.712640  1.0  0.0054
  C  C422  1  0.917590  0.855400  0.677470  1.0  0.2667
  C  C423  1  0.019900  0.914900  0.908600  1.0  0.0524
  C  C424  1  0.022100  0.934500  0.807400  1.0  0.1062
  C  C425  1  0.048390  0.700380  0.596710  1.0  0.2952
  C  C426  1  0.072780  0.648480  0.612580  1.0  0.0027
  C  C427  1  0.021920  0.632180  0.604620  1.0  0.0955
  C  C428  1  0.840220  0.588190  0.576290  1.0  0.0872
  C  C429  1  0.794320  0.581680  0.576800  1.0  0.003
  C  C430  1  0.822070  0.644600  0.562190  1.0  0.2664
  C  C431  1  0.993700  0.585100  0.605000  1.0  0.0521
  C  C432  1  0.872900  0.565500  0.587600  1.0  0.11
  C  C433  1  0.048390  0.348010  0.951680  1.0  0.297
  C  C434  1  0.072780  0.424300  0.960200  1.0  -1e-04
  C  C435  1  0.021920  0.389740  0.917300  1.0  0.096
  C  C436  1  0.840220  0.252030  0.763930  1.0  0.0902
  C  C437  1  0.794320  0.212640  0.717520  1.0  0.0065
  C  C438  1  0.822070  0.177470  0.759880  1.0  0.2645
  C  C439  1  0.993700  0.408600  0.888700  1.0  0.0511
  C  C440  1  0.872900  0.307400  0.785300  1.0  0.1077
  C  C441  1  0.896330  0.096710  0.548320  1.0  0.2971
  C  C442  1  0.964100  0.112580  0.539800  1.0  0.004
  C  C443  1  0.972440  0.104620  0.582700  1.0  0.0896
  C  C444  1  0.988100  0.076290  0.736070  1.0  0.0872
  C  C445  1  0.995120  0.076800  0.782480  1.0  0.0069
  C  C446  1  0.917590  0.062190  0.740120  1.0  0.2672
  C  C447  1  0.019900  0.105000  0.611300  1.0  0.0541
  C  C448  1  0.022100  0.087600  0.714700  1.0  0.1028
  C  C449  1  0.451610  0.403290  0.299620  1.0  0.2982
  C  C450  1  0.427220  0.387420  0.351520  1.0  0.0029
  C  C451  1  0.478080  0.395380  0.367820  1.0  0.0928
  C  C452  1  0.659780  0.423710  0.411810  1.0  0.0916
  C  C453  1  0.705680  0.423200  0.418320  1.0  0.0042
  C  C454  1  0.677930  0.437810  0.355400  1.0  0.266
  C  C455  1  0.506300  0.395000  0.414900  1.0  0.051
  C  C456  1  0.627100  0.412400  0.434500  1.0  0.1012
  C  C457  1  0.603670  0.151990  0.200380  1.0  0.2948
  C  C458  1  0.535900  0.075700  0.148480  1.0  0.0023
  C  C459  1  0.527560  0.110260  0.132180  1.0  0.0994
  C  C460  1  0.511900  0.247970  0.088190  1.0  0.0923
  C  C461  1  0.504880  0.287360  0.081680  1.0  0.0047
  C  C462  1  0.582410  0.322530  0.144600  1.0  0.2663
  C  C463  1  0.480100  0.091400  0.085100  1.0  0.0507
  C  C464  1  0.477900  0.192600  0.065500  1.0  0.1103
  C  C465  1  0.403290  0.799620  0.951610  1.0  0.2947
  C  C466  1  0.387420  0.851520  0.927220  1.0  0.0044
  C  C467  1  0.395380  0.867820  0.978080  1.0  0.0913
  C  C468  1  0.423710  0.911810  0.159780  1.0  0.091
  C  C469  1  0.423200  0.918320  0.205680  1.0  0.0038
  C  C470  1  0.437810  0.855400  0.177930  1.0  0.266
  C  C471  1  0.395000  0.914900  0.006300  1.0  0.052
  C  C472  1  0.412400  0.934500  0.127100  1.0  0.1076
  C  C473  1  0.151990  0.700380  0.103670  1.0  0.2951
  C  C474  1  0.075700  0.648480  0.035900  1.0  0.0021
  C  C475  1  0.110260  0.632180  0.027560  1.0  0.0937
  C  C476  1  0.247970  0.588190  0.011900  1.0  0.0901
  C  C477  1  0.287360  0.581680  0.004880  1.0  0.0038
  C  C478  1  0.322530  0.644600  0.082410  1.0  0.2649
  C  C479  1  0.091400  0.585100  0.980100  1.0  0.0511
  C  C480  1  0.192600  0.565500  0.977900  1.0  0.1072
  C  C481  1  0.348010  0.451680  0.548390  1.0  0.2983
  C  C482  1  0.424300  0.460200  0.572780  1.0  0.0033
  C  C483  1  0.389740  0.417300  0.521920  1.0  0.0953
  C  C484  1  0.252030  0.263930  0.340220  1.0  0.0882
  C  C485  1  0.212640  0.217520  0.294320  1.0  0.0031
  C  C486  1  0.177470  0.259880  0.322070  1.0  0.2661
  C  C487  1  0.408600  0.388700  0.493700  1.0  0.0539
  C  C488  1  0.307400  0.285300  0.372900  1.0  0.1048
  C  C489  1  0.096710  0.048320  0.396330  1.0  0.2985
  C  C490  1  0.112580  0.039800  0.464100  1.0  0.0036
  C  C491  1  0.104620  0.082700  0.472440  1.0  0.0928
  C  C492  1  0.076290  0.236070  0.488100  1.0  0.0915
  C  C493  1  0.076800  0.282480  0.495120  1.0  0.0011
  C  C494  1  0.062190  0.240120  0.417590  1.0  0.2666
  C  C495  1  0.105000  0.111300  0.519900  1.0  0.0517
  C  C496  1  0.087600  0.214700  0.522100  1.0  0.1021
  C  C497  1  0.048320  0.896330  0.596710  1.0  0.2986
  C  C498  1  0.039800  0.964100  0.612580  1.0  0.0014
  C  C499  1  0.082700  0.972440  0.604620  1.0  0.0923
  C  C500  1  0.236070  0.988100  0.576290  1.0  0.0847
  C  C501  1  0.282480  0.995120  0.576800  1.0  0.0037
  C  C502  1  0.240120  0.917590  0.562190  1.0  0.2634
  C  C503  1  0.111300  0.019900  0.605000  1.0  0.0533
  C  C504  1  0.214700  0.022100  0.587600  1.0  0.1051
  C  C505  1  0.451680  0.048390  0.848010  1.0  0.3011
  C  C506  1  0.460200  0.072780  0.924300  1.0  0.0044
  C  C507  1  0.417300  0.021920  0.889740  1.0  0.0989
  C  C508  1  0.263930  0.840220  0.752030  1.0  0.0921
  C  C509  1  0.217520  0.794320  0.712640  1.0  0.0048
  C  C510  1  0.259880  0.822070  0.677470  1.0  0.2671
  C  C511  1  0.388700  0.993700  0.908600  1.0  0.0536
  C  C512  1  0.285300  0.872900  0.807400  1.0  0.1055
  C  C513  1  0.700380  0.603670  0.651990  1.0  0.2969
  C  C514  1  0.648480  0.535900  0.575700  1.0  0.0034
  C  C515  1  0.632180  0.527560  0.610260  1.0  0.0929
  C  C516  1  0.588190  0.511900  0.747970  1.0  0.0888
  C  C517  1  0.581680  0.504880  0.787360  1.0  0.0043
  C  C518  1  0.644600  0.582410  0.822530  1.0  0.266
  C  C519  1  0.585100  0.480100  0.591400  1.0  0.0539
  C  C520  1  0.565500  0.477900  0.692600  1.0  0.1078
  C  C521  1  0.799620  0.451610  0.903290  1.0  0.2972
  C  C522  1  0.851520  0.427220  0.887420  1.0  0.0005
  C  C523  1  0.867820  0.478080  0.895380  1.0  0.0901
  C  C524  1  0.911810  0.659780  0.923710  1.0  0.0881
  C  C525  1  0.918320  0.705680  0.923200  1.0  0.0054
  C  C526  1  0.855400  0.677930  0.937810  1.0  0.2674
  C  C527  1  0.914900  0.506300  0.895000  1.0  0.051
  C  C528  1  0.934500  0.627100  0.912400  1.0  0.1041
  C  C529  1  0.848010  0.548390  0.451680  1.0  0.2975
  C  C530  1  0.924300  0.572780  0.460200  1.0  0.0012
  C  C531  1  0.889740  0.521920  0.417300  1.0  0.0931
  C  C532  1  0.752030  0.340220  0.263930  1.0  0.0906
  C  C533  1  0.712640  0.294320  0.217520  1.0  0.0055
  C  C534  1  0.677470  0.322070  0.259880  1.0  0.2676
  C  C535  1  0.908600  0.493700  0.388700  1.0  0.0519
  C  C536  1  0.807400  0.372900  0.285300  1.0  0.1041
  C  C537  1  0.596710  0.396330  0.048320  1.0  0.2957
  C  C538  1  0.612580  0.464100  0.039800  1.0  0.0047
  C  C539  1  0.604620  0.472440  0.082700  1.0  0.0965
  C  C540  1  0.576290  0.488100  0.236070  1.0  0.0881
  C  C541  1  0.576800  0.495120  0.282480  1.0  0.0035
  C  C542  1  0.562190  0.417590  0.240120  1.0  0.2633
  C  C543  1  0.605000  0.519900  0.111300  1.0  0.0545
  C  C544  1  0.587600  0.522100  0.214700  1.0  0.1055
  C  C545  1  0.903290  0.951610  0.799620  1.0  0.3006
  C  C546  1  0.887420  0.927220  0.851520  1.0  0.0046
  C  C547  1  0.895380  0.978080  0.867820  1.0  0.1
  C  C548  1  0.923710  0.159780  0.911810  1.0  0.0908
  C  C549  1  0.923200  0.205680  0.918320  1.0  0.0048
  C  C550  1  0.937810  0.177930  0.855400  1.0  0.267
  C  C551  1  0.895000  0.006300  0.914900  1.0  0.0533
  C  C552  1  0.912400  0.127100  0.934500  1.0  0.1037
  C  C553  1  0.651990  0.103670  0.700380  1.0  0.2978
  C  C554  1  0.575700  0.035900  0.648480  1.0  0.0008
  C  C555  1  0.610260  0.027560  0.632180  1.0  0.0935
  C  C556  1  0.747970  0.011900  0.588190  1.0  0.0866
  C  C557  1  0.787360  0.004880  0.581680  1.0  0.0025
  C  C558  1  0.822530  0.082410  0.644600  1.0  0.2659
  C  C559  1  0.591400  0.980100  0.585100  1.0  0.0526
  C  C560  1  0.692600  0.977900  0.565500  1.0  0.1068
  C  C561  1  0.299620  0.903290  0.451610  1.0  0.298
  C  C562  1  0.351520  0.887420  0.427220  1.0  0.0032
  C  C563  1  0.367820  0.895380  0.478080  1.0  0.0897
  C  C564  1  0.411810  0.923710  0.659780  1.0  0.0903
  C  C565  1  0.418320  0.923200  0.705680  1.0  0.0067
  C  C566  1  0.355400  0.937810  0.677930  1.0  0.2668
  C  C567  1  0.414900  0.895000  0.506300  1.0  0.0539
  C  C568  1  0.434500  0.912400  0.627100  1.0  0.1033
  C  C569  1  0.200380  0.651990  0.603670  1.0  0.2965
  C  C570  1  0.148480  0.575700  0.535900  1.0  -0.0002
  C  C571  1  0.132180  0.610260  0.527560  1.0  0.0959
  C  C572  1  0.088190  0.747970  0.511900  1.0  0.0919
  C  C573  1  0.081680  0.787360  0.504880  1.0  0.0067
  C  C574  1  0.144600  0.822530  0.582410  1.0  0.2652
  C  C575  1  0.085100  0.591400  0.480100  1.0  0.0562
  C  C576  1  0.065500  0.692600  0.477900  1.0  0.1137
  C  C577  1  0.951680  0.848010  0.048390  1.0  0.2949
  C  C578  1  0.960200  0.924300  0.072780  1.0  0.0017
  C  C579  1  0.917300  0.889740  0.021920  1.0  0.0993
  C  C580  1  0.763930  0.752030  0.840220  1.0  0.0915
  C  C581  1  0.717520  0.712640  0.794320  1.0  0.0043
  C  C582  1  0.759880  0.677470  0.822070  1.0  0.2654
  C  C583  1  0.888700  0.908600  0.993700  1.0  0.0516
  C  C584  1  0.785300  0.807400  0.872900  1.0  0.1067
  C  C585  1  0.548320  0.596710  0.896330  1.0  0.2978
  C  C586  1  0.539800  0.612580  0.964100  1.0  0.0024
  C  C587  1  0.582700  0.604620  0.972440  1.0  0.0925
  C  C588  1  0.736070  0.576290  0.988100  1.0  0.0908
  C  C589  1  0.782480  0.576800  0.995120  1.0  0.0043
  C  C590  1  0.740120  0.562190  0.917590  1.0  0.2662
  C  C591  1  0.611300  0.605000  0.019900  1.0  0.0517
  C  C592  1  0.714700  0.587600  0.022100  1.0  0.1005
  C  C593  1  0.396330  0.548320  0.096710  1.0  0.2968
  C  C594  1  0.464100  0.539800  0.112580  1.0  0.0038
  C  C595  1  0.472440  0.582700  0.104620  1.0  0.091
  C  C596  1  0.488100  0.736070  0.076290  1.0  0.0871
  C  C597  1  0.495120  0.782480  0.076800  1.0  0.0045
  C  C598  1  0.417590  0.740120  0.062190  1.0  0.266
  C  C599  1  0.519900  0.611300  0.105000  1.0  0.0549
  C  C600  1  0.522100  0.714700  0.087600  1.0  0.1035
  C  C601  1  0.548390  0.951680  0.348010  1.0  0.2995
  C  C602  1  0.572780  0.960200  0.424300  1.0  0.0029
  C  C603  1  0.521920  0.917300  0.389740  1.0  0.0944
  C  C604  1  0.340220  0.763930  0.252030  1.0  0.0919
  C  C605  1  0.294320  0.717520  0.212640  1.0  0.0017
  C  C606  1  0.322070  0.759880  0.177470  1.0  0.2671
  C  C607  1  0.493700  0.888700  0.408600  1.0  0.0523
  C  C608  1  0.372900  0.785300  0.307400  1.0  0.1061
  C  C609  1  0.103670  0.200380  0.151990  1.0  0.2932
  C  C610  1  0.035900  0.148480  0.075700  1.0  0.0042
  C  C611  1  0.027560  0.132180  0.110260  1.0  0.0927
  C  C612  1  0.011900  0.088190  0.247970  1.0  0.091
  C  C613  1  0.004880  0.081680  0.287360  1.0  0.005
  C  C614  1  0.082410  0.144600  0.322530  1.0  0.2663
  C  C615  1  0.980100  0.085100  0.091400  1.0  0.0519
  C  C616  1  0.977900  0.065500  0.192600  1.0  0.1086
  C  C617  1  0.951610  0.299620  0.403290  1.0  0.2946
  C  C618  1  0.927220  0.351520  0.387420  1.0  0.0021
  C  C619  1  0.978080  0.367820  0.395380  1.0  0.0923
  C  C620  1  0.159780  0.411810  0.423710  1.0  0.0899
  C  C621  1  0.205680  0.418320  0.423200  1.0  0.0033
  C  C622  1  0.177930  0.355400  0.437810  1.0  0.2649
  C  C623  1  0.006300  0.414900  0.395000  1.0  0.051
  C  C624  1  0.127100  0.434500  0.412400  1.0  0.1059
  C  C625  1  0.951610  0.651990  0.048320  1.0  0.2969
  C  C626  1  0.927220  0.575700  0.039800  1.0  -0.0011
  C  C627  1  0.978080  0.610260  0.082700  1.0  0.092
  C  C628  1  0.159780  0.747970  0.236070  1.0  0.0932
  C  C629  1  0.205680  0.787360  0.282480  1.0  0.0057
  C  C630  1  0.177930  0.822530  0.240120  1.0  0.2664
  C  C631  1  0.006300  0.591400  0.111300  1.0  0.0527
  C  C632  1  0.127100  0.692600  0.214700  1.0  0.1073
  C  C633  1  0.103670  0.903290  0.451680  1.0  0.297
  C  C634  1  0.035900  0.887420  0.460200  1.0  0.0037
  C  C635  1  0.027560  0.895380  0.417300  1.0  0.0898
  C  C636  1  0.011900  0.923710  0.263930  1.0  0.0901
  C  C637  1  0.004880  0.923200  0.217520  1.0  0.005
  C  C638  1  0.082410  0.937810  0.259880  1.0  0.2661
  C  C639  1  0.980100  0.895000  0.388700  1.0  0.0535
  C  C640  1  0.977900  0.912400  0.285300  1.0  0.1055
  C  C641  1  0.548390  0.596710  0.700380  1.0  0.298
  C  C642  1  0.572780  0.612580  0.648480  1.0  0.0024
  C  C643  1  0.521920  0.604620  0.632180  1.0  0.0917
  C  C644  1  0.340220  0.576290  0.588190  1.0  0.0877
  C  C645  1  0.294320  0.576800  0.581680  1.0  0.0037
  C  C646  1  0.322070  0.562190  0.644600  1.0  0.2667
  C  C647  1  0.493700  0.605000  0.585100  1.0  0.0521
  C  C648  1  0.372900  0.587600  0.565500  1.0  0.1011
  C  C649  1  0.396330  0.848010  0.799620  1.0  0.2949
  C  C650  1  0.464100  0.924300  0.851520  1.0  0.0007
  C  C651  1  0.472440  0.889740  0.867820  1.0  0.0932
  C  C652  1  0.488100  0.752030  0.911810  1.0  0.0891
  C  C653  1  0.495120  0.712640  0.918320  1.0  0.0071
  C  C654  1  0.417590  0.677470  0.855400  1.0  0.2665
  C  C655  1  0.519900  0.908600  0.914900  1.0  0.0546
  C  C656  1  0.522100  0.807400  0.934500  1.0  0.105
  C  C657  1  0.596710  0.200380  0.048390  1.0  0.2948
  C  C658  1  0.612580  0.148480  0.072780  1.0  0.0041
  C  C659  1  0.604620  0.132180  0.021920  1.0  0.0896
  C  C660  1  0.576290  0.088190  0.840220  1.0  0.0899
  C  C661  1  0.576800  0.081680  0.794320  1.0  0.0054
  C  C662  1  0.562190  0.144600  0.822070  1.0  0.2664
  C  C663  1  0.605000  0.085100  0.993700  1.0  0.0527
  C  C664  1  0.587600  0.065500  0.872900  1.0  0.1066
  C  C665  1  0.848010  0.299620  0.896330  1.0  0.295
  C  C666  1  0.924300  0.351520  0.964100  1.0  0.0031
  C  C667  1  0.889740  0.367820  0.972440  1.0  0.0938
  C  C668  1  0.752030  0.411810  0.988100  1.0  0.0866
  C  C669  1  0.712640  0.418320  0.995120  1.0  0.0018
  C  C670  1  0.677470  0.355400  0.917590  1.0  0.2666
  C  C671  1  0.908600  0.414900  0.019900  1.0  0.0523
  C  C672  1  0.807400  0.434500  0.022100  1.0  0.1069
  C  C673  1  0.651990  0.548320  0.451610  1.0  0.2983
  C  C674  1  0.575700  0.539800  0.427220  1.0  0.0032
  C  C675  1  0.610260  0.582700  0.478080  1.0  0.0914
  C  C676  1  0.747970  0.736070  0.659780  1.0  0.0895
  C  C677  1  0.787360  0.782480  0.705680  1.0  0.0036
  C  C678  1  0.822530  0.740120  0.677930  1.0  0.2659
  C  C679  1  0.591400  0.611300  0.506300  1.0  0.0531
  C  C680  1  0.692600  0.714700  0.627100  1.0  0.1035
  C  C681  1  0.903290  0.951680  0.603670  1.0  0.2996
  C  C682  1  0.887420  0.960200  0.535900  1.0  0.0005
  C  C683  1  0.895380  0.917300  0.527560  1.0  0.0919
  C  C684  1  0.923710  0.763930  0.511900  1.0  0.0893
  C  C685  1  0.923200  0.717520  0.504880  1.0  0.0016
  C  C686  1  0.937810  0.759880  0.582410  1.0  0.2673
  C  C687  1  0.895000  0.888700  0.480100  1.0  0.0541
  C  C688  1  0.912400  0.785300  0.477900  1.0  0.1051
  C  C689  1  0.951680  0.103670  0.403290  1.0  0.2978
  C  C690  1  0.960200  0.035900  0.387420  1.0  0.0017
  C  C691  1  0.917300  0.027560  0.395380  1.0  0.0954
  C  C692  1  0.763930  0.011900  0.423710  1.0  0.0884
  C  C693  1  0.717520  0.004880  0.423200  1.0  0.004
  C  C694  1  0.759880  0.082410  0.437810  1.0  0.265
  C  C695  1  0.888700  0.980100  0.395000  1.0  0.0527
  C  C696  1  0.785300  0.977900  0.412400  1.0  0.1066
  C  C697  1  0.548320  0.951610  0.151990  1.0  0.3007
  C  C698  1  0.539800  0.927220  0.075700  1.0  0.004
  C  C699  1  0.582700  0.978080  0.110260  1.0  0.0905
  C  C700  1  0.736070  0.159780  0.247970  1.0  0.0879
  C  C701  1  0.782480  0.205680  0.287360  1.0  0.0052
  C  C702  1  0.740120  0.177930  0.322530  1.0  0.2669
  C  C703  1  0.611300  0.006300  0.091400  1.0  0.0554
  C  C704  1  0.714700  0.127100  0.192600  1.0  0.1011
  C  C705  1  0.299620  0.396330  0.348010  1.0  0.2957
  C  C706  1  0.351520  0.464100  0.424300  1.0  0.0036
  C  C707  1  0.367820  0.472440  0.389740  1.0  0.0898
  C  C708  1  0.411810  0.488100  0.252030  1.0  0.0892
  C  C709  1  0.418320  0.495120  0.212640  1.0  0.0035
  C  C710  1  0.355400  0.417590  0.177470  1.0  0.2641
  C  C711  1  0.414900  0.519900  0.408600  1.0  0.0527
  C  C712  1  0.434500  0.522100  0.307400  1.0  0.1049
  C  C713  1  0.200380  0.548390  0.096710  1.0  0.2968
  C  C714  1  0.148480  0.572780  0.112580  1.0  0.0
  C  C715  1  0.132180  0.521920  0.104620  1.0  0.0925
  C  C716  1  0.088190  0.340220  0.076290  1.0  0.0904
  C  C717  1  0.081680  0.294320  0.076800  1.0  0.0045
  C  C718  1  0.144600  0.322070  0.062190  1.0  0.2678
  C  C719  1  0.085100  0.493700  0.105000  1.0  0.0524
  C  C720  1  0.065500  0.372900  0.087600  1.0  0.1045
  N  N721  1  0.160000  0.493090  0.588050  1.0  -0.4387
  N  N722  1  0.102080  0.410550  0.518330  1.0  -0.4315
  N  N723  1  0.113900  0.551800  0.652700  1.0  -0.2019
  N  N724  1  0.167000  0.580400  0.667800  1.0  -0.3723
  N  N725  1  0.271540  0.641130  0.709570  1.0  -0.4528
  N  N726  1  0.334840  0.717540  0.784620  1.0  -0.4105
  N  N727  1  0.405040  0.571950  0.911950  1.0  -0.4451
  N  N728  1  0.392220  0.583750  0.981670  1.0  -0.4278
  N  N729  1  0.399100  0.461200  0.847300  1.0  -0.2014
  N  N730  1  0.412600  0.499200  0.832200  1.0  -0.3796
  N  N731  1  0.431560  0.561970  0.790430  1.0  -0.4625
  N  N732  1  0.432920  0.550220  0.715380  1.0  -0.4075
  N  N733  1  0.094960  0.006910  0.166910  1.0  -0.4404
  N  N734  1  0.107780  0.089450  0.191530  1.0  -0.4303
  N  N735  1  0.100900  0.948200  0.062100  1.0  -0.2047
  N  N736  1  0.087400  0.919600  0.086600  1.0  -0.379
  N  N737  1  0.068440  0.858870  0.130410  1.0  -0.4599
  N  N738  1  0.067080  0.782460  0.117300  1.0  -0.4085
  N  N739  1  0.340000  0.928050  0.333090  1.0  -0.4462
  N  N740  1  0.397920  0.916250  0.308470  1.0  -0.4307
  N  N741  1  0.386100  0.038800  0.437900  1.0  -0.2041
  N  N742  1  0.333000  0.000800  0.413400  1.0  -0.3817
  N  N743  1  0.228460  0.938030  0.369590  1.0  -0.4631
  N  N744  1  0.165160  0.949780  0.382700  1.0  -0.4089
  N  N745  1  0.666910  0.094960  0.506910  1.0  -0.4404
  N  N746  1  0.691530  0.107780  0.589450  1.0  -0.4296
  N  N747  1  0.562100  0.100900  0.448200  1.0  -0.2047
  N  N748  1  0.586600  0.087400  0.419600  1.0  -0.3762
  N  N749  1  0.630410  0.068440  0.358870  1.0  -0.4586
  N  N750  1  0.617300  0.067080  0.282460  1.0  -0.4082
  N  N751  1  0.833090  0.340000  0.428050  1.0  -0.4403
  N  N752  1  0.808470  0.397920  0.416250  1.0  -0.4325
  N  N753  1  0.937900  0.386100  0.538800  1.0  -0.2024
  N  N754  1  0.913400  0.333000  0.500800  1.0  -0.3745
  N  N755  1  0.869590  0.228460  0.438030  1.0  -0.4645
  N  N756  1  0.882700  0.165160  0.449780  1.0  -0.4109
  N  N757  1  0.088050  0.160000  0.993090  1.0  -0.4372
  N  N758  1  0.018330  0.102080  0.910550  1.0  -0.4293
  N  N759  1  0.152700  0.113900  0.051800  1.0  -0.2078
  N  N760  1  0.167800  0.167000  0.080400  1.0  -0.3775
  N  N761  1  0.209570  0.271540  0.141130  1.0  -0.462
  N  N762  1  0.284620  0.334840  0.217540  1.0  -0.4101
  N  N763  1  0.411950  0.405040  0.071950  1.0  -0.4427
  N  N764  1  0.481670  0.392220  0.083750  1.0  -0.4295
  N  N765  1  0.347300  0.399100  0.961200  1.0  -0.2079
  N  N766  1  0.332200  0.412600  0.999200  1.0  -0.3768
  N  N767  1  0.290430  0.431560  0.061970  1.0  -0.4609
  N  N768  1  0.215380  0.432920  0.050220  1.0  -0.4087
  N  N769  1  0.571950  0.411950  0.905040  1.0  -0.437
  N  N770  1  0.583750  0.481670  0.892220  1.0  -0.4286
  N  N771  1  0.461200  0.347300  0.899100  1.0  -0.2072
  N  N772  1  0.499200  0.332200  0.912600  1.0  -0.3747
  N  N773  1  0.561970  0.290430  0.931560  1.0  -0.4494
  N  N774  1  0.550220  0.215380  0.932920  1.0  -0.4095
  N  N775  1  0.493090  0.088050  0.660000  1.0  -0.4427
  N  N776  1  0.410550  0.018330  0.602080  1.0  -0.4311
  N  N777  1  0.551800  0.152700  0.613900  1.0  -0.2092
  N  N778  1  0.580400  0.167800  0.667000  1.0  -0.3795
  N  N779  1  0.641130  0.209570  0.771540  1.0  -0.4593
  N  N780  1  0.717540  0.284620  0.834840  1.0  -0.4097
  N  N781  1  0.928050  0.833090  0.840000  1.0  -0.4386
  N  N782  1  0.916250  0.808470  0.897920  1.0  -0.4276
  N  N783  1  0.038800  0.937900  0.886100  1.0  -0.2068
  N  N784  1  0.000800  0.913400  0.833000  1.0  -0.3779
  N  N785  1  0.938030  0.869590  0.728460  1.0  -0.4622
  N  N786  1  0.949780  0.882700  0.665160  1.0  -0.4071
  N  N787  1  0.006910  0.666910  0.594960  1.0  -0.4397
  N  N788  1  0.089450  0.691530  0.607780  1.0  -0.4317
  N  N789  1  0.948200  0.562100  0.600900  1.0  -0.2009
  N  N790  1  0.919600  0.586600  0.587400  1.0  -0.3729
  N  N791  1  0.858870  0.630410  0.568440  1.0  -0.4648
  N  N792  1  0.782460  0.617300  0.567080  1.0  -0.4085
  N  N793  1  0.006910  0.340000  0.911950  1.0  -0.4435
  N  N794  1  0.089450  0.397920  0.981670  1.0  -0.4312
  N  N795  1  0.948200  0.386100  0.847300  1.0  -0.2032
  N  N796  1  0.919600  0.333000  0.832200  1.0  -0.3741
  N  N797  1  0.858870  0.228460  0.790430  1.0  -0.4621
  N  N798  1  0.782460  0.165160  0.715380  1.0  -0.4118
  N  N799  1  0.928050  0.094960  0.588050  1.0  -0.4417
  N  N800  1  0.916250  0.107780  0.518330  1.0  -0.4312
  N  N801  1  0.038800  0.100900  0.652700  1.0  -0.2086
  N  N802  1  0.000800  0.087400  0.667800  1.0  -0.3807
  N  N803  1  0.938030  0.068440  0.709570  1.0  -0.4649
  N  N804  1  0.949780  0.067080  0.784620  1.0  -0.4079
  N  N805  1  0.493090  0.405040  0.333090  1.0  -0.4431
  N  N806  1  0.410550  0.392220  0.308470  1.0  -0.4309
  N  N807  1  0.551800  0.399100  0.437900  1.0  -0.2113
  N  N808  1  0.580400  0.412600  0.413400  1.0  -0.38
  N  N809  1  0.641130  0.431560  0.369590  1.0  -0.4608
  N  N810  1  0.717540  0.432920  0.382700  1.0  -0.4087
  N  N811  1  0.571950  0.160000  0.166910  1.0  -0.4372
  N  N812  1  0.583750  0.102080  0.191530  1.0  -0.4296
  N  N813  1  0.461200  0.113900  0.062100  1.0  -0.2016
  N  N814  1  0.499200  0.167000  0.086600  1.0  -0.372
  N  N815  1  0.561970  0.271540  0.130410  1.0  -0.4576
  N  N816  1  0.550220  0.334840  0.117300  1.0  -0.41
  N  N817  1  0.405040  0.833090  0.993090  1.0  -0.4415
  N  N818  1  0.392220  0.808470  0.910550  1.0  -0.4291
  N  N819  1  0.399100  0.937900  0.051800  1.0  -0.2028
  N  N820  1  0.412600  0.913400  0.080400  1.0  -0.3751
  N  N821  1  0.431560  0.869590  0.141130  1.0  -0.4639
  N  N822  1  0.432920  0.882700  0.217540  1.0  -0.4076
  N  N823  1  0.160000  0.666910  0.071950  1.0  -0.4458
  N  N824  1  0.102080  0.691530  0.083750  1.0  -0.4314
  N  N825  1  0.113900  0.562100  0.961200  1.0  -0.2062
  N  N826  1  0.167000  0.586600  0.999200  1.0  -0.3755
  N  N827  1  0.271540  0.630410  0.061970  1.0  -0.461
  N  N828  1  0.334840  0.617300  0.050220  1.0  -0.4093
  N  N829  1  0.340000  0.411950  0.506910  1.0  -0.4426
  N  N830  1  0.397920  0.481670  0.589450  1.0  -0.4278
  N  N831  1  0.386100  0.347300  0.448200  1.0  -0.2066
  N  N832  1  0.333000  0.332200  0.419600  1.0  -0.3775
  N  N833  1  0.228460  0.290430  0.358870  1.0  -0.4617
  N  N834  1  0.165160  0.215380  0.282460  1.0  -0.4091
  N  N835  1  0.094960  0.088050  0.428050  1.0  -0.4383
  N  N836  1  0.107780  0.018330  0.416250  1.0  -0.4303
  N  N837  1  0.100900  0.152700  0.538800  1.0  -0.2078
  N  N838  1  0.087400  0.167800  0.500800  1.0  -0.3821
  N  N839  1  0.068440  0.209570  0.438030  1.0  -0.4622
  N  N840  1  0.067080  0.284620  0.449780  1.0  -0.4086
  N  N841  1  0.088050  0.928050  0.594960  1.0  -0.4381
  N  N842  1  0.018330  0.916250  0.607780  1.0  -0.4284
  N  N843  1  0.152700  0.038800  0.600900  1.0  -0.2019
  N  N844  1  0.167800  0.000800  0.587400  1.0  -0.375
  N  N845  1  0.209570  0.938030  0.568440  1.0  -0.4619
  N  N846  1  0.284620  0.949780  0.567080  1.0  -0.4098
  N  N847  1  0.411950  0.006910  0.840000  1.0  -0.4403
  N  N848  1  0.481670  0.089450  0.897920  1.0  -0.4313
  N  N849  1  0.347300  0.948200  0.886100  1.0  -0.2059
  N  N850  1  0.332200  0.919600  0.833000  1.0  -0.3767
  N  N851  1  0.290430  0.858870  0.728460  1.0  -0.4655
  N  N852  1  0.215380  0.782460  0.665160  1.0  -0.4092
  N  N853  1  0.666910  0.571950  0.660000  1.0  -0.4417
  N  N854  1  0.691530  0.583750  0.602080  1.0  -0.4264
  N  N855  1  0.562100  0.461200  0.613900  1.0  -0.2
  N  N856  1  0.586600  0.499200  0.667000  1.0  -0.3766
  N  N857  1  0.630410  0.561970  0.771540  1.0  -0.4632
  N  N858  1  0.617300  0.550220  0.834840  1.0  -0.4081
  N  N859  1  0.833090  0.493090  0.905040  1.0  -0.4381
  N  N860  1  0.808470  0.410550  0.892220  1.0  -0.4323
  N  N861  1  0.937900  0.551800  0.899100  1.0  -0.2069
  N  N862  1  0.913400  0.580400  0.912600  1.0  -0.3766
  N  N863  1  0.869590  0.641130  0.931560  1.0  -0.4643
  N  N864  1  0.882700  0.717540  0.932920  1.0  -0.4093
  N  N865  1  0.840000  0.506910  0.411950  1.0  -0.4398
  N  N866  1  0.897920  0.589450  0.481670  1.0  -0.4324
  N  N867  1  0.886100  0.448200  0.347300  1.0  -0.208
  N  N868  1  0.833000  0.419600  0.332200  1.0  -0.3759
  N  N869  1  0.728460  0.358870  0.290430  1.0  -0.4655
  N  N870  1  0.665160  0.282460  0.215380  1.0  -0.4094
  N  N871  1  0.594960  0.428050  0.088050  1.0  -0.4414
  N  N872  1  0.607780  0.416250  0.018330  1.0  -0.4268
  N  N873  1  0.600900  0.538800  0.152700  1.0  -0.2017
  N  N874  1  0.587400  0.500800  0.167800  1.0  -0.3767
  N  N875  1  0.568440  0.438030  0.209570  1.0  -0.4631
  N  N876  1  0.567080  0.449780  0.284620  1.0  -0.4081
  N  N877  1  0.905040  0.993090  0.833090  1.0  -0.4403
  N  N878  1  0.892220  0.910550  0.808470  1.0  -0.4319
  N  N879  1  0.899100  0.051800  0.937900  1.0  -0.2046
  N  N880  1  0.912600  0.080400  0.913400  1.0  -0.3772
  N  N881  1  0.931560  0.141130  0.869590  1.0  -0.4649
  N  N882  1  0.932920  0.217540  0.882700  1.0  -0.409
  N  N883  1  0.660000  0.071950  0.666910  1.0  -0.4412
  N  N884  1  0.602080  0.083750  0.691530  1.0  -0.4287
  N  N885  1  0.613900  0.961200  0.562100  1.0  -0.1991
  N  N886  1  0.667000  0.999200  0.586600  1.0  -0.3759
  N  N887  1  0.771540  0.061970  0.630410  1.0  -0.4608
  N  N888  1  0.834840  0.050220  0.617300  1.0  -0.41
  N  N889  1  0.333090  0.905040  0.493090  1.0  -0.4409
  N  N890  1  0.308470  0.892220  0.410550  1.0  -0.4309
  N  N891  1  0.437900  0.899100  0.551800  1.0  -0.2084
  N  N892  1  0.413400  0.912600  0.580400  1.0  -0.3791
  N  N893  1  0.369590  0.931560  0.641130  1.0  -0.4653
  N  N894  1  0.382700  0.932920  0.717540  1.0  -0.4079
  N  N895  1  0.166910  0.660000  0.571950  1.0  -0.4412
  N  N896  1  0.191530  0.602080  0.583750  1.0  -0.4312
  N  N897  1  0.062100  0.613900  0.461200  1.0  -0.2049
  N  N898  1  0.086600  0.667000  0.499200  1.0  -0.3734
  N  N899  1  0.130410  0.771540  0.561970  1.0  -0.4593
  N  N900  1  0.117300  0.834840  0.550220  1.0  -0.4108
  N  N901  1  0.911950  0.840000  0.006910  1.0  -0.4387
  N  N902  1  0.981670  0.897920  0.089450  1.0  -0.4296
  N  N903  1  0.847300  0.886100  0.948200  1.0  -0.2007
  N  N904  1  0.832200  0.833000  0.919600  1.0  -0.3716
  N  N905  1  0.790430  0.728460  0.858870  1.0  -0.4606
  N  N906  1  0.715380  0.665160  0.782460  1.0  -0.4112
  N  N907  1  0.588050  0.594960  0.928050  1.0  -0.4428
  N  N908  1  0.518330  0.607780  0.916250  1.0  -0.4308
  N  N909  1  0.652700  0.600900  0.038800  1.0  -0.2092
  N  N910  1  0.667800  0.587400  0.000800  1.0  -0.382
  N  N911  1  0.709570  0.568440  0.938030  1.0  -0.4645
  N  N912  1  0.784620  0.567080  0.949780  1.0  -0.4089
  N  N913  1  0.428050  0.588050  0.094960  1.0  -0.4353
  N  N914  1  0.416250  0.518330  0.107780  1.0  -0.4289
  N  N915  1  0.538800  0.652700  0.100900  1.0  -0.2085
  N  N916  1  0.500800  0.667800  0.087400  1.0  -0.3772
  N  N917  1  0.438030  0.709570  0.068440  1.0  -0.4621
  N  N918  1  0.449780  0.784620  0.067080  1.0  -0.4083
  N  N919  1  0.506910  0.911950  0.340000  1.0  -0.44
  N  N920  1  0.589450  0.981670  0.397920  1.0  -0.429
  N  N921  1  0.448200  0.847300  0.386100  1.0  -0.2104
  N  N922  1  0.419600  0.832200  0.333000  1.0  -0.3786
  N  N923  1  0.358870  0.790430  0.228460  1.0  -0.4621
  N  N924  1  0.282460  0.715380  0.165160  1.0  -0.4093
  N  N925  1  0.071950  0.166910  0.160000  1.0  -0.4439
  N  N926  1  0.083750  0.191530  0.102080  1.0  -0.4287
  N  N927  1  0.961200  0.062100  0.113900  1.0  -0.2025
  N  N928  1  0.999200  0.086600  0.167000  1.0  -0.3753
  N  N929  1  0.061970  0.130410  0.271540  1.0  -0.4646
  N  N930  1  0.050220  0.117300  0.334840  1.0  -0.4076
  N  N931  1  0.993090  0.333090  0.405040  1.0  -0.4428
  N  N932  1  0.910550  0.308470  0.392220  1.0  -0.4315
  N  N933  1  0.051800  0.437900  0.399100  1.0  -0.2055
  N  N934  1  0.080400  0.413400  0.412600  1.0  -0.3757
  N  N935  1  0.141130  0.369590  0.431560  1.0  -0.4645
  N  N936  1  0.217540  0.382700  0.432920  1.0  -0.409
  N  N937  1  0.993090  0.660000  0.088050  1.0  -0.4398
  N  N938  1  0.910550  0.602080  0.018330  1.0  -0.4325
  N  N939  1  0.051800  0.613900  0.152700  1.0  -0.202
  N  N940  1  0.080400  0.667000  0.167800  1.0  -0.3738
  N  N941  1  0.141130  0.771540  0.209570  1.0  -0.4647
  N  N942  1  0.217540  0.834840  0.284620  1.0  -0.4106
  N  N943  1  0.071950  0.905040  0.411950  1.0  -0.4413
  N  N944  1  0.083750  0.892220  0.481670  1.0  -0.4288
  N  N945  1  0.961200  0.899100  0.347300  1.0  -0.2062
  N  N946  1  0.999200  0.912600  0.332200  1.0  -0.3736
  N  N947  1  0.061970  0.931560  0.290430  1.0  -0.4573
  N  N948  1  0.050220  0.932920  0.215380  1.0  -0.4078
  N  N949  1  0.506910  0.594960  0.666910  1.0  -0.4416
  N  N950  1  0.589450  0.607780  0.691530  1.0  -0.4317
  N  N951  1  0.448200  0.600900  0.562100  1.0  -0.2081
  N  N952  1  0.419600  0.587400  0.586600  1.0  -0.3783
  N  N953  1  0.358870  0.568440  0.630410  1.0  -0.4657
  N  N954  1  0.282460  0.567080  0.617300  1.0  -0.4088
  N  N955  1  0.428050  0.840000  0.833090  1.0  -0.4371
  N  N956  1  0.416250  0.897920  0.808470  1.0  -0.429
  N  N957  1  0.538800  0.886100  0.937900  1.0  -0.2071
  N  N958  1  0.500800  0.833000  0.913400  1.0  -0.3769
  N  N959  1  0.438030  0.728460  0.869590  1.0  -0.4621
  N  N960  1  0.449780  0.665160  0.882700  1.0  -0.4108
  N  N961  1  0.594960  0.166910  0.006910  1.0  -0.4373
  N  N962  1  0.607780  0.191530  0.089450  1.0  -0.4277
  N  N963  1  0.600900  0.062100  0.948200  1.0  -0.206
  N  N964  1  0.587400  0.086600  0.919600  1.0  -0.3785
  N  N965  1  0.568440  0.130410  0.858870  1.0  -0.4624
  N  N966  1  0.567080  0.117300  0.782460  1.0  -0.4069
  N  N967  1  0.840000  0.333090  0.928050  1.0  -0.4404
  N  N968  1  0.897920  0.308470  0.916250  1.0  -0.4304
  N  N969  1  0.886100  0.437900  0.038800  1.0  -0.202
  N  N970  1  0.833000  0.413400  0.000800  1.0  -0.3741
  N  N971  1  0.728460  0.369590  0.938030  1.0  -0.4634
  N  N972  1  0.665160  0.382700  0.949780  1.0  -0.4087
  N  N973  1  0.660000  0.588050  0.493090  1.0  -0.4389
  N  N974  1  0.602080  0.518330  0.410550  1.0  -0.4296
  N  N975  1  0.613900  0.652700  0.551800  1.0  -0.2046
  N  N976  1  0.667000  0.667800  0.580400  1.0  -0.3774
  N  N977  1  0.771540  0.709570  0.641130  1.0  -0.4582
  N  N978  1  0.834840  0.784620  0.717540  1.0  -0.4094
  N  N979  1  0.905040  0.911950  0.571950  1.0  -0.4424
  N  N980  1  0.892220  0.981670  0.583750  1.0  -0.4299
  N  N981  1  0.899100  0.847300  0.461200  1.0  -0.2086
  N  N982  1  0.912600  0.832200  0.499200  1.0  -0.3784
  N  N983  1  0.931560  0.790430  0.561970  1.0  -0.4583
  N  N984  1  0.932920  0.715380  0.550220  1.0  -0.4094
  N  N985  1  0.911950  0.071950  0.405040  1.0  -0.4386
  N  N986  1  0.981670  0.083750  0.392220  1.0  -0.43
  N  N987  1  0.847300  0.961200  0.399100  1.0  -0.2027
  N  N988  1  0.832200  0.999200  0.412600  1.0  -0.3799
  N  N989  1  0.790430  0.061970  0.431560  1.0  -0.4605
  N  N990  1  0.715380  0.050220  0.432920  1.0  -0.4083
  N  N991  1  0.588050  0.993090  0.160000  1.0  -0.4381
  N  N992  1  0.518330  0.910550  0.102080  1.0  -0.4321
  N  N993  1  0.652700  0.051800  0.113900  1.0  -0.2037
  N  N994  1  0.667800  0.080400  0.167000  1.0  -0.3786
  N  N995  1  0.709570  0.141130  0.271540  1.0  -0.4609
  N  N996  1  0.784620  0.217540  0.334840  1.0  -0.4092
  N  N997  1  0.333090  0.428050  0.340000  1.0  -0.441
  N  N998  1  0.308470  0.416250  0.397920  1.0  -0.4276
  N  N999  1  0.437900  0.538800  0.386100  1.0  -0.2045
  N  N1000  1  0.413400  0.500800  0.333000  1.0  -0.3778
  N  N1001  1  0.369590  0.438030  0.228460  1.0  -0.4627
  N  N1002  1  0.382700  0.449780  0.165160  1.0  -0.4081
  N  N1003  1  0.166910  0.506910  0.094960  1.0  -0.4387
  N  N1004  1  0.191530  0.589450  0.107780  1.0  -0.4307
  N  N1005  1  0.062100  0.448200  0.100900  1.0  -0.2025
  N  N1006  1  0.086600  0.419600  0.087400  1.0  -0.3714
  N  N1007  1  0.130410  0.358870  0.068440  1.0  -0.4537
  N  N1008  1  0.117300  0.282460  0.067080  1.0  -0.4098
