# generated using pymatgen
data_NiH6(C4N3)2
_symmetry_space_group_name_H-M   'P 1'
_cell_length_a   29.31620000
_cell_length_b   29.31620000
_cell_length_c   29.31620000
_cell_angle_alpha   109.47100000
_cell_angle_beta   109.47100000
_cell_angle_gamma   109.47100000
_symmetry_Int_Tables_number   1
_chemical_formula_structural   NiH6(C4N3)2
_chemical_formula_sum   'Ni48 H288 C384 N288'
_cell_volume   19395.66544735
_cell_formula_units_Z   48
loop_
 _symmetry_equiv_pos_site_id
 _symmetry_equiv_pos_as_xyz
  1  'x, y, z'
loop_
 _atom_site_type_symbol
 _atom_site_label
 _atom_site_symmetry_multiplicity
 _atom_site_fract_x
 _atom_site_fract_y
 _atom_site_fract_z
 _atom_site_occupancy
 _atom_site_charge
  Ni  Ni1  1  0.561270  0.140880  0.718070  1.0  0.8169
  Ni  Ni2  1  0.922810  0.843200  0.781930  1.0  0.8141
  Ni  Ni3  1  0.577190  0.359120  0.920390  1.0  0.8204
  Ni  Ni4  1  0.938730  0.656800  0.579610  1.0  0.8181
  Ni  Ni5  1  0.420390  0.577190  0.859120  1.0  0.817
  Ni  Ni6  1  0.079610  0.938730  0.156800  1.0  0.8172
  Ni  Ni7  1  0.218070  0.561270  0.640880  1.0  0.819
  Ni  Ni8  1  0.281930  0.922810  0.343200  1.0  0.8226
  Ni  Ni9  1  0.843200  0.281930  0.422810  1.0  0.8201
  Ni  Ni10  1  0.140880  0.218070  0.061270  1.0  0.8216
  Ni  Ni11  1  0.656800  0.079610  0.438730  1.0  0.8168
  Ni  Ni12  1  0.359120  0.420390  0.077190  1.0  0.814
  Ni  Ni13  1  0.359120  0.938730  0.781930  1.0  0.8173
  Ni  Ni14  1  0.656800  0.577190  0.718070  1.0  0.8157
  Ni  Ni15  1  0.140880  0.922810  0.579610  1.0  0.8206
  Ni  Ni16  1  0.843200  0.561270  0.920390  1.0  0.821
  Ni  Ni17  1  0.922810  0.079610  0.640880  1.0  0.8175
  Ni  Ni18  1  0.561270  0.420390  0.343200  1.0  0.8138
  Ni  Ni19  1  0.938730  0.281930  0.859120  1.0  0.8216
  Ni  Ni20  1  0.577190  0.218070  0.156800  1.0  0.8202
  Ni  Ni21  1  0.218070  0.656800  0.077190  1.0  0.8222
  Ni  Ni22  1  0.281930  0.359120  0.438730  1.0  0.8189
  Ni  Ni23  1  0.420390  0.843200  0.061270  1.0  0.8152
  Ni  Ni24  1  0.079610  0.140880  0.422810  1.0  0.8168
  Ni  Ni25  1  0.438730  0.859120  0.281930  1.0  0.8151
  Ni  Ni26  1  0.077190  0.156800  0.218070  1.0  0.8163
  Ni  Ni27  1  0.422810  0.640880  0.079610  1.0  0.8193
  Ni  Ni28  1  0.061270  0.343200  0.420390  1.0  0.8201
  Ni  Ni29  1  0.579610  0.422810  0.140880  1.0  0.8168
  Ni  Ni30  1  0.920390  0.061270  0.843200  1.0  0.8164
  Ni  Ni31  1  0.781930  0.438730  0.359120  1.0  0.8226
  Ni  Ni32  1  0.718070  0.077190  0.656800  1.0  0.8204
  Ni  Ni33  1  0.156800  0.718070  0.577190  1.0  0.8215
  Ni  Ni34  1  0.859120  0.781930  0.938730  1.0  0.8206
  Ni  Ni35  1  0.343200  0.920390  0.561270  1.0  0.8132
  Ni  Ni36  1  0.640880  0.579610  0.922810  1.0  0.8184
  Ni  Ni37  1  0.640880  0.061270  0.218070  1.0  0.8164
  Ni  Ni38  1  0.343200  0.422810  0.281930  1.0  0.8175
  Ni  Ni39  1  0.859120  0.077190  0.420390  1.0  0.8219
  Ni  Ni40  1  0.156800  0.438730  0.079610  1.0  0.8196
  Ni  Ni41  1  0.077190  0.920390  0.359120  1.0  0.8124
  Ni  Ni42  1  0.438730  0.579610  0.656800  1.0  0.818
  Ni  Ni43  1  0.061270  0.718070  0.140880  1.0  0.8198
  Ni  Ni44  1  0.422810  0.781930  0.843200  1.0  0.8217
  Ni  Ni45  1  0.781930  0.343200  0.922810  1.0  0.8168
  Ni  Ni46  1  0.718070  0.640880  0.561270  1.0  0.8213
  Ni  Ni47  1  0.579610  0.156800  0.938730  1.0  0.8158
  Ni  Ni48  1  0.920390  0.859120  0.577190  1.0  0.8163
  H  H49  1  0.668900  0.224600  0.849500  1.0  0.08
  H  H50  1  0.444100  0.030400  0.677300  1.0  0.0815
  H  H51  1  0.399600  0.014000  0.525800  1.0  0.1025
  H  H52  1  0.739300  0.314400  0.793500  1.0  0.09
  H  H53  1  0.467600  0.111200  0.553000  1.0  0.1103
  H  H54  1  0.639300  0.234200  0.669700  1.0  0.1043
  H  H55  1  0.875100  0.819400  0.650500  1.0  0.0818
  H  H56  1  0.853100  0.766800  0.822700  1.0  0.0831
  H  H57  1  0.988200  0.873800  0.974200  1.0  0.1009
  H  H58  1  0.020900  0.945800  0.706500  1.0  0.0896
  H  H59  1  0.058200  0.914600  0.947000  1.0  0.1072
  H  H60  1  0.064500  0.969600  0.830300  1.0  0.1049
  H  H61  1  0.624900  0.275400  0.944300  1.0  0.0822
  H  H62  1  0.646900  0.469600  0.913700  1.0  0.0846
  H  H63  1  0.511800  0.486000  0.885600  1.0  0.098
  H  H64  1  0.479100  0.185600  0.924900  1.0  0.0902
  H  H65  1  0.441800  0.388800  0.856400  1.0  0.1071
  H  H66  1  0.435500  0.265800  0.905100  1.0  0.1045
  H  H67  1  0.831100  0.680600  0.555700  1.0  0.0808
  H  H68  1  0.055900  0.733200  0.586300  1.0  0.0849
  H  H69  1  0.100400  0.626200  0.614400  1.0  0.0984
  H  H70  1  0.760700  0.554200  0.575100  1.0  0.0904
  H  H71  1  0.032400  0.585400  0.643600  1.0  0.1066
  H  H72  1  0.860700  0.530400  0.594900  1.0  0.1056
  H  H73  1  0.444300  0.624900  0.775400  1.0  0.082
  H  H74  1  0.413700  0.646900  0.969600  1.0  0.0855
  H  H75  1  0.385600  0.511800  0.986000  1.0  0.0979
  H  H76  1  0.424900  0.479100  0.685600  1.0  0.0908
  H  H77  1  0.356400  0.441800  0.888800  1.0  0.1052
  H  H78  1  0.405100  0.435500  0.765800  1.0  0.106
  H  H79  1  0.055700  0.831100  0.180600  1.0  0.08
  H  H80  1  0.086300  0.055900  0.233200  1.0  0.0813
  H  H81  1  0.114400  0.100400  0.126200  1.0  0.0978
  H  H82  1  0.075100  0.760700  0.054200  1.0  0.0913
  H  H83  1  0.143600  0.032400  0.085400  1.0  0.1065
  H  H84  1  0.094900  0.860700  0.030400  1.0  0.1045
  H  H85  1  0.349500  0.668900  0.724600  1.0  0.0805
  H  H86  1  0.177300  0.444100  0.530400  1.0  0.0847
  H  H87  1  0.025800  0.399600  0.514000  1.0  0.1028
  H  H88  1  0.293500  0.739300  0.814400  1.0  0.0901
  H  H89  1  0.053000  0.467600  0.611200  1.0  0.1105
  H  H90  1  0.169700  0.639300  0.734200  1.0  0.1045
  H  H91  1  0.150500  0.875100  0.319400  1.0  0.0819
  H  H92  1  0.322700  0.853100  0.266800  1.0  0.0849
  H  H93  1  0.474200  0.988200  0.373800  1.0  0.1001
  H  H94  1  0.206500  0.020900  0.445800  1.0  0.0913
  H  H95  1  0.447000  0.058200  0.414600  1.0  0.1076
  H  H96  1  0.330300  0.064500  0.469600  1.0  0.1055
  H  H97  1  0.819400  0.150500  0.375100  1.0  0.0805
  H  H98  1  0.766800  0.322700  0.353100  1.0  0.0848
  H  H99  1  0.873800  0.474200  0.488200  1.0  0.1015
  H  H100  1  0.945800  0.206500  0.520900  1.0  0.0908
  H  H101  1  0.914600  0.447000  0.558200  1.0  0.1076
  H  H102  1  0.969600  0.330300  0.564500  1.0  0.1053
  H  H103  1  0.224600  0.349500  0.168900  1.0  0.0814
  H  H104  1  0.030400  0.177300  0.944100  1.0  0.085
  H  H105  1  0.014000  0.025800  0.899600  1.0  0.1026
  H  H106  1  0.314400  0.293500  0.239300  1.0  0.0893
  H  H107  1  0.111200  0.053000  0.967600  1.0  0.1092
  H  H108  1  0.234200  0.169700  0.139300  1.0  0.1033
  H  H109  1  0.680600  0.055700  0.331100  1.0  0.0807
  H  H110  1  0.733200  0.086300  0.555900  1.0  0.0838
  H  H111  1  0.626200  0.114400  0.600400  1.0  0.0981
  H  H112  1  0.554200  0.075100  0.260700  1.0  0.0892
  H  H113  1  0.585400  0.143600  0.532400  1.0  0.1053
  H  H114  1  0.530400  0.094900  0.360700  1.0  0.105
  H  H115  1  0.275400  0.444300  0.124900  1.0  0.0786
  H  H116  1  0.469600  0.413700  0.146900  1.0  0.0808
  H  H117  1  0.486000  0.385600  0.011800  1.0  0.098
  H  H118  1  0.185600  0.424900  0.979100  1.0  0.0907
  H  H119  1  0.388800  0.356400  0.941800  1.0  0.1071
  H  H120  1  0.265800  0.405100  0.935500  1.0  0.1046
  H  H121  1  0.275400  0.831100  0.650500  1.0  0.0818
  H  H122  1  0.469600  0.055900  0.822700  1.0  0.085
  H  H123  1  0.486000  0.100400  0.974200  1.0  0.1034
  H  H124  1  0.185600  0.760700  0.706500  1.0  0.0918
  H  H125  1  0.388800  0.032400  0.947000  1.0  0.1103
  H  H126  1  0.265800  0.860700  0.830300  1.0  0.1058
  H  H127  1  0.680600  0.624900  0.849500  1.0  0.0814
  H  H128  1  0.733200  0.646900  0.677300  1.0  0.0851
  H  H129  1  0.626200  0.511800  0.525800  1.0  0.1001
  H  H130  1  0.554200  0.479100  0.793500  1.0  0.0905
  H  H131  1  0.585400  0.441800  0.553000  1.0  0.1066
  H  H132  1  0.530400  0.435500  0.669700  1.0  0.1057
  H  H133  1  0.224600  0.875100  0.555700  1.0  0.0822
  H  H134  1  0.030400  0.853100  0.586300  1.0  0.0848
  H  H135  1  0.014000  0.988200  0.614400  1.0  0.0987
  H  H136  1  0.314400  0.020900  0.575100  1.0  0.0914
  H  H137  1  0.111200  0.058200  0.643600  1.0  0.1064
  H  H138  1  0.234200  0.064500  0.594900  1.0  0.1054
  H  H139  1  0.819400  0.668900  0.944300  1.0  0.0809
  H  H140  1  0.766800  0.444100  0.913700  1.0  0.0848
  H  H141  1  0.873800  0.399600  0.885600  1.0  0.0978
  H  H142  1  0.945800  0.739300  0.924900  1.0  0.0895
  H  H143  1  0.914600  0.467600  0.856400  1.0  0.108
  H  H144  1  0.969600  0.639300  0.905100  1.0  0.1047
  H  H145  1  0.875100  0.055700  0.724600  1.0  0.0824
  H  H146  1  0.853100  0.086300  0.530400  1.0  0.0834
  H  H147  1  0.988200  0.114400  0.514000  1.0  0.0984
  H  H148  1  0.020900  0.075100  0.814400  1.0  0.0884
  H  H149  1  0.058200  0.143600  0.611200  1.0  0.1051
  H  H150  1  0.064500  0.094900  0.734200  1.0  0.1051
  H  H151  1  0.668900  0.444300  0.319400  1.0  0.081
  H  H152  1  0.444100  0.413700  0.266800  1.0  0.0849
  H  H153  1  0.399600  0.385600  0.373800  1.0  0.0993
  H  H154  1  0.739300  0.424900  0.445800  1.0  0.0916
  H  H155  1  0.467600  0.356400  0.414600  1.0  0.1075
  H  H156  1  0.639300  0.405100  0.469600  1.0  0.1043
  H  H157  1  0.831100  0.150500  0.775400  1.0  0.0808
  H  H158  1  0.055900  0.322700  0.969600  1.0  0.0852
  H  H159  1  0.100400  0.474200  0.986000  1.0  0.1042
  H  H160  1  0.760700  0.206500  0.685600  1.0  0.0903
  H  H161  1  0.032400  0.447000  0.888800  1.0  0.111
  H  H162  1  0.860700  0.330300  0.765800  1.0  0.105
  H  H163  1  0.624900  0.349500  0.180600  1.0  0.0814
  H  H164  1  0.646900  0.177300  0.233200  1.0  0.0843
  H  H165  1  0.511800  0.025800  0.126200  1.0  0.1014
  H  H166  1  0.479100  0.293500  0.054200  1.0  0.0897
  H  H167  1  0.441800  0.053000  0.085400  1.0  0.1066
  H  H168  1  0.435500  0.169700  0.030400  1.0  0.1031
  H  H169  1  0.349500  0.680600  0.124900  1.0  0.0803
  H  H170  1  0.177300  0.733200  0.146900  1.0  0.0857
  H  H171  1  0.025800  0.626200  0.011800  1.0  0.101
  H  H172  1  0.293500  0.554200  0.979100  1.0  0.0892
  H  H173  1  0.053000  0.585400  0.941800  1.0  0.1089
  H  H174  1  0.169700  0.530400  0.935500  1.0  0.1046
  H  H175  1  0.150500  0.275400  0.331100  1.0  0.0831
  H  H176  1  0.322700  0.469600  0.555900  1.0  0.0836
  H  H177  1  0.474200  0.486000  0.600400  1.0  0.1023
  H  H178  1  0.206500  0.185600  0.260700  1.0  0.0893
  H  H179  1  0.447000  0.388800  0.532400  1.0  0.1095
  H  H180  1  0.330300  0.265800  0.360700  1.0  0.105
  H  H181  1  0.444300  0.819400  0.168900  1.0  0.0824
  H  H182  1  0.413700  0.766800  0.944100  1.0  0.0838
  H  H183  1  0.385600  0.873800  0.899600  1.0  0.0983
  H  H184  1  0.424900  0.945800  0.239300  1.0  0.0905
  H  H185  1  0.356400  0.914600  0.967600  1.0  0.1062
  H  H186  1  0.405100  0.969600  0.139300  1.0  0.1054
  H  H187  1  0.055700  0.224600  0.375100  1.0  0.0826
  H  H188  1  0.086300  0.030400  0.353100  1.0  0.0857
  H  H189  1  0.114400  0.014000  0.488200  1.0  0.0992
  H  H190  1  0.075100  0.314400  0.520900  1.0  0.091
  H  H191  1  0.143600  0.111200  0.558200  1.0  0.1075
  H  H192  1  0.094900  0.234200  0.564500  1.0  0.1045
  H  H193  1  0.331100  0.775400  0.150500  1.0  0.0817
  H  H194  1  0.555900  0.969600  0.322700  1.0  0.0853
  H  H195  1  0.600400  0.986000  0.474200  1.0  0.1033
  H  H196  1  0.260700  0.685600  0.206500  1.0  0.0913
  H  H197  1  0.532400  0.888800  0.447000  1.0  0.1106
  H  H198  1  0.360700  0.765800  0.330300  1.0  0.1047
  H  H199  1  0.124900  0.180600  0.349500  1.0  0.0816
  H  H200  1  0.146900  0.233200  0.177300  1.0  0.084
  H  H201  1  0.011800  0.126200  0.025800  1.0  0.1006
  H  H202  1  0.979100  0.054200  0.293500  1.0  0.0896
  H  H203  1  0.941800  0.085400  0.053000  1.0  0.1063
  H  H204  1  0.935500  0.030400  0.169700  1.0  0.1047
  H  H205  1  0.375100  0.724600  0.055700  1.0  0.0838
  H  H206  1  0.353100  0.530400  0.086300  1.0  0.0837
  H  H207  1  0.488200  0.514000  0.114400  1.0  0.0979
  H  H208  1  0.520900  0.814400  0.075100  1.0  0.0894
  H  H209  1  0.558200  0.611200  0.143600  1.0  0.1065
  H  H210  1  0.564500  0.734200  0.094900  1.0  0.1043
  H  H211  1  0.168900  0.319400  0.444300  1.0  0.0814
  H  H212  1  0.944100  0.266800  0.413700  1.0  0.0851
  H  H213  1  0.899600  0.373800  0.385600  1.0  0.0988
  H  H214  1  0.239300  0.445800  0.424900  1.0  0.0895
  H  H215  1  0.967600  0.414600  0.356400  1.0  0.1088
  H  H216  1  0.139300  0.469600  0.405100  1.0  0.106
  H  H217  1  0.555700  0.375100  0.224600  1.0  0.0819
  H  H218  1  0.586300  0.353100  0.030400  1.0  0.0849
  H  H219  1  0.614400  0.488200  0.014000  1.0  0.0987
  H  H220  1  0.575100  0.520900  0.314400  1.0  0.0909
  H  H221  1  0.643600  0.558200  0.111200  1.0  0.105
  H  H222  1  0.594900  0.564500  0.234200  1.0  0.1064
  H  H223  1  0.944300  0.168900  0.819400  1.0  0.0822
  H  H224  1  0.913700  0.944100  0.766800  1.0  0.0849
  H  H225  1  0.885600  0.899600  0.873800  1.0  0.099
  H  H226  1  0.924900  0.239300  0.945800  1.0  0.0911
  H  H227  1  0.856400  0.967600  0.914600  1.0  0.1071
  H  H228  1  0.905100  0.139300  0.969600  1.0  0.1057
  H  H229  1  0.650500  0.331100  0.275400  1.0  0.081
  H  H230  1  0.822700  0.555900  0.469600  1.0  0.0846
  H  H231  1  0.974200  0.600400  0.486000  1.0  0.1033
  H  H232  1  0.706500  0.260700  0.185600  1.0  0.0903
  H  H233  1  0.947000  0.532400  0.388800  1.0  0.1115
  H  H234  1  0.830300  0.360700  0.265800  1.0  0.1042
  H  H235  1  0.849500  0.124900  0.680600  1.0  0.0817
  H  H236  1  0.677300  0.146900  0.733200  1.0  0.0851
  H  H237  1  0.525800  0.011800  0.626200  1.0  0.1
  H  H238  1  0.793500  0.979100  0.554200  1.0  0.091
  H  H239  1  0.553000  0.941800  0.585400  1.0  0.1073
  H  H240  1  0.669700  0.935500  0.530400  1.0  0.1046
  H  H241  1  0.180600  0.849500  0.624900  1.0  0.0807
  H  H242  1  0.233200  0.677300  0.646900  1.0  0.0856
  H  H243  1  0.126200  0.525800  0.511800  1.0  0.102
  H  H244  1  0.054200  0.793500  0.479100  1.0  0.0899
  H  H245  1  0.085400  0.553000  0.441800  1.0  0.1079
  H  H246  1  0.030400  0.669700  0.435500  1.0  0.104
  H  H247  1  0.775400  0.650500  0.831100  1.0  0.0812
  H  H248  1  0.969600  0.822700  0.055900  1.0  0.0844
  H  H249  1  0.986000  0.974200  0.100400  1.0  0.1037
  H  H250  1  0.685600  0.706500  0.760700  1.0  0.0904
  H  H251  1  0.888800  0.947000  0.032400  1.0  0.1095
  H  H252  1  0.765800  0.830300  0.860700  1.0  0.1036
  H  H253  1  0.319400  0.944300  0.668900  1.0  0.0818
  H  H254  1  0.266800  0.913700  0.444100  1.0  0.0834
  H  H255  1  0.373800  0.885600  0.399600  1.0  0.0978
  H  H256  1  0.445800  0.924900  0.739300  1.0  0.0881
  H  H257  1  0.414600  0.856400  0.467600  1.0  0.105
  H  H258  1  0.469600  0.905100  0.639300  1.0  0.1051
  H  H259  1  0.724600  0.555700  0.875100  1.0  0.0812
  H  H260  1  0.530400  0.586300  0.853100  1.0  0.0851
  H  H261  1  0.514000  0.614400  0.988200  1.0  0.0996
  H  H262  1  0.814400  0.575100  0.020900  1.0  0.0913
  H  H263  1  0.611200  0.643600  0.058200  1.0  0.1077
  H  H264  1  0.734200  0.594900  0.064500  1.0  0.1045
  H  H265  1  0.724600  0.168900  0.349500  1.0  0.0799
  H  H266  1  0.530400  0.944100  0.177300  1.0  0.0812
  H  H267  1  0.514000  0.899600  0.025800  1.0  0.1022
  H  H268  1  0.814400  0.239300  0.293500  1.0  0.0905
  H  H269  1  0.611200  0.967600  0.053000  1.0  0.1099
  H  H270  1  0.734200  0.139300  0.169700  1.0  0.1048
  H  H271  1  0.319400  0.375100  0.150500  1.0  0.0817
  H  H272  1  0.266800  0.353100  0.322700  1.0  0.0843
  H  H273  1  0.373800  0.488200  0.474200  1.0  0.1
  H  H274  1  0.445800  0.520900  0.206500  1.0  0.0905
  H  H275  1  0.414600  0.558200  0.447000  1.0  0.1057
  H  H276  1  0.469600  0.564500  0.330300  1.0  0.107
  H  H277  1  0.775400  0.124900  0.444300  1.0  0.082
  H  H278  1  0.969600  0.146900  0.413700  1.0  0.0857
  H  H279  1  0.986000  0.011800  0.385600  1.0  0.0981
  H  H280  1  0.685600  0.979100  0.424900  1.0  0.0912
  H  H281  1  0.888800  0.941800  0.356400  1.0  0.1065
  H  H282  1  0.765800  0.935500  0.405100  1.0  0.1051
  H  H283  1  0.180600  0.331100  0.055700  1.0  0.0802
  H  H284  1  0.233200  0.555900  0.086300  1.0  0.0847
  H  H285  1  0.126200  0.600400  0.114400  1.0  0.098
  H  H286  1  0.054200  0.260700  0.075100  1.0  0.091
  H  H287  1  0.085400  0.532400  0.143600  1.0  0.1076
  H  H288  1  0.030400  0.360700  0.094900  1.0  0.1045
  H  H289  1  0.124900  0.944300  0.275400  1.0  0.081
  H  H290  1  0.146900  0.913700  0.469600  1.0  0.0837
  H  H291  1  0.011800  0.885600  0.486000  1.0  0.0986
  H  H292  1  0.979100  0.924900  0.185600  1.0  0.0886
  H  H293  1  0.941800  0.856400  0.388800  1.0  0.1051
  H  H294  1  0.935500  0.905100  0.265800  1.0  0.1048
  H  H295  1  0.331100  0.555700  0.680600  1.0  0.0789
  H  H296  1  0.555900  0.586300  0.733200  1.0  0.081
  H  H297  1  0.600400  0.614400  0.626200  1.0  0.0979
  H  H298  1  0.260700  0.575100  0.554200  1.0  0.091
  H  H299  1  0.532400  0.643600  0.585400  1.0  0.1072
  H  H300  1  0.360700  0.594900  0.530400  1.0  0.1045
  H  H301  1  0.168900  0.849500  0.224600  1.0  0.0811
  H  H302  1  0.944100  0.677300  0.030400  1.0  0.0849
  H  H303  1  0.899600  0.525800  0.014000  1.0  0.1037
  H  H304  1  0.239300  0.793500  0.314400  1.0  0.0911
  H  H305  1  0.967600  0.553000  0.111200  1.0  0.1099
  H  H306  1  0.139300  0.669700  0.234200  1.0  0.1055
  H  H307  1  0.375100  0.650500  0.819400  1.0  0.0809
  H  H308  1  0.353100  0.822700  0.766800  1.0  0.0846
  H  H309  1  0.488200  0.974200  0.873800  1.0  0.101
  H  H310  1  0.520900  0.706500  0.945800  1.0  0.0894
  H  H311  1  0.558200  0.947000  0.914600  1.0  0.1072
  H  H312  1  0.564500  0.830300  0.969600  1.0  0.1036
  H  H313  1  0.650500  0.319400  0.875100  1.0  0.0808
  H  H314  1  0.822700  0.266800  0.853100  1.0  0.0849
  H  H315  1  0.974200  0.373800  0.988200  1.0  0.1006
  H  H316  1  0.706500  0.445800  0.020900  1.0  0.0904
  H  H317  1  0.947000  0.414600  0.058200  1.0  0.1072
  H  H318  1  0.830300  0.469600  0.064500  1.0  0.1059
  H  H319  1  0.849500  0.724600  0.668900  1.0  0.0825
  H  H320  1  0.677300  0.530400  0.444100  1.0  0.0847
  H  H321  1  0.525800  0.514000  0.399600  1.0  0.1019
  H  H322  1  0.793500  0.814400  0.739300  1.0  0.0898
  H  H323  1  0.553000  0.611200  0.467600  1.0  0.1101
  H  H324  1  0.669700  0.734200  0.639300  1.0  0.1046
  H  H325  1  0.555700  0.180600  0.831100  1.0  0.082
  H  H326  1  0.586300  0.233200  0.055900  1.0  0.0836
  H  H327  1  0.614400  0.126200  0.100400  1.0  0.0985
  H  H328  1  0.575100  0.054200  0.760700  1.0  0.0893
  H  H329  1  0.643600  0.085400  0.032400  1.0  0.1059
  H  H330  1  0.594900  0.030400  0.860700  1.0  0.1039
  H  H331  1  0.944300  0.775400  0.624900  1.0  0.0796
  H  H332  1  0.913700  0.969600  0.646900  1.0  0.0813
  H  H333  1  0.885600  0.986000  0.511800  1.0  0.0982
  H  H334  1  0.924900  0.685600  0.479100  1.0  0.0905
  H  H335  1  0.856400  0.888800  0.441800  1.0  0.1071
  H  H336  1  0.905100  0.765800  0.435500  1.0  0.1048
  C  C337  1  0.674900  0.237300  0.825000  1.0  0.2371
  C  C338  1  0.444100  0.037400  0.647900  1.0  0.263
  C  C339  1  0.660000  0.242000  0.749200  1.0  0.0111
  C  C340  1  0.418800  0.028000  0.565000  1.0  0.0363
  C  C341  1  0.713500  0.286200  0.795500  1.0  0.0488
  C  C342  1  0.468200  0.079500  0.603700  1.0  0.0511
  C  C343  1  0.492000  0.117300  0.588100  1.0  0.1536
  C  C344  1  0.628000  0.222000  0.692000  1.0  0.0626
  C  C345  1  0.912300  0.849900  0.675000  1.0  0.2364
  C  C346  1  0.889500  0.796200  0.852100  1.0  0.258
  C  C347  1  0.992800  0.910800  0.750800  1.0  0.0133
  C  C348  1  0.963000  0.853800  0.935000  1.0  0.0397
  C  C349  1  0.990700  0.918000  0.704500  1.0  0.0491
  C  C350  1  0.975800  0.864500  0.896300  1.0  0.0508
  C  C351  1  0.029200  0.903900  0.911900  1.0  0.155
  C  C352  1  0.030000  0.936000  0.808000  1.0  0.0657
  C  C353  1  0.587700  0.262700  0.937600  1.0  0.2372
  C  C354  1  0.610500  0.462600  0.906700  1.0  0.2598
  C  C355  1  0.507200  0.258000  0.918000  1.0  0.0124
  C  C356  1  0.537000  0.472000  0.890800  1.0  0.0357
  C  C357  1  0.509300  0.213800  0.927300  1.0  0.0485
  C  C358  1  0.524200  0.420500  0.888700  1.0  0.0516
  C  C359  1  0.470800  0.382700  0.874700  1.0  0.1534
  C  C360  1  0.470000  0.278000  0.906000  1.0  0.0646
  C  C361  1  0.825100  0.650100  0.562400  1.0  0.236
  C  C362  1  0.055900  0.703800  0.593300  1.0  0.2581
  C  C363  1  0.840000  0.589200  0.582000  1.0  0.0184
  C  C364  1  0.081200  0.646200  0.609200  1.0  0.0396
  C  C365  1  0.786500  0.582000  0.572700  1.0  0.0476
  C  C366  1  0.031800  0.635500  0.611300  1.0  0.0532
  C  C367  1  0.008000  0.596100  0.625300  1.0  0.1515
  C  C368  1  0.872000  0.564000  0.594000  1.0  0.0663
  C  C369  1  0.437600  0.587700  0.762700  1.0  0.2367
  C  C370  1  0.406700  0.610500  0.962600  1.0  0.2602
  C  C371  1  0.418000  0.507200  0.758000  1.0  0.0132
  C  C372  1  0.390800  0.537000  0.972000  1.0  0.0387
  C  C373  1  0.427300  0.509300  0.713800  1.0  0.0454
  C  C374  1  0.388700  0.524200  0.920500  1.0  0.0507
  C  C375  1  0.374700  0.470800  0.882700  1.0  0.154
  C  C376  1  0.406000  0.470000  0.778000  1.0  0.0653
  C  C377  1  0.062400  0.825100  0.150100  1.0  0.2378
  C  C378  1  0.093300  0.055900  0.203800  1.0  0.2632
  C  C379  1  0.082000  0.840000  0.089200  1.0  0.0139
  C  C380  1  0.109200  0.081200  0.146200  1.0  0.0379
  C  C381  1  0.072700  0.786500  0.082000  1.0  0.049
  C  C382  1  0.111300  0.031800  0.135500  1.0  0.0507
  C  C383  1  0.125300  0.008000  0.096100  1.0  0.1526
  C  C384  1  0.094000  0.872000  0.064000  1.0  0.0636
  C  C385  1  0.325000  0.674900  0.737300  1.0  0.2369
  C  C386  1  0.147900  0.444100  0.537400  1.0  0.2597
  C  C387  1  0.249200  0.660000  0.742000  1.0  0.017
  C  C388  1  0.065000  0.418800  0.528000  1.0  0.0385
  C  C389  1  0.295500  0.713500  0.786200  1.0  0.0495
  C  C390  1  0.103700  0.468200  0.579500  1.0  0.0545
  C  C391  1  0.088100  0.492000  0.617300  1.0  0.1517
  C  C392  1  0.192000  0.628000  0.722000  1.0  0.0638
  C  C393  1  0.175000  0.912300  0.349900  1.0  0.2344
  C  C394  1  0.352100  0.889500  0.296200  1.0  0.2605
  C  C395  1  0.250800  0.992800  0.410800  1.0  0.0125
  C  C396  1  0.435000  0.963000  0.353800  1.0  0.0367
  C  C397  1  0.204500  0.990700  0.418000  1.0  0.0477
  C  C398  1  0.396300  0.975800  0.364500  1.0  0.0506
  C  C399  1  0.411900  0.029200  0.403900  1.0  0.1526
  C  C400  1  0.308000  0.030000  0.436000  1.0  0.067
  C  C401  1  0.849900  0.175000  0.412300  1.0  0.2366
  C  C402  1  0.796200  0.352100  0.389500  1.0  0.2581
  C  C403  1  0.910800  0.250800  0.492800  1.0  0.0181
  C  C404  1  0.853800  0.435000  0.463000  1.0  0.039
  C  C405  1  0.918000  0.204500  0.490700  1.0  0.0535
  C  C406  1  0.864500  0.396300  0.475800  1.0  0.0528
  C  C407  1  0.903900  0.411900  0.529200  1.0  0.152
  C  C408  1  0.936000  0.308000  0.530000  1.0  0.0661
  C  C409  1  0.237300  0.325000  0.174900  1.0  0.2363
  C  C410  1  0.037400  0.147900  0.944100  1.0  0.2581
  C  C411  1  0.242000  0.249200  0.160000  1.0  0.0147
  C  C412  1  0.028000  0.065000  0.918800  1.0  0.0365
  C  C413  1  0.286200  0.295500  0.213500  1.0  0.0529
  C  C414  1  0.079500  0.103700  0.968200  1.0  0.0519
  C  C415  1  0.117300  0.088100  0.992000  1.0  0.1555
  C  C416  1  0.222000  0.192000  0.128000  1.0  0.0649
  C  C417  1  0.650100  0.062400  0.325100  1.0  0.2376
  C  C418  1  0.703800  0.093300  0.555900  1.0  0.261
  C  C419  1  0.589200  0.082000  0.340000  1.0  0.0128
  C  C420  1  0.646200  0.109200  0.581200  1.0  0.0389
  C  C421  1  0.582000  0.072700  0.286500  1.0  0.0489
  C  C422  1  0.635500  0.111300  0.531800  1.0  0.0497
  C  C423  1  0.596100  0.125300  0.508000  1.0  0.1511
  C  C424  1  0.564000  0.094000  0.372000  1.0  0.0651
  C  C425  1  0.262700  0.437600  0.087700  1.0  0.239
  C  C426  1  0.462600  0.406700  0.110500  1.0  0.2606
  C  C427  1  0.258000  0.418000  0.007200  1.0  0.0129
  C  C428  1  0.472000  0.390800  0.037000  1.0  0.037
  C  C429  1  0.213800  0.427300  0.009300  1.0  0.0496
  C  C430  1  0.420500  0.388700  0.024200  1.0  0.0511
  C  C431  1  0.382700  0.374700  0.970800  1.0  0.1516
  C  C432  1  0.278000  0.406000  0.970000  1.0  0.062
  C  C433  1  0.262700  0.825100  0.675000  1.0  0.2368
  C  C434  1  0.462600  0.055900  0.852100  1.0  0.2625
  C  C435  1  0.258000  0.840000  0.750800  1.0  0.0127
  C  C436  1  0.472000  0.081200  0.935000  1.0  0.0395
  C  C437  1  0.213800  0.786500  0.704500  1.0  0.0481
  C  C438  1  0.420500  0.031800  0.896300  1.0  0.0496
  C  C439  1  0.382700  0.008000  0.911900  1.0  0.1518
  C  C440  1  0.278000  0.872000  0.808000  1.0  0.063
  C  C441  1  0.650100  0.587700  0.825000  1.0  0.2367
  C  C442  1  0.703800  0.610500  0.647900  1.0  0.2616
  C  C443  1  0.589200  0.507200  0.749200  1.0  0.0136
  C  C444  1  0.646200  0.537000  0.565000  1.0  0.0363
  C  C445  1  0.582000  0.509300  0.795500  1.0  0.0457
  C  C446  1  0.635500  0.524200  0.603700  1.0  0.0516
  C  C447  1  0.596100  0.470800  0.588100  1.0  0.1537
  C  C448  1  0.564000  0.470000  0.692000  1.0  0.0643
  C  C449  1  0.237300  0.912300  0.562400  1.0  0.2348
  C  C450  1  0.037400  0.889500  0.593300  1.0  0.2624
  C  C451  1  0.242000  0.992800  0.582000  1.0  0.0132
  C  C452  1  0.028000  0.963000  0.609200  1.0  0.035
  C  C453  1  0.286200  0.990700  0.572700  1.0  0.0483
  C  C454  1  0.079500  0.975800  0.611300  1.0  0.0516
  C  C455  1  0.117300  0.029200  0.625300  1.0  0.1519
  C  C456  1  0.222000  0.030000  0.594000  1.0  0.0665
  C  C457  1  0.849900  0.674900  0.937600  1.0  0.2364
  C  C458  1  0.796200  0.444100  0.906700  1.0  0.2613
  C  C459  1  0.910800  0.660000  0.918000  1.0  0.0142
  C  C460  1  0.853800  0.418800  0.890800  1.0  0.0384
  C  C461  1  0.918000  0.713500  0.927300  1.0  0.05
  C  C462  1  0.864500  0.468200  0.888700  1.0  0.0534
  C  C463  1  0.903900  0.492000  0.874700  1.0  0.1511
  C  C464  1  0.936000  0.628000  0.906000  1.0  0.064
  C  C465  1  0.912300  0.062400  0.737300  1.0  0.2377
  C  C466  1  0.889500  0.093300  0.537400  1.0  0.2604
  C  C467  1  0.992800  0.082000  0.742000  1.0  0.0137
  C  C468  1  0.963000  0.109200  0.528000  1.0  0.0386
  C  C469  1  0.990700  0.072700  0.786200  1.0  0.0523
  C  C470  1  0.975800  0.111300  0.579500  1.0  0.0506
  C  C471  1  0.029200  0.125300  0.617300  1.0  0.1517
  C  C472  1  0.030000  0.094000  0.722000  1.0  0.0634
  C  C473  1  0.674900  0.437600  0.349900  1.0  0.2373
  C  C474  1  0.444100  0.406700  0.296200  1.0  0.2592
  C  C475  1  0.660000  0.418000  0.410800  1.0  0.0134
  C  C476  1  0.418800  0.390800  0.353800  1.0  0.0367
  C  C477  1  0.713500  0.427300  0.418000  1.0  0.0528
  C  C478  1  0.468200  0.388700  0.364500  1.0  0.0514
  C  C479  1  0.492000  0.374700  0.403900  1.0  0.1515
  C  C480  1  0.628000  0.406000  0.436000  1.0  0.0625
  C  C481  1  0.825100  0.175000  0.762700  1.0  0.2373
  C  C482  1  0.055900  0.352100  0.962600  1.0  0.2583
  C  C483  1  0.840000  0.250800  0.758000  1.0  0.0151
  C  C484  1  0.081200  0.435000  0.972000  1.0  0.0394
  C  C485  1  0.786500  0.204500  0.713800  1.0  0.0505
  C  C486  1  0.031800  0.396300  0.920500  1.0  0.0507
  C  C487  1  0.008000  0.411900  0.882700  1.0  0.1518
  C  C488  1  0.872000  0.308000  0.778000  1.0  0.0641
  C  C489  1  0.587700  0.325000  0.150100  1.0  0.2373
  C  C490  1  0.610500  0.147900  0.203800  1.0  0.2583
  C  C491  1  0.507200  0.249200  0.089200  1.0  0.0118
  C  C492  1  0.537000  0.065000  0.146200  1.0  0.037
  C  C493  1  0.509300  0.295500  0.082000  1.0  0.0497
  C  C494  1  0.524200  0.103700  0.135500  1.0  0.0521
  C  C495  1  0.470800  0.088100  0.096100  1.0  0.1536
  C  C496  1  0.470000  0.192000  0.064000  1.0  0.0665
  C  C497  1  0.325000  0.650100  0.087700  1.0  0.2363
  C  C498  1  0.147900  0.703800  0.110500  1.0  0.2586
  C  C499  1  0.249200  0.589200  0.007200  1.0  0.0126
  C  C500  1  0.065000  0.646200  0.037000  1.0  0.0386
  C  C501  1  0.295500  0.582000  0.009300  1.0  0.047
  C  C502  1  0.103700  0.635500  0.024200  1.0  0.0528
  C  C503  1  0.088100  0.596100  0.970800  1.0  0.1505
  C  C504  1  0.192000  0.564000  0.970000  1.0  0.0648
  C  C505  1  0.175000  0.262700  0.325100  1.0  0.2358
  C  C506  1  0.352100  0.462600  0.555900  1.0  0.2621
  C  C507  1  0.250800  0.258000  0.340000  1.0  0.0141
  C  C508  1  0.435000  0.472000  0.581200  1.0  0.0365
  C  C509  1  0.204500  0.213800  0.286500  1.0  0.0483
  C  C510  1  0.396300  0.420500  0.531800  1.0  0.0518
  C  C511  1  0.411900  0.382700  0.508000  1.0  0.1549
  C  C512  1  0.308000  0.278000  0.372000  1.0  0.0643
  C  C513  1  0.437600  0.849900  0.174900  1.0  0.2379
  C  C514  1  0.406700  0.796200  0.944100  1.0  0.2584
  C  C515  1  0.418000  0.910800  0.160000  1.0  0.0115
  C  C516  1  0.390800  0.853800  0.918800  1.0  0.0385
  C  C517  1  0.427300  0.918000  0.213500  1.0  0.0492
  C  C518  1  0.388700  0.864500  0.968200  1.0  0.0507
  C  C519  1  0.374700  0.903900  0.992000  1.0  0.1534
  C  C520  1  0.406000  0.936000  0.128000  1.0  0.0664
  C  C521  1  0.062400  0.237300  0.412300  1.0  0.2364
  C  C522  1  0.093300  0.037400  0.389500  1.0  0.2618
  C  C523  1  0.082000  0.242000  0.492800  1.0  0.0127
  C  C524  1  0.109200  0.028000  0.463000  1.0  0.0379
  C  C525  1  0.072700  0.286200  0.490700  1.0  0.0486
  C  C526  1  0.111300  0.079500  0.475800  1.0  0.0502
  C  C527  1  0.125300  0.117300  0.529200  1.0  0.1536
  C  C528  1  0.094000  0.222000  0.530000  1.0  0.062
  C  C529  1  0.325100  0.762700  0.175000  1.0  0.2361
  C  C530  1  0.555900  0.962600  0.352100  1.0  0.2616
  C  C531  1  0.340000  0.758000  0.250800  1.0  0.013
  C  C532  1  0.581200  0.972000  0.435000  1.0  0.0373
  C  C533  1  0.286500  0.713800  0.204500  1.0  0.0481
  C  C534  1  0.531800  0.920500  0.396300  1.0  0.0507
  C  C535  1  0.508000  0.882700  0.411900  1.0  0.1536
  C  C536  1  0.372000  0.778000  0.308000  1.0  0.0632
  C  C537  1  0.087700  0.150100  0.325000  1.0  0.2383
  C  C538  1  0.110500  0.203800  0.147900  1.0  0.2583
  C  C539  1  0.007200  0.089200  0.249200  1.0  0.0111
  C  C540  1  0.037000  0.146200  0.065000  1.0  0.0384
  C  C541  1  0.009300  0.082000  0.295500  1.0  0.0487
  C  C542  1  0.024200  0.135500  0.103700  1.0  0.0499
  C  C543  1  0.970800  0.096100  0.088100  1.0  0.153
  C  C544  1  0.970000  0.064000  0.192000  1.0  0.0664
  C  C545  1  0.412300  0.737300  0.062400  1.0  0.2365
  C  C546  1  0.389500  0.537400  0.093300  1.0  0.261
  C  C547  1  0.492800  0.742000  0.082000  1.0  0.0131
  C  C548  1  0.463000  0.528000  0.109200  1.0  0.0371
  C  C549  1  0.490700  0.786200  0.072700  1.0  0.0499
  C  C550  1  0.475800  0.579500  0.111300  1.0  0.0515
  C  C551  1  0.529200  0.617300  0.125300  1.0  0.1544
  C  C552  1  0.530000  0.722000  0.094000  1.0  0.0637
  C  C553  1  0.174900  0.349900  0.437600  1.0  0.2365
  C  C554  1  0.944100  0.296200  0.406700  1.0  0.2572
  C  C555  1  0.160000  0.410800  0.418000  1.0  0.0133
  C  C556  1  0.918800  0.353800  0.390800  1.0  0.0386
  C  C557  1  0.213500  0.418000  0.427300  1.0  0.048
  C  C558  1  0.968200  0.364500  0.388700  1.0  0.0543
  C  C559  1  0.992000  0.403900  0.374700  1.0  0.1496
  C  C560  1  0.128000  0.436000  0.406000  1.0  0.0646
  C  C561  1  0.562400  0.412300  0.237300  1.0  0.2355
  C  C562  1  0.593300  0.389500  0.037400  1.0  0.2616
  C  C563  1  0.582000  0.492800  0.242000  1.0  0.0121
  C  C564  1  0.609200  0.463000  0.028000  1.0  0.037
  C  C565  1  0.572700  0.490700  0.286200  1.0  0.047
  C  C566  1  0.611300  0.475800  0.079500  1.0  0.0511
  C  C567  1  0.625300  0.529200  0.117300  1.0  0.153
  C  C568  1  0.594000  0.530000  0.222000  1.0  0.0652
  C  C569  1  0.937600  0.174900  0.849900  1.0  0.2369
  C  C570  1  0.906700  0.944100  0.796200  1.0  0.2627
  C  C571  1  0.918000  0.160000  0.910800  1.0  0.0125
  C  C572  1  0.890800  0.918800  0.853800  1.0  0.0392
  C  C573  1  0.927300  0.213500  0.918000  1.0  0.0495
  C  C574  1  0.888700  0.968200  0.864500  1.0  0.0511
  C  C575  1  0.874700  0.992000  0.903900  1.0  0.1521
  C  C576  1  0.906000  0.128000  0.936000  1.0  0.0632
  C  C577  1  0.675000  0.325100  0.262700  1.0  0.2364
  C  C578  1  0.852100  0.555900  0.462600  1.0  0.2611
  C  C579  1  0.750800  0.340000  0.258000  1.0  0.0145
  C  C580  1  0.935000  0.581200  0.472000  1.0  0.0393
  C  C581  1  0.704500  0.286500  0.213800  1.0  0.0487
  C  C582  1  0.896300  0.531800  0.420500  1.0  0.0508
  C  C583  1  0.911900  0.508000  0.382700  1.0  0.1505
  C  C584  1  0.808000  0.372000  0.278000  1.0  0.0643
  C  C585  1  0.825000  0.087700  0.650100  1.0  0.2356
  C  C586  1  0.647900  0.110500  0.703800  1.0  0.2624
  C  C587  1  0.749200  0.007200  0.589200  1.0  0.014
  C  C588  1  0.565000  0.037000  0.646200  1.0  0.0347
  C  C589  1  0.795500  0.009300  0.582000  1.0  0.0459
  C  C590  1  0.603700  0.024200  0.635500  1.0  0.052
  C  C591  1  0.588100  0.970800  0.596100  1.0  0.1527
  C  C592  1  0.692000  0.970000  0.564000  1.0  0.0654
  C  C593  1  0.150100  0.825000  0.587700  1.0  0.2373
  C  C594  1  0.203800  0.647900  0.610500  1.0  0.259
  C  C595  1  0.089200  0.749200  0.507200  1.0  0.0148
  C  C596  1  0.146200  0.565000  0.537000  1.0  0.0384
  C  C597  1  0.082000  0.795500  0.509300  1.0  0.0502
  C  C598  1  0.135500  0.603700  0.524200  1.0  0.052
  C  C599  1  0.096100  0.588100  0.470800  1.0  0.1522
  C  C600  1  0.064000  0.692000  0.470000  1.0  0.0645
  C  C601  1  0.762700  0.675000  0.825100  1.0  0.2371
  C  C602  1  0.962600  0.852100  0.055900  1.0  0.2588
  C  C603  1  0.758000  0.750800  0.840000  1.0  0.0121
  C  C604  1  0.972000  0.935000  0.081200  1.0  0.0377
  C  C605  1  0.713800  0.704500  0.786500  1.0  0.05
  C  C606  1  0.920500  0.896300  0.031800  1.0  0.0511
  C  C607  1  0.882700  0.911900  0.008000  1.0  0.1532
  C  C608  1  0.778000  0.808000  0.872000  1.0  0.0668
  C  C609  1  0.349900  0.937600  0.674900  1.0  0.237
  C  C610  1  0.296200  0.906700  0.444100  1.0  0.2601
  C  C611  1  0.410800  0.918000  0.660000  1.0  0.0146
  C  C612  1  0.353800  0.890800  0.418800  1.0  0.0382
  C  C613  1  0.418000  0.927300  0.713500  1.0  0.0516
  C  C614  1  0.364500  0.888700  0.468200  1.0  0.0507
  C  C615  1  0.403900  0.874700  0.492000  1.0  0.1538
  C  C616  1  0.436000  0.906000  0.628000  1.0  0.0643
  C  C617  1  0.737300  0.562400  0.912300  1.0  0.2375
  C  C618  1  0.537400  0.593300  0.889500  1.0  0.2607
  C  C619  1  0.742000  0.582000  0.992800  1.0  0.0132
  C  C620  1  0.528000  0.609200  0.963000  1.0  0.0372
  C  C621  1  0.786200  0.572700  0.990700  1.0  0.0532
  C  C622  1  0.579500  0.611300  0.975800  1.0  0.051
  C  C623  1  0.617300  0.625300  0.029200  1.0  0.1491
  C  C624  1  0.722000  0.594000  0.030000  1.0  0.0613
  C  C625  1  0.737300  0.174900  0.325000  1.0  0.2375
  C  C626  1  0.537400  0.944100  0.147900  1.0  0.263
  C  C627  1  0.742000  0.160000  0.249200  1.0  0.0135
  C  C628  1  0.528000  0.918800  0.065000  1.0  0.0377
  C  C629  1  0.786200  0.213500  0.295500  1.0  0.0502
  C  C630  1  0.579500  0.968200  0.103700  1.0  0.0519
  C  C631  1  0.617300  0.992000  0.088100  1.0  0.1534
  C  C632  1  0.722000  0.128000  0.192000  1.0  0.0636
  C  C633  1  0.349900  0.412300  0.175000  1.0  0.235
  C  C634  1  0.296200  0.389500  0.352100  1.0  0.2599
  C  C635  1  0.410800  0.492800  0.250800  1.0  0.0117
  C  C636  1  0.353800  0.463000  0.435000  1.0  0.0383
  C  C637  1  0.418000  0.490700  0.204500  1.0  0.0475
  C  C638  1  0.364500  0.475800  0.396300  1.0  0.0505
  C  C639  1  0.403900  0.529200  0.411900  1.0  0.1533
  C  C640  1  0.436000  0.530000  0.308000  1.0  0.0671
  C  C641  1  0.762700  0.087700  0.437600  1.0  0.2361
  C  C642  1  0.962600  0.110500  0.406700  1.0  0.2607
  C  C643  1  0.758000  0.007200  0.418000  1.0  0.0134
  C  C644  1  0.972000  0.037000  0.390800  1.0  0.036
  C  C645  1  0.713800  0.009300  0.427300  1.0  0.0468
  C  C646  1  0.920500  0.024200  0.388700  1.0  0.0509
  C  C647  1  0.882700  0.970800  0.374700  1.0  0.1533
  C  C648  1  0.778000  0.970000  0.406000  1.0  0.0655
  C  C649  1  0.150100  0.325100  0.062400  1.0  0.237
  C  C650  1  0.203800  0.555900  0.093300  1.0  0.2601
  C  C651  1  0.089200  0.340000  0.082000  1.0  0.0179
  C  C652  1  0.146200  0.581200  0.109200  1.0  0.0382
  C  C653  1  0.082000  0.286500  0.072700  1.0  0.0481
  C  C654  1  0.135500  0.531800  0.111300  1.0  0.0537
  C  C655  1  0.096100  0.508000  0.125300  1.0  0.1513
  C  C656  1  0.064000  0.372000  0.094000  1.0  0.0644
  C  C657  1  0.087700  0.937600  0.262700  1.0  0.2386
  C  C658  1  0.110500  0.906700  0.462600  1.0  0.2591
  C  C659  1  0.007200  0.918000  0.258000  1.0  0.0131
  C  C660  1  0.037000  0.890800  0.472000  1.0  0.0389
  C  C661  1  0.009300  0.927300  0.213800  1.0  0.0479
  C  C662  1  0.024200  0.888700  0.420500  1.0  0.0506
  C  C663  1  0.970800  0.874700  0.382700  1.0  0.1524
  C  C664  1  0.970000  0.906000  0.278000  1.0  0.0662
  C  C665  1  0.325100  0.562400  0.650100  1.0  0.2386
  C  C666  1  0.555900  0.593300  0.703800  1.0  0.2611
  C  C667  1  0.340000  0.582000  0.589200  1.0  0.0122
  C  C668  1  0.581200  0.609200  0.646200  1.0  0.0377
  C  C669  1  0.286500  0.572700  0.582000  1.0  0.0504
  C  C670  1  0.531800  0.611300  0.635500  1.0  0.0501
  C  C671  1  0.508000  0.625300  0.596100  1.0  0.1506
  C  C672  1  0.372000  0.594000  0.564000  1.0  0.0619
  C  C673  1  0.174900  0.825000  0.237300  1.0  0.2368
  C  C674  1  0.944100  0.647900  0.037400  1.0  0.2577
  C  C675  1  0.160000  0.749200  0.242000  1.0  0.0188
  C  C676  1  0.918800  0.565000  0.028000  1.0  0.0385
  C  C677  1  0.213500  0.795500  0.286200  1.0  0.0535
  C  C678  1  0.968200  0.603700  0.079500  1.0  0.053
  C  C679  1  0.992000  0.588100  0.117300  1.0  0.1525
  C  C680  1  0.128000  0.692000  0.222000  1.0  0.0658
  C  C681  1  0.412300  0.675000  0.849900  1.0  0.2367
  C  C682  1  0.389500  0.852100  0.796200  1.0  0.2576
  C  C683  1  0.492800  0.750800  0.910800  1.0  0.0141
  C  C684  1  0.463000  0.935000  0.853800  1.0  0.0373
  C  C685  1  0.490700  0.704500  0.918000  1.0  0.0531
  C  C686  1  0.475800  0.896300  0.864500  1.0  0.0512
  C  C687  1  0.529200  0.911900  0.903900  1.0  0.1548
  C  C688  1  0.530000  0.808000  0.936000  1.0  0.0651
  C  C689  1  0.675000  0.349900  0.912300  1.0  0.2357
  C  C690  1  0.852100  0.296200  0.889500  1.0  0.2581
  C  C691  1  0.750800  0.410800  0.992800  1.0  0.0179
  C  C692  1  0.935000  0.353800  0.963000  1.0  0.04
  C  C693  1  0.704500  0.418000  0.990700  1.0  0.0476
  C  C694  1  0.896300  0.364500  0.975800  1.0  0.0542
  C  C695  1  0.911900  0.403900  0.029200  1.0  0.1515
  C  C696  1  0.808000  0.436000  0.030000  1.0  0.0658
  C  C697  1  0.825000  0.737300  0.674900  1.0  0.2362
  C  C698  1  0.647900  0.537400  0.444100  1.0  0.2608
  C  C699  1  0.749200  0.742000  0.660000  1.0  0.0119
  C  C700  1  0.565000  0.528000  0.418800  1.0  0.0362
  C  C701  1  0.795500  0.786200  0.713500  1.0  0.0488
  C  C702  1  0.603700  0.579500  0.468200  1.0  0.0511
  C  C703  1  0.588100  0.617300  0.492000  1.0  0.1535
  C  C704  1  0.692000  0.722000  0.628000  1.0  0.0629
  C  C705  1  0.562400  0.150100  0.825100  1.0  0.2365
  C  C706  1  0.593300  0.203800  0.055900  1.0  0.2587
  C  C707  1  0.582000  0.089200  0.840000  1.0  0.0134
  C  C708  1  0.609200  0.146200  0.081200  1.0  0.0397
  C  C709  1  0.572700  0.082000  0.786500  1.0  0.048
  C  C710  1  0.611300  0.135500  0.031800  1.0  0.0499
  C  C711  1  0.625300  0.096100  0.008000  1.0  0.1548
  C  C712  1  0.594000  0.064000  0.872000  1.0  0.0657
  C  C713  1  0.937600  0.762700  0.587700  1.0  0.2376
  C  C714  1  0.906700  0.962600  0.610500  1.0  0.263
  C  C715  1  0.918000  0.758000  0.507200  1.0  0.0118
  C  C716  1  0.890800  0.972000  0.537000  1.0  0.0358
  C  C717  1  0.927300  0.713800  0.509300  1.0  0.0475
  C  C718  1  0.888700  0.920500  0.524200  1.0  0.0512
  C  C719  1  0.874700  0.882700  0.470800  1.0  0.153
  C  C720  1  0.906000  0.778000  0.470000  1.0  0.0628
  N  N721  1  0.636100  0.210800  0.771100  1.0  -0.4263
  N  N722  1  0.723400  0.283300  0.843100  1.0  -0.4368
  N  N723  1  0.401880  0.000300  0.591780  1.0  -0.4565
  N  N724  1  0.483700  0.082900  0.656200  1.0  -0.3078
  N  N725  1  0.575000  0.180700  0.673500  1.0  -0.3585
  N  N726  1  0.545100  0.161600  0.615500  1.0  -0.2734
  N  N727  1  0.939700  0.865000  0.728900  1.0  -0.426
  N  N728  1  0.940200  0.880300  0.656900  1.0  -0.4371
  N  N729  1  0.908520  0.810100  0.908220  1.0  -0.4572
  N  N730  1  0.926700  0.827500  0.843800  1.0  -0.3083
  N  N731  1  0.007200  0.901500  0.826500  1.0  -0.3596
  N  N732  1  0.046100  0.929600  0.884500  1.0  -0.2713
  N  N733  1  0.560300  0.289200  0.925300  1.0  -0.4244
  N  N734  1  0.559800  0.216700  0.940100  1.0  -0.4364
  N  N735  1  0.591480  0.499700  0.901580  1.0  -0.4553
  N  N736  1  0.573300  0.417100  0.900800  1.0  -0.3086
  N  N737  1  0.492800  0.319300  0.894300  1.0  -0.357
  N  N738  1  0.453900  0.338400  0.883500  1.0  -0.2678
  N  N739  1  0.863900  0.635000  0.574700  1.0  -0.4269
  N  N740  1  0.776600  0.619700  0.559900  1.0  -0.4369
  N  N741  1  0.098120  0.689900  0.598420  1.0  -0.4561
  N  N742  1  0.016300  0.672500  0.599200  1.0  -0.308
  N  N743  1  0.925000  0.598500  0.605700  1.0  -0.3573
  N  N744  1  0.954900  0.570400  0.616500  1.0  -0.2657
  N  N745  1  0.425300  0.560300  0.789200  1.0  -0.4242
  N  N746  1  0.440100  0.559800  0.716700  1.0  -0.4376
  N  N747  1  0.401580  0.591480  0.999700  1.0  -0.4574
  N  N748  1  0.400800  0.573300  0.917100  1.0  -0.3051
  N  N749  1  0.394300  0.492800  0.819300  1.0  -0.3574
  N  N750  1  0.383500  0.453900  0.838400  1.0  -0.2662
  N  N751  1  0.074700  0.863900  0.135000  1.0  -0.4262
  N  N752  1  0.059900  0.776600  0.119700  1.0  -0.4382
  N  N753  1  0.098420  0.098120  0.189900  1.0  -0.4573
  N  N754  1  0.099200  0.016300  0.172500  1.0  -0.3059
  N  N755  1  0.105700  0.925000  0.098500  1.0  -0.3609
  N  N756  1  0.116500  0.954900  0.070400  1.0  -0.2687
  N  N757  1  0.271100  0.636100  0.710800  1.0  -0.4254
  N  N758  1  0.343100  0.723400  0.783300  1.0  -0.4381
  N  N759  1  0.091780  0.401880  0.500300  1.0  -0.4563
  N  N760  1  0.156200  0.483700  0.582900  1.0  -0.3042
  N  N761  1  0.173500  0.575000  0.680700  1.0  -0.3527
  N  N762  1  0.115500  0.545100  0.661600  1.0  -0.2651
  N  N763  1  0.228900  0.939700  0.365000  1.0  -0.4246
  N  N764  1  0.156900  0.940200  0.380300  1.0  -0.4367
  N  N765  1  0.408220  0.908520  0.310100  1.0  -0.4568
  N  N766  1  0.343800  0.926700  0.327500  1.0  -0.3062
  N  N767  1  0.326500  0.007200  0.401500  1.0  -0.3579
  N  N768  1  0.384500  0.046100  0.429600  1.0  -0.2666
  N  N769  1  0.865000  0.228900  0.439700  1.0  -0.4271
  N  N770  1  0.880300  0.156900  0.440200  1.0  -0.4378
  N  N771  1  0.810100  0.408220  0.408520  1.0  -0.4569
  N  N772  1  0.827500  0.343800  0.426700  1.0  -0.3052
  N  N773  1  0.901500  0.326500  0.507200  1.0  -0.3574
  N  N774  1  0.929600  0.384500  0.546100  1.0  -0.2666
  N  N775  1  0.210800  0.271100  0.136100  1.0  -0.4259
  N  N776  1  0.283300  0.343100  0.223400  1.0  -0.4392
  N  N777  1  0.000300  0.091780  0.901880  1.0  -0.457
  N  N778  1  0.082900  0.156200  0.983700  1.0  -0.3066
  N  N779  1  0.180700  0.173500  0.075000  1.0  -0.3578
  N  N780  1  0.161600  0.115500  0.045100  1.0  -0.2715
  N  N781  1  0.635000  0.074700  0.363900  1.0  -0.4242
  N  N782  1  0.619700  0.059900  0.276600  1.0  -0.4377
  N  N783  1  0.689900  0.098420  0.598120  1.0  -0.4564
  N  N784  1  0.672500  0.099200  0.516300  1.0  -0.3105
  N  N785  1  0.598500  0.105700  0.425000  1.0  -0.3577
  N  N786  1  0.570400  0.116500  0.454900  1.0  -0.2697
  N  N787  1  0.289200  0.425300  0.060300  1.0  -0.4265
  N  N788  1  0.216700  0.440100  0.059800  1.0  -0.4386
  N  N789  1  0.499700  0.401580  0.091480  1.0  -0.4567
  N  N790  1  0.417100  0.400800  0.073300  1.0  -0.3096
  N  N791  1  0.319300  0.394300  0.992800  1.0  -0.3572
  N  N792  1  0.338400  0.383500  0.953900  1.0  -0.2685
  N  N793  1  0.289200  0.863900  0.728900  1.0  -0.4261
  N  N794  1  0.216700  0.776600  0.656900  1.0  -0.4379
  N  N795  1  0.499700  0.098120  0.908220  1.0  -0.458
  N  N796  1  0.417100  0.016300  0.843800  1.0  -0.3064
  N  N797  1  0.319300  0.925000  0.826500  1.0  -0.3604
  N  N798  1  0.338400  0.954900  0.884500  1.0  -0.2677
  N  N799  1  0.635000  0.560300  0.771100  1.0  -0.4226
  N  N800  1  0.619700  0.559800  0.843100  1.0  -0.4366
  N  N801  1  0.689900  0.591480  0.591780  1.0  -0.4578
  N  N802  1  0.672500  0.573300  0.656200  1.0  -0.3069
  N  N803  1  0.598500  0.492800  0.673500  1.0  -0.3571
  N  N804  1  0.570400  0.453900  0.615500  1.0  -0.2649
  N  N805  1  0.210800  0.939700  0.574700  1.0  -0.4258
  N  N806  1  0.283300  0.940200  0.559900  1.0  -0.436
  N  N807  1  0.000300  0.908520  0.598420  1.0  -0.4567
  N  N808  1  0.082900  0.926700  0.599200  1.0  -0.3061
  N  N809  1  0.180700  0.007200  0.605700  1.0  -0.3546
  N  N810  1  0.161600  0.046100  0.616500  1.0  -0.2663
  N  N811  1  0.865000  0.636100  0.925300  1.0  -0.425
  N  N812  1  0.880300  0.723400  0.940100  1.0  -0.4382
  N  N813  1  0.810100  0.401880  0.901580  1.0  -0.457
  N  N814  1  0.827500  0.483700  0.900800  1.0  -0.3024
  N  N815  1  0.901500  0.575000  0.894300  1.0  -0.3567
  N  N816  1  0.929600  0.545100  0.883500  1.0  -0.2672
  N  N817  1  0.939700  0.074700  0.710800  1.0  -0.4245
  N  N818  1  0.940200  0.059900  0.783300  1.0  -0.4376
  N  N819  1  0.908520  0.098420  0.500300  1.0  -0.4576
  N  N820  1  0.926700  0.099200  0.582900  1.0  -0.3093
  N  N821  1  0.007200  0.105700  0.680700  1.0  -0.3593
  N  N822  1  0.046100  0.116500  0.661600  1.0  -0.2718
  N  N823  1  0.636100  0.425300  0.365000  1.0  -0.426
  N  N824  1  0.723400  0.440100  0.380300  1.0  -0.4369
  N  N825  1  0.401880  0.401580  0.310100  1.0  -0.457
  N  N826  1  0.483700  0.400800  0.327500  1.0  -0.3095
  N  N827  1  0.575000  0.394300  0.401500  1.0  -0.3571
  N  N828  1  0.545100  0.383500  0.429600  1.0  -0.2728
  N  N829  1  0.863900  0.228900  0.789200  1.0  -0.4245
  N  N830  1  0.776600  0.156900  0.716700  1.0  -0.4382
  N  N831  1  0.098120  0.408220  0.999700  1.0  -0.4556
  N  N832  1  0.016300  0.343800  0.917100  1.0  -0.3066
  N  N833  1  0.925000  0.326500  0.819300  1.0  -0.3613
  N  N834  1  0.954900  0.384500  0.838400  1.0  -0.2664
  N  N835  1  0.560300  0.271100  0.135000  1.0  -0.4254
  N  N836  1  0.559800  0.343100  0.119700  1.0  -0.4389
  N  N837  1  0.591480  0.091780  0.189900  1.0  -0.4563
  N  N838  1  0.573300  0.156200  0.172500  1.0  -0.306
  N  N839  1  0.492800  0.173500  0.098500  1.0  -0.3578
  N  N840  1  0.453900  0.115500  0.070400  1.0  -0.2656
  N  N841  1  0.271100  0.635000  0.060300  1.0  -0.4263
  N  N842  1  0.343100  0.619700  0.059800  1.0  -0.4363
  N  N843  1  0.091780  0.689900  0.091480  1.0  -0.4568
  N  N844  1  0.156200  0.672500  0.073300  1.0  -0.3081
  N  N845  1  0.173500  0.598500  0.992800  1.0  -0.3592
  N  N846  1  0.115500  0.570400  0.953900  1.0  -0.2673
  N  N847  1  0.228900  0.289200  0.363900  1.0  -0.4244
  N  N848  1  0.156900  0.216700  0.276600  1.0  -0.4379
  N  N849  1  0.408220  0.499700  0.598120  1.0  -0.455
  N  N850  1  0.343800  0.417100  0.516300  1.0  -0.3076
  N  N851  1  0.326500  0.319300  0.425000  1.0  -0.3573
  N  N852  1  0.384500  0.338400  0.454900  1.0  -0.2686
  N  N853  1  0.425300  0.865000  0.136100  1.0  -0.4255
  N  N854  1  0.440100  0.880300  0.223400  1.0  -0.436
  N  N855  1  0.401580  0.810100  0.901880  1.0  -0.4585
  N  N856  1  0.400800  0.827500  0.983700  1.0  -0.3059
  N  N857  1  0.394300  0.901500  0.075000  1.0  -0.3588
  N  N858  1  0.383500  0.929600  0.045100  1.0  -0.2682
  N  N859  1  0.074700  0.210800  0.439700  1.0  -0.4246
  N  N860  1  0.059900  0.283300  0.440200  1.0  -0.4375
  N  N861  1  0.098420  0.000300  0.408520  1.0  -0.4556
  N  N862  1  0.099200  0.082900  0.426700  1.0  -0.3074
  N  N863  1  0.105700  0.180700  0.507200  1.0  -0.3586
  N  N864  1  0.116500  0.161600  0.546100  1.0  -0.2714
  N  N865  1  0.363900  0.789200  0.228900  1.0  -0.4238
  N  N866  1  0.276600  0.716700  0.156900  1.0  -0.4375
  N  N867  1  0.598120  0.999700  0.408220  1.0  -0.455
  N  N868  1  0.516300  0.917100  0.343800  1.0  -0.3087
  N  N869  1  0.425000  0.819300  0.326500  1.0  -0.3591
  N  N870  1  0.454900  0.838400  0.384500  1.0  -0.274
  N  N871  1  0.060300  0.135000  0.271100  1.0  -0.4253
  N  N872  1  0.059800  0.119700  0.343100  1.0  -0.436
  N  N873  1  0.091480  0.189900  0.091780  1.0  -0.4586
  N  N874  1  0.073300  0.172500  0.156200  1.0  -0.3058
  N  N875  1  0.992800  0.098500  0.173500  1.0  -0.3601
  N  N876  1  0.953900  0.070400  0.115500  1.0  -0.2675
  N  N877  1  0.439700  0.710800  0.074700  1.0  -0.4257
  N  N878  1  0.440200  0.783300  0.059900  1.0  -0.4381
  N  N879  1  0.408520  0.500300  0.098420  1.0  -0.4554
  N  N880  1  0.426700  0.582900  0.099200  1.0  -0.3073
  N  N881  1  0.507200  0.680700  0.105700  1.0  -0.3557
  N  N882  1  0.546100  0.661600  0.116500  1.0  -0.2703
  N  N883  1  0.136100  0.365000  0.425300  1.0  -0.4269
  N  N884  1  0.223400  0.380300  0.440100  1.0  -0.4361
  N  N885  1  0.901880  0.310100  0.401580  1.0  -0.4569
  N  N886  1  0.983700  0.327500  0.400800  1.0  -0.3081
  N  N887  1  0.075000  0.401500  0.394300  1.0  -0.3591
  N  N888  1  0.045100  0.429600  0.383500  1.0  -0.2661
  N  N889  1  0.574700  0.439700  0.210800  1.0  -0.4231
  N  N890  1  0.559900  0.440200  0.283300  1.0  -0.4365
  N  N891  1  0.598420  0.408520  0.000300  1.0  -0.4575
  N  N892  1  0.599200  0.426700  0.082900  1.0  -0.307
  N  N893  1  0.605700  0.507200  0.180700  1.0  -0.3558
  N  N894  1  0.616500  0.546100  0.161600  1.0  -0.2661
  N  N895  1  0.925300  0.136100  0.865000  1.0  -0.4254
  N  N896  1  0.940100  0.223400  0.880300  1.0  -0.4388
  N  N897  1  0.901580  0.901880  0.810100  1.0  -0.4574
  N  N898  1  0.900800  0.983700  0.827500  1.0  -0.305
  N  N899  1  0.894300  0.075000  0.901500  1.0  -0.3595
  N  N900  1  0.883500  0.045100  0.929600  1.0  -0.2678
  N  N901  1  0.728900  0.363900  0.289200  1.0  -0.4253
  N  N902  1  0.656900  0.276600  0.216700  1.0  -0.4374
  N  N903  1  0.908220  0.598120  0.499700  1.0  -0.4573
  N  N904  1  0.843800  0.516300  0.417100  1.0  -0.3039
  N  N905  1  0.826500  0.425000  0.319300  1.0  -0.3573
  N  N906  1  0.884500  0.454900  0.338400  1.0  -0.268
  N  N907  1  0.771100  0.060300  0.635000  1.0  -0.4253
  N  N908  1  0.843100  0.059800  0.619700  1.0  -0.4362
  N  N909  1  0.591780  0.091480  0.689900  1.0  -0.4571
  N  N910  1  0.656200  0.073300  0.672500  1.0  -0.3053
  N  N911  1  0.673500  0.992800  0.598500  1.0  -0.361
  N  N912  1  0.615500  0.953900  0.570400  1.0  -0.2648
  N  N913  1  0.135000  0.771100  0.560300  1.0  -0.4248
  N  N914  1  0.119700  0.843100  0.559800  1.0  -0.4388
  N  N915  1  0.189900  0.591780  0.591480  1.0  -0.456
  N  N916  1  0.172500  0.656200  0.573300  1.0  -0.3054
  N  N917  1  0.098500  0.673500  0.492800  1.0  -0.3608
  N  N918  1  0.070400  0.615500  0.453900  1.0  -0.2661
  N  N919  1  0.789200  0.728900  0.863900  1.0  -0.4253
  N  N920  1  0.716700  0.656900  0.776600  1.0  -0.4385
  N  N921  1  0.999700  0.908220  0.098120  1.0  -0.4561
  N  N922  1  0.917100  0.843800  0.016300  1.0  -0.3055
  N  N923  1  0.819300  0.826500  0.925000  1.0  -0.3576
  N  N924  1  0.838400  0.884500  0.954900  1.0  -0.2661
  N  N925  1  0.365000  0.925300  0.636100  1.0  -0.4249
  N  N926  1  0.380300  0.940100  0.723400  1.0  -0.4376
  N  N927  1  0.310100  0.901580  0.401880  1.0  -0.4577
  N  N928  1  0.327500  0.900800  0.483700  1.0  -0.3096
  N  N929  1  0.401500  0.894300  0.575000  1.0  -0.356
  N  N930  1  0.429600  0.883500  0.545100  1.0  -0.2726
  N  N931  1  0.710800  0.574700  0.939700  1.0  -0.426
  N  N932  1  0.783300  0.559900  0.940200  1.0  -0.4369
  N  N933  1  0.500300  0.598420  0.908520  1.0  -0.4568
  N  N934  1  0.582900  0.599200  0.926700  1.0  -0.31
  N  N935  1  0.680700  0.605700  0.007200  1.0  -0.3601
  N  N936  1  0.661600  0.616500  0.046100  1.0  -0.2684
  N  N937  1  0.710800  0.136100  0.271100  1.0  -0.4253
  N  N938  1  0.783300  0.223400  0.343100  1.0  -0.4393
  N  N939  1  0.500300  0.901880  0.091780  1.0  -0.4572
  N  N940  1  0.582900  0.983700  0.156200  1.0  -0.3053
  N  N941  1  0.680700  0.075000  0.173500  1.0  -0.3593
  N  N942  1  0.661600  0.045100  0.115500  1.0  -0.2684
  N  N943  1  0.365000  0.439700  0.228900  1.0  -0.4243
  N  N944  1  0.380300  0.440200  0.156900  1.0  -0.4371
  N  N945  1  0.310100  0.408520  0.408220  1.0  -0.4573
  N  N946  1  0.327500  0.426700  0.343800  1.0  -0.3052
  N  N947  1  0.401500  0.507200  0.326500  1.0  -0.3566
  N  N948  1  0.429600  0.546100  0.384500  1.0  -0.2682
  N  N949  1  0.789200  0.060300  0.425300  1.0  -0.4241
  N  N950  1  0.716700  0.059800  0.440100  1.0  -0.4372
  N  N951  1  0.999700  0.091480  0.401580  1.0  -0.4568
  N  N952  1  0.917100  0.073300  0.400800  1.0  -0.306
  N  N953  1  0.819300  0.992800  0.394300  1.0  -0.3579
  N  N954  1  0.838400  0.953900  0.383500  1.0  -0.2652
  N  N955  1  0.135000  0.363900  0.074700  1.0  -0.4262
  N  N956  1  0.119700  0.276600  0.059900  1.0  -0.4371
  N  N957  1  0.189900  0.598120  0.098420  1.0  -0.4563
  N  N958  1  0.172500  0.516300  0.099200  1.0  -0.306
  N  N959  1  0.098500  0.425000  0.105700  1.0  -0.3558
  N  N960  1  0.070400  0.454900  0.116500  1.0  -0.2645
  N  N961  1  0.060300  0.925300  0.289200  1.0  -0.4246
  N  N962  1  0.059800  0.940100  0.216700  1.0  -0.4379
  N  N963  1  0.091480  0.901580  0.499700  1.0  -0.4559
  N  N964  1  0.073300  0.900800  0.417100  1.0  -0.3094
  N  N965  1  0.992800  0.894300  0.319300  1.0  -0.3557
  N  N966  1  0.953900  0.883500  0.338400  1.0  -0.2696
  N  N967  1  0.363900  0.574700  0.635000  1.0  -0.4266
  N  N968  1  0.276600  0.559900  0.619700  1.0  -0.4384
  N  N969  1  0.598120  0.598420  0.689900  1.0  -0.4567
  N  N970  1  0.516300  0.599200  0.672500  1.0  -0.31
  N  N971  1  0.425000  0.605700  0.598500  1.0  -0.3589
  N  N972  1  0.454900  0.616500  0.570400  1.0  -0.2702
  N  N973  1  0.136100  0.771100  0.210800  1.0  -0.4274
  N  N974  1  0.223400  0.843100  0.283300  1.0  -0.4383
  N  N975  1  0.901880  0.591780  0.000300  1.0  -0.4571
  N  N976  1  0.983700  0.656200  0.082900  1.0  -0.3056
  N  N977  1  0.075000  0.673500  0.180700  1.0  -0.3573
  N  N978  1  0.045100  0.615500  0.161600  1.0  -0.2663
  N  N979  1  0.439700  0.728900  0.865000  1.0  -0.4255
  N  N980  1  0.440200  0.656900  0.880300  1.0  -0.4386
  N  N981  1  0.408520  0.908220  0.810100  1.0  -0.4568
  N  N982  1  0.426700  0.843800  0.827500  1.0  -0.3074
  N  N983  1  0.507200  0.826500  0.901500  1.0  -0.3586
  N  N984  1  0.546100  0.884500  0.929600  1.0  -0.2715
  N  N985  1  0.728900  0.365000  0.939700  1.0  -0.4269
  N  N986  1  0.656900  0.380300  0.940200  1.0  -0.4369
  N  N987  1  0.908220  0.310100  0.908520  1.0  -0.4559
  N  N988  1  0.843800  0.327500  0.926700  1.0  -0.3091
  N  N989  1  0.826500  0.401500  0.007200  1.0  -0.3555
  N  N990  1  0.884500  0.429600  0.046100  1.0  -0.2662
  N  N991  1  0.771100  0.710800  0.636100  1.0  -0.4249
  N  N992  1  0.843100  0.783300  0.723400  1.0  -0.4367
  N  N993  1  0.591780  0.500300  0.401880  1.0  -0.4561
  N  N994  1  0.656200  0.582900  0.483700  1.0  -0.3085
  N  N995  1  0.673500  0.680700  0.575000  1.0  -0.3579
  N  N996  1  0.615500  0.661600  0.545100  1.0  -0.2692
  N  N997  1  0.574700  0.135000  0.863900  1.0  -0.4258
  N  N998  1  0.559900  0.119700  0.776600  1.0  -0.4371
  N  N999  1  0.598420  0.189900  0.098120  1.0  -0.4576
  N  N1000  1  0.599200  0.172500  0.016300  1.0  -0.3077
  N  N1001  1  0.605700  0.098500  0.925000  1.0  -0.3617
  N  N1002  1  0.616500  0.070400  0.954900  1.0  -0.2704
  N  N1003  1  0.925300  0.789200  0.560300  1.0  -0.4257
  N  N1004  1  0.940100  0.716700  0.559800  1.0  -0.4364
  N  N1005  1  0.901580  0.999700  0.591480  1.0  -0.4563
  N  N1006  1  0.900800  0.917100  0.573300  1.0  -0.3068
  N  N1007  1  0.894300  0.819300  0.492800  1.0  -0.359
  N  N1008  1  0.883500  0.838400  0.453900  1.0  -0.271
