# generated using pymatgen
data_Zn2H12C21N2O15
_symmetry_space_group_name_H-M   'P 1'
_cell_length_a   27.72050000
_cell_length_b   27.72050000
_cell_length_c   27.72050000
_cell_angle_alpha   90.00000000
_cell_angle_beta   90.00000000
_cell_angle_gamma   90.00000000
_symmetry_Int_Tables_number   1
_chemical_formula_structural   Zn2H12C21N2O15
_chemical_formula_sum   'Zn32 H192 C336 N32 O240'
_cell_volume   21301.15626639
_cell_formula_units_Z   16
loop_
 _symmetry_equiv_pos_site_id
 _symmetry_equiv_pos_as_xyz
  1  'x, y, z'
loop_
 _atom_site_type_symbol
 _atom_site_label
 _atom_site_symmetry_multiplicity
 _atom_site_fract_x
 _atom_site_fract_y
 _atom_site_fract_z
 _atom_site_occupancy
 _atom_site_charge
  Zn  Zn1  1  0.425200  0.425200  0.925200  1.0  0.9239
  Zn  Zn2  1  0.925200  0.925200  0.925200  1.0  0.9239
  Zn  Zn3  1  0.574800  0.074800  0.425200  1.0  0.9259
  Zn  Zn4  1  0.074800  0.925200  0.074800  1.0  0.9244
  Zn  Zn5  1  0.074800  0.425200  0.574800  1.0  0.9244
  Zn  Zn6  1  0.925200  0.574800  0.574800  1.0  0.9251
  Zn  Zn7  1  0.425200  0.574800  0.074800  1.0  0.9251
  Zn  Zn8  1  0.925200  0.425200  0.425200  1.0  0.9239
  Zn  Zn9  1  0.425200  0.074800  0.574800  1.0  0.9251
  Zn  Zn10  1  0.074800  0.074800  0.925200  1.0  0.9259
  Zn  Zn11  1  0.074800  0.574800  0.425200  1.0  0.9259
  Zn  Zn12  1  0.574800  0.925200  0.574800  1.0  0.9244
  Zn  Zn13  1  0.574800  0.425200  0.074800  1.0  0.9244
  Zn  Zn14  1  0.425200  0.925200  0.425200  1.0  0.9239
  Zn  Zn15  1  0.925200  0.074800  0.074800  1.0  0.9251
  Zn  Zn16  1  0.574800  0.574800  0.925200  1.0  0.9259
  Zn  Zn17  1  0.175200  0.675200  0.824800  1.0  0.9238
  Zn  Zn18  1  0.175200  0.175200  0.324800  1.0  0.9238
  Zn  Zn19  1  0.675200  0.675200  0.324800  1.0  0.9238
  Zn  Zn20  1  0.824800  0.824800  0.324800  1.0  0.9264
  Zn  Zn21  1  0.675200  0.324800  0.675200  1.0  0.9246
  Zn  Zn22  1  0.175200  0.824800  0.675200  1.0  0.9246
  Zn  Zn23  1  0.324800  0.175200  0.175200  1.0  0.925
  Zn  Zn24  1  0.675200  0.175200  0.824800  1.0  0.9238
  Zn  Zn25  1  0.324800  0.675200  0.675200  1.0  0.925
  Zn  Zn26  1  0.824800  0.324800  0.824800  1.0  0.9264
  Zn  Zn27  1  0.675200  0.824800  0.175200  1.0  0.9246
  Zn  Zn28  1  0.175200  0.324800  0.175200  1.0  0.9246
  Zn  Zn29  1  0.824800  0.175200  0.675200  1.0  0.925
  Zn  Zn30  1  0.824800  0.675200  0.175200  1.0  0.925
  Zn  Zn31  1  0.324800  0.824800  0.824800  1.0  0.9264
  Zn  Zn32  1  0.324800  0.324800  0.324800  1.0  0.9264
  H  H33  1  0.445600  0.393400  0.756300  1.0  0.1475
  H  H34  1  0.479600  0.520400  0.917100  1.0  0.1071
  H  H35  1  0.445600  0.893400  0.256300  1.0  0.1475
  H  H36  1  0.479600  0.020400  0.417100  1.0  0.1071
  H  H37  1  0.945600  0.393400  0.256300  1.0  0.1475
  H  H38  1  0.979600  0.520400  0.417100  1.0  0.1071
  H  H39  1  0.945600  0.893400  0.756300  1.0  0.1475
  H  H40  1  0.979600  0.020400  0.917100  1.0  0.1071
  H  H41  1  0.554400  0.106600  0.256300  1.0  0.1477
  H  H42  1  0.520400  0.979600  0.417100  1.0  0.1061
  H  H43  1  0.554400  0.606600  0.756300  1.0  0.1477
  H  H44  1  0.520400  0.479600  0.917100  1.0  0.1061
  H  H45  1  0.054400  0.106600  0.756300  1.0  0.1477
  H  H46  1  0.020400  0.979600  0.917100  1.0  0.1061
  H  H47  1  0.054400  0.606600  0.256300  1.0  0.1477
  H  H48  1  0.020400  0.479600  0.417100  1.0  0.1061
  H  H49  1  0.054400  0.893400  0.243700  1.0  0.146
  H  H50  1  0.020400  0.020400  0.082900  1.0  0.1071
  H  H51  1  0.054400  0.393400  0.743700  1.0  0.146
  H  H52  1  0.020400  0.520400  0.582900  1.0  0.1071
  H  H53  1  0.554400  0.893400  0.743700  1.0  0.146
  H  H54  1  0.520400  0.020400  0.582900  1.0  0.1071
  H  H55  1  0.554400  0.393400  0.243700  1.0  0.146
  H  H56  1  0.520400  0.520400  0.082900  1.0  0.1071
  H  H57  1  0.945600  0.606600  0.743700  1.0  0.1476
  H  H58  1  0.979600  0.479600  0.582900  1.0  0.1079
  H  H59  1  0.945600  0.106600  0.243700  1.0  0.1476
  H  H60  1  0.979600  0.979600  0.082900  1.0  0.1079
  H  H61  1  0.445600  0.606600  0.243700  1.0  0.1476
  H  H62  1  0.479600  0.479600  0.082900  1.0  0.1079
  H  H63  1  0.445600  0.106600  0.743700  1.0  0.1476
  H  H64  1  0.479600  0.979600  0.582900  1.0  0.1079
  H  H65  1  0.756300  0.445600  0.393400  1.0  0.1491
  H  H66  1  0.917100  0.479600  0.520400  1.0  0.1059
  H  H67  1  0.756300  0.945600  0.893400  1.0  0.1491
  H  H68  1  0.917100  0.979600  0.020400  1.0  0.1059
  H  H69  1  0.256300  0.445600  0.893400  1.0  0.1491
  H  H70  1  0.417100  0.479600  0.020400  1.0  0.1059
  H  H71  1  0.256300  0.945600  0.393400  1.0  0.1491
  H  H72  1  0.417100  0.979600  0.520400  1.0  0.1059
  H  H73  1  0.256300  0.554400  0.106600  1.0  0.1491
  H  H74  1  0.417100  0.520400  0.979600  1.0  0.1067
  H  H75  1  0.256300  0.054400  0.606600  1.0  0.1491
  H  H76  1  0.417100  0.020400  0.479600  1.0  0.1067
  H  H77  1  0.756300  0.554400  0.606600  1.0  0.1491
  H  H78  1  0.917100  0.520400  0.479600  1.0  0.1067
  H  H79  1  0.756300  0.054400  0.106600  1.0  0.1491
  H  H80  1  0.917100  0.020400  0.979600  1.0  0.1067
  H  H81  1  0.243700  0.054400  0.893400  1.0  0.1481
  H  H82  1  0.082900  0.020400  0.020400  1.0  0.1054
  H  H83  1  0.243700  0.554400  0.393400  1.0  0.1481
  H  H84  1  0.082900  0.520400  0.520400  1.0  0.1054
  H  H85  1  0.743700  0.054400  0.393400  1.0  0.1481
  H  H86  1  0.582900  0.020400  0.520400  1.0  0.1054
  H  H87  1  0.743700  0.554400  0.893400  1.0  0.1481
  H  H88  1  0.582900  0.520400  0.020400  1.0  0.1054
  H  H89  1  0.743700  0.945600  0.606600  1.0  0.1488
  H  H90  1  0.582900  0.979600  0.479600  1.0  0.1049
  H  H91  1  0.743700  0.445600  0.106600  1.0  0.1488
  H  H92  1  0.582900  0.479600  0.979600  1.0  0.1049
  H  H93  1  0.243700  0.945600  0.106600  1.0  0.1488
  H  H94  1  0.082900  0.979600  0.979600  1.0  0.1049
  H  H95  1  0.243700  0.445600  0.606600  1.0  0.1488
  H  H96  1  0.082900  0.479600  0.479600  1.0  0.1049
  H  H97  1  0.393400  0.756300  0.445600  1.0  0.146
  H  H98  1  0.520400  0.917100  0.479600  1.0  0.1054
  H  H99  1  0.393400  0.256300  0.945600  1.0  0.146
  H  H100  1  0.520400  0.417100  0.979600  1.0  0.1054
  H  H101  1  0.893400  0.756300  0.945600  1.0  0.146
  H  H102  1  0.020400  0.917100  0.979600  1.0  0.1054
  H  H103  1  0.893400  0.256300  0.445600  1.0  0.146
  H  H104  1  0.020400  0.417100  0.479600  1.0  0.1054
  H  H105  1  0.106600  0.256300  0.554400  1.0  0.146
  H  H106  1  0.979600  0.417100  0.520400  1.0  0.106
  H  H107  1  0.106600  0.756300  0.054400  1.0  0.146
  H  H108  1  0.979600  0.917100  0.020400  1.0  0.106
  H  H109  1  0.606600  0.256300  0.054400  1.0  0.146
  H  H110  1  0.479600  0.417100  0.020400  1.0  0.106
  H  H111  1  0.606600  0.756300  0.554400  1.0  0.146
  H  H112  1  0.479600  0.917100  0.520400  1.0  0.106
  H  H113  1  0.893400  0.243700  0.054400  1.0  0.1461
  H  H114  1  0.020400  0.082900  0.020400  1.0  0.105
  H  H115  1  0.893400  0.743700  0.554400  1.0  0.1461
  H  H116  1  0.020400  0.582900  0.520400  1.0  0.105
  H  H117  1  0.393400  0.243700  0.554400  1.0  0.1461
  H  H118  1  0.520400  0.082900  0.520400  1.0  0.105
  H  H119  1  0.393400  0.743700  0.054400  1.0  0.1461
  H  H120  1  0.520400  0.582900  0.020400  1.0  0.105
  H  H121  1  0.606600  0.743700  0.945600  1.0  0.1457
  H  H122  1  0.479600  0.582900  0.979600  1.0  0.1074
  H  H123  1  0.606600  0.243700  0.445600  1.0  0.1457
  H  H124  1  0.479600  0.082900  0.479600  1.0  0.1074
  H  H125  1  0.106600  0.743700  0.445600  1.0  0.1457
  H  H126  1  0.979600  0.582900  0.479600  1.0  0.1074
  H  H127  1  0.106600  0.243700  0.945600  1.0  0.1457
  H  H128  1  0.979600  0.082900  0.979600  1.0  0.1074
  H  H129  1  0.143400  0.695600  0.993700  1.0  0.1496
  H  H130  1  0.270400  0.729600  0.832900  1.0  0.1073
  H  H131  1  0.143400  0.195600  0.493700  1.0  0.1496
  H  H132  1  0.270400  0.229600  0.332900  1.0  0.1073
  H  H133  1  0.643400  0.695600  0.493700  1.0  0.1496
  H  H134  1  0.770400  0.729600  0.332900  1.0  0.1073
  H  H135  1  0.643400  0.195600  0.993700  1.0  0.1496
  H  H136  1  0.770400  0.229600  0.832900  1.0  0.1073
  H  H137  1  0.856600  0.804400  0.493700  1.0  0.1488
  H  H138  1  0.729600  0.770400  0.332900  1.0  0.1071
  H  H139  1  0.856600  0.304400  0.993700  1.0  0.1488
  H  H140  1  0.729600  0.270400  0.832900  1.0  0.1071
  H  H141  1  0.356600  0.804400  0.993700  1.0  0.1488
  H  H142  1  0.229600  0.770400  0.832900  1.0  0.1071
  H  H143  1  0.356600  0.304400  0.493700  1.0  0.1488
  H  H144  1  0.229600  0.270400  0.332900  1.0  0.1071
  H  H145  1  0.643400  0.304400  0.506300  1.0  0.1503
  H  H146  1  0.770400  0.270400  0.667100  1.0  0.1065
  H  H147  1  0.643400  0.804400  0.006300  1.0  0.1503
  H  H148  1  0.770400  0.770400  0.167100  1.0  0.1065
  H  H149  1  0.143400  0.304400  0.006300  1.0  0.1503
  H  H150  1  0.270400  0.270400  0.167100  1.0  0.1065
  H  H151  1  0.143400  0.804400  0.506300  1.0  0.1503
  H  H152  1  0.270400  0.770400  0.667100  1.0  0.1065
  H  H153  1  0.356600  0.195600  0.006300  1.0  0.1503
  H  H154  1  0.229600  0.229600  0.167100  1.0  0.1061
  H  H155  1  0.356600  0.695600  0.506300  1.0  0.1503
  H  H156  1  0.229600  0.729600  0.667100  1.0  0.1061
  H  H157  1  0.856600  0.195600  0.506300  1.0  0.1503
  H  H158  1  0.729600  0.229600  0.667100  1.0  0.1061
  H  H159  1  0.856600  0.695600  0.006300  1.0  0.1503
  H  H160  1  0.729600  0.729600  0.167100  1.0  0.1061
  H  H161  1  0.195600  0.006300  0.356600  1.0  0.1469
  H  H162  1  0.229600  0.167100  0.229600  1.0  0.1061
  H  H163  1  0.195600  0.506300  0.856600  1.0  0.1469
  H  H164  1  0.229600  0.667100  0.729600  1.0  0.1061
  H  H165  1  0.695600  0.006300  0.856600  1.0  0.1469
  H  H166  1  0.729600  0.167100  0.729600  1.0  0.1061
  H  H167  1  0.695600  0.506300  0.356600  1.0  0.1469
  H  H168  1  0.729600  0.667100  0.229600  1.0  0.1061
  H  H169  1  0.304400  0.506300  0.643400  1.0  0.146
  H  H170  1  0.270400  0.667100  0.770400  1.0  0.1065
  H  H171  1  0.304400  0.006300  0.143400  1.0  0.146
  H  H172  1  0.270400  0.167100  0.270400  1.0  0.1065
  H  H173  1  0.804400  0.506300  0.143400  1.0  0.146
  H  H174  1  0.770400  0.667100  0.270400  1.0  0.1065
  H  H175  1  0.804400  0.006300  0.643400  1.0  0.146
  H  H176  1  0.770400  0.167100  0.770400  1.0  0.1065
  H  H177  1  0.804400  0.493700  0.856600  1.0  0.1468
  H  H178  1  0.770400  0.332900  0.729600  1.0  0.1069
  H  H179  1  0.804400  0.993700  0.356600  1.0  0.1468
  H  H180  1  0.770400  0.832900  0.229600  1.0  0.1069
  H  H181  1  0.304400  0.493700  0.356600  1.0  0.1468
  H  H182  1  0.270400  0.332900  0.229600  1.0  0.1069
  H  H183  1  0.304400  0.993700  0.856600  1.0  0.1468
  H  H184  1  0.270400  0.832900  0.729600  1.0  0.1069
  H  H185  1  0.695600  0.993700  0.143400  1.0  0.1468
  H  H186  1  0.729600  0.832900  0.270400  1.0  0.1064
  H  H187  1  0.695600  0.493700  0.643400  1.0  0.1468
  H  H188  1  0.729600  0.332900  0.770400  1.0  0.1064
  H  H189  1  0.195600  0.993700  0.643400  1.0  0.1468
  H  H190  1  0.229600  0.832900  0.770400  1.0  0.1064
  H  H191  1  0.195600  0.493700  0.143400  1.0  0.1468
  H  H192  1  0.229600  0.332900  0.270400  1.0  0.1064
  H  H193  1  0.506300  0.643400  0.304400  1.0  0.1463
  H  H194  1  0.667100  0.770400  0.270400  1.0  0.1053
  H  H195  1  0.506300  0.143400  0.804400  1.0  0.1463
  H  H196  1  0.667100  0.270400  0.770400  1.0  0.1053
  H  H197  1  0.006300  0.643400  0.804400  1.0  0.1463
  H  H198  1  0.167100  0.770400  0.770400  1.0  0.1053
  H  H199  1  0.006300  0.143400  0.304400  1.0  0.1463
  H  H200  1  0.167100  0.270400  0.270400  1.0  0.1053
  H  H201  1  0.006300  0.356600  0.195600  1.0  0.1461
  H  H202  1  0.167100  0.229600  0.229600  1.0  0.1062
  H  H203  1  0.006300  0.856600  0.695600  1.0  0.1461
  H  H204  1  0.167100  0.729600  0.729600  1.0  0.1062
  H  H205  1  0.506300  0.356600  0.695600  1.0  0.1461
  H  H206  1  0.667100  0.229600  0.729600  1.0  0.1062
  H  H207  1  0.506300  0.856600  0.195600  1.0  0.1461
  H  H208  1  0.667100  0.729600  0.229600  1.0  0.1062
  H  H209  1  0.993700  0.143400  0.695600  1.0  0.1462
  H  H210  1  0.832900  0.270400  0.729600  1.0  0.1056
  H  H211  1  0.993700  0.643400  0.195600  1.0  0.1462
  H  H212  1  0.832900  0.770400  0.229600  1.0  0.1056
  H  H213  1  0.493700  0.143400  0.195600  1.0  0.1462
  H  H214  1  0.332900  0.270400  0.229600  1.0  0.1056
  H  H215  1  0.493700  0.643400  0.695600  1.0  0.1462
  H  H216  1  0.332900  0.770400  0.729600  1.0  0.1056
  H  H217  1  0.493700  0.856600  0.804400  1.0  0.1459
  H  H218  1  0.332900  0.729600  0.770400  1.0  0.1053
  H  H219  1  0.493700  0.356600  0.304400  1.0  0.1459
  H  H220  1  0.332900  0.229600  0.270400  1.0  0.1053
  H  H221  1  0.993700  0.856600  0.304400  1.0  0.1459
  H  H222  1  0.832900  0.729600  0.270400  1.0  0.1053
  H  H223  1  0.993700  0.356600  0.804400  1.0  0.1459
  H  H224  1  0.832900  0.229600  0.770400  1.0  0.1053
  C  C225  1  0.487890  0.402860  0.854230  1.0  0.6993
  C  C226  1  0.501780  0.388340  0.804740  1.0  0.0395
  C  C227  1  0.478160  0.384800  0.762480  1.0  -0.1105
  C  C228  1  0.487890  0.902860  0.354230  1.0  0.6993
  C  C229  1  0.501780  0.888340  0.304740  1.0  0.0395
  C  C230  1  0.478160  0.884800  0.262480  1.0  -0.1105
  C  C231  1  0.987890  0.402860  0.354230  1.0  0.6993
  C  C232  1  0.001780  0.388340  0.304740  1.0  0.0395
  C  C233  1  0.978160  0.384800  0.262480  1.0  -0.1105
  C  C234  1  0.987890  0.902860  0.854230  1.0  0.6993
  C  C235  1  0.001780  0.888340  0.804740  1.0  0.0395
  C  C236  1  0.978160  0.884800  0.762480  1.0  -0.1105
  C  C237  1  0.512110  0.097140  0.354230  1.0  0.6997
  C  C238  1  0.498220  0.111660  0.304740  1.0  0.0398
  C  C239  1  0.521840  0.115200  0.262480  1.0  -0.1094
  C  C240  1  0.512110  0.597140  0.854230  1.0  0.6997
  C  C241  1  0.498220  0.611660  0.804740  1.0  0.0398
  C  C242  1  0.521840  0.615200  0.762480  1.0  -0.1094
  C  C243  1  0.012110  0.097140  0.854230  1.0  0.6997
  C  C244  1  0.998220  0.111660  0.804740  1.0  0.0398
  C  C245  1  0.021840  0.115200  0.762480  1.0  -0.1094
  C  C246  1  0.012110  0.597140  0.354230  1.0  0.6997
  C  C247  1  0.998220  0.611660  0.304740  1.0  0.0398
  C  C248  1  0.021840  0.615200  0.262480  1.0  -0.1094
  C  C249  1  0.012110  0.902860  0.145770  1.0  0.6985
  C  C250  1  0.998220  0.888340  0.195260  1.0  0.0377
  C  C251  1  0.021840  0.884800  0.237520  1.0  -0.1079
  C  C252  1  0.012110  0.402860  0.645770  1.0  0.6985
  C  C253  1  0.998220  0.388340  0.695260  1.0  0.0377
  C  C254  1  0.021840  0.384800  0.737520  1.0  -0.1079
  C  C255  1  0.512110  0.902860  0.645770  1.0  0.6985
  C  C256  1  0.498220  0.888340  0.695260  1.0  0.0377
  C  C257  1  0.521840  0.884800  0.737520  1.0  -0.1079
  C  C258  1  0.512110  0.402860  0.145770  1.0  0.6985
  C  C259  1  0.498220  0.388340  0.195260  1.0  0.0377
  C  C260  1  0.521840  0.384800  0.237520  1.0  -0.1079
  C  C261  1  0.987890  0.597140  0.645770  1.0  0.6999
  C  C262  1  0.001780  0.611660  0.695260  1.0  0.0375
  C  C263  1  0.978160  0.615200  0.737520  1.0  -0.1102
  C  C264  1  0.987890  0.097140  0.145770  1.0  0.6999
  C  C265  1  0.001780  0.111660  0.195260  1.0  0.0375
  C  C266  1  0.978160  0.115200  0.237520  1.0  -0.1102
  C  C267  1  0.487890  0.597140  0.145770  1.0  0.6999
  C  C268  1  0.501780  0.611660  0.195260  1.0  0.0375
  C  C269  1  0.478160  0.615200  0.237520  1.0  -0.1102
  C  C270  1  0.487890  0.097140  0.645770  1.0  0.6999
  C  C271  1  0.501780  0.111660  0.695260  1.0  0.0375
  C  C272  1  0.478160  0.115200  0.737520  1.0  -0.1102
  C  C273  1  0.854230  0.487890  0.402860  1.0  0.7031
  C  C274  1  0.804740  0.501780  0.388340  1.0  0.0423
  C  C275  1  0.762480  0.478160  0.384800  1.0  -0.1097
  C  C276  1  0.854230  0.987890  0.902860  1.0  0.7031
  C  C277  1  0.804740  0.001780  0.888340  1.0  0.0423
  C  C278  1  0.762480  0.978160  0.884800  1.0  -0.1097
  C  C279  1  0.354230  0.487890  0.902860  1.0  0.7031
  C  C280  1  0.304740  0.501780  0.888340  1.0  0.0423
  C  C281  1  0.262480  0.478160  0.884800  1.0  -0.1097
  C  C282  1  0.354230  0.987890  0.402860  1.0  0.7031
  C  C283  1  0.304740  0.001780  0.388340  1.0  0.0423
  C  C284  1  0.262480  0.978160  0.384800  1.0  -0.1097
  C  C285  1  0.354230  0.512110  0.097140  1.0  0.7014
  C  C286  1  0.304740  0.498220  0.111660  1.0  0.042
  C  C287  1  0.262480  0.521840  0.115200  1.0  -0.1101
  C  C288  1  0.354230  0.012110  0.597140  1.0  0.7014
  C  C289  1  0.304740  0.998220  0.611660  1.0  0.042
  C  C290  1  0.262480  0.021840  0.615200  1.0  -0.1101
  C  C291  1  0.854230  0.512110  0.597140  1.0  0.7014
  C  C292  1  0.804740  0.498220  0.611660  1.0  0.042
  C  C293  1  0.762480  0.521840  0.615200  1.0  -0.1101
  C  C294  1  0.854230  0.012110  0.097140  1.0  0.7014
  C  C295  1  0.804740  0.998220  0.111660  1.0  0.042
  C  C296  1  0.762480  0.021840  0.115200  1.0  -0.1101
  C  C297  1  0.145770  0.012110  0.902860  1.0  0.7021
  C  C298  1  0.195260  0.998220  0.888340  1.0  0.0395
  C  C299  1  0.237520  0.021840  0.884800  1.0  -0.1101
  C  C300  1  0.145770  0.512110  0.402860  1.0  0.7021
  C  C301  1  0.195260  0.498220  0.388340  1.0  0.0395
  C  C302  1  0.237520  0.521840  0.384800  1.0  -0.1101
  C  C303  1  0.645770  0.012110  0.402860  1.0  0.7021
  C  C304  1  0.695260  0.998220  0.388340  1.0  0.0395
  C  C305  1  0.737520  0.021840  0.384800  1.0  -0.1101
  C  C306  1  0.645770  0.512110  0.902860  1.0  0.7021
  C  C307  1  0.695260  0.498220  0.888340  1.0  0.0395
  C  C308  1  0.737520  0.521840  0.884800  1.0  -0.1101
  C  C309  1  0.645770  0.987890  0.597140  1.0  0.7028
  C  C310  1  0.695260  0.001780  0.611660  1.0  0.0403
  C  C311  1  0.737520  0.978160  0.615200  1.0  -0.1101
  C  C312  1  0.645770  0.487890  0.097140  1.0  0.7028
  C  C313  1  0.695260  0.501780  0.111660  1.0  0.0403
  C  C314  1  0.737520  0.478160  0.115200  1.0  -0.1101
  C  C315  1  0.145770  0.987890  0.097140  1.0  0.7028
  C  C316  1  0.195260  0.001780  0.111660  1.0  0.0403
  C  C317  1  0.237520  0.978160  0.115200  1.0  -0.1101
  C  C318  1  0.145770  0.487890  0.597140  1.0  0.7028
  C  C319  1  0.195260  0.501780  0.611660  1.0  0.0403
  C  C320  1  0.237520  0.478160  0.615200  1.0  -0.1101
  C  C321  1  0.402860  0.854230  0.487890  1.0  0.6985
  C  C322  1  0.388340  0.804740  0.501780  1.0  0.0406
  C  C323  1  0.384800  0.762480  0.478160  1.0  -0.1102
  C  C324  1  0.402860  0.354230  0.987890  1.0  0.6985
  C  C325  1  0.388340  0.304740  0.001780  1.0  0.0406
  C  C326  1  0.384800  0.262480  0.978160  1.0  -0.1102
  C  C327  1  0.902860  0.854230  0.987890  1.0  0.6985
  C  C328  1  0.888340  0.804740  0.001780  1.0  0.0406
  C  C329  1  0.884800  0.762480  0.978160  1.0  -0.1102
  C  C330  1  0.902860  0.354230  0.487890  1.0  0.6985
  C  C331  1  0.888340  0.304740  0.501780  1.0  0.0406
  C  C332  1  0.884800  0.262480  0.478160  1.0  -0.1102
  C  C333  1  0.097140  0.354230  0.512110  1.0  0.6995
  C  C334  1  0.111660  0.304740  0.498220  1.0  0.0409
  C  C335  1  0.115200  0.262480  0.521840  1.0  -0.1103
  C  C336  1  0.097140  0.854230  0.012110  1.0  0.6995
  C  C337  1  0.111660  0.804740  0.998220  1.0  0.0409
  C  C338  1  0.115200  0.762480  0.021840  1.0  -0.1103
  C  C339  1  0.597140  0.354230  0.012110  1.0  0.6995
  C  C340  1  0.611660  0.304740  0.998220  1.0  0.0409
  C  C341  1  0.615200  0.262480  0.021840  1.0  -0.1103
  C  C342  1  0.597140  0.854230  0.512110  1.0  0.6995
  C  C343  1  0.611660  0.804740  0.498220  1.0  0.0409
  C  C344  1  0.615200  0.762480  0.521840  1.0  -0.1103
  C  C345  1  0.902860  0.145770  0.012110  1.0  0.7009
  C  C346  1  0.888340  0.195260  0.998220  1.0  0.0406
  C  C347  1  0.884800  0.237520  0.021840  1.0  -0.1093
  C  C348  1  0.902860  0.645770  0.512110  1.0  0.7009
  C  C349  1  0.888340  0.695260  0.498220  1.0  0.0406
  C  C350  1  0.884800  0.737520  0.521840  1.0  -0.1093
  C  C351  1  0.402860  0.145770  0.512110  1.0  0.7009
  C  C352  1  0.388340  0.195260  0.498220  1.0  0.0406
  C  C353  1  0.384800  0.237520  0.521840  1.0  -0.1093
  C  C354  1  0.402860  0.645770  0.012110  1.0  0.7009
  C  C355  1  0.388340  0.695260  0.998220  1.0  0.0406
  C  C356  1  0.384800  0.737520  0.021840  1.0  -0.1093
  C  C357  1  0.597140  0.645770  0.987890  1.0  0.7013
  C  C358  1  0.611660  0.695260  0.001780  1.0  0.0402
  C  C359  1  0.615200  0.737520  0.978160  1.0  -0.1098
  C  C360  1  0.597140  0.145770  0.487890  1.0  0.7013
  C  C361  1  0.611660  0.195260  0.501780  1.0  0.0402
  C  C362  1  0.615200  0.237520  0.478160  1.0  -0.1098
  C  C363  1  0.097140  0.645770  0.487890  1.0  0.7013
  C  C364  1  0.111660  0.695260  0.501780  1.0  0.0402
  C  C365  1  0.115200  0.737520  0.478160  1.0  -0.1098
  C  C366  1  0.097140  0.145770  0.987890  1.0  0.7013
  C  C367  1  0.111660  0.195260  0.001780  1.0  0.0402
  C  C368  1  0.115200  0.237520  0.978160  1.0  -0.1098
  C  C369  1  0.152860  0.737890  0.895770  1.0  0.7014
  C  C370  1  0.138340  0.751780  0.945260  1.0  0.0376
  C  C371  1  0.134800  0.728160  0.987520  1.0  -0.1082
  C  C372  1  0.152860  0.237890  0.395770  1.0  0.7014
  C  C373  1  0.138340  0.251780  0.445260  1.0  0.0376
  C  C374  1  0.134800  0.228160  0.487520  1.0  -0.1082
  C  C375  1  0.652860  0.737890  0.395770  1.0  0.7014
  C  C376  1  0.638340  0.751780  0.445260  1.0  0.0376
  C  C377  1  0.634800  0.728160  0.487520  1.0  -0.1082
  C  C378  1  0.652860  0.237890  0.895770  1.0  0.7014
  C  C379  1  0.638340  0.251780  0.945260  1.0  0.0376
  C  C380  1  0.634800  0.228160  0.987520  1.0  -0.1082
  C  C381  1  0.847140  0.762110  0.395770  1.0  0.7019
  C  C382  1  0.861660  0.748220  0.445260  1.0  0.0372
  C  C383  1  0.865200  0.771840  0.487520  1.0  -0.1086
  C  C384  1  0.847140  0.262110  0.895770  1.0  0.7019
  C  C385  1  0.861660  0.248220  0.945260  1.0  0.0372
  C  C386  1  0.865200  0.271840  0.987520  1.0  -0.1086
  C  C387  1  0.347140  0.762110  0.895770  1.0  0.7019
  C  C388  1  0.361660  0.748220  0.945260  1.0  0.0372
  C  C389  1  0.365200  0.771840  0.987520  1.0  -0.1086
  C  C390  1  0.347140  0.262110  0.395770  1.0  0.7019
  C  C391  1  0.361660  0.248220  0.445260  1.0  0.0372
  C  C392  1  0.365200  0.271840  0.487520  1.0  -0.1086
  C  C393  1  0.652860  0.262110  0.604230  1.0  0.7014
  C  C394  1  0.638340  0.248220  0.554740  1.0  0.0384
  C  C395  1  0.634800  0.271840  0.512480  1.0  -0.1097
  C  C396  1  0.652860  0.762110  0.104230  1.0  0.7014
  C  C397  1  0.638340  0.748220  0.054740  1.0  0.0384
  C  C398  1  0.634800  0.771840  0.012480  1.0  -0.1097
  C  C399  1  0.152860  0.262110  0.104230  1.0  0.7014
  C  C400  1  0.138340  0.248220  0.054740  1.0  0.0384
  C  C401  1  0.134800  0.271840  0.012480  1.0  -0.1097
  C  C402  1  0.152860  0.762110  0.604230  1.0  0.7014
  C  C403  1  0.138340  0.748220  0.554740  1.0  0.0384
  C  C404  1  0.134800  0.771840  0.512480  1.0  -0.1097
  C  C405  1  0.347140  0.237890  0.104230  1.0  0.7019
  C  C406  1  0.361660  0.251780  0.054740  1.0  0.0398
  C  C407  1  0.365200  0.228160  0.012480  1.0  -0.1091
  C  C408  1  0.347140  0.737890  0.604230  1.0  0.7019
  C  C409  1  0.361660  0.751780  0.554740  1.0  0.0398
  C  C410  1  0.365200  0.728160  0.512480  1.0  -0.1091
  C  C411  1  0.847140  0.237890  0.604230  1.0  0.7019
  C  C412  1  0.861660  0.251780  0.554740  1.0  0.0398
  C  C413  1  0.865200  0.228160  0.512480  1.0  -0.1091
  C  C414  1  0.847140  0.737890  0.104230  1.0  0.7019
  C  C415  1  0.861660  0.751780  0.054740  1.0  0.0398
  C  C416  1  0.865200  0.728160  0.012480  1.0  -0.1091
  C  C417  1  0.237890  0.104230  0.347140  1.0  0.6984
  C  C418  1  0.251780  0.054740  0.361660  1.0  0.0411
  C  C419  1  0.228160  0.012480  0.365200  1.0  -0.1065
  C  C420  1  0.237890  0.604230  0.847140  1.0  0.6984
  C  C421  1  0.251780  0.554740  0.861660  1.0  0.0411
  C  C422  1  0.228160  0.512480  0.865200  1.0  -0.1065
  C  C423  1  0.737890  0.104230  0.847140  1.0  0.6984
  C  C424  1  0.751780  0.054740  0.861660  1.0  0.0411
  C  C425  1  0.728160  0.012480  0.865200  1.0  -0.1065
  C  C426  1  0.737890  0.604230  0.347140  1.0  0.6984
  C  C427  1  0.751780  0.554740  0.361660  1.0  0.0411
  C  C428  1  0.728160  0.512480  0.365200  1.0  -0.1065
  C  C429  1  0.262110  0.604230  0.652860  1.0  0.6986
  C  C430  1  0.248220  0.554740  0.638340  1.0  0.0407
  C  C431  1  0.271840  0.512480  0.634800  1.0  -0.1051
  C  C432  1  0.262110  0.104230  0.152860  1.0  0.6986
  C  C433  1  0.248220  0.054740  0.138340  1.0  0.0407
  C  C434  1  0.271840  0.012480  0.134800  1.0  -0.1051
  C  C435  1  0.762110  0.604230  0.152860  1.0  0.6986
  C  C436  1  0.748220  0.554740  0.138340  1.0  0.0407
  C  C437  1  0.771840  0.512480  0.134800  1.0  -0.1051
  C  C438  1  0.762110  0.104230  0.652860  1.0  0.6986
  C  C439  1  0.748220  0.054740  0.638340  1.0  0.0407
  C  C440  1  0.771840  0.012480  0.634800  1.0  -0.1051
  C  C441  1  0.762110  0.395770  0.847140  1.0  0.6997
  C  C442  1  0.748220  0.445260  0.861660  1.0  0.041
  C  C443  1  0.771840  0.487520  0.865200  1.0  -0.1052
  C  C444  1  0.762110  0.895770  0.347140  1.0  0.6997
  C  C445  1  0.748220  0.945260  0.361660  1.0  0.041
  C  C446  1  0.771840  0.987520  0.365200  1.0  -0.1052
  C  C447  1  0.262110  0.395770  0.347140  1.0  0.6997
  C  C448  1  0.248220  0.445260  0.361660  1.0  0.041
  C  C449  1  0.271840  0.487520  0.365200  1.0  -0.1052
  C  C450  1  0.262110  0.895770  0.847140  1.0  0.6997
  C  C451  1  0.248220  0.945260  0.861660  1.0  0.041
  C  C452  1  0.271840  0.987520  0.865200  1.0  -0.1052
  C  C453  1  0.737890  0.895770  0.152860  1.0  0.7013
  C  C454  1  0.751780  0.945260  0.138340  1.0  0.0408
  C  C455  1  0.728160  0.987520  0.134800  1.0  -0.1066
  C  C456  1  0.737890  0.395770  0.652860  1.0  0.7013
  C  C457  1  0.751780  0.445260  0.638340  1.0  0.0408
  C  C458  1  0.728160  0.487520  0.634800  1.0  -0.1066
  C  C459  1  0.237890  0.895770  0.652860  1.0  0.7013
  C  C460  1  0.251780  0.945260  0.638340  1.0  0.0408
  C  C461  1  0.228160  0.987520  0.634800  1.0  -0.1066
  C  C462  1  0.237890  0.395770  0.152860  1.0  0.7013
  C  C463  1  0.251780  0.445260  0.138340  1.0  0.0408
  C  C464  1  0.228160  0.487520  0.134800  1.0  -0.1066
  C  C465  1  0.604230  0.652860  0.262110  1.0  0.7001
  C  C466  1  0.554740  0.638340  0.248220  1.0  0.0414
  C  C467  1  0.512480  0.634800  0.271840  1.0  -0.1055
  C  C468  1  0.604230  0.152860  0.762110  1.0  0.7001
  C  C469  1  0.554740  0.138340  0.748220  1.0  0.0414
  C  C470  1  0.512480  0.134800  0.771840  1.0  -0.1055
  C  C471  1  0.104230  0.652860  0.762110  1.0  0.7001
  C  C472  1  0.054740  0.638340  0.748220  1.0  0.0414
  C  C473  1  0.012480  0.634800  0.771840  1.0  -0.1055
  C  C474  1  0.104230  0.152860  0.262110  1.0  0.7001
  C  C475  1  0.054740  0.138340  0.248220  1.0  0.0414
  C  C476  1  0.012480  0.134800  0.271840  1.0  -0.1055
  C  C477  1  0.104230  0.347140  0.237890  1.0  0.7012
  C  C478  1  0.054740  0.361660  0.251780  1.0  0.0413
  C  C479  1  0.012480  0.365200  0.228160  1.0  -0.1051
  C  C480  1  0.104230  0.847140  0.737890  1.0  0.7012
  C  C481  1  0.054740  0.861660  0.751780  1.0  0.0413
  C  C482  1  0.012480  0.865200  0.728160  1.0  -0.1051
  C  C483  1  0.604230  0.347140  0.737890  1.0  0.7012
  C  C484  1  0.554740  0.361660  0.751780  1.0  0.0413
  C  C485  1  0.512480  0.365200  0.728160  1.0  -0.1051
  C  C486  1  0.604230  0.847140  0.237890  1.0  0.7012
  C  C487  1  0.554740  0.861660  0.251780  1.0  0.0413
  C  C488  1  0.512480  0.865200  0.228160  1.0  -0.1051
  C  C489  1  0.895770  0.152860  0.737890  1.0  0.7003
  C  C490  1  0.945260  0.138340  0.751780  1.0  0.0386
  C  C491  1  0.987520  0.134800  0.728160  1.0  -0.1055
  C  C492  1  0.895770  0.652860  0.237890  1.0  0.7003
  C  C493  1  0.945260  0.638340  0.251780  1.0  0.0386
  C  C494  1  0.987520  0.634800  0.228160  1.0  -0.1055
  C  C495  1  0.395770  0.152860  0.237890  1.0  0.7003
  C  C496  1  0.445260  0.138340  0.251780  1.0  0.0386
  C  C497  1  0.487520  0.134800  0.228160  1.0  -0.1055
  C  C498  1  0.395770  0.652860  0.737890  1.0  0.7003
  C  C499  1  0.445260  0.638340  0.751780  1.0  0.0386
  C  C500  1  0.487520  0.634800  0.728160  1.0  -0.1055
  C  C501  1  0.395770  0.847140  0.762110  1.0  0.7011
  C  C502  1  0.445260  0.861660  0.748220  1.0  0.0398
  C  C503  1  0.487520  0.865200  0.771840  1.0  -0.1057
  C  C504  1  0.395770  0.347140  0.262110  1.0  0.7011
  C  C505  1  0.445260  0.361660  0.248220  1.0  0.0398
  C  C506  1  0.487520  0.365200  0.271840  1.0  -0.1057
  C  C507  1  0.895770  0.847140  0.262110  1.0  0.7011
  C  C508  1  0.945260  0.861660  0.248220  1.0  0.0398
  C  C509  1  0.987520  0.865200  0.271840  1.0  -0.1057
  C  C510  1  0.895770  0.347140  0.762110  1.0  0.7011
  C  C511  1  0.945260  0.361660  0.748220  1.0  0.0398
  C  C512  1  0.987520  0.365200  0.771840  1.0  -0.1057
  C  C513  1  0.500000  0.500000  0.938040  1.0  0.0806
  C  C514  1  0.000000  0.500000  0.438040  1.0  0.0806
  C  C515  1  0.500000  0.000000  0.438040  1.0  0.0806
  C  C516  1  0.000000  0.000000  0.938040  1.0  0.0806
  C  C517  1  0.000000  0.000000  0.061960  1.0  0.0821
  C  C518  1  0.500000  0.000000  0.561960  1.0  0.0821
  C  C519  1  0.000000  0.500000  0.561960  1.0  0.0821
  C  C520  1  0.500000  0.500000  0.061960  1.0  0.0802
  C  C521  1  0.938040  0.500000  0.500000  1.0  0.0764
  C  C522  1  0.938040  0.000000  0.000000  1.0  0.0764
  C  C523  1  0.438040  0.500000  0.000000  1.0  0.0773
  C  C524  1  0.438040  0.000000  0.500000  1.0  0.0773
  C  C525  1  0.061960  0.000000  0.000000  1.0  0.0781
  C  C526  1  0.061960  0.500000  0.500000  1.0  0.0762
  C  C527  1  0.561960  0.000000  0.500000  1.0  0.0773
  C  C528  1  0.561960  0.500000  0.000000  1.0  0.0773
  C  C529  1  0.500000  0.938040  0.500000  1.0  0.0851
  C  C530  1  0.500000  0.438040  0.000000  1.0  0.0863
  C  C531  1  0.000000  0.438040  0.500000  1.0  0.0863
  C  C532  1  0.000000  0.938040  0.000000  1.0  0.0851
  C  C533  1  0.000000  0.061960  0.000000  1.0  0.0839
  C  C534  1  0.000000  0.561960  0.500000  1.0  0.0831
  C  C535  1  0.500000  0.561960  0.000000  1.0  0.0831
  C  C536  1  0.500000  0.061960  0.500000  1.0  0.0819
  C  C537  1  0.250000  0.750000  0.811960  1.0  0.0814
  C  C538  1  0.250000  0.250000  0.311960  1.0  0.0821
  C  C539  1  0.750000  0.750000  0.311960  1.0  0.0821
  C  C540  1  0.750000  0.250000  0.811960  1.0  0.0814
  C  C541  1  0.750000  0.250000  0.688040  1.0  0.0806
  C  C542  1  0.750000  0.750000  0.188040  1.0  0.0824
  C  C543  1  0.250000  0.250000  0.188040  1.0  0.0818
  C  C544  1  0.250000  0.750000  0.688040  1.0  0.0806
  C  C545  1  0.250000  0.188040  0.250000  1.0  0.0863
  C  C546  1  0.750000  0.188040  0.750000  1.0  0.0872
  C  C547  1  0.250000  0.688040  0.750000  1.0  0.0851
  C  C548  1  0.750000  0.688040  0.250000  1.0  0.0851
  C  C549  1  0.750000  0.311960  0.750000  1.0  0.0839
  C  C550  1  0.250000  0.311960  0.250000  1.0  0.0831
  C  C551  1  0.750000  0.811960  0.250000  1.0  0.0819
  C  C552  1  0.250000  0.811960  0.750000  1.0  0.0819
  C  C553  1  0.688040  0.750000  0.250000  1.0  0.0764
  C  C554  1  0.688040  0.250000  0.750000  1.0  0.0764
  C  C555  1  0.188040  0.250000  0.250000  1.0  0.0764
  C  C556  1  0.188040  0.750000  0.750000  1.0  0.0782
  C  C557  1  0.811960  0.250000  0.750000  1.0  0.0762
  C  C558  1  0.811960  0.750000  0.250000  1.0  0.0762
  C  C559  1  0.311960  0.750000  0.750000  1.0  0.0781
  C  C560  1  0.311960  0.250000  0.250000  1.0  0.0762
  N  N561  1  0.468760  0.468760  0.968760  1.0  -0.1594
  N  N562  1  0.968760  0.968760  0.968760  1.0  -0.1594
  N  N563  1  0.531240  0.031240  0.468760  1.0  -0.1597
  N  N564  1  0.031240  0.968760  0.031240  1.0  -0.1586
  N  N565  1  0.031240  0.468760  0.531240  1.0  -0.1586
  N  N566  1  0.968760  0.531240  0.531240  1.0  -0.1608
  N  N567  1  0.468760  0.531240  0.031240  1.0  -0.1608
  N  N568  1  0.968760  0.468760  0.468760  1.0  -0.1594
  N  N569  1  0.468760  0.031240  0.531240  1.0  -0.1608
  N  N570  1  0.031240  0.031240  0.968760  1.0  -0.1597
  N  N571  1  0.031240  0.531240  0.468760  1.0  -0.1597
  N  N572  1  0.531240  0.968760  0.531240  1.0  -0.1586
  N  N573  1  0.531240  0.468760  0.031240  1.0  -0.1586
  N  N574  1  0.468760  0.968760  0.468760  1.0  -0.1594
  N  N575  1  0.968760  0.031240  0.031240  1.0  -0.1608
  N  N576  1  0.531240  0.531240  0.968760  1.0  -0.1597
  N  N577  1  0.218760  0.718760  0.781240  1.0  -0.1591
  N  N578  1  0.218760  0.218760  0.281240  1.0  -0.1591
  N  N579  1  0.718760  0.718760  0.281240  1.0  -0.1591
  N  N580  1  0.781240  0.781240  0.281240  1.0  -0.1594
  N  N581  1  0.718760  0.281240  0.718760  1.0  -0.1603
  N  N582  1  0.218760  0.781240  0.718760  1.0  -0.1603
  N  N583  1  0.281240  0.218760  0.218760  1.0  -0.1588
  N  N584  1  0.718760  0.218760  0.781240  1.0  -0.1591
  N  N585  1  0.281240  0.718760  0.718760  1.0  -0.1588
  N  N586  1  0.781240  0.281240  0.781240  1.0  -0.1594
  N  N587  1  0.718760  0.781240  0.218760  1.0  -0.1603
  N  N588  1  0.218760  0.281240  0.218760  1.0  -0.1603
  N  N589  1  0.781240  0.218760  0.718760  1.0  -0.1588
  N  N590  1  0.781240  0.718760  0.218760  1.0  -0.1588
  N  N591  1  0.281240  0.781240  0.781240  1.0  -0.1594
  N  N592  1  0.281240  0.281240  0.281240  1.0  -0.1594
  O  O593  1  0.445510  0.418950  0.857910  1.0  -0.5595
  O  O594  1  0.517000  0.397130  0.887700  1.0  -0.5614
  O  O595  1  0.445510  0.918950  0.357910  1.0  -0.5595
  O  O596  1  0.517000  0.897130  0.387700  1.0  -0.5614
  O  O597  1  0.945510  0.418950  0.357910  1.0  -0.5595
  O  O598  1  0.017000  0.397130  0.387700  1.0  -0.5614
  O  O599  1  0.945510  0.918950  0.857910  1.0  -0.5595
  O  O600  1  0.017000  0.897130  0.887700  1.0  -0.5614
  O  O601  1  0.554490  0.081050  0.357910  1.0  -0.5627
  O  O602  1  0.483000  0.102870  0.387700  1.0  -0.563
  O  O603  1  0.554490  0.581050  0.857910  1.0  -0.5627
  O  O604  1  0.483000  0.602870  0.887700  1.0  -0.563
  O  O605  1  0.054490  0.081050  0.857910  1.0  -0.5627
  O  O606  1  0.983000  0.102870  0.887700  1.0  -0.563
  O  O607  1  0.054490  0.581050  0.357910  1.0  -0.5627
  O  O608  1  0.983000  0.602870  0.387700  1.0  -0.563
  O  O609  1  0.054490  0.918950  0.142090  1.0  -0.5613
  O  O610  1  0.983000  0.897130  0.112300  1.0  -0.5617
  O  O611  1  0.054490  0.418950  0.642090  1.0  -0.5613
  O  O612  1  0.983000  0.397130  0.612300  1.0  -0.5617
  O  O613  1  0.554490  0.918950  0.642090  1.0  -0.5613
  O  O614  1  0.483000  0.897130  0.612300  1.0  -0.5617
  O  O615  1  0.554490  0.418950  0.142090  1.0  -0.5613
  O  O616  1  0.483000  0.397130  0.112300  1.0  -0.5617
  O  O617  1  0.945510  0.581050  0.642090  1.0  -0.5607
  O  O618  1  0.017000  0.602870  0.612300  1.0  -0.561
  O  O619  1  0.945510  0.081050  0.142090  1.0  -0.5607
  O  O620  1  0.017000  0.102870  0.112300  1.0  -0.561
  O  O621  1  0.445510  0.581050  0.142090  1.0  -0.5607
  O  O622  1  0.517000  0.602870  0.112300  1.0  -0.561
  O  O623  1  0.445510  0.081050  0.642090  1.0  -0.5607
  O  O624  1  0.517000  0.102870  0.612300  1.0  -0.561
  O  O625  1  0.857910  0.445510  0.418950  1.0  -0.5636
  O  O626  1  0.887700  0.517000  0.397130  1.0  -0.5658
  O  O627  1  0.857910  0.945510  0.918950  1.0  -0.5636
  O  O628  1  0.887700  0.017000  0.897130  1.0  -0.5658
  O  O629  1  0.357910  0.445510  0.918950  1.0  -0.5636
  O  O630  1  0.387700  0.517000  0.897130  1.0  -0.5658
  O  O631  1  0.357910  0.945510  0.418950  1.0  -0.5636
  O  O632  1  0.387700  0.017000  0.397130  1.0  -0.5658
  O  O633  1  0.357910  0.554490  0.081050  1.0  -0.5651
  O  O634  1  0.387700  0.483000  0.102870  1.0  -0.563
  O  O635  1  0.357910  0.054490  0.581050  1.0  -0.5651
  O  O636  1  0.387700  0.983000  0.602870  1.0  -0.563
  O  O637  1  0.857910  0.554490  0.581050  1.0  -0.5651
  O  O638  1  0.887700  0.483000  0.602870  1.0  -0.563
  O  O639  1  0.857910  0.054490  0.081050  1.0  -0.5651
  O  O640  1  0.887700  0.983000  0.102870  1.0  -0.563
  O  O641  1  0.142090  0.054490  0.918950  1.0  -0.5636
  O  O642  1  0.112300  0.983000  0.897130  1.0  -0.5663
  O  O643  1  0.142090  0.554490  0.418950  1.0  -0.5636
  O  O644  1  0.112300  0.483000  0.397130  1.0  -0.5663
  O  O645  1  0.642090  0.054490  0.418950  1.0  -0.5636
  O  O646  1  0.612300  0.983000  0.397130  1.0  -0.5663
  O  O647  1  0.642090  0.554490  0.918950  1.0  -0.5636
  O  O648  1  0.612300  0.483000  0.897130  1.0  -0.5663
  O  O649  1  0.642090  0.945510  0.581050  1.0  -0.5659
  O  O650  1  0.612300  0.017000  0.602870  1.0  -0.565
  O  O651  1  0.642090  0.445510  0.081050  1.0  -0.5659
  O  O652  1  0.612300  0.517000  0.102870  1.0  -0.565
  O  O653  1  0.142090  0.945510  0.081050  1.0  -0.5659
  O  O654  1  0.112300  0.017000  0.102870  1.0  -0.565
  O  O655  1  0.142090  0.445510  0.581050  1.0  -0.5659
  O  O656  1  0.112300  0.517000  0.602870  1.0  -0.565
  O  O657  1  0.418950  0.857910  0.445510  1.0  -0.5621
  O  O658  1  0.397130  0.887700  0.517000  1.0  -0.5665
  O  O659  1  0.418950  0.357910  0.945510  1.0  -0.5621
  O  O660  1  0.397130  0.387700  0.017000  1.0  -0.5665
  O  O661  1  0.918950  0.857910  0.945510  1.0  -0.5621
  O  O662  1  0.897130  0.887700  0.017000  1.0  -0.5665
  O  O663  1  0.918950  0.357910  0.445510  1.0  -0.5621
  O  O664  1  0.897130  0.387700  0.517000  1.0  -0.5665
  O  O665  1  0.081050  0.357910  0.554490  1.0  -0.5641
  O  O666  1  0.102870  0.387700  0.483000  1.0  -0.5666
  O  O667  1  0.081050  0.857910  0.054490  1.0  -0.5641
  O  O668  1  0.102870  0.887700  0.983000  1.0  -0.5666
  O  O669  1  0.581050  0.357910  0.054490  1.0  -0.5641
  O  O670  1  0.602870  0.387700  0.983000  1.0  -0.5666
  O  O671  1  0.581050  0.857910  0.554490  1.0  -0.5641
  O  O672  1  0.602870  0.887700  0.483000  1.0  -0.5666
  O  O673  1  0.918950  0.142090  0.054490  1.0  -0.561
  O  O674  1  0.897130  0.112300  0.983000  1.0  -0.5673
  O  O675  1  0.918950  0.642090  0.554490  1.0  -0.561
  O  O676  1  0.897130  0.612300  0.483000  1.0  -0.5673
  O  O677  1  0.418950  0.142090  0.554490  1.0  -0.561
  O  O678  1  0.397130  0.112300  0.483000  1.0  -0.5673
  O  O679  1  0.418950  0.642090  0.054490  1.0  -0.561
  O  O680  1  0.397130  0.612300  0.983000  1.0  -0.5673
  O  O681  1  0.581050  0.642090  0.945510  1.0  -0.5629
  O  O682  1  0.602870  0.612300  0.017000  1.0  -0.5682
  O  O683  1  0.581050  0.142090  0.445510  1.0  -0.5629
  O  O684  1  0.602870  0.112300  0.517000  1.0  -0.5682
  O  O685  1  0.081050  0.642090  0.445510  1.0  -0.5629
  O  O686  1  0.102870  0.612300  0.517000  1.0  -0.5682
  O  O687  1  0.081050  0.142090  0.945510  1.0  -0.5629
  O  O688  1  0.102870  0.112300  0.017000  1.0  -0.5682
  O  O689  1  0.168950  0.695510  0.892090  1.0  -0.5628
  O  O690  1  0.147130  0.767000  0.862300  1.0  -0.5652
  O  O691  1  0.168950  0.195510  0.392090  1.0  -0.5628
  O  O692  1  0.147130  0.267000  0.362300  1.0  -0.5652
  O  O693  1  0.668950  0.695510  0.392090  1.0  -0.5628
  O  O694  1  0.647130  0.767000  0.362300  1.0  -0.5652
  O  O695  1  0.668950  0.195510  0.892090  1.0  -0.5628
  O  O696  1  0.647130  0.267000  0.862300  1.0  -0.5652
  O  O697  1  0.831050  0.804490  0.392090  1.0  -0.5621
  O  O698  1  0.852870  0.733000  0.362300  1.0  -0.566
  O  O699  1  0.831050  0.304490  0.892090  1.0  -0.5621
  O  O700  1  0.852870  0.233000  0.862300  1.0  -0.566
  O  O701  1  0.331050  0.804490  0.892090  1.0  -0.5621
  O  O702  1  0.352870  0.733000  0.862300  1.0  -0.566
  O  O703  1  0.331050  0.304490  0.392090  1.0  -0.5621
  O  O704  1  0.352870  0.233000  0.362300  1.0  -0.566
  O  O705  1  0.668950  0.304490  0.607910  1.0  -0.5641
  O  O706  1  0.647130  0.233000  0.637700  1.0  -0.5673
  O  O707  1  0.668950  0.804490  0.107910  1.0  -0.5641
  O  O708  1  0.647130  0.733000  0.137700  1.0  -0.5673
  O  O709  1  0.168950  0.304490  0.107910  1.0  -0.5641
  O  O710  1  0.147130  0.233000  0.137700  1.0  -0.5673
  O  O711  1  0.168950  0.804490  0.607910  1.0  -0.5641
  O  O712  1  0.147130  0.733000  0.637700  1.0  -0.5673
  O  O713  1  0.331050  0.195510  0.107910  1.0  -0.5621
  O  O714  1  0.352870  0.267000  0.137700  1.0  -0.5663
  O  O715  1  0.331050  0.695510  0.607910  1.0  -0.5621
  O  O716  1  0.352870  0.767000  0.637700  1.0  -0.5663
  O  O717  1  0.831050  0.195510  0.607910  1.0  -0.5621
  O  O718  1  0.852870  0.267000  0.637700  1.0  -0.5663
  O  O719  1  0.831050  0.695510  0.107910  1.0  -0.5621
  O  O720  1  0.852870  0.767000  0.137700  1.0  -0.5663
  O  O721  1  0.195510  0.107910  0.331050  1.0  -0.5651
  O  O722  1  0.267000  0.137700  0.352870  1.0  -0.5611
  O  O723  1  0.195510  0.607910  0.831050  1.0  -0.5651
  O  O724  1  0.267000  0.637700  0.852870  1.0  -0.5611
  O  O725  1  0.695510  0.107910  0.831050  1.0  -0.5651
  O  O726  1  0.767000  0.137700  0.852870  1.0  -0.5611
  O  O727  1  0.695510  0.607910  0.331050  1.0  -0.5651
  O  O728  1  0.767000  0.637700  0.352870  1.0  -0.5611
  O  O729  1  0.304490  0.607910  0.668950  1.0  -0.5665
  O  O730  1  0.233000  0.637700  0.647130  1.0  -0.5627
  O  O731  1  0.304490  0.107910  0.168950  1.0  -0.5665
  O  O732  1  0.233000  0.137700  0.147130  1.0  -0.5627
  O  O733  1  0.804490  0.607910  0.168950  1.0  -0.5665
  O  O734  1  0.733000  0.637700  0.147130  1.0  -0.5627
  O  O735  1  0.804490  0.107910  0.668950  1.0  -0.5665
  O  O736  1  0.733000  0.137700  0.647130  1.0  -0.5627
  O  O737  1  0.804490  0.392090  0.831050  1.0  -0.5662
  O  O738  1  0.733000  0.362300  0.852870  1.0  -0.5629
  O  O739  1  0.804490  0.892090  0.331050  1.0  -0.5662
  O  O740  1  0.733000  0.862300  0.352870  1.0  -0.5629
  O  O741  1  0.304490  0.392090  0.331050  1.0  -0.5662
  O  O742  1  0.233000  0.362300  0.352870  1.0  -0.5629
  O  O743  1  0.304490  0.892090  0.831050  1.0  -0.5662
  O  O744  1  0.233000  0.862300  0.852870  1.0  -0.5629
  O  O745  1  0.695510  0.892090  0.168950  1.0  -0.5637
  O  O746  1  0.767000  0.862300  0.147130  1.0  -0.5622
  O  O747  1  0.695510  0.392090  0.668950  1.0  -0.5637
  O  O748  1  0.767000  0.362300  0.647130  1.0  -0.5622
  O  O749  1  0.195510  0.892090  0.668950  1.0  -0.5637
  O  O750  1  0.267000  0.862300  0.647130  1.0  -0.5622
  O  O751  1  0.195510  0.392090  0.168950  1.0  -0.5637
  O  O752  1  0.267000  0.362300  0.147130  1.0  -0.5622
  O  O753  1  0.607910  0.668950  0.304490  1.0  -0.5571
  O  O754  1  0.637700  0.647130  0.233000  1.0  -0.5645
  O  O755  1  0.607910  0.168950  0.804490  1.0  -0.5571
  O  O756  1  0.637700  0.147130  0.733000  1.0  -0.5645
  O  O757  1  0.107910  0.668950  0.804490  1.0  -0.5571
  O  O758  1  0.137700  0.647130  0.733000  1.0  -0.5645
  O  O759  1  0.107910  0.168950  0.304490  1.0  -0.5571
  O  O760  1  0.137700  0.147130  0.233000  1.0  -0.5645
  O  O761  1  0.107910  0.331050  0.195510  1.0  -0.5593
  O  O762  1  0.137700  0.352870  0.267000  1.0  -0.5652
  O  O763  1  0.107910  0.831050  0.695510  1.0  -0.5593
  O  O764  1  0.137700  0.852870  0.767000  1.0  -0.5652
  O  O765  1  0.607910  0.331050  0.695510  1.0  -0.5593
  O  O766  1  0.637700  0.352870  0.767000  1.0  -0.5652
  O  O767  1  0.607910  0.831050  0.195510  1.0  -0.5593
  O  O768  1  0.637700  0.852870  0.267000  1.0  -0.5652
  O  O769  1  0.892090  0.168950  0.695510  1.0  -0.559
  O  O770  1  0.862300  0.147130  0.767000  1.0  -0.5663
  O  O771  1  0.892090  0.668950  0.195510  1.0  -0.559
  O  O772  1  0.862300  0.647130  0.267000  1.0  -0.5663
  O  O773  1  0.392090  0.168950  0.195510  1.0  -0.559
  O  O774  1  0.362300  0.147130  0.267000  1.0  -0.5663
  O  O775  1  0.392090  0.668950  0.695510  1.0  -0.559
  O  O776  1  0.362300  0.647130  0.767000  1.0  -0.5663
  O  O777  1  0.392090  0.831050  0.804490  1.0  -0.5599
  O  O778  1  0.362300  0.852870  0.733000  1.0  -0.5646
  O  O779  1  0.392090  0.331050  0.304490  1.0  -0.5599
  O  O780  1  0.362300  0.352870  0.233000  1.0  -0.5646
  O  O781  1  0.892090  0.831050  0.304490  1.0  -0.5599
  O  O782  1  0.862300  0.852870  0.233000  1.0  -0.5646
  O  O783  1  0.892090  0.331050  0.804490  1.0  -0.5599
  O  O784  1  0.862300  0.352870  0.733000  1.0  -0.5646
  O  O785  1  0.548980  0.375000  0.798980  1.0  -0.1106
  O  O786  1  0.548980  0.875000  0.298980  1.0  -0.1106
  O  O787  1  0.048980  0.375000  0.298980  1.0  -0.1106
  O  O788  1  0.451020  0.125000  0.298980  1.0  -0.1108
  O  O789  1  0.451020  0.625000  0.798980  1.0  -0.1108
  O  O790  1  0.951020  0.875000  0.201020  1.0  -0.1099
  O  O791  1  0.951020  0.375000  0.701020  1.0  -0.1099
  O  O792  1  0.048980  0.625000  0.701020  1.0  -0.1103
  O  O793  1  0.048980  0.125000  0.201020  1.0  -0.1103
  O  O794  1  0.798980  0.548980  0.375000  1.0  -0.1052
  O  O795  1  0.798980  0.048980  0.875000  1.0  -0.1052
  O  O796  1  0.298980  0.048980  0.375000  1.0  -0.1052
  O  O797  1  0.298980  0.451020  0.125000  1.0  -0.1067
  O  O798  1  0.298980  0.951020  0.625000  1.0  -0.1067
  O  O799  1  0.201020  0.951020  0.875000  1.0  -0.1072
  O  O800  1  0.201020  0.451020  0.375000  1.0  -0.1072
  O  O801  1  0.701020  0.048980  0.625000  1.0  -0.1051
  O  O802  1  0.701020  0.548980  0.125000  1.0  -0.1051
  O  O803  1  0.375000  0.798980  0.548980  1.0  -0.1099
  O  O804  1  0.375000  0.298980  0.048980  1.0  -0.1099
  O  O805  1  0.875000  0.798980  0.048980  1.0  -0.1099
  O  O806  1  0.125000  0.298980  0.451020  1.0  -0.1089
  O  O807  1  0.625000  0.298980  0.951020  1.0  -0.1089
  O  O808  1  0.875000  0.201020  0.951020  1.0  -0.1096
  O  O809  1  0.375000  0.201020  0.451020  1.0  -0.1096
  O  O810  1  0.625000  0.701020  0.048980  1.0  -0.1112
  O  O811  1  0.125000  0.701020  0.548980  1.0  -0.1112
  O  O812  1  0.125000  0.798980  0.951020  1.0  -0.1089
  O  O813  1  0.625000  0.798980  0.451020  1.0  -0.1089
  O  O814  1  0.875000  0.701020  0.451020  1.0  -0.1096
  O  O815  1  0.375000  0.701020  0.951020  1.0  -0.1096
  O  O816  1  0.625000  0.201020  0.548980  1.0  -0.1112
  O  O817  1  0.125000  0.201020  0.048980  1.0  -0.1112
  O  O818  1  0.875000  0.298980  0.548980  1.0  -0.1099
  O  O819  1  0.298980  0.548980  0.875000  1.0  -0.1052
  O  O820  1  0.201020  0.548980  0.625000  1.0  -0.1051
  O  O821  1  0.201020  0.048980  0.125000  1.0  -0.1051
  O  O822  1  0.701020  0.451020  0.875000  1.0  -0.1072
  O  O823  1  0.701020  0.951020  0.375000  1.0  -0.1072
  O  O824  1  0.798980  0.951020  0.125000  1.0  -0.1067
  O  O825  1  0.798980  0.451020  0.625000  1.0  -0.1067
  O  O826  1  0.548980  0.625000  0.201020  1.0  -0.1103
  O  O827  1  0.548980  0.125000  0.701020  1.0  -0.1103
  O  O828  1  0.048980  0.875000  0.798980  1.0  -0.1106
  O  O829  1  0.951020  0.125000  0.798980  1.0  -0.1108
  O  O830  1  0.951020  0.625000  0.298980  1.0  -0.1108
  O  O831  1  0.451020  0.875000  0.701020  1.0  -0.1099
  O  O832  1  0.451020  0.375000  0.201020  1.0  -0.1099
