# generated using pymatgen
data_Cu6H22C55N9O26
_symmetry_space_group_name_H-M   'P 1'
_cell_length_a   26.97680000
_cell_length_b   26.97680000
_cell_length_c   39.20600000
_cell_angle_alpha   90.00000000
_cell_angle_beta   90.00000000
_cell_angle_gamma   90.00000000
_symmetry_Int_Tables_number   1
_chemical_formula_structural   Cu6H22C55N9O26
_chemical_formula_sum   'Cu48 H176 C440 N72 O208'
_cell_volume   28532.07782544
_cell_formula_units_Z   8
loop_
 _symmetry_equiv_pos_site_id
 _symmetry_equiv_pos_as_xyz
  1  'x, y, z'
loop_
 _atom_site_type_symbol
 _atom_site_label
 _atom_site_symmetry_multiplicity
 _atom_site_fract_x
 _atom_site_fract_y
 _atom_site_fract_z
 _atom_site_occupancy
 _atom_site_charge
  Cu  Cu1  1  0.126500  0.247490  0.302120  1.0  0.891
  Cu  Cu2  1  0.093320  0.184070  0.349260  1.0  0.9328
  Cu  Cu3  1  0.873500  0.752510  0.302120  1.0  0.8917
  Cu  Cu4  1  0.906680  0.815930  0.349260  1.0  0.9351
  Cu  Cu5  1  0.752510  0.126500  0.302120  1.0  0.8941
  Cu  Cu6  1  0.815930  0.093320  0.349260  1.0  0.9331
  Cu  Cu7  1  0.247490  0.873500  0.302120  1.0  0.8915
  Cu  Cu8  1  0.184070  0.906680  0.349260  1.0  0.9331
  Cu  Cu9  1  0.373500  0.747490  0.197880  1.0  0.8909
  Cu  Cu10  1  0.406680  0.684070  0.150740  1.0  0.9341
  Cu  Cu11  1  0.626500  0.252510  0.197880  1.0  0.8908
  Cu  Cu12  1  0.593320  0.315930  0.150740  1.0  0.9344
  Cu  Cu13  1  0.747490  0.626500  0.197880  1.0  0.8916
  Cu  Cu14  1  0.684070  0.593320  0.150740  1.0  0.9329
  Cu  Cu15  1  0.252510  0.373500  0.197880  1.0  0.893
  Cu  Cu16  1  0.315930  0.406680  0.150740  1.0  0.932
  Cu  Cu17  1  0.873500  0.752510  0.697880  1.0  0.8914
  Cu  Cu18  1  0.906680  0.815930  0.650740  1.0  0.9334
  Cu  Cu19  1  0.126500  0.247490  0.697880  1.0  0.8902
  Cu  Cu20  1  0.093320  0.184070  0.650740  1.0  0.9344
  Cu  Cu21  1  0.247490  0.873500  0.697880  1.0  0.8913
  Cu  Cu22  1  0.184070  0.906680  0.650740  1.0  0.9339
  Cu  Cu23  1  0.752510  0.126500  0.697880  1.0  0.8934
  Cu  Cu24  1  0.815930  0.093320  0.650740  1.0  0.9314
  Cu  Cu25  1  0.626500  0.252510  0.802120  1.0  0.8909
  Cu  Cu26  1  0.593320  0.315930  0.849260  1.0  0.9345
  Cu  Cu27  1  0.373500  0.747490  0.802120  1.0  0.8916
  Cu  Cu28  1  0.406680  0.684070  0.849260  1.0  0.9338
  Cu  Cu29  1  0.252510  0.373500  0.802120  1.0  0.8936
  Cu  Cu30  1  0.315930  0.406680  0.849260  1.0  0.9331
  Cu  Cu31  1  0.747490  0.626500  0.802120  1.0  0.892
  Cu  Cu32  1  0.684070  0.593320  0.849260  1.0  0.933
  Cu  Cu33  1  0.914840  0.273420  0.500000  1.0  0.9033
  Cu  Cu34  1  0.884400  0.367350  0.500000  1.0  0.9103
  Cu  Cu35  1  0.085160  0.726580  0.500000  1.0  0.9023
  Cu  Cu36  1  0.115600  0.632650  0.500000  1.0  0.9121
  Cu  Cu37  1  0.726580  0.914840  0.500000  1.0  0.903
  Cu  Cu38  1  0.632650  0.884400  0.500000  1.0  0.9124
  Cu  Cu39  1  0.273420  0.085160  0.500000  1.0  0.9017
  Cu  Cu40  1  0.367350  0.115600  0.500000  1.0  0.9126
  Cu  Cu41  1  0.585160  0.773420  0.000000  1.0  0.9022
  Cu  Cu42  1  0.615600  0.867350  0.000000  1.0  0.9133
  Cu  Cu43  1  0.414840  0.226580  0.000000  1.0  0.8984
  Cu  Cu44  1  0.384400  0.132650  0.000000  1.0  0.9155
  Cu  Cu45  1  0.773420  0.414840  0.000000  1.0  0.9003
  Cu  Cu46  1  0.867350  0.384400  0.000000  1.0  0.9146
  Cu  Cu47  1  0.226580  0.585160  0.000000  1.0  0.9003
  Cu  Cu48  1  0.132650  0.615600  0.000000  1.0  0.9149
  H  H49  1  0.233800  0.159200  0.193000  1.0  0.3028
  H  H50  1  0.161500  0.049200  0.311800  1.0  0.1208
  H  H51  1  0.190300  0.141900  0.234800  1.0  0.1192
  H  H52  1  0.236500  0.001200  0.229700  1.0  0.125
  H  H53  1  0.318600  0.280900  0.081500  1.0  0.1223
  H  H54  1  0.251300  0.223100  0.163900  1.0  0.1175
  H  H55  1  0.298000  0.133500  0.088900  1.0  0.1256
  H  H56  1  0.018600  0.283700  0.413600  1.0  0.1221
  H  H57  1  0.969800  0.424000  0.419600  1.0  0.1096
  H  H58  1  0.054200  0.382300  0.340600  1.0  0.1288
  H  H59  1  0.766200  0.840800  0.193000  1.0  0.3036
  H  H60  1  0.838500  0.950800  0.311800  1.0  0.1205
  H  H61  1  0.809700  0.858100  0.234800  1.0  0.1194
  H  H62  1  0.763500  0.998800  0.229700  1.0  0.1251
  H  H63  1  0.681400  0.719100  0.081500  1.0  0.1219
  H  H64  1  0.748700  0.776900  0.163900  1.0  0.1173
  H  H65  1  0.702000  0.866500  0.088900  1.0  0.1253
  H  H66  1  0.981400  0.716300  0.413600  1.0  0.1219
  H  H67  1  0.030200  0.576000  0.419600  1.0  0.1101
  H  H68  1  0.945800  0.617700  0.340600  1.0  0.1289
  H  H69  1  0.840800  0.233800  0.193000  1.0  0.3072
  H  H70  1  0.950800  0.161500  0.311800  1.0  0.1207
  H  H71  1  0.858100  0.190300  0.234800  1.0  0.1185
  H  H72  1  0.998800  0.236500  0.229700  1.0  0.1247
  H  H73  1  0.719100  0.318600  0.081500  1.0  0.1217
  H  H74  1  0.776900  0.251300  0.163900  1.0  0.1176
  H  H75  1  0.866500  0.298000  0.088900  1.0  0.1249
  H  H76  1  0.716300  0.018600  0.413600  1.0  0.1221
  H  H77  1  0.576000  0.969800  0.419600  1.0  0.1096
  H  H78  1  0.617700  0.054200  0.340600  1.0  0.1289
  H  H79  1  0.159200  0.766200  0.193000  1.0  0.3054
  H  H80  1  0.049200  0.838500  0.311800  1.0  0.1208
  H  H81  1  0.141900  0.809700  0.234800  1.0  0.1186
  H  H82  1  0.001200  0.763500  0.229700  1.0  0.1251
  H  H83  1  0.280900  0.681400  0.081500  1.0  0.1213
  H  H84  1  0.223100  0.748700  0.163900  1.0  0.1178
  H  H85  1  0.133500  0.702000  0.088900  1.0  0.1253
  H  H86  1  0.283700  0.981400  0.413600  1.0  0.1218
  H  H87  1  0.424000  0.030200  0.419600  1.0  0.1095
  H  H88  1  0.382300  0.945800  0.340600  1.0  0.1292
  H  H89  1  0.266200  0.659200  0.307000  1.0  0.3044
  H  H90  1  0.338500  0.549200  0.188200  1.0  0.1209
  H  H91  1  0.309700  0.641900  0.265200  1.0  0.1193
  H  H92  1  0.263500  0.501200  0.270300  1.0  0.1248
  H  H93  1  0.181400  0.780900  0.418500  1.0  0.1224
  H  H94  1  0.248700  0.723100  0.336100  1.0  0.1178
  H  H95  1  0.202000  0.633500  0.411100  1.0  0.1228
  H  H96  1  0.481400  0.783700  0.086400  1.0  0.1218
  H  H97  1  0.530200  0.924000  0.080400  1.0  0.1096
  H  H98  1  0.445800  0.882300  0.159400  1.0  0.1289
  H  H99  1  0.733800  0.340800  0.307000  1.0  0.3039
  H  H100  1  0.661500  0.450800  0.188200  1.0  0.1209
  H  H101  1  0.690300  0.358100  0.265200  1.0  0.1191
  H  H102  1  0.736500  0.498800  0.270300  1.0  0.1247
  H  H103  1  0.818600  0.219100  0.418500  1.0  0.1226
  H  H104  1  0.751300  0.276900  0.336100  1.0  0.1178
  H  H105  1  0.798000  0.366500  0.411100  1.0  0.1222
  H  H106  1  0.518600  0.216300  0.086400  1.0  0.1216
  H  H107  1  0.469800  0.076000  0.080400  1.0  0.1094
  H  H108  1  0.554200  0.117700  0.159400  1.0  0.1288
  H  H109  1  0.659200  0.733800  0.307000  1.0  0.306
  H  H110  1  0.549200  0.661500  0.188200  1.0  0.1212
  H  H111  1  0.641900  0.690300  0.265200  1.0  0.1188
  H  H112  1  0.501200  0.736500  0.270300  1.0  0.1248
  H  H113  1  0.780900  0.818600  0.418500  1.0  0.1217
  H  H114  1  0.723100  0.751300  0.336100  1.0  0.1182
  H  H115  1  0.633500  0.798000  0.411100  1.0  0.1228
  H  H116  1  0.783700  0.518600  0.086400  1.0  0.1215
  H  H117  1  0.924000  0.469800  0.080400  1.0  0.1096
  H  H118  1  0.882300  0.554200  0.159400  1.0  0.1293
  H  H119  1  0.340800  0.266200  0.307000  1.0  0.3079
  H  H120  1  0.450800  0.338500  0.188200  1.0  0.121
  H  H121  1  0.358100  0.309700  0.265200  1.0  0.1184
  H  H122  1  0.498800  0.263500  0.270300  1.0  0.1246
  H  H123  1  0.219100  0.181400  0.418500  1.0  0.122
  H  H124  1  0.276900  0.248700  0.336100  1.0  0.1181
  H  H125  1  0.366500  0.202000  0.411100  1.0  0.1227
  H  H126  1  0.216300  0.481400  0.086400  1.0  0.1218
  H  H127  1  0.076000  0.530200  0.080400  1.0  0.1098
  H  H128  1  0.117700  0.445800  0.159400  1.0  0.1295
  H  H129  1  0.766200  0.840800  0.807000  1.0  0.304
  H  H130  1  0.838500  0.950800  0.688200  1.0  0.1208
  H  H131  1  0.809700  0.858100  0.765200  1.0  0.1195
  H  H132  1  0.763500  0.998800  0.770300  1.0  0.125
  H  H133  1  0.681400  0.719100  0.918500  1.0  0.1226
  H  H134  1  0.748700  0.776900  0.836100  1.0  0.1178
  H  H135  1  0.702000  0.866500  0.911100  1.0  0.1255
  H  H136  1  0.981400  0.716300  0.586400  1.0  0.1214
  H  H137  1  0.030200  0.576000  0.580400  1.0  0.1099
  H  H138  1  0.945800  0.617700  0.659400  1.0  0.1292
  H  H139  1  0.233800  0.159200  0.807000  1.0  0.3045
  H  H140  1  0.161500  0.049200  0.688200  1.0  0.1209
  H  H141  1  0.190300  0.141900  0.765200  1.0  0.1187
  H  H142  1  0.236500  0.001200  0.770300  1.0  0.1248
  H  H143  1  0.318600  0.280900  0.918500  1.0  0.1224
  H  H144  1  0.251300  0.223100  0.836100  1.0  0.118
  H  H145  1  0.298000  0.133500  0.911100  1.0  0.1257
  H  H146  1  0.018600  0.283700  0.586400  1.0  0.1221
  H  H147  1  0.969800  0.424000  0.580400  1.0  0.1098
  H  H148  1  0.054200  0.382300  0.659400  1.0  0.1287
  H  H149  1  0.159200  0.766200  0.807000  1.0  0.3066
  H  H150  1  0.049200  0.838500  0.688200  1.0  0.1212
  H  H151  1  0.141900  0.809700  0.765200  1.0  0.1186
  H  H152  1  0.001200  0.763500  0.770300  1.0  0.125
  H  H153  1  0.280900  0.681400  0.918500  1.0  0.1217
  H  H154  1  0.223100  0.748700  0.836100  1.0  0.1182
  H  H155  1  0.133500  0.702000  0.911100  1.0  0.1254
  H  H156  1  0.283700  0.981400  0.586400  1.0  0.1215
  H  H157  1  0.424000  0.030200  0.580400  1.0  0.1098
  H  H158  1  0.382300  0.945800  0.659400  1.0  0.129
  H  H159  1  0.840800  0.233800  0.807000  1.0  0.3073
  H  H160  1  0.950800  0.161500  0.688200  1.0  0.1211
  H  H161  1  0.858100  0.190300  0.765200  1.0  0.1185
  H  H162  1  0.998800  0.236500  0.770300  1.0  0.1245
  H  H163  1  0.719100  0.318600  0.918500  1.0  0.122
  H  H164  1  0.776900  0.251300  0.836100  1.0  0.118
  H  H165  1  0.866500  0.298000  0.911100  1.0  0.1252
  H  H166  1  0.716300  0.018600  0.586400  1.0  0.1218
  H  H167  1  0.576000  0.969800  0.580400  1.0  0.1093
  H  H168  1  0.617700  0.054200  0.659400  1.0  0.1295
  H  H169  1  0.733800  0.340800  0.693000  1.0  0.3036
  H  H170  1  0.661500  0.450800  0.811800  1.0  0.1207
  H  H171  1  0.690300  0.358100  0.734800  1.0  0.1192
  H  H172  1  0.736500  0.498800  0.729700  1.0  0.1249
  H  H173  1  0.818600  0.219100  0.581500  1.0  0.122
  H  H174  1  0.751300  0.276900  0.663900  1.0  0.1174
  H  H175  1  0.798000  0.366500  0.588900  1.0  0.1221
  H  H176  1  0.518600  0.216300  0.913600  1.0  0.1224
  H  H177  1  0.469800  0.076000  0.919600  1.0  0.1096
  H  H178  1  0.554200  0.117700  0.840600  1.0  0.1288
  H  H179  1  0.266200  0.659200  0.693000  1.0  0.3028
  H  H180  1  0.338500  0.549200  0.811800  1.0  0.1206
  H  H181  1  0.309700  0.641900  0.734800  1.0  0.1196
  H  H182  1  0.263500  0.501200  0.729700  1.0  0.1248
  H  H183  1  0.181400  0.780900  0.581500  1.0  0.1223
  H  H184  1  0.248700  0.723100  0.663900  1.0  0.1174
  H  H185  1  0.202000  0.633500  0.588900  1.0  0.1226
  H  H186  1  0.481400  0.783700  0.913600  1.0  0.1219
  H  H187  1  0.530200  0.924000  0.919600  1.0  0.1093
  H  H188  1  0.445800  0.882300  0.840600  1.0  0.1286
  H  H189  1  0.340800  0.266200  0.693000  1.0  0.3071
  H  H190  1  0.450800  0.338500  0.811800  1.0  0.1208
  H  H191  1  0.358100  0.309700  0.734800  1.0  0.1187
  H  H192  1  0.498800  0.263500  0.729700  1.0  0.1248
  H  H193  1  0.219100  0.181400  0.581500  1.0  0.1215
  H  H194  1  0.276900  0.248700  0.663900  1.0  0.1176
  H  H195  1  0.366500  0.202000  0.588900  1.0  0.1223
  H  H196  1  0.216300  0.481400  0.913600  1.0  0.1222
  H  H197  1  0.076000  0.530200  0.919600  1.0  0.1096
  H  H198  1  0.117700  0.445800  0.840600  1.0  0.1293
  H  H199  1  0.659200  0.733800  0.693000  1.0  0.3055
  H  H200  1  0.549200  0.661500  0.811800  1.0  0.1208
  H  H201  1  0.641900  0.690300  0.734800  1.0  0.1186
  H  H202  1  0.501200  0.736500  0.729700  1.0  0.1249
  H  H203  1  0.780900  0.818600  0.581500  1.0  0.1215
  H  H204  1  0.723100  0.751300  0.663900  1.0  0.1177
  H  H205  1  0.633500  0.798000  0.588900  1.0  0.1227
  H  H206  1  0.783700  0.518600  0.913600  1.0  0.1216
  H  H207  1  0.924000  0.469800  0.919600  1.0  0.1097
  H  H208  1  0.882300  0.554200  0.840600  1.0  0.1291
  H  H209  1  0.000000  0.500000  0.407300  1.0  0.308
  H  H210  1  0.500000  0.000000  0.407300  1.0  0.308
  H  H211  1  0.500000  0.000000  0.092700  1.0  0.3069
  H  H212  1  0.000000  0.500000  0.092700  1.0  0.3069
  H  H213  1  0.000000  0.500000  0.592700  1.0  0.3069
  H  H214  1  0.500000  0.000000  0.592700  1.0  0.3069
  H  H215  1  0.500000  0.000000  0.907300  1.0  0.308
  H  H216  1  0.000000  0.500000  0.907300  1.0  0.308
  H  H217  1  0.213600  0.286400  0.250000  1.0  0.0206
  H  H218  1  0.786400  0.713600  0.250000  1.0  0.0194
  H  H219  1  0.713600  0.213600  0.250000  1.0  0.0192
  H  H220  1  0.286400  0.786400  0.250000  1.0  0.0201
  H  H221  1  0.786400  0.713600  0.750000  1.0  0.0194
  H  H222  1  0.213600  0.286400  0.750000  1.0  0.0206
  H  H223  1  0.286400  0.786400  0.750000  1.0  0.0201
  H  H224  1  0.713600  0.213600  0.750000  1.0  0.0192
  C  C225  1  0.172000  0.102090  0.276230  1.0  -0.1493
  C  C226  1  0.175580  0.055410  0.290580  1.0  0.039
  C  C227  1  0.200490  0.017480  0.273140  1.0  -0.1454
  C  C228  1  0.215370  0.073530  0.226460  1.0  -0.0563
  C  C229  1  0.192320  0.110430  0.244350  1.0  -0.0836
  C  C230  1  0.220130  0.026350  0.241360  1.0  0.0218
  C  C231  1  0.234000  0.086370  0.192650  1.0  0.2283
  C  C232  1  0.258300  0.129070  0.150750  1.0  0.2518
  C  C233  1  0.311810  0.206390  0.079870  1.0  -0.1606
  C  C234  1  0.306590  0.253590  0.093440  1.0  0.0463
  C  C235  1  0.283300  0.260180  0.125000  1.0  -0.154
  C  C236  1  0.266750  0.218780  0.142860  1.0  -0.0704
  C  C237  1  0.272820  0.171570  0.130080  1.0  -0.0588
  C  C238  1  0.294760  0.165130  0.098070  1.0  0.0383
  C  C239  1  0.147140  0.143100  0.295380  1.0  0.6988
  C  C240  1  0.207090  0.968310  0.290960  1.0  0.7089
  C  C241  1  0.340580  0.197940  0.047620  1.0  0.7011
  C  C242  1  0.280310  0.310390  0.140960  1.0  0.7023
  C  C243  1  0.041300  0.326730  0.374560  1.0  -0.1578
  C  C244  1  0.016660  0.315560  0.404640  1.0  0.0452
  C  C245  1  0.988910  0.351670  0.421740  1.0  -0.1774
  C  C246  1  0.987100  0.399200  0.408120  1.0  -0.0974
  C  C247  1  0.010520  0.410000  0.377890  1.0  0.0244
  C  C248  1  0.038070  0.374470  0.360880  1.0  0.0017
  C  C249  1  0.005810  0.461300  0.364920  1.0  0.3657
  C  C250  1  0.069460  0.286830  0.356360  1.0  0.7214
  C  C251  1  0.959680  0.339450  0.452780  1.0  0.7097
  C  C252  1  0.828000  0.897910  0.276230  1.0  -0.15
  C  C253  1  0.824420  0.944590  0.290580  1.0  0.0391
  C  C254  1  0.799510  0.982520  0.273140  1.0  -0.1454
  C  C255  1  0.784630  0.926470  0.226460  1.0  -0.0557
  C  C256  1  0.807680  0.889570  0.244350  1.0  -0.0864
  C  C257  1  0.779870  0.973650  0.241360  1.0  0.0217
  C  C258  1  0.766000  0.913630  0.192650  1.0  0.23
  C  C259  1  0.741700  0.870930  0.150750  1.0  0.2519
  C  C260  1  0.688190  0.793610  0.079870  1.0  -0.1605
  C  C261  1  0.693410  0.746410  0.093440  1.0  0.0455
  C  C262  1  0.716700  0.739820  0.125000  1.0  -0.1549
  C  C263  1  0.733250  0.781220  0.142860  1.0  -0.0707
  C  C264  1  0.727180  0.828430  0.130080  1.0  -0.0581
  C  C265  1  0.705240  0.834870  0.098070  1.0  0.0396
  C  C266  1  0.852860  0.856900  0.295380  1.0  0.6988
  C  C267  1  0.792910  0.031690  0.290960  1.0  0.709
  C  C268  1  0.659420  0.802060  0.047620  1.0  0.7016
  C  C269  1  0.719690  0.689610  0.140960  1.0  0.7025
  C  C270  1  0.958700  0.673270  0.374560  1.0  -0.158
  C  C271  1  0.983340  0.684440  0.404640  1.0  0.0456
  C  C272  1  0.011090  0.648330  0.421740  1.0  -0.1778
  C  C273  1  0.012900  0.600800  0.408120  1.0  -0.0965
  C  C274  1  0.989480  0.590000  0.377890  1.0  0.0244
  C  C275  1  0.961930  0.625530  0.360880  1.0  0.0031
  C  C276  1  0.994190  0.538700  0.364920  1.0  0.3643
  C  C277  1  0.930540  0.713170  0.356360  1.0  0.7213
  C  C278  1  0.040320  0.660550  0.452780  1.0  0.7097
  C  C279  1  0.897910  0.172000  0.276230  1.0  -0.1499
  C  C280  1  0.944590  0.175580  0.290580  1.0  0.0396
  C  C281  1  0.982520  0.200490  0.273140  1.0  -0.1463
  C  C282  1  0.926470  0.215370  0.226460  1.0  -0.0568
  C  C283  1  0.889570  0.192320  0.244350  1.0  -0.0854
  C  C284  1  0.973650  0.220130  0.241360  1.0  0.0228
  C  C285  1  0.913630  0.234000  0.192650  1.0  0.2305
  C  C286  1  0.870930  0.258300  0.150750  1.0  0.2508
  C  C287  1  0.793610  0.311810  0.079870  1.0  -0.1607
  C  C288  1  0.746410  0.306590  0.093440  1.0  0.0441
  C  C289  1  0.739820  0.283300  0.125000  1.0  -0.1543
  C  C290  1  0.781220  0.266750  0.142860  1.0  -0.0696
  C  C291  1  0.828430  0.272820  0.130080  1.0  -0.0578
  C  C292  1  0.834870  0.294760  0.098070  1.0  0.0385
  C  C293  1  0.856900  0.147140  0.295380  1.0  0.6994
  C  C294  1  0.031690  0.207090  0.290960  1.0  0.7062
  C  C295  1  0.802060  0.340580  0.047620  1.0  0.7004
  C  C296  1  0.689610  0.280310  0.140960  1.0  0.7028
  C  C297  1  0.673270  0.041300  0.374560  1.0  -0.1571
  C  C298  1  0.684440  0.016660  0.404640  1.0  0.0433
  C  C299  1  0.648330  0.988910  0.421740  1.0  -0.1754
  C  C300  1  0.600800  0.987100  0.408120  1.0  -0.0974
  C  C301  1  0.590000  0.010520  0.377890  1.0  0.0246
  C  C302  1  0.625530  0.038070  0.360880  1.0  0.0038
  C  C303  1  0.538700  0.005810  0.364920  1.0  0.3658
  C  C304  1  0.713170  0.069460  0.356360  1.0  0.7194
  C  C305  1  0.660550  0.959680  0.452780  1.0  0.7106
  C  C306  1  0.102090  0.828000  0.276230  1.0  -0.1495
  C  C307  1  0.055410  0.824420  0.290580  1.0  0.038
  C  C308  1  0.017480  0.799510  0.273140  1.0  -0.1452
  C  C309  1  0.073530  0.784630  0.226460  1.0  -0.0566
  C  C310  1  0.110430  0.807680  0.244350  1.0  -0.0845
  C  C311  1  0.026350  0.779870  0.241360  1.0  0.0214
  C  C312  1  0.086370  0.766000  0.192650  1.0  0.2292
  C  C313  1  0.129070  0.741700  0.150750  1.0  0.2499
  C  C314  1  0.206390  0.688190  0.079870  1.0  -0.1605
  C  C315  1  0.253590  0.693410  0.093440  1.0  0.0457
  C  C316  1  0.260180  0.716700  0.125000  1.0  -0.1542
  C  C317  1  0.218780  0.733250  0.142860  1.0  -0.0688
  C  C318  1  0.171570  0.727180  0.130080  1.0  -0.058
  C  C319  1  0.165130  0.705240  0.098070  1.0  0.0363
  C  C320  1  0.143100  0.852860  0.295380  1.0  0.6983
  C  C321  1  0.968310  0.792910  0.290960  1.0  0.7069
  C  C322  1  0.197940  0.659420  0.047620  1.0  0.7005
  C  C323  1  0.310390  0.719690  0.140960  1.0  0.7025
  C  C324  1  0.326730  0.958700  0.374560  1.0  -0.1573
  C  C325  1  0.315560  0.983340  0.404640  1.0  0.0435
  C  C326  1  0.351670  0.011090  0.421740  1.0  -0.1758
  C  C327  1  0.399200  0.012900  0.408120  1.0  -0.0981
  C  C328  1  0.410000  0.989480  0.377890  1.0  0.0238
  C  C329  1  0.374470  0.961930  0.360880  1.0  0.0024
  C  C330  1  0.461300  0.994190  0.364920  1.0  0.3616
  C  C331  1  0.286830  0.930540  0.356360  1.0  0.7193
  C  C332  1  0.339450  0.040320  0.452780  1.0  0.7109
  C  C333  1  0.328000  0.602090  0.223770  1.0  -0.1496
  C  C334  1  0.324420  0.555410  0.209420  1.0  0.0388
  C  C335  1  0.299510  0.517480  0.226860  1.0  -0.1453
  C  C336  1  0.284630  0.573530  0.273540  1.0  -0.0554
  C  C337  1  0.307680  0.610430  0.255650  1.0  -0.0845
  C  C338  1  0.279870  0.526350  0.258640  1.0  0.0229
  C  C339  1  0.266000  0.586370  0.307350  1.0  0.2285
  C  C340  1  0.241700  0.629070  0.349250  1.0  0.2535
  C  C341  1  0.188190  0.706390  0.420130  1.0  -0.1613
  C  C342  1  0.193410  0.753590  0.406560  1.0  0.046
  C  C343  1  0.216700  0.760180  0.375000  1.0  -0.1544
  C  C344  1  0.233250  0.718780  0.357140  1.0  -0.0708
  C  C345  1  0.227180  0.671570  0.369920  1.0  -0.0586
  C  C346  1  0.205240  0.665130  0.401930  1.0  0.0396
  C  C347  1  0.352860  0.643100  0.204620  1.0  0.6991
  C  C348  1  0.292910  0.468310  0.209040  1.0  0.7077
  C  C349  1  0.159420  0.697940  0.452380  1.0  0.7013
  C  C350  1  0.219690  0.810390  0.359040  1.0  0.7017
  C  C351  1  0.458700  0.826730  0.125440  1.0  -0.158
  C  C352  1  0.483340  0.815560  0.095360  1.0  0.0458
  C  C353  1  0.511090  0.851670  0.078260  1.0  -0.1758
  C  C354  1  0.512900  0.899200  0.091880  1.0  -0.096
  C  C355  1  0.489480  0.910000  0.122110  1.0  0.0244
  C  C356  1  0.461930  0.874470  0.139120  1.0  0.0021
  C  C357  1  0.494190  0.961300  0.135080  1.0  0.3654
  C  C358  1  0.430540  0.786830  0.143640  1.0  0.7211
  C  C359  1  0.540320  0.839450  0.047220  1.0  0.7098
  C  C360  1  0.672000  0.397910  0.223770  1.0  -0.1501
  C  C361  1  0.675580  0.444590  0.209420  1.0  0.0387
  C  C362  1  0.700490  0.482520  0.226860  1.0  -0.145
  C  C363  1  0.715370  0.426470  0.273540  1.0  -0.0562
  C  C364  1  0.692320  0.389570  0.255650  1.0  -0.0865
  C  C365  1  0.720130  0.473650  0.258640  1.0  0.0221
  C  C366  1  0.734000  0.413630  0.307350  1.0  0.229
  C  C367  1  0.758300  0.370930  0.349250  1.0  0.2533
  C  C368  1  0.811810  0.293610  0.420130  1.0  -0.161
  C  C369  1  0.806590  0.246410  0.406560  1.0  0.0467
  C  C370  1  0.783300  0.239820  0.375000  1.0  -0.1549
  C  C371  1  0.766750  0.281220  0.357140  1.0  -0.0708
  C  C372  1  0.772820  0.328430  0.369920  1.0  -0.0586
  C  C373  1  0.794760  0.334870  0.401930  1.0  0.0385
  C  C374  1  0.647140  0.356900  0.204620  1.0  0.6984
  C  C375  1  0.707090  0.531690  0.209040  1.0  0.7092
  C  C376  1  0.840580  0.302060  0.452380  1.0  0.7005
  C  C377  1  0.780310  0.189610  0.359040  1.0  0.7016
  C  C378  1  0.541300  0.173270  0.125440  1.0  -0.158
  C  C379  1  0.516660  0.184440  0.095360  1.0  0.0443
  C  C380  1  0.488910  0.148330  0.078260  1.0  -0.1755
  C  C381  1  0.487100  0.100800  0.091880  1.0  -0.0956
  C  C382  1  0.510520  0.090000  0.122110  1.0  0.0247
  C  C383  1  0.538070  0.125530  0.139120  1.0  0.0027
  C  C384  1  0.505810  0.038700  0.135080  1.0  0.3654
  C  C385  1  0.569460  0.213170  0.143640  1.0  0.722
  C  C386  1  0.459680  0.160550  0.047220  1.0  0.7096
  C  C387  1  0.602090  0.672000  0.223770  1.0  -0.1499
  C  C388  1  0.555410  0.675580  0.209420  1.0  0.0384
  C  C389  1  0.517480  0.700490  0.226860  1.0  -0.1452
  C  C390  1  0.573530  0.715370  0.273540  1.0  -0.0554
  C  C391  1  0.610430  0.692320  0.255650  1.0  -0.0849
  C  C392  1  0.526350  0.720130  0.258640  1.0  0.0222
  C  C393  1  0.586370  0.734000  0.307350  1.0  0.2279
  C  C394  1  0.629070  0.758300  0.349250  1.0  0.2518
  C  C395  1  0.706390  0.811810  0.420130  1.0  -0.1613
  C  C396  1  0.753590  0.806590  0.406560  1.0  0.0453
  C  C397  1  0.760180  0.783300  0.375000  1.0  -0.1544
  C  C398  1  0.718780  0.766750  0.357140  1.0  -0.0693
  C  C399  1  0.671570  0.772820  0.369920  1.0  -0.0585
  C  C400  1  0.665130  0.794760  0.401930  1.0  0.0371
  C  C401  1  0.643100  0.647140  0.204620  1.0  0.6986
  C  C402  1  0.468310  0.707090  0.209040  1.0  0.7062
  C  C403  1  0.697940  0.840580  0.452380  1.0  0.7004
  C  C404  1  0.810390  0.780310  0.359040  1.0  0.702
  C  C405  1  0.826730  0.541300  0.125440  1.0  -0.157
  C  C406  1  0.815560  0.516660  0.095360  1.0  0.0431
  C  C407  1  0.851670  0.488910  0.078260  1.0  -0.1743
  C  C408  1  0.899200  0.487100  0.091880  1.0  -0.0964
  C  C409  1  0.910000  0.510520  0.122110  1.0  0.024
  C  C410  1  0.874470  0.538070  0.139120  1.0  0.003
  C  C411  1  0.961300  0.505810  0.135080  1.0  0.3636
  C  C412  1  0.786830  0.569460  0.143640  1.0  0.7196
  C  C413  1  0.839450  0.459680  0.047220  1.0  0.7107
  C  C414  1  0.397910  0.328000  0.223770  1.0  -0.1497
  C  C415  1  0.444590  0.324420  0.209420  1.0  0.0388
  C  C416  1  0.482520  0.299510  0.226860  1.0  -0.146
  C  C417  1  0.426470  0.284630  0.273540  1.0  -0.0572
  C  C418  1  0.389570  0.307680  0.255650  1.0  -0.0855
  C  C419  1  0.473650  0.279870  0.258640  1.0  0.0234
  C  C420  1  0.413630  0.266000  0.307350  1.0  0.2307
  C  C421  1  0.370930  0.241700  0.349250  1.0  0.2519
  C  C422  1  0.293610  0.188190  0.420130  1.0  -0.1614
  C  C423  1  0.246410  0.193410  0.406560  1.0  0.044
  C  C424  1  0.239820  0.216700  0.375000  1.0  -0.154
  C  C425  1  0.281220  0.233250  0.357140  1.0  -0.0701
  C  C426  1  0.328430  0.227180  0.369920  1.0  -0.0582
  C  C427  1  0.334870  0.205240  0.401930  1.0  0.0378
  C  C428  1  0.356900  0.352860  0.204620  1.0  0.6991
  C  C429  1  0.531690  0.292910  0.209040  1.0  0.7057
  C  C430  1  0.302060  0.159420  0.452380  1.0  0.6999
  C  C431  1  0.189610  0.219690  0.359040  1.0  0.7018
  C  C432  1  0.173270  0.458700  0.125440  1.0  -0.1572
  C  C433  1  0.184440  0.483340  0.095360  1.0  0.0436
  C  C434  1  0.148330  0.511090  0.078260  1.0  -0.1737
  C  C435  1  0.100800  0.512900  0.091880  1.0  -0.0958
  C  C436  1  0.090000  0.489480  0.122110  1.0  0.0247
  C  C437  1  0.125530  0.461930  0.139120  1.0  0.0032
  C  C438  1  0.038700  0.494190  0.135080  1.0  0.3642
  C  C439  1  0.213170  0.430540  0.143640  1.0  0.7197
  C  C440  1  0.160550  0.540320  0.047220  1.0  0.7106
  C  C441  1  0.828000  0.897910  0.723770  1.0  -0.15
  C  C442  1  0.824420  0.944590  0.709420  1.0  0.0389
  C  C443  1  0.799510  0.982520  0.726860  1.0  -0.1452
  C  C444  1  0.784630  0.926470  0.773540  1.0  -0.0551
  C  C445  1  0.807680  0.889570  0.755650  1.0  -0.0869
  C  C446  1  0.779870  0.973650  0.758640  1.0  0.0221
  C  C447  1  0.766000  0.913630  0.807350  1.0  0.2292
  C  C448  1  0.741700  0.870930  0.849250  1.0  0.2534
  C  C449  1  0.688190  0.793610  0.920130  1.0  -0.1612
  C  C450  1  0.693410  0.746410  0.906560  1.0  0.046
  C  C451  1  0.716700  0.739820  0.875000  1.0  -0.155
  C  C452  1  0.733250  0.781220  0.857140  1.0  -0.0711
  C  C453  1  0.727180  0.828430  0.869920  1.0  -0.0585
  C  C454  1  0.705240  0.834870  0.901930  1.0  0.0393
  C  C455  1  0.852860  0.856900  0.704620  1.0  0.6987
  C  C456  1  0.792910  0.031690  0.709040  1.0  0.7087
  C  C457  1  0.659420  0.802060  0.952380  1.0  0.7015
  C  C458  1  0.719690  0.689610  0.859040  1.0  0.7016
  C  C459  1  0.958700  0.673270  0.625440  1.0  -0.1579
  C  C460  1  0.983340  0.684440  0.595360  1.0  0.0455
  C  C461  1  0.011090  0.648330  0.578260  1.0  -0.1754
  C  C462  1  0.012900  0.600800  0.591880  1.0  -0.0953
  C  C463  1  0.989480  0.590000  0.622110  1.0  0.0249
  C  C464  1  0.961930  0.625530  0.639120  1.0  0.0025
  C  C465  1  0.994190  0.538700  0.635080  1.0  0.365
  C  C466  1  0.930540  0.713170  0.643640  1.0  0.7214
  C  C467  1  0.040320  0.660550  0.547220  1.0  0.7099
  C  C468  1  0.172000  0.102090  0.723770  1.0  -0.1496
  C  C469  1  0.175580  0.055410  0.709420  1.0  0.0387
  C  C470  1  0.200490  0.017480  0.726860  1.0  -0.1451
  C  C471  1  0.215370  0.073530  0.773540  1.0  -0.0562
  C  C472  1  0.192320  0.110430  0.755650  1.0  -0.0838
  C  C473  1  0.220130  0.026350  0.758640  1.0  0.0227
  C  C474  1  0.234000  0.086370  0.807350  1.0  0.2277
  C  C475  1  0.258300  0.129070  0.849250  1.0  0.2534
  C  C476  1  0.311810  0.206390  0.920130  1.0  -0.1611
  C  C477  1  0.306590  0.253590  0.906560  1.0  0.0464
  C  C478  1  0.283300  0.260180  0.875000  1.0  -0.1539
  C  C479  1  0.266750  0.218780  0.857140  1.0  -0.0705
  C  C480  1  0.272820  0.171570  0.869920  1.0  -0.0591
  C  C481  1  0.294760  0.165130  0.901930  1.0  0.0385
  C  C482  1  0.147140  0.143100  0.704620  1.0  0.6989
  C  C483  1  0.207090  0.968310  0.709040  1.0  0.7084
  C  C484  1  0.340580  0.197940  0.952380  1.0  0.7004
  C  C485  1  0.280310  0.310390  0.859040  1.0  0.7017
  C  C486  1  0.041300  0.326730  0.625440  1.0  -0.158
  C  C487  1  0.016660  0.315560  0.595360  1.0  0.0448
  C  C488  1  0.988910  0.351670  0.578260  1.0  -0.1759
  C  C489  1  0.987100  0.399200  0.591880  1.0  -0.0959
  C  C490  1  0.010520  0.410000  0.622110  1.0  0.0242
  C  C491  1  0.038070  0.374470  0.639120  1.0  0.0023
  C  C492  1  0.005810  0.461300  0.635080  1.0  0.3658
  C  C493  1  0.069460  0.286830  0.643640  1.0  0.7217
  C  C494  1  0.959680  0.339450  0.547220  1.0  0.7095
  C  C495  1  0.102090  0.828000  0.723770  1.0  -0.1496
  C  C496  1  0.055410  0.824420  0.709420  1.0  0.0384
  C  C497  1  0.017480  0.799510  0.726860  1.0  -0.1451
  C  C498  1  0.073530  0.784630  0.773540  1.0  -0.0561
  C  C499  1  0.110430  0.807680  0.755650  1.0  -0.0846
  C  C500  1  0.026350  0.779870  0.758640  1.0  0.0221
  C  C501  1  0.086370  0.766000  0.807350  1.0  0.2283
  C  C502  1  0.129070  0.741700  0.849250  1.0  0.2517
  C  C503  1  0.206390  0.688190  0.920130  1.0  -0.1614
  C  C504  1  0.253590  0.693410  0.906560  1.0  0.0453
  C  C505  1  0.260180  0.716700  0.875000  1.0  -0.1544
  C  C506  1  0.218780  0.733250  0.857140  1.0  -0.0691
  C  C507  1  0.171570  0.727180  0.869920  1.0  -0.0583
  C  C508  1  0.165130  0.705240  0.901930  1.0  0.0364
  C  C509  1  0.143100  0.852860  0.704620  1.0  0.6984
  C  C510  1  0.968310  0.792910  0.709040  1.0  0.7062
  C  C511  1  0.197940  0.659420  0.952380  1.0  0.7002
  C  C512  1  0.310390  0.719690  0.859040  1.0  0.7021
  C  C513  1  0.326730  0.958700  0.625440  1.0  -0.1572
  C  C514  1  0.315560  0.983340  0.595360  1.0  0.0428
  C  C515  1  0.351670  0.011090  0.578260  1.0  -0.1742
  C  C516  1  0.399200  0.012900  0.591880  1.0  -0.0967
  C  C517  1  0.410000  0.989480  0.622110  1.0  0.0239
  C  C518  1  0.374470  0.961930  0.639120  1.0  0.0035
  C  C519  1  0.461300  0.994190  0.635080  1.0  0.3636
  C  C520  1  0.286830  0.930540  0.643640  1.0  0.7196
  C  C521  1  0.339450  0.040320  0.547220  1.0  0.7109
  C  C522  1  0.897910  0.172000  0.723770  1.0  -0.1501
  C  C523  1  0.944590  0.175580  0.709420  1.0  0.0388
  C  C524  1  0.982520  0.200490  0.726860  1.0  -0.1461
  C  C525  1  0.926470  0.215370  0.773540  1.0  -0.057
  C  C526  1  0.889570  0.192320  0.755650  1.0  -0.0857
  C  C527  1  0.973650  0.220130  0.758640  1.0  0.0233
  C  C528  1  0.913630  0.234000  0.807350  1.0  0.2299
  C  C529  1  0.870930  0.258300  0.849250  1.0  0.2521
  C  C530  1  0.793610  0.311810  0.920130  1.0  -0.1614
  C  C531  1  0.746410  0.306590  0.906560  1.0  0.0441
  C  C532  1  0.739820  0.283300  0.875000  1.0  -0.1543
  C  C533  1  0.781220  0.266750  0.857140  1.0  -0.0701
  C  C534  1  0.828430  0.272820  0.869920  1.0  -0.0581
  C  C535  1  0.834870  0.294760  0.901930  1.0  0.0387
  C  C536  1  0.856900  0.147140  0.704620  1.0  0.6993
  C  C537  1  0.031690  0.207090  0.709040  1.0  0.7058
  C  C538  1  0.802060  0.340580  0.952380  1.0  0.7
  C  C539  1  0.689610  0.280310  0.859040  1.0  0.7018
  C  C540  1  0.673270  0.041300  0.625440  1.0  -0.1571
  C  C541  1  0.684440  0.016660  0.595360  1.0  0.0436
  C  C542  1  0.648330  0.988910  0.578260  1.0  -0.174
  C  C543  1  0.600800  0.987100  0.591880  1.0  -0.0957
  C  C544  1  0.590000  0.010520  0.622110  1.0  0.0247
  C  C545  1  0.625530  0.038070  0.639120  1.0  0.003
  C  C546  1  0.538700  0.005810  0.635080  1.0  0.3645
  C  C547  1  0.713170  0.069460  0.643640  1.0  0.7195
  C  C548  1  0.660550  0.959680  0.547220  1.0  0.7106
  C  C549  1  0.672000  0.397910  0.776230  1.0  -0.1497
  C  C550  1  0.675580  0.444590  0.790580  1.0  0.0387
  C  C551  1  0.700490  0.482520  0.773140  1.0  -0.1452
  C  C552  1  0.715370  0.426470  0.726460  1.0  -0.0565
  C  C553  1  0.692320  0.389570  0.744350  1.0  -0.0858
  C  C554  1  0.720130  0.473650  0.741360  1.0  0.0214
  C  C555  1  0.734000  0.413630  0.692650  1.0  0.23
  C  C556  1  0.758300  0.370930  0.650750  1.0  0.2521
  C  C557  1  0.811810  0.293610  0.579870  1.0  -0.1606
  C  C558  1  0.806590  0.246410  0.593440  1.0  0.0463
  C  C559  1  0.783300  0.239820  0.625000  1.0  -0.1549
  C  C560  1  0.766750  0.281220  0.642860  1.0  -0.0707
  C  C561  1  0.772820  0.328430  0.630080  1.0  -0.0582
  C  C562  1  0.794760  0.334870  0.598070  1.0  0.0389
  C  C563  1  0.647140  0.356900  0.795380  1.0  0.6981
  C  C564  1  0.707090  0.531690  0.790960  1.0  0.7095
  C  C565  1  0.840580  0.302060  0.547620  1.0  0.7011
  C  C566  1  0.780310  0.189610  0.640960  1.0  0.7025
  C  C567  1  0.541300  0.173270  0.874560  1.0  -0.1579
  C  C568  1  0.516660  0.184440  0.904640  1.0  0.0442
  C  C569  1  0.488910  0.148330  0.921740  1.0  -0.1773
  C  C570  1  0.487100  0.100800  0.908120  1.0  -0.0971
  C  C571  1  0.510520  0.090000  0.877890  1.0  0.0243
  C  C572  1  0.538070  0.125530  0.860880  1.0  0.0019
  C  C573  1  0.505810  0.038700  0.864920  1.0  0.3656
  C  C574  1  0.569460  0.213170  0.856360  1.0  0.7218
  C  C575  1  0.459680  0.160550  0.952780  1.0  0.7097
  C  C576  1  0.328000  0.602090  0.776230  1.0  -0.1497
  C  C577  1  0.324420  0.555410  0.790580  1.0  0.0393
  C  C578  1  0.299510  0.517480  0.773140  1.0  -0.1455
  C  C579  1  0.284630  0.573530  0.726460  1.0  -0.0559
  C  C580  1  0.307680  0.610430  0.744350  1.0  -0.0843
  C  C581  1  0.279870  0.526350  0.741360  1.0  0.0222
  C  C582  1  0.266000  0.586370  0.692650  1.0  0.2294
  C  C583  1  0.241700  0.629070  0.650750  1.0  0.2517
  C  C584  1  0.188190  0.706390  0.579870  1.0  -0.1604
  C  C585  1  0.193410  0.753590  0.593440  1.0  0.0458
  C  C586  1  0.216700  0.760180  0.625000  1.0  -0.1543
  C  C587  1  0.233250  0.718780  0.642860  1.0  -0.0705
  C  C588  1  0.227180  0.671570  0.630080  1.0  -0.0584
  C  C589  1  0.205240  0.665130  0.598070  1.0  0.0394
  C  C590  1  0.352860  0.643100  0.795380  1.0  0.6992
  C  C591  1  0.292910  0.468310  0.790960  1.0  0.7083
  C  C592  1  0.159420  0.697940  0.547620  1.0  0.7015
  C  C593  1  0.219690  0.810390  0.640960  1.0  0.7024
  C  C594  1  0.458700  0.826730  0.874560  1.0  -0.1581
  C  C595  1  0.483340  0.815560  0.904640  1.0  0.0461
  C  C596  1  0.511090  0.851670  0.921740  1.0  -0.1778
  C  C597  1  0.512900  0.899200  0.908120  1.0  -0.0972
  C  C598  1  0.489480  0.910000  0.877890  1.0  0.0246
  C  C599  1  0.461930  0.874470  0.860880  1.0  0.0029
  C  C600  1  0.494190  0.961300  0.864920  1.0  0.3641
  C  C601  1  0.430540  0.786830  0.856360  1.0  0.7209
  C  C602  1  0.540320  0.839450  0.952780  1.0  0.7097
  C  C603  1  0.397910  0.328000  0.776230  1.0  -0.1497
  C  C604  1  0.444590  0.324420  0.790580  1.0  0.0389
  C  C605  1  0.482520  0.299510  0.773140  1.0  -0.1462
  C  C606  1  0.426470  0.284630  0.726460  1.0  -0.0571
  C  C607  1  0.389570  0.307680  0.744350  1.0  -0.085
  C  C608  1  0.473650  0.279870  0.741360  1.0  0.0226
  C  C609  1  0.413630  0.266000  0.692650  1.0  0.2312
  C  C610  1  0.370930  0.241700  0.650750  1.0  0.2501
  C  C611  1  0.293610  0.188190  0.579870  1.0  -0.1606
  C  C612  1  0.246410  0.193410  0.593440  1.0  0.0441
  C  C613  1  0.239820  0.216700  0.625000  1.0  -0.154
  C  C614  1  0.281220  0.233250  0.642860  1.0  -0.0699
  C  C615  1  0.328430  0.227180  0.630080  1.0  -0.0578
  C  C616  1  0.334870  0.205240  0.598070  1.0  0.0381
  C  C617  1  0.356900  0.352860  0.795380  1.0  0.6991
  C  C618  1  0.531690  0.292910  0.790960  1.0  0.7061
  C  C619  1  0.302060  0.159420  0.547620  1.0  0.7004
  C  C620  1  0.189610  0.219690  0.640960  1.0  0.7027
  C  C621  1  0.173270  0.458700  0.874560  1.0  -0.1572
  C  C622  1  0.184440  0.483340  0.904640  1.0  0.0437
  C  C623  1  0.148330  0.511090  0.921740  1.0  -0.1756
  C  C624  1  0.100800  0.512900  0.908120  1.0  -0.0974
  C  C625  1  0.090000  0.489480  0.877890  1.0  0.0245
  C  C626  1  0.125530  0.461930  0.860880  1.0  0.0034
  C  C627  1  0.038700  0.494190  0.864920  1.0  0.3652
  C  C628  1  0.213170  0.430540  0.856360  1.0  0.7194
  C  C629  1  0.160550  0.540320  0.952780  1.0  0.7107
  C  C630  1  0.602090  0.672000  0.776230  1.0  -0.1496
  C  C631  1  0.555410  0.675580  0.790580  1.0  0.0388
  C  C632  1  0.517480  0.700490  0.773140  1.0  -0.1454
  C  C633  1  0.573530  0.715370  0.726460  1.0  -0.0559
  C  C634  1  0.610430  0.692320  0.744350  1.0  -0.0849
  C  C635  1  0.526350  0.720130  0.741360  1.0  0.0217
  C  C636  1  0.586370  0.734000  0.692650  1.0  0.229
  C  C637  1  0.629070  0.758300  0.650750  1.0  0.2506
  C  C638  1  0.706390  0.811810  0.579870  1.0  -0.1606
  C  C639  1  0.753590  0.806590  0.593440  1.0  0.0457
  C  C640  1  0.760180  0.783300  0.625000  1.0  -0.1543
  C  C641  1  0.718780  0.766750  0.642860  1.0  -0.0687
  C  C642  1  0.671570  0.772820  0.630080  1.0  -0.0582
  C  C643  1  0.665130  0.794760  0.598070  1.0  0.0366
  C  C644  1  0.643100  0.647140  0.795380  1.0  0.6985
  C  C645  1  0.468310  0.707090  0.790960  1.0  0.7068
  C  C646  1  0.697940  0.840580  0.547620  1.0  0.7006
  C  C647  1  0.810390  0.780310  0.640960  1.0  0.7026
  C  C648  1  0.826730  0.541300  0.874560  1.0  -0.1571
  C  C649  1  0.815560  0.516660  0.904640  1.0  0.0435
  C  C650  1  0.851670  0.488910  0.921740  1.0  -0.1757
  C  C651  1  0.899200  0.487100  0.908120  1.0  -0.098
  C  C652  1  0.910000  0.510520  0.877890  1.0  0.0239
  C  C653  1  0.874470  0.538070  0.860880  1.0  0.0026
  C  C654  1  0.961300  0.505810  0.864920  1.0  0.3621
  C  C655  1  0.786830  0.569460  0.856360  1.0  0.7194
  C  C656  1  0.839450  0.459680  0.952780  1.0  0.7107
  C  C657  1  0.189270  0.310730  0.250000  1.0  0.5405
  C  C658  1  0.810730  0.689270  0.250000  1.0  0.5398
  C  C659  1  0.689270  0.189270  0.250000  1.0  0.5393
  C  C660  1  0.310730  0.810730  0.250000  1.0  0.541
  C  C661  1  0.810730  0.689270  0.750000  1.0  0.5398
  C  C662  1  0.189270  0.310730  0.750000  1.0  0.5405
  C  C663  1  0.310730  0.810730  0.750000  1.0  0.541
  C  C664  1  0.689270  0.189270  0.750000  1.0  0.5393
  N  N665  1  0.240220  0.132460  0.181950  1.0  -0.2095
  N  N666  1  0.247600  0.054910  0.168410  1.0  -0.2318
  N  N667  1  0.263700  0.082020  0.141340  1.0  -0.3195
  N  N668  1  0.004100  0.474710  0.332850  1.0  -0.255
  N  N669  1  0.759780  0.867540  0.181950  1.0  -0.2101
  N  N670  1  0.752400  0.945090  0.168410  1.0  -0.2323
  N  N671  1  0.736300  0.917980  0.141340  1.0  -0.3228
  N  N672  1  0.995900  0.525290  0.332850  1.0  -0.254
  N  N673  1  0.867540  0.240220  0.181950  1.0  -0.2106
  N  N674  1  0.945090  0.247600  0.168410  1.0  -0.2354
  N  N675  1  0.917980  0.263700  0.141340  1.0  -0.324
  N  N676  1  0.525290  0.004100  0.332850  1.0  -0.2534
  N  N677  1  0.132460  0.759780  0.181950  1.0  -0.2111
  N  N678  1  0.054910  0.752400  0.168410  1.0  -0.2318
  N  N679  1  0.082020  0.736300  0.141340  1.0  -0.3216
  N  N680  1  0.474710  0.995900  0.332850  1.0  -0.2543
  N  N681  1  0.259780  0.632460  0.318050  1.0  -0.2091
  N  N682  1  0.252400  0.554910  0.331590  1.0  -0.2316
  N  N683  1  0.236300  0.582020  0.358660  1.0  -0.3198
  N  N684  1  0.495900  0.974710  0.167150  1.0  -0.2569
  N  N685  1  0.740220  0.367540  0.318050  1.0  -0.2106
  N  N686  1  0.747600  0.445090  0.331590  1.0  -0.2301
  N  N687  1  0.763700  0.417980  0.358660  1.0  -0.3171
  N  N688  1  0.504100  0.025290  0.167150  1.0  -0.2572
  N  N689  1  0.632460  0.740220  0.318050  1.0  -0.2107
  N  N690  1  0.554910  0.747600  0.331590  1.0  -0.2315
  N  N691  1  0.582020  0.763700  0.358660  1.0  -0.3194
  N  N692  1  0.974710  0.504100  0.167150  1.0  -0.2561
  N  N693  1  0.367540  0.259780  0.318050  1.0  -0.2104
  N  N694  1  0.445090  0.252400  0.331590  1.0  -0.2333
  N  N695  1  0.417980  0.236300  0.358660  1.0  -0.3208
  N  N696  1  0.025290  0.495900  0.167150  1.0  -0.2551
  N  N697  1  0.759780  0.867540  0.818050  1.0  -0.2097
  N  N698  1  0.752400  0.945090  0.831590  1.0  -0.2302
  N  N699  1  0.736300  0.917980  0.858660  1.0  -0.3191
  N  N700  1  0.995900  0.525290  0.667150  1.0  -0.2566
  N  N701  1  0.240220  0.132460  0.818050  1.0  -0.2095
  N  N702  1  0.247600  0.054910  0.831590  1.0  -0.2314
  N  N703  1  0.263700  0.082020  0.858660  1.0  -0.3196
  N  N704  1  0.004100  0.474710  0.667150  1.0  -0.2573
  N  N705  1  0.132460  0.759780  0.818050  1.0  -0.2109
  N  N706  1  0.054910  0.752400  0.831590  1.0  -0.2314
  N  N707  1  0.082020  0.736300  0.858660  1.0  -0.3201
  N  N708  1  0.474710  0.995900  0.667150  1.0  -0.2559
  N  N709  1  0.867540  0.240220  0.818050  1.0  -0.2103
  N  N710  1  0.945090  0.247600  0.831590  1.0  -0.2342
  N  N711  1  0.917980  0.263700  0.858660  1.0  -0.3225
  N  N712  1  0.525290  0.004100  0.667150  1.0  -0.2552
  N  N713  1  0.740220  0.367540  0.681950  1.0  -0.211
  N  N714  1  0.747600  0.445090  0.668410  1.0  -0.2328
  N  N715  1  0.763700  0.417980  0.641340  1.0  -0.3217
  N  N716  1  0.504100  0.025290  0.832850  1.0  -0.2546
  N  N717  1  0.259780  0.632460  0.681950  1.0  -0.2089
  N  N718  1  0.252400  0.554910  0.668410  1.0  -0.2316
  N  N719  1  0.236300  0.582020  0.641340  1.0  -0.3189
  N  N720  1  0.495900  0.974710  0.832850  1.0  -0.2544
  N  N721  1  0.367540  0.259780  0.681950  1.0  -0.2107
  N  N722  1  0.445090  0.252400  0.668410  1.0  -0.2346
  N  N723  1  0.417980  0.236300  0.641340  1.0  -0.3229
  N  N724  1  0.025290  0.495900  0.832850  1.0  -0.2532
  N  N725  1  0.632460  0.740220  0.681950  1.0  -0.2108
  N  N726  1  0.554910  0.747600  0.668410  1.0  -0.2316
  N  N727  1  0.582020  0.763700  0.641340  1.0  -0.3192
  N  N728  1  0.974710  0.504100  0.832850  1.0  -0.2545
  N  N729  1  0.000000  0.500000  0.385410  1.0  -0.2267
  N  N730  1  0.500000  0.000000  0.385410  1.0  -0.2267
  N  N731  1  0.500000  0.000000  0.114590  1.0  -0.2268
  N  N732  1  0.000000  0.500000  0.114590  1.0  -0.2268
  N  N733  1  0.000000  0.500000  0.614590  1.0  -0.2268
  N  N734  1  0.500000  0.000000  0.614590  1.0  -0.2268
  N  N735  1  0.500000  0.000000  0.885410  1.0  -0.2267
  N  N736  1  0.000000  0.500000  0.885410  1.0  -0.2267
  O  O737  1  0.150240  0.185520  0.281920  1.0  -0.5716
  O  O738  1  0.126340  0.132750  0.322700  1.0  -0.5521
  O  O739  1  0.181930  0.962600  0.317550  1.0  -0.5901
  O  O740  1  0.236470  0.937600  0.278350  1.0  -0.5535
  O  O741  1  0.339320  0.155000  0.035620  1.0  -0.5615
  O  O742  1  0.364120  0.233700  0.035960  1.0  -0.5712
  O  O743  1  0.305280  0.344180  0.126990  1.0  -0.5566
  O  O744  1  0.254080  0.315160  0.167050  1.0  -0.5793
  O  O745  1  0.065950  0.244260  0.369130  1.0  -0.5745
  O  O746  1  0.093830  0.298080  0.330500  1.0  -0.5477
  O  O747  1  0.960540  0.296260  0.463880  1.0  -0.5644
  O  O748  1  0.934720  0.375210  0.464880  1.0  -0.5678
  O  O749  1  0.154050  0.300830  0.267080  1.0  -0.631
  O  O750  1  0.849760  0.814480  0.281920  1.0  -0.5723
  O  O751  1  0.873660  0.867250  0.322700  1.0  -0.5515
  O  O752  1  0.818070  0.037400  0.317550  1.0  -0.5914
  O  O753  1  0.763530  0.062400  0.278350  1.0  -0.5529
  O  O754  1  0.660680  0.845000  0.035620  1.0  -0.5619
  O  O755  1  0.635880  0.766300  0.035960  1.0  -0.5712
  O  O756  1  0.694720  0.655820  0.126990  1.0  -0.5568
  O  O757  1  0.745920  0.684840  0.167050  1.0  -0.5805
  O  O758  1  0.934050  0.755740  0.369130  1.0  -0.5741
  O  O759  1  0.906170  0.701920  0.330500  1.0  -0.5489
  O  O760  1  0.039460  0.703740  0.463880  1.0  -0.5619
  O  O761  1  0.065280  0.624790  0.464880  1.0  -0.5681
  O  O762  1  0.845950  0.699170  0.267080  1.0  -0.6261
  O  O763  1  0.814480  0.150240  0.281920  1.0  -0.5731
  O  O764  1  0.867250  0.126340  0.322700  1.0  -0.5532
  O  O765  1  0.037400  0.181930  0.317550  1.0  -0.591
  O  O766  1  0.062400  0.236470  0.278350  1.0  -0.5524
  O  O767  1  0.845000  0.339320  0.035620  1.0  -0.5609
  O  O768  1  0.766300  0.364120  0.035960  1.0  -0.573
  O  O769  1  0.655820  0.305280  0.126990  1.0  -0.5561
  O  O770  1  0.684840  0.254080  0.167050  1.0  -0.5803
  O  O771  1  0.755740  0.065950  0.369130  1.0  -0.5737
  O  O772  1  0.701920  0.093830  0.330500  1.0  -0.5481
  O  O773  1  0.703740  0.960540  0.463880  1.0  -0.5624
  O  O774  1  0.624790  0.934720  0.464880  1.0  -0.5688
  O  O775  1  0.699170  0.154050  0.267080  1.0  -0.6304
  O  O776  1  0.185520  0.849760  0.281920  1.0  -0.5729
  O  O777  1  0.132750  0.873660  0.322700  1.0  -0.5532
  O  O778  1  0.962600  0.818070  0.317550  1.0  -0.5911
  O  O779  1  0.937600  0.763530  0.278350  1.0  -0.5528
  O  O780  1  0.155000  0.660680  0.035620  1.0  -0.5613
  O  O781  1  0.233700  0.635880  0.035960  1.0  -0.573
  O  O782  1  0.344180  0.694720  0.126990  1.0  -0.557
  O  O783  1  0.315160  0.745920  0.167050  1.0  -0.5816
  O  O784  1  0.244260  0.934050  0.369130  1.0  -0.5727
  O  O785  1  0.298080  0.906170  0.330500  1.0  -0.5487
  O  O786  1  0.296260  0.039460  0.463880  1.0  -0.5621
  O  O787  1  0.375210  0.065280  0.464880  1.0  -0.5688
  O  O788  1  0.300830  0.845950  0.267080  1.0  -0.6303
  O  O789  1  0.349760  0.685520  0.218080  1.0  -0.5714
  O  O790  1  0.373660  0.632750  0.177300  1.0  -0.5517
  O  O791  1  0.318070  0.462600  0.182450  1.0  -0.5913
  O  O792  1  0.263530  0.437600  0.221650  1.0  -0.5529
  O  O793  1  0.160680  0.655000  0.464380  1.0  -0.5622
  O  O794  1  0.135880  0.733700  0.464040  1.0  -0.5703
  O  O795  1  0.194720  0.844180  0.373010  1.0  -0.5559
  O  O796  1  0.245920  0.815160  0.332950  1.0  -0.5799
  O  O797  1  0.434050  0.744260  0.130870  1.0  -0.5745
  O  O798  1  0.406170  0.798080  0.169500  1.0  -0.5482
  O  O799  1  0.539460  0.796260  0.036120  1.0  -0.5621
  O  O800  1  0.565280  0.875210  0.035120  1.0  -0.5689
  O  O801  1  0.345950  0.800830  0.232920  1.0  -0.6246
  O  O802  1  0.650240  0.314480  0.218080  1.0  -0.5719
  O  O803  1  0.626340  0.367250  0.177300  1.0  -0.5528
  O  O804  1  0.681930  0.537400  0.182450  1.0  -0.5907
  O  O805  1  0.736470  0.562400  0.221650  1.0  -0.5526
  O  O806  1  0.839320  0.345000  0.464380  1.0  -0.5615
  O  O807  1  0.864120  0.266300  0.464040  1.0  -0.5714
  O  O808  1  0.805280  0.155820  0.373010  1.0  -0.5567
  O  O809  1  0.754080  0.184840  0.332950  1.0  -0.5784
  O  O810  1  0.565950  0.255740  0.130870  1.0  -0.5733
  O  O811  1  0.593830  0.201920  0.169500  1.0  -0.5484
  O  O812  1  0.460540  0.203740  0.036120  1.0  -0.5616
  O  O813  1  0.434720  0.124790  0.035120  1.0  -0.5689
  O  O814  1  0.654050  0.199170  0.232920  1.0  -0.6289
  O  O815  1  0.685520  0.650240  0.218080  1.0  -0.5721
  O  O816  1  0.632750  0.626340  0.177300  1.0  -0.5534
  O  O817  1  0.462600  0.681930  0.182450  1.0  -0.5908
  O  O818  1  0.437600  0.736470  0.221650  1.0  -0.5522
  O  O819  1  0.655000  0.839320  0.464380  1.0  -0.559
  O  O820  1  0.733700  0.864120  0.464040  1.0  -0.573
  O  O821  1  0.844180  0.805280  0.373010  1.0  -0.5558
  O  O822  1  0.815160  0.754080  0.332950  1.0  -0.5801
  O  O823  1  0.744260  0.565950  0.130870  1.0  -0.5729
  O  O824  1  0.798080  0.593830  0.169500  1.0  -0.5482
  O  O825  1  0.796260  0.460540  0.036120  1.0  -0.5619
  O  O826  1  0.875210  0.434720  0.035120  1.0  -0.569
  O  O827  1  0.800830  0.654050  0.232920  1.0  -0.6289
  O  O828  1  0.314480  0.349760  0.218080  1.0  -0.5731
  O  O829  1  0.367250  0.373660  0.177300  1.0  -0.5527
  O  O830  1  0.537400  0.318070  0.182450  1.0  -0.5912
  O  O831  1  0.562400  0.263530  0.221650  1.0  -0.5511
  O  O832  1  0.345000  0.160680  0.464380  1.0  -0.5606
  O  O833  1  0.266300  0.135880  0.464040  1.0  -0.573
  O  O834  1  0.155820  0.194720  0.373010  1.0  -0.5566
  O  O835  1  0.184840  0.245920  0.332950  1.0  -0.5805
  O  O836  1  0.255740  0.434050  0.130870  1.0  -0.5739
  O  O837  1  0.201920  0.406170  0.169500  1.0  -0.5497
  O  O838  1  0.203740  0.539460  0.036120  1.0  -0.5626
  O  O839  1  0.124790  0.565280  0.035120  1.0  -0.5691
  O  O840  1  0.199170  0.345950  0.232920  1.0  -0.6319
  O  O841  1  0.849760  0.814480  0.718080  1.0  -0.5722
  O  O842  1  0.873660  0.867250  0.677300  1.0  -0.5525
  O  O843  1  0.818070  0.037400  0.682450  1.0  -0.5914
  O  O844  1  0.763530  0.062400  0.721650  1.0  -0.5532
  O  O845  1  0.660680  0.845000  0.964380  1.0  -0.5618
  O  O846  1  0.635880  0.766300  0.964040  1.0  -0.5712
  O  O847  1  0.694720  0.655820  0.873010  1.0  -0.5568
  O  O848  1  0.745920  0.684840  0.832950  1.0  -0.5801
  O  O849  1  0.934050  0.755740  0.630870  1.0  -0.5739
  O  O850  1  0.906170  0.701920  0.669500  1.0  -0.549
  O  O851  1  0.039460  0.703740  0.536120  1.0  -0.562
  O  O852  1  0.065280  0.624790  0.535120  1.0  -0.5685
  O  O853  1  0.845950  0.699170  0.732920  1.0  -0.6256
  O  O854  1  0.150240  0.185520  0.718080  1.0  -0.5707
  O  O855  1  0.126340  0.132750  0.677300  1.0  -0.5515
  O  O856  1  0.181930  0.962600  0.682450  1.0  -0.5905
  O  O857  1  0.236470  0.937600  0.721650  1.0  -0.5526
  O  O858  1  0.339320  0.155000  0.964380  1.0  -0.5609
  O  O859  1  0.364120  0.233700  0.964040  1.0  -0.571
  O  O860  1  0.305280  0.344180  0.873010  1.0  -0.556
  O  O861  1  0.254080  0.315160  0.832950  1.0  -0.5783
  O  O862  1  0.065950  0.244260  0.630870  1.0  -0.574
  O  O863  1  0.093830  0.298080  0.669500  1.0  -0.5478
  O  O864  1  0.960540  0.296260  0.536120  1.0  -0.5639
  O  O865  1  0.934720  0.375210  0.535120  1.0  -0.5685
  O  O866  1  0.154050  0.300830  0.732920  1.0  -0.6303
  O  O867  1  0.185520  0.849760  0.718080  1.0  -0.5725
  O  O868  1  0.132750  0.873660  0.677300  1.0  -0.5535
  O  O869  1  0.962600  0.818070  0.682450  1.0  -0.5912
  O  O870  1  0.937600  0.763530  0.721650  1.0  -0.5521
  O  O871  1  0.155000  0.660680  0.964380  1.0  -0.5609
  O  O872  1  0.233700  0.635880  0.964040  1.0  -0.5729
  O  O873  1  0.344180  0.694720  0.873010  1.0  -0.5565
  O  O874  1  0.315160  0.745920  0.832950  1.0  -0.5808
  O  O875  1  0.244260  0.934050  0.630870  1.0  -0.5722
  O  O876  1  0.298080  0.906170  0.669500  1.0  -0.5488
  O  O877  1  0.296260  0.039460  0.536120  1.0  -0.5619
  O  O878  1  0.375210  0.065280  0.535120  1.0  -0.5687
  O  O879  1  0.300830  0.845950  0.732920  1.0  -0.6292
  O  O880  1  0.814480  0.150240  0.718080  1.0  -0.5726
  O  O881  1  0.867250  0.126340  0.677300  1.0  -0.5527
  O  O882  1  0.037400  0.181930  0.682450  1.0  -0.5907
  O  O883  1  0.062400  0.236470  0.721650  1.0  -0.5513
  O  O884  1  0.845000  0.339320  0.964380  1.0  -0.5606
  O  O885  1  0.766300  0.364120  0.964040  1.0  -0.573
  O  O886  1  0.655820  0.305280  0.873010  1.0  -0.5557
  O  O887  1  0.684840  0.254080  0.832950  1.0  -0.5796
  O  O888  1  0.755740  0.065950  0.630870  1.0  -0.5739
  O  O889  1  0.701920  0.093830  0.669500  1.0  -0.5485
  O  O890  1  0.703740  0.960540  0.536120  1.0  -0.5622
  O  O891  1  0.624790  0.934720  0.535120  1.0  -0.5692
  O  O892  1  0.699170  0.154050  0.732920  1.0  -0.6299
  O  O893  1  0.650240  0.314480  0.781920  1.0  -0.5719
  O  O894  1  0.626340  0.367250  0.822700  1.0  -0.5519
  O  O895  1  0.681930  0.537400  0.817550  1.0  -0.5905
  O  O896  1  0.736470  0.562400  0.778350  1.0  -0.5533
  O  O897  1  0.839320  0.345000  0.535620  1.0  -0.5618
  O  O898  1  0.864120  0.266300  0.535960  1.0  -0.5717
  O  O899  1  0.805280  0.155820  0.626990  1.0  -0.5572
  O  O900  1  0.754080  0.184840  0.667050  1.0  -0.5795
  O  O901  1  0.565950  0.255740  0.869130  1.0  -0.5741
  O  O902  1  0.593830  0.201920  0.830500  1.0  -0.5485
  O  O903  1  0.460540  0.203740  0.963880  1.0  -0.5617
  O  O904  1  0.434720  0.124790  0.964880  1.0  -0.5682
  O  O905  1  0.654050  0.199170  0.767080  1.0  -0.6294
  O  O906  1  0.349760  0.685520  0.781920  1.0  -0.5722
  O  O907  1  0.373660  0.632750  0.822700  1.0  -0.5519
  O  O908  1  0.318070  0.462600  0.817550  1.0  -0.5911
  O  O909  1  0.263530  0.437600  0.778350  1.0  -0.5529
  O  O910  1  0.160680  0.655000  0.535620  1.0  -0.5622
  O  O911  1  0.135880  0.733700  0.535960  1.0  -0.5704
  O  O912  1  0.194720  0.844180  0.626990  1.0  -0.556
  O  O913  1  0.245920  0.815160  0.667050  1.0  -0.5804
  O  O914  1  0.434050  0.744260  0.869130  1.0  -0.5748
  O  O915  1  0.406170  0.798080  0.830500  1.0  -0.5479
  O  O916  1  0.539460  0.796260  0.963880  1.0  -0.5622
  O  O917  1  0.565280  0.875210  0.964880  1.0  -0.5679
  O  O918  1  0.345950  0.800830  0.767080  1.0  -0.6254
  O  O919  1  0.314480  0.349760  0.781920  1.0  -0.5735
  O  O920  1  0.367250  0.373660  0.822700  1.0  -0.5531
  O  O921  1  0.537400  0.318070  0.817550  1.0  -0.591
  O  O922  1  0.562400  0.263530  0.778350  1.0  -0.5518
  O  O923  1  0.345000  0.160680  0.535620  1.0  -0.5609
  O  O924  1  0.266300  0.135880  0.535960  1.0  -0.5731
  O  O925  1  0.155820  0.194720  0.626990  1.0  -0.5568
  O  O926  1  0.184840  0.245920  0.667050  1.0  -0.5813
  O  O927  1  0.255740  0.434050  0.869130  1.0  -0.5737
  O  O928  1  0.201920  0.406170  0.830500  1.0  -0.5499
  O  O929  1  0.203740  0.539460  0.963880  1.0  -0.5628
  O  O930  1  0.124790  0.565280  0.964880  1.0  -0.5686
  O  O931  1  0.199170  0.345950  0.767080  1.0  -0.6316
  O  O932  1  0.685520  0.650240  0.781920  1.0  -0.5727
  O  O933  1  0.632750  0.626340  0.822700  1.0  -0.5525
  O  O934  1  0.462600  0.681930  0.817550  1.0  -0.5911
  O  O935  1  0.437600  0.736470  0.778350  1.0  -0.5529
  O  O936  1  0.655000  0.839320  0.535620  1.0  -0.5593
  O  O937  1  0.733700  0.864120  0.535960  1.0  -0.5731
  O  O938  1  0.844180  0.805280  0.626990  1.0  -0.5567
  O  O939  1  0.815160  0.754080  0.667050  1.0  -0.5807
  O  O940  1  0.744260  0.565950  0.869130  1.0  -0.5731
  O  O941  1  0.798080  0.593830  0.830500  1.0  -0.5472
  O  O942  1  0.796260  0.460540  0.963880  1.0  -0.562
  O  O943  1  0.875210  0.434720  0.964880  1.0  -0.5689
  O  O944  1  0.800830  0.654050  0.767080  1.0  -0.6306
