# generated using pymatgen
data_Cu6H30C44N12(ClO3)3
_symmetry_space_group_name_H-M   'P 1'
_cell_length_a   23.30190000
_cell_length_b   23.30190000
_cell_length_c   23.30190000
_cell_angle_alpha   90.00000000
_cell_angle_beta   90.00000000
_cell_angle_gamma   90.00000000
_symmetry_Int_Tables_number   1
_chemical_formula_structural   Cu6H30C44N12(ClO3)3
_chemical_formula_sum   'Cu48 H240 C352 N96 Cl24 O72'
_cell_volume   12652.43172535
_cell_formula_units_Z   8
loop_
 _symmetry_equiv_pos_site_id
 _symmetry_equiv_pos_as_xyz
  1  'x, y, z'
loop_
 _atom_site_type_symbol
 _atom_site_label
 _atom_site_symmetry_multiplicity
 _atom_site_fract_x
 _atom_site_fract_y
 _atom_site_fract_z
 _atom_site_occupancy
 _atom_site_charge
  Cu  Cu1  1  0.267910  0.144920  0.935500  1.0  0.8329
  Cu  Cu2  1  0.217300  0.158360  0.051510  1.0  0.7864
  Cu  Cu3  1  0.232090  0.855080  0.435500  1.0  0.8335
  Cu  Cu4  1  0.282700  0.841640  0.551510  1.0  0.7871
  Cu  Cu5  1  0.732090  0.644920  0.564500  1.0  0.8343
  Cu  Cu6  1  0.782700  0.658360  0.448490  1.0  0.7854
  Cu  Cu7  1  0.767910  0.355080  0.064500  1.0  0.8338
  Cu  Cu8  1  0.717300  0.341640  0.948490  1.0  0.7848
  Cu  Cu9  1  0.935500  0.267910  0.144920  1.0  0.8334
  Cu  Cu10  1  0.051510  0.217300  0.158360  1.0  0.7859
  Cu  Cu11  1  0.435500  0.232090  0.855080  1.0  0.8334
  Cu  Cu12  1  0.551510  0.282700  0.841640  1.0  0.7847
  Cu  Cu13  1  0.564500  0.732090  0.644920  1.0  0.8329
  Cu  Cu14  1  0.448490  0.782700  0.658360  1.0  0.7854
  Cu  Cu15  1  0.064500  0.767910  0.355080  1.0  0.8332
  Cu  Cu16  1  0.948490  0.717300  0.341640  1.0  0.7848
  Cu  Cu17  1  0.144920  0.935500  0.267910  1.0  0.8352
  Cu  Cu18  1  0.158360  0.051510  0.217300  1.0  0.7854
  Cu  Cu19  1  0.855080  0.435500  0.232090  1.0  0.8363
  Cu  Cu20  1  0.841640  0.551510  0.282700  1.0  0.7842
  Cu  Cu21  1  0.644920  0.564500  0.732090  1.0  0.8355
  Cu  Cu22  1  0.658360  0.448490  0.782700  1.0  0.7849
  Cu  Cu23  1  0.355080  0.064500  0.767910  1.0  0.8351
  Cu  Cu24  1  0.341640  0.948490  0.717300  1.0  0.7852
  Cu  Cu25  1  0.732090  0.855080  0.064500  1.0  0.8342
  Cu  Cu26  1  0.782700  0.841640  0.948490  1.0  0.7856
  Cu  Cu27  1  0.767910  0.144920  0.564500  1.0  0.8338
  Cu  Cu28  1  0.717300  0.158360  0.448490  1.0  0.7846
  Cu  Cu29  1  0.267910  0.355080  0.435500  1.0  0.8328
  Cu  Cu30  1  0.217300  0.341640  0.551510  1.0  0.7865
  Cu  Cu31  1  0.232090  0.644920  0.935500  1.0  0.8335
  Cu  Cu32  1  0.282700  0.658360  0.051510  1.0  0.7869
  Cu  Cu33  1  0.064500  0.732090  0.855080  1.0  0.8331
  Cu  Cu34  1  0.948490  0.782700  0.841640  1.0  0.7845
  Cu  Cu35  1  0.564500  0.767910  0.144920  1.0  0.8331
  Cu  Cu36  1  0.448490  0.717300  0.158360  1.0  0.7857
  Cu  Cu37  1  0.435500  0.267910  0.355080  1.0  0.8336
  Cu  Cu38  1  0.551510  0.217300  0.341640  1.0  0.785
  Cu  Cu39  1  0.935500  0.232090  0.644920  1.0  0.8332
  Cu  Cu40  1  0.051510  0.282700  0.658360  1.0  0.7855
  Cu  Cu41  1  0.855080  0.064500  0.732090  1.0  0.8358
  Cu  Cu42  1  0.841640  0.948490  0.782700  1.0  0.7846
  Cu  Cu43  1  0.144920  0.564500  0.767910  1.0  0.8348
  Cu  Cu44  1  0.158360  0.448490  0.717300  1.0  0.7853
  Cu  Cu45  1  0.355080  0.435500  0.267910  1.0  0.8355
  Cu  Cu46  1  0.341640  0.551510  0.217300  1.0  0.7851
  Cu  Cu47  1  0.644920  0.935500  0.232090  1.0  0.836
  Cu  Cu48  1  0.658360  0.051510  0.282700  1.0  0.7847
  H  H49  1  0.267300  0.009600  0.846600  1.0  0.1162
  H  H50  1  0.130500  0.050700  0.026500  1.0  0.1344
  H  H51  1  0.099300  0.955600  0.013300  1.0  0.1153
  H  H52  1  0.135000  0.899800  0.939000  1.0  0.1365
  H  H53  1  0.204900  0.938000  0.877700  1.0  0.1341
  H  H54  1  0.408700  0.739700  0.545600  1.0  0.1058
  H  H55  1  0.228700  0.727100  0.404600  1.0  0.1327
  H  H56  1  0.270400  0.643200  0.372400  1.0  0.1339
  H  H57  1  0.362300  0.614300  0.407600  1.0  0.1511
  H  H58  1  0.401100  0.663200  0.484600  1.0  0.1307
  H  H59  1  0.232700  0.990400  0.346600  1.0  0.1163
  H  H60  1  0.369500  0.949300  0.526500  1.0  0.1347
  H  H61  1  0.400700  0.044400  0.513300  1.0  0.1152
  H  H62  1  0.365000  0.100200  0.439000  1.0  0.1368
  H  H63  1  0.295100  0.062000  0.377700  1.0  0.134
  H  H64  1  0.091300  0.260300  0.045600  1.0  0.1065
  H  H65  1  0.271300  0.272900  0.904600  1.0  0.1329
  H  H66  1  0.229600  0.356800  0.872400  1.0  0.1336
  H  H67  1  0.137700  0.385700  0.907600  1.0  0.151
  H  H68  1  0.098900  0.336800  0.984600  1.0  0.1305
  H  H69  1  0.732700  0.509600  0.653400  1.0  0.1165
  H  H70  1  0.869500  0.550700  0.473500  1.0  0.1344
  H  H71  1  0.900700  0.455600  0.486700  1.0  0.1148
  H  H72  1  0.865000  0.399800  0.561000  1.0  0.1367
  H  H73  1  0.795100  0.438000  0.622300  1.0  0.1335
  H  H74  1  0.591300  0.239700  0.954400  1.0  0.106
  H  H75  1  0.771300  0.227100  0.095400  1.0  0.1331
  H  H76  1  0.729600  0.143200  0.127600  1.0  0.134
  H  H77  1  0.637700  0.114300  0.092400  1.0  0.1503
  H  H78  1  0.598900  0.163200  0.015400  1.0  0.1303
  H  H79  1  0.767300  0.490400  0.153400  1.0  0.1159
  H  H80  1  0.630500  0.449300  0.973500  1.0  0.1343
  H  H81  1  0.599300  0.544400  0.986700  1.0  0.1148
  H  H82  1  0.635000  0.600200  0.061000  1.0  0.1366
  H  H83  1  0.704900  0.562000  0.122300  1.0  0.1335
  H  H84  1  0.908700  0.760300  0.454400  1.0  0.1058
  H  H85  1  0.728700  0.772900  0.595400  1.0  0.1326
  H  H86  1  0.770400  0.856800  0.627600  1.0  0.1336
  H  H87  1  0.862300  0.885700  0.592400  1.0  0.1511
  H  H88  1  0.901100  0.836800  0.515400  1.0  0.1311
  H  H89  1  0.846600  0.267300  0.009600  1.0  0.1155
  H  H90  1  0.026500  0.130500  0.050700  1.0  0.1356
  H  H91  1  0.013300  0.099300  0.955600  1.0  0.1158
  H  H92  1  0.939000  0.135000  0.899800  1.0  0.1369
  H  H93  1  0.877700  0.204900  0.938000  1.0  0.133
  H  H94  1  0.545600  0.408700  0.739700  1.0  0.1066
  H  H95  1  0.404600  0.228700  0.727100  1.0  0.1327
  H  H96  1  0.372400  0.270400  0.643200  1.0  0.1328
  H  H97  1  0.407600  0.362300  0.614300  1.0  0.1525
  H  H98  1  0.484600  0.401100  0.663200  1.0  0.1307
  H  H99  1  0.346600  0.232700  0.990400  1.0  0.1155
  H  H100  1  0.526500  0.369500  0.949300  1.0  0.1352
  H  H101  1  0.513300  0.400700  0.044400  1.0  0.1155
  H  H102  1  0.439000  0.365000  0.100200  1.0  0.1369
  H  H103  1  0.377700  0.295100  0.062000  1.0  0.1326
  H  H104  1  0.045600  0.091300  0.260300  1.0  0.1065
  H  H105  1  0.904600  0.271300  0.272900  1.0  0.1334
  H  H106  1  0.872400  0.229600  0.356800  1.0  0.1331
  H  H107  1  0.907600  0.137700  0.385700  1.0  0.1526
  H  H108  1  0.984600  0.098900  0.336800  1.0  0.1309
  H  H109  1  0.653400  0.732700  0.509600  1.0  0.1156
  H  H110  1  0.473500  0.869500  0.550700  1.0  0.1351
  H  H111  1  0.486700  0.900700  0.455600  1.0  0.116
  H  H112  1  0.561000  0.865000  0.399800  1.0  0.1369
  H  H113  1  0.622300  0.795100  0.438000  1.0  0.1334
  H  H114  1  0.954400  0.591300  0.239700  1.0  0.1063
  H  H115  1  0.095400  0.771300  0.227100  1.0  0.1327
  H  H116  1  0.127600  0.729600  0.143200  1.0  0.1331
  H  H117  1  0.092400  0.637700  0.114300  1.0  0.1529
  H  H118  1  0.015400  0.598900  0.163200  1.0  0.1301
  H  H119  1  0.153400  0.767300  0.490400  1.0  0.1157
  H  H120  1  0.973500  0.630500  0.449300  1.0  0.1349
  H  H121  1  0.986700  0.599300  0.544400  1.0  0.1159
  H  H122  1  0.061000  0.635000  0.600200  1.0  0.1373
  H  H123  1  0.122300  0.704900  0.562000  1.0  0.1331
  H  H124  1  0.454400  0.908700  0.760300  1.0  0.1061
  H  H125  1  0.595400  0.728700  0.772900  1.0  0.1332
  H  H126  1  0.627600  0.770400  0.856800  1.0  0.1336
  H  H127  1  0.592400  0.862300  0.885700  1.0  0.1529
  H  H128  1  0.515400  0.901100  0.836800  1.0  0.1306
  H  H129  1  0.009600  0.846600  0.267300  1.0  0.1155
  H  H130  1  0.050700  0.026500  0.130500  1.0  0.1351
  H  H131  1  0.955600  0.013300  0.099300  1.0  0.1157
  H  H132  1  0.899800  0.939000  0.135000  1.0  0.1365
  H  H133  1  0.938000  0.877700  0.204900  1.0  0.1326
  H  H134  1  0.739700  0.545600  0.408700  1.0  0.1049
  H  H135  1  0.727100  0.404600  0.228700  1.0  0.1343
  H  H136  1  0.643200  0.372400  0.270400  1.0  0.1337
  H  H137  1  0.614300  0.407600  0.362300  1.0  0.1515
  H  H138  1  0.663200  0.484600  0.401100  1.0  0.1304
  H  H139  1  0.990400  0.346600  0.232700  1.0  0.1159
  H  H140  1  0.949300  0.526500  0.369500  1.0  0.1347
  H  H141  1  0.044400  0.513300  0.400700  1.0  0.1156
  H  H142  1  0.100200  0.439000  0.365000  1.0  0.1364
  H  H143  1  0.062000  0.377700  0.295100  1.0  0.1334
  H  H144  1  0.260300  0.045600  0.091300  1.0  0.1046
  H  H145  1  0.272900  0.904600  0.271300  1.0  0.1341
  H  H146  1  0.356800  0.872400  0.229600  1.0  0.1333
  H  H147  1  0.385700  0.907600  0.137700  1.0  0.1517
  H  H148  1  0.336800  0.984600  0.098900  1.0  0.1305
  H  H149  1  0.509600  0.653400  0.732700  1.0  0.1152
  H  H150  1  0.550700  0.473500  0.869500  1.0  0.135
  H  H151  1  0.455600  0.486700  0.900700  1.0  0.1161
  H  H152  1  0.399800  0.561000  0.865000  1.0  0.1363
  H  H153  1  0.438000  0.622300  0.795100  1.0  0.1334
  H  H154  1  0.239700  0.954400  0.591300  1.0  0.105
  H  H155  1  0.227100  0.095400  0.771300  1.0  0.134
  H  H156  1  0.143200  0.127600  0.729600  1.0  0.1339
  H  H157  1  0.114300  0.092400  0.637700  1.0  0.1515
  H  H158  1  0.163200  0.015400  0.598900  1.0  0.1305
  H  H159  1  0.490400  0.153400  0.767300  1.0  0.1156
  H  H160  1  0.449300  0.973500  0.630500  1.0  0.1347
  H  H161  1  0.544400  0.986700  0.599300  1.0  0.1155
  H  H162  1  0.600200  0.061000  0.635000  1.0  0.1365
  H  H163  1  0.562000  0.122300  0.704900  1.0  0.1331
  H  H164  1  0.760300  0.454400  0.908700  1.0  0.1046
  H  H165  1  0.772900  0.595400  0.728700  1.0  0.134
  H  H166  1  0.856800  0.627600  0.770400  1.0  0.1335
  H  H167  1  0.885700  0.592400  0.862300  1.0  0.1515
  H  H168  1  0.836800  0.515400  0.901100  1.0  0.1304
  H  H169  1  0.732700  0.990400  0.153400  1.0  0.1158
  H  H170  1  0.869500  0.949300  0.973500  1.0  0.1344
  H  H171  1  0.900700  0.044400  0.986700  1.0  0.1149
  H  H172  1  0.865000  0.100200  0.061000  1.0  0.1382
  H  H173  1  0.795100  0.062000  0.122300  1.0  0.1335
  H  H174  1  0.591300  0.260300  0.454400  1.0  0.1061
  H  H175  1  0.771300  0.272900  0.595400  1.0  0.1332
  H  H176  1  0.729600  0.356800  0.627600  1.0  0.1335
  H  H177  1  0.637700  0.385700  0.592400  1.0  0.151
  H  H178  1  0.598900  0.336800  0.515400  1.0  0.1308
  H  H179  1  0.767300  0.009600  0.653400  1.0  0.1165
  H  H180  1  0.630500  0.050700  0.473500  1.0  0.1343
  H  H181  1  0.599300  0.955600  0.486700  1.0  0.1145
  H  H182  1  0.635000  0.899800  0.561000  1.0  0.1384
  H  H183  1  0.704900  0.938000  0.622300  1.0  0.1335
  H  H184  1  0.908700  0.739700  0.954400  1.0  0.1059
  H  H185  1  0.728700  0.727100  0.095400  1.0  0.1326
  H  H186  1  0.770400  0.643200  0.127600  1.0  0.1339
  H  H187  1  0.862300  0.614300  0.092400  1.0  0.1508
  H  H188  1  0.901100  0.663200  0.015400  1.0  0.1308
  H  H189  1  0.267300  0.490400  0.346600  1.0  0.1163
  H  H190  1  0.130500  0.449300  0.526500  1.0  0.1346
  H  H191  1  0.099300  0.544400  0.513300  1.0  0.1152
  H  H192  1  0.135000  0.600200  0.439000  1.0  0.1388
  H  H193  1  0.204900  0.562000  0.377700  1.0  0.1342
  H  H194  1  0.408700  0.760300  0.045600  1.0  0.106
  H  H195  1  0.228700  0.772900  0.904600  1.0  0.1327
  H  H196  1  0.270400  0.856800  0.872400  1.0  0.1338
  H  H197  1  0.362300  0.885700  0.907600  1.0  0.1513
  H  H198  1  0.401100  0.836800  0.984600  1.0  0.1308
  H  H199  1  0.232700  0.509600  0.846600  1.0  0.1162
  H  H200  1  0.369500  0.550700  0.026500  1.0  0.1345
  H  H201  1  0.400700  0.455600  0.013300  1.0  0.1154
  H  H202  1  0.365000  0.399800  0.939000  1.0  0.1383
  H  H203  1  0.295100  0.438000  0.877700  1.0  0.1338
  H  H204  1  0.091300  0.239700  0.545600  1.0  0.1061
  H  H205  1  0.271300  0.227100  0.404600  1.0  0.1329
  H  H206  1  0.229600  0.143200  0.372400  1.0  0.1339
  H  H207  1  0.137700  0.114300  0.407600  1.0  0.1503
  H  H208  1  0.098900  0.163200  0.484600  1.0  0.1303
  H  H209  1  0.153400  0.732700  0.990400  1.0  0.116
  H  H210  1  0.973500  0.869500  0.949300  1.0  0.135
  H  H211  1  0.986700  0.900700  0.044400  1.0  0.1159
  H  H212  1  0.061000  0.865000  0.100200  1.0  0.1391
  H  H213  1  0.122300  0.795100  0.062000  1.0  0.1331
  H  H214  1  0.454400  0.591300  0.260300  1.0  0.1064
  H  H215  1  0.595400  0.771300  0.272900  1.0  0.133
  H  H216  1  0.627600  0.729600  0.356800  1.0  0.1334
  H  H217  1  0.592400  0.637700  0.385700  1.0  0.153
  H  H218  1  0.515400  0.598900  0.336800  1.0  0.1306
  H  H219  1  0.653400  0.767300  0.009600  1.0  0.1157
  H  H220  1  0.473500  0.630500  0.050700  1.0  0.1351
  H  H221  1  0.486700  0.599300  0.955600  1.0  0.116
  H  H222  1  0.561000  0.635000  0.899800  1.0  0.1388
  H  H223  1  0.622300  0.704900  0.938000  1.0  0.1335
  H  H224  1  0.954400  0.908700  0.739700  1.0  0.1067
  H  H225  1  0.095400  0.728700  0.727100  1.0  0.1328
  H  H226  1  0.127600  0.770400  0.643200  1.0  0.133
  H  H227  1  0.092400  0.862300  0.614300  1.0  0.1525
  H  H228  1  0.015400  0.901100  0.663200  1.0  0.1305
  H  H229  1  0.346600  0.267300  0.490400  1.0  0.1152
  H  H230  1  0.526500  0.130500  0.449300  1.0  0.1352
  H  H231  1  0.513300  0.099300  0.544400  1.0  0.1157
  H  H232  1  0.439000  0.135000  0.600200  1.0  0.1387
  H  H233  1  0.377700  0.204900  0.562000  1.0  0.1327
  H  H234  1  0.045600  0.408700  0.760300  1.0  0.1062
  H  H235  1  0.904600  0.228700  0.772900  1.0  0.133
  H  H236  1  0.872400  0.270400  0.856800  1.0  0.1332
  H  H237  1  0.907600  0.362300  0.885700  1.0  0.153
  H  H238  1  0.984600  0.401100  0.836800  1.0  0.1308
  H  H239  1  0.846600  0.232700  0.509600  1.0  0.1152
  H  H240  1  0.026500  0.369500  0.550700  1.0  0.1354
  H  H241  1  0.013300  0.400700  0.455600  1.0  0.1157
  H  H242  1  0.939000  0.365000  0.399800  1.0  0.1384
  H  H243  1  0.877700  0.295100  0.438000  1.0  0.1329
  H  H244  1  0.545600  0.091300  0.239700  1.0  0.1063
  H  H245  1  0.404600  0.271300  0.227100  1.0  0.1331
  H  H246  1  0.372400  0.229600  0.143200  1.0  0.1331
  H  H247  1  0.407600  0.137700  0.114300  1.0  0.1524
  H  H248  1  0.484600  0.098900  0.163200  1.0  0.1305
  H  H249  1  0.990400  0.153400  0.732700  1.0  0.1155
  H  H250  1  0.949300  0.973500  0.869500  1.0  0.1347
  H  H251  1  0.044400  0.986700  0.900700  1.0  0.116
  H  H252  1  0.100200  0.061000  0.865000  1.0  0.138
  H  H253  1  0.062000  0.122300  0.795100  1.0  0.1335
  H  H254  1  0.260300  0.454400  0.591300  1.0  0.1048
  H  H255  1  0.272900  0.595400  0.771300  1.0  0.1339
  H  H256  1  0.356800  0.627600  0.729600  1.0  0.1333
  H  H257  1  0.385700  0.592400  0.637700  1.0  0.1515
  H  H258  1  0.336800  0.515400  0.598900  1.0  0.1308
  H  H259  1  0.009600  0.653400  0.767300  1.0  0.1155
  H  H260  1  0.050700  0.473500  0.630500  1.0  0.135
  H  H261  1  0.955600  0.486700  0.599300  1.0  0.1156
  H  H262  1  0.899800  0.561000  0.635000  1.0  0.1382
  H  H263  1  0.938000  0.622300  0.704900  1.0  0.1332
  H  H264  1  0.739700  0.954400  0.908700  1.0  0.105
  H  H265  1  0.727100  0.095400  0.728700  1.0  0.1341
  H  H266  1  0.643200  0.127600  0.770400  1.0  0.1342
  H  H267  1  0.614300  0.092400  0.862300  1.0  0.1513
  H  H268  1  0.663200  0.015400  0.901100  1.0  0.1308
  H  H269  1  0.490400  0.346600  0.267300  1.0  0.1161
  H  H270  1  0.449300  0.526500  0.130500  1.0  0.135
  H  H271  1  0.544400  0.513300  0.099300  1.0  0.1155
  H  H272  1  0.600200  0.439000  0.135000  1.0  0.1383
  H  H273  1  0.562000  0.377700  0.204900  1.0  0.1331
  H  H274  1  0.760300  0.045600  0.408700  1.0  0.1046
  H  H275  1  0.772900  0.904600  0.228700  1.0  0.1341
  H  H276  1  0.856800  0.872400  0.270400  1.0  0.1334
  H  H277  1  0.885700  0.907600  0.362300  1.0  0.1516
  H  H278  1  0.836800  0.984600  0.401100  1.0  0.1301
  H  H279  1  0.509600  0.846600  0.232700  1.0  0.1152
  H  H280  1  0.550700  0.026500  0.369500  1.0  0.1348
  H  H281  1  0.455600  0.013300  0.400700  1.0  0.1157
  H  H282  1  0.399800  0.939000  0.365000  1.0  0.1379
  H  H283  1  0.438000  0.877700  0.295100  1.0  0.1327
  H  H284  1  0.239700  0.545600  0.091300  1.0  0.1046
  H  H285  1  0.227100  0.404600  0.271300  1.0  0.1344
  H  H286  1  0.143200  0.372400  0.229600  1.0  0.1336
  H  H287  1  0.114300  0.407600  0.137700  1.0  0.1517
  H  H288  1  0.163200  0.484600  0.098900  1.0  0.1302
  C  C289  1  0.257100  0.034700  0.877100  1.0  0.129
  C  C290  1  0.213000  0.015900  0.916400  1.0  -0.0348
  C  C291  1  0.190100  0.050500  0.961800  1.0  0.3373
  C  C292  1  0.146800  0.027900  0.997000  1.0  -0.1761
  C  C293  1  0.127500  0.971100  0.988300  1.0  -0.0298
  C  C294  1  0.148700  0.937800  0.944600  1.0  -0.095
  C  C295  1  0.190900  0.960700  0.908600  1.0  -0.1037
  C  C296  1  0.254200  0.963600  0.628300  1.0  0.1675
  C  C297  1  0.226600  0.009200  0.659200  1.0  -0.0858
  C  C298  1  0.245600  0.032400  0.712600  1.0  0.3711
  C  C299  1  0.263300  0.714100  0.421700  1.0  -0.1502
  C  C300  1  0.288900  0.665000  0.401400  1.0  -0.1167
  C  C301  1  0.343000  0.646600  0.423500  1.0  -0.1257
  C  C302  1  0.366300  0.676600  0.468200  1.0  -0.0985
  C  C303  1  0.242900  0.965300  0.377100  1.0  0.1288
  C  C304  1  0.287000  0.984100  0.416400  1.0  -0.0342
  C  C305  1  0.309900  0.949500  0.461800  1.0  0.3374
  C  C306  1  0.353200  0.972100  0.497000  1.0  -0.1753
  C  C307  1  0.372500  0.028900  0.488300  1.0  -0.03
  C  C308  1  0.351300  0.062200  0.444600  1.0  -0.0928
  C  C309  1  0.309100  0.039300  0.408600  1.0  -0.1032
  C  C310  1  0.245800  0.036400  0.128300  1.0  0.1685
  C  C311  1  0.273400  0.990800  0.159200  1.0  -0.0854
  C  C312  1  0.254400  0.967600  0.212600  1.0  0.3712
  C  C313  1  0.236700  0.285900  0.921700  1.0  -0.1507
  C  C314  1  0.211100  0.335000  0.901400  1.0  -0.1156
  C  C315  1  0.157000  0.353400  0.923500  1.0  -0.1278
  C  C316  1  0.133700  0.323400  0.968200  1.0  -0.0993
  C  C317  1  0.742900  0.534700  0.622900  1.0  0.1289
  C  C318  1  0.787000  0.515900  0.583600  1.0  -0.0339
  C  C319  1  0.809900  0.550500  0.538200  1.0  0.3365
  C  C320  1  0.853200  0.527900  0.503000  1.0  -0.1753
  C  C321  1  0.872500  0.471100  0.511700  1.0  -0.0308
  C  C322  1  0.851300  0.437800  0.555400  1.0  -0.0938
  C  C323  1  0.809100  0.460700  0.591400  1.0  -0.1053
  C  C324  1  0.745800  0.463600  0.871700  1.0  0.1696
  C  C325  1  0.773400  0.509200  0.840800  1.0  -0.0857
  C  C326  1  0.754400  0.532400  0.787400  1.0  0.3709
  C  C327  1  0.736700  0.214100  0.078300  1.0  -0.1512
  C  C328  1  0.711100  0.165000  0.098600  1.0  -0.1173
  C  C329  1  0.657000  0.146600  0.076500  1.0  -0.1266
  C  C330  1  0.633700  0.176600  0.031800  1.0  -0.0997
  C  C331  1  0.757100  0.465300  0.122900  1.0  0.1288
  C  C332  1  0.713000  0.484100  0.083600  1.0  -0.0349
  C  C333  1  0.690100  0.449500  0.038200  1.0  0.3383
  C  C334  1  0.646800  0.472100  0.003000  1.0  -0.1772
  C  C335  1  0.627500  0.528900  0.011700  1.0  -0.0295
  C  C336  1  0.648700  0.562200  0.055400  1.0  -0.0946
  C  C337  1  0.690900  0.539300  0.091400  1.0  -0.1032
  C  C338  1  0.754200  0.536400  0.371700  1.0  0.1684
  C  C339  1  0.726600  0.490800  0.340800  1.0  -0.0857
  C  C340  1  0.745600  0.467600  0.287400  1.0  0.3715
  C  C341  1  0.763300  0.785900  0.578300  1.0  -0.1504
  C  C342  1  0.788900  0.835000  0.598600  1.0  -0.1179
  C  C343  1  0.843000  0.853400  0.576500  1.0  -0.1269
  C  C344  1  0.866300  0.823400  0.531800  1.0  -0.0988
  C  C345  1  0.877100  0.257100  0.034700  1.0  0.1304
  C  C346  1  0.916400  0.213000  0.015900  1.0  -0.0325
  C  C347  1  0.961800  0.190100  0.050500  1.0  0.3448
  C  C348  1  0.997000  0.146800  0.027900  1.0  -0.1754
  C  C349  1  0.988300  0.127500  0.971100  1.0  -0.032
  C  C350  1  0.944600  0.148700  0.937800  1.0  -0.0914
  C  C351  1  0.908600  0.190900  0.960700  1.0  -0.1001
  C  C352  1  0.628300  0.254200  0.963600  1.0  0.1679
  C  C353  1  0.659200  0.226600  0.009200  1.0  -0.0854
  C  C354  1  0.712600  0.245600  0.032400  1.0  0.3762
  C  C355  1  0.421700  0.263300  0.714100  1.0  -0.1492
  C  C356  1  0.401400  0.288900  0.665000  1.0  -0.1166
  C  C357  1  0.423500  0.343000  0.646600  1.0  -0.1242
  C  C358  1  0.468200  0.366300  0.676600  1.0  -0.1035
  C  C359  1  0.377100  0.242900  0.965300  1.0  0.1305
  C  C360  1  0.416400  0.287000  0.984100  1.0  -0.0336
  C  C361  1  0.461800  0.309900  0.949500  1.0  0.3466
  C  C362  1  0.497000  0.353200  0.972100  1.0  -0.1759
  C  C363  1  0.488300  0.372500  0.028900  1.0  -0.0305
  C  C364  1  0.444600  0.351300  0.062200  1.0  -0.0915
  C  C365  1  0.408600  0.309100  0.039300  1.0  -0.1007
  C  C366  1  0.128300  0.245800  0.036400  1.0  0.1676
  C  C367  1  0.159200  0.273400  0.990800  1.0  -0.0861
  C  C368  1  0.212600  0.254400  0.967600  1.0  0.3763
  C  C369  1  0.921700  0.236700  0.285900  1.0  -0.1499
  C  C370  1  0.901400  0.211100  0.335000  1.0  -0.1159
  C  C371  1  0.923500  0.157000  0.353400  1.0  -0.1265
  C  C372  1  0.968200  0.133700  0.323400  1.0  -0.1019
  C  C373  1  0.622900  0.742900  0.534700  1.0  0.1305
  C  C374  1  0.583600  0.787000  0.515900  1.0  -0.0326
  C  C375  1  0.538200  0.809900  0.550500  1.0  0.3464
  C  C376  1  0.503000  0.853200  0.527900  1.0  -0.1749
  C  C377  1  0.511700  0.872500  0.471100  1.0  -0.0332
  C  C378  1  0.555400  0.851300  0.437800  1.0  -0.0911
  C  C379  1  0.591400  0.809100  0.460700  1.0  -0.0998
  C  C380  1  0.871700  0.745800  0.463600  1.0  0.1672
  C  C381  1  0.840800  0.773400  0.509200  1.0  -0.0863
  C  C382  1  0.787400  0.754400  0.532400  1.0  0.3755
  C  C383  1  0.078300  0.736700  0.214100  1.0  -0.1495
  C  C384  1  0.098600  0.711100  0.165000  1.0  -0.1143
  C  C385  1  0.076500  0.657000  0.146600  1.0  -0.1242
  C  C386  1  0.031800  0.633700  0.176600  1.0  -0.1029
  C  C387  1  0.122900  0.757100  0.465300  1.0  0.1304
  C  C388  1  0.083600  0.713000  0.484100  1.0  -0.0324
  C  C389  1  0.038200  0.690100  0.449500  1.0  0.3468
  C  C390  1  0.003000  0.646800  0.472100  1.0  -0.1753
  C  C391  1  0.011700  0.627500  0.528900  1.0  -0.0331
  C  C392  1  0.055400  0.648700  0.562200  1.0  -0.0919
  C  C393  1  0.091400  0.690900  0.539300  1.0  -0.1007
  C  C394  1  0.371700  0.754200  0.536400  1.0  0.1677
  C  C395  1  0.340800  0.726600  0.490800  1.0  -0.0861
  C  C396  1  0.287400  0.745600  0.467600  1.0  0.3769
  C  C397  1  0.578300  0.763300  0.785900  1.0  -0.1484
  C  C398  1  0.598600  0.788900  0.835000  1.0  -0.1149
  C  C399  1  0.576500  0.843000  0.853400  1.0  -0.1273
  C  C400  1  0.531800  0.866300  0.823400  1.0  -0.1029
  C  C401  1  0.034700  0.877100  0.257100  1.0  0.129
  C  C402  1  0.015900  0.916400  0.213000  1.0  -0.035
  C  C403  1  0.050500  0.961800  0.190100  1.0  0.3412
  C  C404  1  0.027900  0.997000  0.146800  1.0  -0.1782
  C  C405  1  0.971100  0.988300  0.127500  1.0  -0.0301
  C  C406  1  0.937800  0.944600  0.148700  1.0  -0.0945
  C  C407  1  0.960700  0.908600  0.190900  1.0  -0.0998
  C  C408  1  0.963600  0.628300  0.254200  1.0  0.1683
  C  C409  1  0.009200  0.659200  0.226600  1.0  -0.0845
  C  C410  1  0.032400  0.712600  0.245600  1.0  0.3771
  C  C411  1  0.714100  0.421700  0.263300  1.0  -0.1508
  C  C412  1  0.665000  0.401400  0.288900  1.0  -0.1169
  C  C413  1  0.646600  0.423500  0.343000  1.0  -0.1245
  C  C414  1  0.676600  0.468200  0.366300  1.0  -0.1032
  C  C415  1  0.965300  0.377100  0.242900  1.0  0.1286
  C  C416  1  0.984100  0.416400  0.287000  1.0  -0.0341
  C  C417  1  0.949500  0.461800  0.309900  1.0  0.3399
  C  C418  1  0.972100  0.497000  0.353200  1.0  -0.1784
  C  C419  1  0.028900  0.488300  0.372500  1.0  -0.0307
  C  C420  1  0.062200  0.444600  0.351300  1.0  -0.0948
  C  C421  1  0.039300  0.408600  0.309100  1.0  -0.0993
  C  C422  1  0.036400  0.128300  0.245800  1.0  0.1679
  C  C423  1  0.990800  0.159200  0.273400  1.0  -0.0841
  C  C424  1  0.967600  0.212600  0.254400  1.0  0.3771
  C  C425  1  0.285900  0.921700  0.236700  1.0  -0.1511
  C  C426  1  0.335000  0.901400  0.211100  1.0  -0.1157
  C  C427  1  0.353400  0.923500  0.157000  1.0  -0.1238
  C  C428  1  0.323400  0.968200  0.133700  1.0  -0.1046
  C  C429  1  0.534700  0.622900  0.742900  1.0  0.1284
  C  C430  1  0.515900  0.583600  0.787000  1.0  -0.0352
  C  C431  1  0.550500  0.538200  0.809900  1.0  0.3405
  C  C432  1  0.527900  0.503000  0.853200  1.0  -0.1779
  C  C433  1  0.471100  0.511700  0.872500  1.0  -0.0305
  C  C434  1  0.437800  0.555400  0.851300  1.0  -0.0944
  C  C435  1  0.460700  0.591400  0.809100  1.0  -0.099
  C  C436  1  0.463600  0.871700  0.745800  1.0  0.1678
  C  C437  1  0.509200  0.840800  0.773400  1.0  -0.0842
  C  C438  1  0.532400  0.787400  0.754400  1.0  0.377
  C  C439  1  0.214100  0.078300  0.736700  1.0  -0.1499
  C  C440  1  0.165000  0.098600  0.711100  1.0  -0.1165
  C  C441  1  0.146600  0.076500  0.657000  1.0  -0.1243
  C  C442  1  0.176600  0.031800  0.633700  1.0  -0.1046
  C  C443  1  0.465300  0.122900  0.757100  1.0  0.1281
  C  C444  1  0.484100  0.083600  0.713000  1.0  -0.034
  C  C445  1  0.449500  0.038200  0.690100  1.0  0.3399
  C  C446  1  0.472100  0.003000  0.646800  1.0  -0.1786
  C  C447  1  0.528900  0.011700  0.627500  1.0  -0.0309
  C  C448  1  0.562200  0.055400  0.648700  1.0  -0.0944
  C  C449  1  0.539300  0.091400  0.690900  1.0  -0.0987
  C  C450  1  0.536400  0.371700  0.754200  1.0  0.1682
  C  C451  1  0.490800  0.340800  0.726600  1.0  -0.085
  C  C452  1  0.467600  0.287400  0.745600  1.0  0.3766
  C  C453  1  0.785900  0.578300  0.763300  1.0  -0.1519
  C  C454  1  0.835000  0.598600  0.788900  1.0  -0.1158
  C  C455  1  0.853400  0.576500  0.843000  1.0  -0.1237
  C  C456  1  0.823400  0.531800  0.866300  1.0  -0.1024
  C  C457  1  0.356500  0.143500  0.856500  1.0  0.442
  C  C458  1  0.143500  0.856500  0.356500  1.0  0.442
  C  C459  1  0.643500  0.643500  0.643500  1.0  0.442
  C  C460  1  0.856500  0.356500  0.143500  1.0  0.4423
  C  C461  1  0.363400  0.863400  0.636600  1.0  0.5068
  C  C462  1  0.136600  0.136600  0.136600  1.0  0.5059
  C  C463  1  0.636600  0.363400  0.863400  1.0  0.5059
  C  C464  1  0.863400  0.636600  0.363400  1.0  0.5073
  C  C465  1  0.742900  0.965300  0.122900  1.0  0.1285
  C  C466  1  0.787000  0.984100  0.083600  1.0  -0.0344
  C  C467  1  0.809900  0.949500  0.038200  1.0  0.3373
  C  C468  1  0.853200  0.972100  0.003000  1.0  -0.1761
  C  C469  1  0.872500  0.028900  0.011700  1.0  -0.0301
  C  C470  1  0.851300  0.062200  0.055400  1.0  -0.0932
  C  C471  1  0.809100  0.039300  0.091400  1.0  -0.1044
  C  C472  1  0.745800  0.036400  0.371700  1.0  0.1696
  C  C473  1  0.773400  0.990800  0.340800  1.0  -0.0854
  C  C474  1  0.754400  0.967600  0.287400  1.0  0.3713
  C  C475  1  0.736700  0.285900  0.578300  1.0  -0.1509
  C  C476  1  0.711100  0.335000  0.598600  1.0  -0.117
  C  C477  1  0.657000  0.353400  0.576500  1.0  -0.1279
  C  C478  1  0.633700  0.323400  0.531800  1.0  -0.0999
  C  C479  1  0.757100  0.034700  0.622900  1.0  0.1295
  C  C480  1  0.713000  0.015900  0.583600  1.0  -0.0345
  C  C481  1  0.690100  0.050500  0.538200  1.0  0.3372
  C  C482  1  0.646800  0.027900  0.503000  1.0  -0.1765
  C  C483  1  0.627500  0.971100  0.511700  1.0  -0.0299
  C  C484  1  0.648700  0.937800  0.555400  1.0  -0.0953
  C  C485  1  0.690900  0.960700  0.591400  1.0  -0.1042
  C  C486  1  0.754200  0.963600  0.871700  1.0  0.1684
  C  C487  1  0.726600  0.009200  0.840800  1.0  -0.0859
  C  C488  1  0.745600  0.032400  0.787400  1.0  0.3711
  C  C489  1  0.763300  0.714100  0.078300  1.0  -0.1504
  C  C490  1  0.788900  0.665000  0.098600  1.0  -0.1183
  C  C491  1  0.843000  0.646600  0.076500  1.0  -0.1257
  C  C492  1  0.866300  0.676600  0.031800  1.0  -0.0994
  C  C493  1  0.257100  0.465300  0.377100  1.0  0.1292
  C  C494  1  0.213000  0.484100  0.416400  1.0  -0.0349
  C  C495  1  0.190100  0.449500  0.461800  1.0  0.3385
  C  C496  1  0.146800  0.472100  0.497000  1.0  -0.1765
  C  C497  1  0.127500  0.528900  0.488300  1.0  -0.0297
  C  C498  1  0.148700  0.562200  0.444600  1.0  -0.0942
  C  C499  1  0.190900  0.539300  0.408600  1.0  -0.1025
  C  C500  1  0.254200  0.536400  0.128300  1.0  0.1677
  C  C501  1  0.226600  0.490800  0.159200  1.0  -0.0856
  C  C502  1  0.245600  0.467600  0.212600  1.0  0.3716
  C  C503  1  0.263300  0.785900  0.921700  1.0  -0.1502
  C  C504  1  0.288900  0.835000  0.901400  1.0  -0.1166
  C  C505  1  0.343000  0.853400  0.923500  1.0  -0.1267
  C  C506  1  0.366300  0.823400  0.968200  1.0  -0.0981
  C  C507  1  0.242900  0.534700  0.877100  1.0  0.1284
  C  C508  1  0.287000  0.515900  0.916400  1.0  -0.0339
  C  C509  1  0.309900  0.550500  0.961800  1.0  0.3366
  C  C510  1  0.353200  0.527900  0.997000  1.0  -0.1749
  C  C511  1  0.372500  0.471100  0.988300  1.0  -0.0303
  C  C512  1  0.351300  0.437800  0.944600  1.0  -0.0936
  C  C513  1  0.309100  0.460700  0.908600  1.0  -0.1047
  C  C514  1  0.245800  0.463600  0.628300  1.0  0.1683
  C  C515  1  0.273400  0.509200  0.659200  1.0  -0.0855
  C  C516  1  0.254400  0.532400  0.712600  1.0  0.3708
  C  C517  1  0.236700  0.214100  0.421700  1.0  -0.1509
  C  C518  1  0.211100  0.165000  0.401400  1.0  -0.1157
  C  C519  1  0.157000  0.146600  0.423500  1.0  -0.1268
  C  C520  1  0.133700  0.176600  0.468200  1.0  -0.0992
  C  C521  1  0.122900  0.742900  0.965300  1.0  0.1308
  C  C522  1  0.083600  0.787000  0.984100  1.0  -0.0335
  C  C523  1  0.038200  0.809900  0.949500  1.0  0.347
  C  C524  1  0.003000  0.853200  0.972100  1.0  -0.1754
  C  C525  1  0.011700  0.872500  0.028900  1.0  -0.0322
  C  C526  1  0.055400  0.851300  0.062200  1.0  -0.0914
  C  C527  1  0.091400  0.809100  0.039300  1.0  -0.1002
  C  C528  1  0.371700  0.745800  0.036400  1.0  0.1671
  C  C529  1  0.340800  0.773400  0.990800  1.0  -0.0864
  C  C530  1  0.287400  0.754400  0.967600  1.0  0.3764
  C  C531  1  0.578300  0.736700  0.285900  1.0  -0.1494
  C  C532  1  0.598600  0.711100  0.335000  1.0  -0.1143
  C  C533  1  0.576500  0.657000  0.353400  1.0  -0.1263
  C  C534  1  0.531800  0.633700  0.323400  1.0  -0.1021
  C  C535  1  0.622900  0.757100  0.034700  1.0  0.1303
  C  C536  1  0.583600  0.713000  0.015900  1.0  -0.0322
  C  C537  1  0.538200  0.690100  0.050500  1.0  0.3453
  C  C538  1  0.503000  0.646800  0.027900  1.0  -0.1749
  C  C539  1  0.511700  0.627500  0.971100  1.0  -0.0339
  C  C540  1  0.555400  0.648700  0.937800  1.0  -0.0915
  C  C541  1  0.591400  0.690900  0.960700  1.0  -0.1004
  C  C542  1  0.871700  0.754200  0.963600  1.0  0.1676
  C  C543  1  0.840800  0.726600  0.009200  1.0  -0.0859
  C  C544  1  0.787400  0.745600  0.032400  1.0  0.3764
  C  C545  1  0.078300  0.763300  0.714100  1.0  -0.1485
  C  C546  1  0.098600  0.788900  0.665000  1.0  -0.115
  C  C547  1  0.076500  0.843000  0.646600  1.0  -0.1243
  C  C548  1  0.031800  0.866300  0.676600  1.0  -0.1037
  C  C549  1  0.377100  0.257100  0.465300  1.0  0.1303
  C  C550  1  0.416400  0.213000  0.484100  1.0  -0.0326
  C  C551  1  0.461800  0.190100  0.449500  1.0  0.3464
  C  C552  1  0.497000  0.146800  0.472100  1.0  -0.1758
  C  C553  1  0.488300  0.127500  0.528900  1.0  -0.0312
  C  C554  1  0.444600  0.148700  0.562200  1.0  -0.092
  C  C555  1  0.408600  0.190900  0.539300  1.0  -0.1012
  C  C556  1  0.128300  0.254200  0.536400  1.0  0.1679
  C  C557  1  0.159200  0.226600  0.490800  1.0  -0.0855
  C  C558  1  0.212600  0.245600  0.467600  1.0  0.3766
  C  C559  1  0.921700  0.263300  0.785900  1.0  -0.1493
  C  C560  1  0.901400  0.288900  0.835000  1.0  -0.1162
  C  C561  1  0.923500  0.343000  0.853400  1.0  -0.1275
  C  C562  1  0.968200  0.366300  0.823400  1.0  -0.1025
  C  C563  1  0.877100  0.242900  0.534700  1.0  0.1306
  C  C564  1  0.916400  0.287000  0.515900  1.0  -0.0328
  C  C565  1  0.961800  0.309900  0.550500  1.0  0.3459
  C  C566  1  0.997000  0.353200  0.527900  1.0  -0.1755
  C  C567  1  0.988300  0.372500  0.471100  1.0  -0.0313
  C  C568  1  0.944600  0.351300  0.437800  1.0  -0.0909
  C  C569  1  0.908600  0.309100  0.460700  1.0  -0.0998
  C  C570  1  0.628300  0.245800  0.463600  1.0  0.1677
  C  C571  1  0.659200  0.273400  0.509200  1.0  -0.0861
  C  C572  1  0.712600  0.254400  0.532400  1.0  0.3756
  C  C573  1  0.421700  0.236700  0.214100  1.0  -0.1499
  C  C574  1  0.401400  0.211100  0.165000  1.0  -0.1161
  C  C575  1  0.423500  0.157000  0.146600  1.0  -0.1243
  C  C576  1  0.468200  0.133700  0.176600  1.0  -0.103
  C  C577  1  0.965300  0.122900  0.742900  1.0  0.1278
  C  C578  1  0.984100  0.083600  0.787000  1.0  -0.0347
  C  C579  1  0.949500  0.038200  0.809900  1.0  0.3399
  C  C580  1  0.972100  0.003000  0.853200  1.0  -0.1781
  C  C581  1  0.028900  0.011700  0.872500  1.0  -0.0307
  C  C582  1  0.062200  0.055400  0.851300  1.0  -0.0945
  C  C583  1  0.039300  0.091400  0.809100  1.0  -0.0986
  C  C584  1  0.036400  0.371700  0.745800  1.0  0.1678
  C  C585  1  0.990800  0.340800  0.773400  1.0  -0.0843
  C  C586  1  0.967600  0.287400  0.754400  1.0  0.3769
  C  C587  1  0.285900  0.578300  0.736700  1.0  -0.1511
  C  C588  1  0.335000  0.598600  0.711100  1.0  -0.1158
  C  C589  1  0.353400  0.576500  0.657000  1.0  -0.1237
  C  C590  1  0.323400  0.531800  0.633700  1.0  -0.1048
  C  C591  1  0.034700  0.622900  0.757100  1.0  0.1287
  C  C592  1  0.015900  0.583600  0.713000  1.0  -0.0347
  C  C593  1  0.050500  0.538200  0.690100  1.0  0.341
  C  C594  1  0.027900  0.503000  0.646800  1.0  -0.1782
  C  C595  1  0.971100  0.511700  0.627500  1.0  -0.031
  C  C596  1  0.937800  0.555400  0.648700  1.0  -0.094
  C  C597  1  0.960700  0.591400  0.690900  1.0  -0.099
  C  C598  1  0.963600  0.871700  0.754200  1.0  0.1681
  C  C599  1  0.009200  0.840800  0.726600  1.0  -0.0848
  C  C600  1  0.032400  0.787400  0.745600  1.0  0.3768
  C  C601  1  0.714100  0.078300  0.763300  1.0  -0.1507
  C  C602  1  0.665000  0.098600  0.788900  1.0  -0.1165
  C  C603  1  0.646600  0.076500  0.843000  1.0  -0.1249
  C  C604  1  0.676600  0.031800  0.866300  1.0  -0.1032
  C  C605  1  0.465300  0.377100  0.257100  1.0  0.1286
  C  C606  1  0.484100  0.416400  0.213000  1.0  -0.0342
  C  C607  1  0.449500  0.461800  0.190100  1.0  0.34
  C  C608  1  0.472100  0.497000  0.146800  1.0  -0.1785
  C  C609  1  0.528900  0.488300  0.127500  1.0  -0.0302
  C  C610  1  0.562200  0.444600  0.148700  1.0  -0.0947
  C  C611  1  0.539300  0.408600  0.190900  1.0  -0.0993
  C  C612  1  0.536400  0.128300  0.254200  1.0  0.1685
  C  C613  1  0.490800  0.159200  0.226600  1.0  -0.0846
  C  C614  1  0.467600  0.212600  0.245600  1.0  0.3769
  C  C615  1  0.785900  0.921700  0.263300  1.0  -0.1523
  C  C616  1  0.835000  0.901400  0.288900  1.0  -0.1158
  C  C617  1  0.853400  0.923500  0.343000  1.0  -0.1236
  C  C618  1  0.823400  0.968200  0.366300  1.0  -0.1023
  C  C619  1  0.534700  0.877100  0.242900  1.0  0.1289
  C  C620  1  0.515900  0.916400  0.287000  1.0  -0.0346
  C  C621  1  0.550500  0.961800  0.309900  1.0  0.3406
  C  C622  1  0.527900  0.997000  0.353200  1.0  -0.1781
  C  C623  1  0.471100  0.988300  0.372500  1.0  -0.0305
  C  C624  1  0.437800  0.944600  0.351300  1.0  -0.0948
  C  C625  1  0.460700  0.908600  0.309100  1.0  -0.0999
  C  C626  1  0.463600  0.628300  0.245800  1.0  0.1679
  C  C627  1  0.509200  0.659200  0.273400  1.0  -0.084
  C  C628  1  0.532400  0.712600  0.254400  1.0  0.3772
  C  C629  1  0.214100  0.421700  0.236700  1.0  -0.1497
  C  C630  1  0.165000  0.401400  0.211100  1.0  -0.1166
  C  C631  1  0.146600  0.423500  0.157000  1.0  -0.1242
  C  C632  1  0.176600  0.468200  0.133700  1.0  -0.1043
  C  C633  1  0.643500  0.856500  0.143500  1.0  0.4421
  C  C634  1  0.856500  0.143500  0.643500  1.0  0.4422
  C  C635  1  0.356500  0.356500  0.356500  1.0  0.4422
  C  C636  1  0.143500  0.643500  0.856500  1.0  0.4419
  C  C637  1  0.636600  0.136600  0.363400  1.0  0.5066
  C  C638  1  0.863400  0.863400  0.863400  1.0  0.5065
  C  C639  1  0.363400  0.636600  0.136600  1.0  0.507
  C  C640  1  0.136600  0.363400  0.636600  1.0  0.5056
  N  N641  1  0.340700  0.173600  0.903600  1.0  -0.3394
  N  N642  1  0.284000  0.083600  0.880700  1.0  -0.292
  N  N643  1  0.388300  0.886700  0.683300  1.0  -0.3005
  N  N644  1  0.297700  0.933700  0.647100  1.0  -0.2273
  N  N645  1  0.159300  0.826400  0.403600  1.0  -0.3411
  N  N646  1  0.216000  0.916400  0.380700  1.0  -0.2916
  N  N647  1  0.111700  0.113300  0.183300  1.0  -0.3021
  N  N648  1  0.202300  0.066300  0.147100  1.0  -0.2279
  N  N649  1  0.659300  0.673600  0.596400  1.0  -0.3404
  N  N650  1  0.716000  0.583600  0.619300  1.0  -0.2919
  N  N651  1  0.611700  0.386700  0.816700  1.0  -0.3015
  N  N652  1  0.702300  0.433700  0.852900  1.0  -0.2276
  N  N653  1  0.840700  0.326400  0.096400  1.0  -0.3393
  N  N654  1  0.784000  0.416400  0.119300  1.0  -0.2925
  N  N655  1  0.888300  0.613300  0.316700  1.0  -0.3025
  N  N656  1  0.797700  0.566300  0.352900  1.0  -0.2279
  N  N657  1  0.903600  0.340700  0.173600  1.0  -0.3341
  N  N658  1  0.880700  0.284000  0.083600  1.0  -0.2899
  N  N659  1  0.683300  0.388300  0.886700  1.0  -0.3005
  N  N660  1  0.647100  0.297700  0.933700  1.0  -0.228
  N  N661  1  0.403600  0.159300  0.826400  1.0  -0.3338
  N  N662  1  0.380700  0.216000  0.916400  1.0  -0.2897
  N  N663  1  0.183300  0.111700  0.113300  1.0  -0.3009
  N  N664  1  0.147100  0.202300  0.066300  1.0  -0.2272
  N  N665  1  0.596400  0.659300  0.673600  1.0  -0.3355
  N  N666  1  0.619300  0.716000  0.583600  1.0  -0.2911
  N  N667  1  0.816700  0.611700  0.386700  1.0  -0.3018
  N  N668  1  0.852900  0.702300  0.433700  1.0  -0.2289
  N  N669  1  0.096400  0.840700  0.326400  1.0  -0.3355
  N  N670  1  0.119300  0.784000  0.416400  1.0  -0.2916
  N  N671  1  0.316700  0.888300  0.613300  1.0  -0.3014
  N  N672  1  0.352900  0.797700  0.566300  1.0  -0.2278
  N  N673  1  0.173600  0.903600  0.340700  1.0  -0.339
  N  N674  1  0.083600  0.880700  0.284000  1.0  -0.2904
  N  N675  1  0.886700  0.683300  0.388300  1.0  -0.3006
  N  N676  1  0.933700  0.647100  0.297700  1.0  -0.2279
  N  N677  1  0.826400  0.403600  0.159300  1.0  -0.3399
  N  N678  1  0.916400  0.380700  0.216000  1.0  -0.2906
  N  N679  1  0.113300  0.183300  0.111700  1.0  -0.3018
  N  N680  1  0.066300  0.147100  0.202300  1.0  -0.2269
  N  N681  1  0.673600  0.596400  0.659300  1.0  -0.3393
  N  N682  1  0.583600  0.619300  0.716000  1.0  -0.2894
  N  N683  1  0.386700  0.816700  0.611700  1.0  -0.3007
  N  N684  1  0.433700  0.852900  0.702300  1.0  -0.2268
  N  N685  1  0.326400  0.096400  0.840700  1.0  -0.3396
  N  N686  1  0.416400  0.119300  0.784000  1.0  -0.2901
  N  N687  1  0.613300  0.316700  0.888300  1.0  -0.3017
  N  N688  1  0.566300  0.352900  0.797700  1.0  -0.2266
  N  N689  1  0.659300  0.826400  0.096400  1.0  -0.3409
  N  N690  1  0.716000  0.916400  0.119300  1.0  -0.2928
  N  N691  1  0.611700  0.113300  0.316700  1.0  -0.3027
  N  N692  1  0.702300  0.066300  0.352900  1.0  -0.228
  N  N693  1  0.840700  0.173600  0.596400  1.0  -0.3389
  N  N694  1  0.784000  0.083600  0.619300  1.0  -0.2921
  N  N695  1  0.888300  0.886700  0.816700  1.0  -0.3014
  N  N696  1  0.797700  0.933700  0.852900  1.0  -0.2275
  N  N697  1  0.340700  0.326400  0.403600  1.0  -0.3397
  N  N698  1  0.284000  0.416400  0.380700  1.0  -0.2912
  N  N699  1  0.388300  0.613300  0.183300  1.0  -0.3021
  N  N700  1  0.297700  0.566300  0.147100  1.0  -0.2282
  N  N701  1  0.159300  0.673600  0.903600  1.0  -0.3405
  N  N702  1  0.216000  0.583600  0.880700  1.0  -0.2919
  N  N703  1  0.111700  0.386700  0.683300  1.0  -0.3006
  N  N704  1  0.202300  0.433700  0.647100  1.0  -0.2271
  N  N705  1  0.096400  0.659300  0.826400  1.0  -0.3353
  N  N706  1  0.119300  0.716000  0.916400  1.0  -0.2915
  N  N707  1  0.316700  0.611700  0.113300  1.0  -0.3016
  N  N708  1  0.352900  0.702300  0.066300  1.0  -0.2283
  N  N709  1  0.596400  0.840700  0.173600  1.0  -0.3358
  N  N710  1  0.619300  0.784000  0.083600  1.0  -0.2913
  N  N711  1  0.816700  0.888300  0.886700  1.0  -0.3015
  N  N712  1  0.852900  0.797700  0.933700  1.0  -0.2286
  N  N713  1  0.403600  0.340700  0.326400  1.0  -0.3338
  N  N714  1  0.380700  0.284000  0.416400  1.0  -0.2903
  N  N715  1  0.183300  0.388300  0.613300  1.0  -0.3004
  N  N716  1  0.147100  0.297700  0.566300  1.0  -0.2275
  N  N717  1  0.903600  0.159300  0.673600  1.0  -0.334
  N  N718  1  0.880700  0.216000  0.583600  1.0  -0.2891
  N  N719  1  0.683300  0.111700  0.386700  1.0  -0.3013
  N  N720  1  0.647100  0.202300  0.433700  1.0  -0.2274
  N  N721  1  0.826400  0.096400  0.659300  1.0  -0.34
  N  N722  1  0.916400  0.119300  0.716000  1.0  -0.2901
  N  N723  1  0.113300  0.316700  0.611700  1.0  -0.3013
  N  N724  1  0.066300  0.352900  0.702300  1.0  -0.226
  N  N725  1  0.173600  0.596400  0.840700  1.0  -0.3391
  N  N726  1  0.083600  0.619300  0.784000  1.0  -0.2894
  N  N727  1  0.886700  0.816700  0.888300  1.0  -0.3007
  N  N728  1  0.933700  0.852900  0.797700  1.0  -0.2277
  N  N729  1  0.326400  0.403600  0.340700  1.0  -0.3395
  N  N730  1  0.416400  0.380700  0.284000  1.0  -0.2907
  N  N731  1  0.613300  0.183300  0.388300  1.0  -0.3017
  N  N732  1  0.566300  0.147100  0.297700  1.0  -0.2278
  N  N733  1  0.673600  0.903600  0.159300  1.0  -0.3393
  N  N734  1  0.583600  0.880700  0.216000  1.0  -0.2903
  N  N735  1  0.386700  0.683300  0.111700  1.0  -0.3011
  N  N736  1  0.433700  0.647100  0.202300  1.0  -0.2268
  Cl  Cl737  1  0.312200  0.133900  0.058900  1.0  0.0216
  Cl  Cl738  1  0.187800  0.866100  0.558900  1.0  0.0204
  Cl  Cl739  1  0.687800  0.633900  0.441100  1.0  0.023
  Cl  Cl740  1  0.812200  0.366100  0.941100  1.0  0.0186
  Cl  Cl741  1  0.058900  0.312200  0.133900  1.0  0.0197
  Cl  Cl742  1  0.558900  0.187800  0.866100  1.0  0.0203
  Cl  Cl743  1  0.441100  0.687800  0.633900  1.0  0.0208
  Cl  Cl744  1  0.941100  0.812200  0.366100  1.0  0.0209
  Cl  Cl745  1  0.133900  0.058900  0.312200  1.0  0.0213
  Cl  Cl746  1  0.866100  0.558900  0.187800  1.0  0.0211
  Cl  Cl747  1  0.633900  0.441100  0.687800  1.0  0.0232
  Cl  Cl748  1  0.366100  0.941100  0.812200  1.0  0.0228
  Cl  Cl749  1  0.687800  0.866100  0.941100  1.0  0.0211
  Cl  Cl750  1  0.812200  0.133900  0.441100  1.0  0.0204
  Cl  Cl751  1  0.312200  0.366100  0.558900  1.0  0.0186
  Cl  Cl752  1  0.187800  0.633900  0.058900  1.0  0.0235
  Cl  Cl753  1  0.941100  0.687800  0.866100  1.0  0.0218
  Cl  Cl754  1  0.441100  0.812200  0.133900  1.0  0.0211
  Cl  Cl755  1  0.558900  0.312200  0.366100  1.0  0.0191
  Cl  Cl756  1  0.058900  0.187800  0.633900  1.0  0.0194
  Cl  Cl757  1  0.866100  0.941100  0.687800  1.0  0.0224
  Cl  Cl758  1  0.133900  0.441100  0.812200  1.0  0.0226
  Cl  Cl759  1  0.366100  0.558900  0.312200  1.0  0.0218
  Cl  Cl760  1  0.633900  0.058900  0.187800  1.0  0.0207
  O  O761  1  0.206500  0.104200  0.971200  1.0  -0.6258
  O  O762  1  0.311300  0.141200  0.047300  1.0  -0.8306
  O  O763  1  0.291400  0.013100  0.739800  1.0  -0.6376
  O  O764  1  0.293500  0.895800  0.471200  1.0  -0.6256
  O  O765  1  0.188700  0.858800  0.547300  1.0  -0.8299
  O  O766  1  0.208600  0.986900  0.239800  1.0  -0.6387
  O  O767  1  0.793500  0.604200  0.528800  1.0  -0.6252
  O  O768  1  0.688700  0.641200  0.452700  1.0  -0.8318
  O  O769  1  0.708600  0.513100  0.760200  1.0  -0.6388
  O  O770  1  0.706500  0.395800  0.028800  1.0  -0.6263
  O  O771  1  0.811300  0.358800  0.952700  1.0  -0.8294
  O  O772  1  0.791400  0.486900  0.260200  1.0  -0.6379
  O  O773  1  0.971200  0.206500  0.104200  1.0  -0.6284
  O  O774  1  0.047300  0.311300  0.141200  1.0  -0.8313
  O  O775  1  0.739800  0.291400  0.013100  1.0  -0.6337
  O  O776  1  0.471200  0.293500  0.895800  1.0  -0.6293
  O  O777  1  0.547300  0.188700  0.858800  1.0  -0.8316
  O  O778  1  0.239800  0.208600  0.986900  1.0  -0.6341
  O  O779  1  0.528800  0.793500  0.604200  1.0  -0.6278
  O  O780  1  0.452700  0.688700  0.641200  1.0  -0.8301
  O  O781  1  0.760200  0.708600  0.513100  1.0  -0.6353
  O  O782  1  0.028800  0.706500  0.395800  1.0  -0.6296
  O  O783  1  0.952700  0.811300  0.358800  1.0  -0.8307
  O  O784  1  0.260200  0.791400  0.486900  1.0  -0.6347
  O  O785  1  0.104200  0.971200  0.206500  1.0  -0.6256
  O  O786  1  0.141200  0.047300  0.311300  1.0  -0.8182
  O  O787  1  0.013100  0.739800  0.291400  1.0  -0.6359
  O  O788  1  0.895800  0.471200  0.293500  1.0  -0.6262
  O  O789  1  0.858800  0.547300  0.188700  1.0  -0.8147
  O  O790  1  0.986900  0.239800  0.208600  1.0  -0.6358
  O  O791  1  0.604200  0.528800  0.793500  1.0  -0.6254
  O  O792  1  0.641200  0.452700  0.688700  1.0  -0.8182
  O  O793  1  0.513100  0.760200  0.708600  1.0  -0.636
  O  O794  1  0.395800  0.028800  0.706500  1.0  -0.6259
  O  O795  1  0.358800  0.952700  0.811300  1.0  -0.8165
  O  O796  1  0.486900  0.260200  0.791400  1.0  -0.6358
  O  O797  1  0.793500  0.895800  0.028800  1.0  -0.6256
  O  O798  1  0.688700  0.858800  0.952700  1.0  -0.8293
  O  O799  1  0.708600  0.986900  0.260200  1.0  -0.6389
  O  O800  1  0.706500  0.104200  0.528800  1.0  -0.6261
  O  O801  1  0.811300  0.141200  0.452700  1.0  -0.8311
  O  O802  1  0.791400  0.013100  0.760200  1.0  -0.6378
  O  O803  1  0.206500  0.395800  0.471200  1.0  -0.6263
  O  O804  1  0.311300  0.358800  0.547300  1.0  -0.8299
  O  O805  1  0.291400  0.486900  0.239800  1.0  -0.6377
  O  O806  1  0.293500  0.604200  0.971200  1.0  -0.625
  O  O807  1  0.188700  0.641200  0.047300  1.0  -0.8313
  O  O808  1  0.208600  0.513100  0.739800  1.0  -0.6387
  O  O809  1  0.028800  0.793500  0.895800  1.0  -0.6292
  O  O810  1  0.952700  0.688700  0.858800  1.0  -0.8303
  O  O811  1  0.260200  0.708600  0.986900  1.0  -0.6352
  O  O812  1  0.528800  0.706500  0.104200  1.0  -0.6282
  O  O813  1  0.452700  0.811300  0.141200  1.0  -0.8312
  O  O814  1  0.760200  0.791400  0.013100  1.0  -0.635
  O  O815  1  0.471200  0.206500  0.395800  1.0  -0.6296
  O  O816  1  0.547300  0.311300  0.358800  1.0  -0.8309
  O  O817  1  0.239800  0.291400  0.486900  1.0  -0.6336
  O  O818  1  0.971200  0.293500  0.604200  1.0  -0.6281
  O  O819  1  0.047300  0.188700  0.641200  1.0  -0.8311
  O  O820  1  0.739800  0.208600  0.513100  1.0  -0.6341
  O  O821  1  0.895800  0.028800  0.793500  1.0  -0.626
  O  O822  1  0.858800  0.952700  0.688700  1.0  -0.8156
  O  O823  1  0.986900  0.260200  0.708600  1.0  -0.636
  O  O824  1  0.104200  0.528800  0.706500  1.0  -0.6253
  O  O825  1  0.141200  0.452700  0.811300  1.0  -0.8182
  O  O826  1  0.013100  0.760200  0.791400  1.0  -0.6359
  O  O827  1  0.395800  0.471200  0.206500  1.0  -0.6262
  O  O828  1  0.358800  0.547300  0.311300  1.0  -0.8165
  O  O829  1  0.486900  0.239800  0.291400  1.0  -0.6357
  O  O830  1  0.604200  0.971200  0.293500  1.0  -0.6257
  O  O831  1  0.641200  0.047300  0.188700  1.0  -0.8179
  O  O832  1  0.513100  0.739800  0.208600  1.0  -0.6359
