# generated using pymatgen
data_Fe12H163C234(N6O13)4
_symmetry_space_group_name_H-M   'P 1'
_cell_length_a   22.66100000
_cell_length_b   32.05000000
_cell_length_c   41.94000000
_cell_angle_alpha   90.00000000
_cell_angle_beta   90.00000000
_cell_angle_gamma   90.00000000
_symmetry_Int_Tables_number   1
_chemical_formula_structural   Fe12H163C234(N6O13)4
_chemical_formula_sum   'Fe48 H652 C936 N96 O208'
_cell_volume   30460.39499700
_cell_formula_units_Z   4
loop_
 _symmetry_equiv_pos_site_id
 _symmetry_equiv_pos_as_xyz
  1  'x, y, z'
loop_
 _atom_site_type_symbol
 _atom_site_label
 _atom_site_symmetry_multiplicity
 _atom_site_fract_x
 _atom_site_fract_y
 _atom_site_fract_z
 _atom_site_occupancy
 _atom_site_charge
  Fe  Fe1  1  0.465930  0.362570  0.011450  1.0  0.9982
  Fe  Fe2  1  0.837550  0.109650  0.959980  1.0  0.9902
  Fe  Fe3  1  0.399970  0.447610  0.984600  1.0  1.0573
  Fe  Fe4  1  0.098500  0.389730  0.775380  1.0  1.0172
  Fe  Fe5  1  0.075430  0.362630  0.701490  1.0  1.0462
  Fe  Fe6  1  0.031420  0.906500  0.757580  1.0  0.9491
  Fe  Fe7  1  0.693240  0.383760  0.538160  1.0  1.0212
  Fe  Fe8  1  0.070330  0.157350  0.486950  1.0  1.1086
  Fe  Fe9  1  0.120570  0.071630  0.520290  1.0  1.0244
  Fe  Fe10  1  0.439060  0.152510  0.807590  1.0  0.9406
  Fe  Fe11  1  0.462980  0.619780  0.745000  1.0  1.0305
  Fe  Fe12  1  0.398180  0.136580  0.734770  1.0  1.041
  Fe  Fe13  1  0.034070  0.637430  0.511450  1.0  0.9983
  Fe  Fe14  1  0.662450  0.890350  0.459980  1.0  0.9916
  Fe  Fe15  1  0.100030  0.552390  0.484600  1.0  1.0565
  Fe  Fe16  1  0.401500  0.610270  0.275380  1.0  1.0152
  Fe  Fe17  1  0.424570  0.637370  0.201490  1.0  1.0449
  Fe  Fe18  1  0.468580  0.093500  0.257580  1.0  0.9474
  Fe  Fe19  1  0.806760  0.616240  0.038160  1.0  1.0194
  Fe  Fe20  1  0.429670  0.842650  0.986950  1.0  1.1096
  Fe  Fe21  1  0.379430  0.928370  0.020290  1.0  1.0227
  Fe  Fe22  1  0.060940  0.847490  0.307590  1.0  0.9427
  Fe  Fe23  1  0.037020  0.380220  0.245000  1.0  1.03
  Fe  Fe24  1  0.101820  0.863420  0.234770  1.0  1.0429
  Fe  Fe25  1  0.534070  0.862570  0.488550  1.0  0.9987
  Fe  Fe26  1  0.162450  0.609650  0.540020  1.0  0.9914
  Fe  Fe27  1  0.600030  0.947610  0.515400  1.0  1.0566
  Fe  Fe28  1  0.901500  0.889730  0.724620  1.0  1.0158
  Fe  Fe29  1  0.924570  0.862630  0.798510  1.0  1.0451
  Fe  Fe30  1  0.968580  0.406500  0.742420  1.0  0.9428
  Fe  Fe31  1  0.306760  0.883760  0.961840  1.0  1.0192
  Fe  Fe32  1  0.929670  0.657350  0.013050  1.0  1.1128
  Fe  Fe33  1  0.879430  0.571630  0.979710  1.0  1.0229
  Fe  Fe34  1  0.560940  0.652510  0.692410  1.0  0.9427
  Fe  Fe35  1  0.537020  0.119780  0.755000  1.0  1.029
  Fe  Fe36  1  0.601820  0.636580  0.765230  1.0  1.0424
  Fe  Fe37  1  0.965930  0.137430  0.988550  1.0  0.9979
  Fe  Fe38  1  0.337550  0.390350  0.040020  1.0  0.99
  Fe  Fe39  1  0.899970  0.052390  0.015400  1.0  1.0575
  Fe  Fe40  1  0.598500  0.110270  0.224620  1.0  1.0173
  Fe  Fe41  1  0.575430  0.137370  0.298510  1.0  1.0464
  Fe  Fe42  1  0.531420  0.593500  0.242420  1.0  0.9457
  Fe  Fe43  1  0.193240  0.116240  0.461840  1.0  1.0213
  Fe  Fe44  1  0.570330  0.342650  0.513050  1.0  1.1121
  Fe  Fe45  1  0.620570  0.428370  0.479710  1.0  1.0242
  Fe  Fe46  1  0.939060  0.347490  0.192410  1.0  0.9402
  Fe  Fe47  1  0.962980  0.880220  0.255000  1.0  1.0296
  Fe  Fe48  1  0.898180  0.363420  0.265230  1.0  1.0408
  H  H49  1  0.425900  0.235600  0.007600  1.0  0.1038
  H  H50  1  0.406400  0.164700  0.000500  1.0  0.1361
  H  H51  1  0.316300  0.148300  0.020500  1.0  0.1065
  H  H52  1  0.240200  0.189100  0.041800  1.0  0.1973
  H  H53  1  0.268100  0.261000  0.040000  1.0  0.1222
  H  H54  1  0.544100  0.347900  0.095900  1.0  0.1184
  H  H55  1  0.593700  0.353700  0.147600  1.0  0.1158
  H  H56  1  0.540400  0.366600  0.192300  1.0  0.1072
  H  H57  1  0.450900  0.402000  0.190100  1.0  0.1389
  H  H58  1  0.406300  0.406500  0.135400  1.0  0.1278
  H  H59  1  0.794500  0.001900  0.902800  1.0  0.1005
  H  H60  1  0.783500  0.943900  0.869300  1.0  0.1393
  H  H61  1  0.789300  0.886200  0.890400  1.0  0.1323
  H  H62  1  0.834600  0.873400  0.940700  1.0  0.1757
  H  H63  1  0.861100  0.934600  0.973400  1.0  0.1396
  H  H64  1  0.487500  0.309300  0.917100  1.0  0.0918
  H  H65  1  0.482600  0.276900  0.868700  1.0  0.136
  H  H66  1  0.443500  0.320600  0.830900  1.0  0.0952
  H  H67  1  0.417300  0.389500  0.833600  1.0  0.1363
  H  H68  1  0.394800  0.403900  0.888600  1.0  0.1049
  H  H69  1  0.619800  0.430500  0.041000  1.0  0.0933
  H  H70  1  0.686600  0.467400  0.067400  1.0  0.1176
  H  H71  1  0.698600  0.534200  0.049500  1.0  0.0811
  H  H72  1  0.635700  0.562900  0.013100  1.0  0.1116
  H  H73  1  0.568100  0.521700  0.991300  1.0  0.0955
  H  H74  1  0.790600  0.084500  0.892800  1.0  0.092
  H  H75  1  0.719700  0.096700  0.855700  1.0  0.1233
  H  H76  1  0.642700  0.130600  0.875100  1.0  0.0641
  H  H77  1  0.723600  0.158600  0.954900  1.0  0.0875
  H  H78  1  0.513400  0.285800  0.974700  1.0  0.123
  H  H79  1  0.671300  0.250400  0.998000  1.0  0.1176
  H  H80  1  0.671600  0.304000  0.033700  1.0  0.1079
  H  H81  1  0.590800  0.347700  0.041500  1.0  0.0883
  H  H82  1  0.439400  0.540200  0.975500  1.0  0.0927
  H  H83  1  0.433100  0.594200  0.940000  1.0  0.1144
  H  H84  1  0.383600  0.582600  0.888500  1.0  0.1332
  H  H85  1  0.350500  0.470600  0.918900  1.0  0.0669
  H  H86  1  0.250700  0.405100  0.885300  1.0  0.1265
  H  H87  1  0.190600  0.353700  0.883700  1.0  0.1297
  H  H88  1  0.129500  0.343000  0.839800  1.0  0.1215
  H  H89  1  0.193900  0.444300  0.802700  1.0  0.1221
  H  H90  1  0.025800  0.364500  0.866800  1.0  0.1194
  H  H91  1  0.976100  0.347500  0.916500  1.0  0.1398
  H  H92  1  0.881900  0.338600  0.915700  1.0  0.1131
  H  H93  1  0.831200  0.337300  0.869200  1.0  0.1187
  H  H94  1  0.869600  0.371300  0.825500  1.0  0.1325
  H  H95  1  0.132900  0.533000  0.783400  1.0  0.1182
  H  H96  1  0.139200  0.607400  0.782300  1.0  0.1591
  H  H97  1  0.045700  0.637100  0.772200  1.0  0.1395
  H  H98  1  0.961300  0.604400  0.760100  1.0  0.1294
  H  H99  1  0.955300  0.530400  0.765600  1.0  0.1378
  H  H100  1  0.079600  0.466900  0.632100  1.0  0.1308
  H  H101  1  0.067700  0.514500  0.592500  1.0  0.0981
  H  H102  1  0.981800  0.555200  0.585300  1.0  0.138
  H  H103  1  0.906800  0.520800  0.611200  1.0  0.1193
  H  H104  1  0.910100  0.486000  0.661500  1.0  0.1493
  H  H105  1  0.939900  0.286400  0.643300  1.0  0.1189
  H  H106  1  0.860500  0.261900  0.606500  1.0  0.1315
  H  H107  1  0.765100  0.284000  0.622100  1.0  0.1154
  H  H108  1  0.745600  0.310000  0.671700  1.0  0.1165
  H  H109  1  0.824000  0.343300  0.703600  1.0  0.1347
  H  H110  1  0.275200  0.447400  0.755100  1.0  0.1184
  H  H111  1  0.360000  0.477300  0.744400  1.0  0.1225
  H  H112  1  0.396400  0.462600  0.693200  1.0  0.1129
  H  H113  1  0.353700  0.407900  0.662600  1.0  0.1242
  H  H114  1  0.256200  0.397000  0.669400  1.0  0.1003
  H  H115  1  0.157700  0.270500  0.801000  1.0  0.108
  H  H116  1  0.186200  0.200700  0.813100  1.0  0.1422
  H  H117  1  0.199400  0.156400  0.770500  1.0  0.095
  H  H118  1  0.147200  0.169100  0.722900  1.0  0.1297
  H  H119  1  0.134800  0.241700  0.711800  1.0  0.1152
  H  H120  1  0.166300  0.307800  0.667400  1.0  0.1005
  H  H121  1  0.192500  0.276100  0.619200  1.0  0.1581
  H  H122  1  0.109200  0.272600  0.581500  1.0  0.1352
  H  H123  1  0.026300  0.356500  0.635500  1.0  0.1177
  H  H124  1  0.884700  0.283600  0.492600  1.0  0.1051
  H  H125  1  0.887600  0.242700  0.445500  1.0  0.1374
  H  H126  1  0.966500  0.197900  0.440400  1.0  0.1095
  H  H127  1  0.033700  0.238600  0.519200  1.0  0.1027
  H  H128  1  0.823200  0.350200  0.543600  1.0  0.1135
  H  H129  1  0.910100  0.395400  0.619800  1.0  0.1209
  H  H130  1  0.830700  0.435700  0.632200  1.0  0.1382
  H  H131  1  0.733200  0.412500  0.606800  1.0  0.1058
  H  H132  1  0.154400  0.909200  0.790200  1.0  0.0859
  H  H133  1  0.239000  0.954200  0.788400  1.0  0.1435
  H  H134  1  0.259600  0.981500  0.738800  1.0  0.0869
  H  H135  1  0.101600  0.949100  0.709400  1.0  0.0965
  H  H136  1  0.165200  0.054700  0.585600  1.0  0.1264
  H  H137  1  0.093700  0.951000  0.620500  1.0  0.1235
  H  H138  1  0.065000  0.934500  0.568700  1.0  0.1277
  H  H139  1  0.059900  0.986500  0.533100  1.0  0.1054
  H  H140  1  0.328700  0.195900  0.689800  1.0  0.0836
  H  H141  1  0.258300  0.195400  0.649600  1.0  0.1307
  H  H142  1  0.213000  0.131400  0.640200  1.0  0.0805
  H  H143  1  0.313700  0.079000  0.705500  1.0  0.1009
  H  H144  1  0.244400  0.059900  0.755600  1.0  0.1471
  H  H145  1  0.148100  0.047800  0.775700  1.0  0.1737
  H  H146  1  0.100500  0.060700  0.825000  1.0  0.1694
  H  H147  1  0.170400  0.092200  0.863200  1.0  0.126
  H  H148  1  0.264800  0.112100  0.846500  1.0  0.1324
  H  H149  1  0.625800  0.503400  0.781300  1.0  0.1259
  H  H150  1  0.645700  0.435200  0.768600  1.0  0.1227
  H  H151  1  0.571600  0.387600  0.748200  1.0  0.1567
  H  H152  1  0.483800  0.421400  0.730700  1.0  0.1274
  H  H153  1  0.462000  0.490600  0.741600  1.0  0.1129
  H  H154  1  0.290400  0.251500  0.729600  1.0  0.1144
  H  H155  1  0.248900  0.313900  0.727400  1.0  0.1177
  H  H156  1  0.256100  0.355700  0.769600  1.0  0.0958
  H  H157  1  0.300100  0.339900  0.817600  1.0  0.1242
  H  H158  1  0.335800  0.268800  0.819600  1.0  0.134
  H  H159  1  0.559200  0.700000  0.849800  1.0  0.1111
  H  H160  1  0.540400  0.718600  0.903100  1.0  0.1335
  H  H161  1  0.445500  0.704200  0.922600  1.0  0.1082
  H  H162  1  0.372400  0.668500  0.888800  1.0  0.1318
  H  H163  1  0.403300  0.649100  0.835700  1.0  0.1381
  H  H164  1  0.561800  0.225900  0.852100  1.0  0.1275
  H  H165  1  0.630900  0.273600  0.876200  1.0  0.1343
  H  H166  1  0.729800  0.268200  0.860100  1.0  0.1223
  H  H167  1  0.755600  0.225200  0.817800  1.0  0.1133
  H  H168  1  0.687200  0.185800  0.791800  1.0  0.1386
  H  H169  1  0.500600  0.075800  0.882900  1.0  0.1075
  H  H170  1  0.534600  0.030400  0.920000  1.0  0.1238
  H  H171  1  0.634500  0.000600  0.911900  1.0  0.1279
  H  H172  1  0.674400  0.009500  0.862400  1.0  0.0929
  H  H173  1  0.625800  0.043200  0.821700  1.0  0.1298
  H  H174  1  0.339900  0.605400  0.714000  1.0  0.083
  H  H175  1  0.245400  0.582100  0.723300  1.0  0.1273
  H  H176  1  0.236600  0.538800  0.766200  1.0  0.1004
  H  H177  1  0.398000  0.567700  0.798400  1.0  0.1235
  H  H178  1  0.339900  0.182700  0.853300  1.0  0.1002
  H  H179  1  0.339300  0.229200  0.901900  1.0  0.1251
  H  H180  1  0.419100  0.220800  0.933900  1.0  0.0661
  H  H181  1  0.511500  0.161800  0.868700  1.0  0.1395
  H  H182  1  0.191500  0.000800  0.404600  1.0  0.0931
  H  H183  1  0.182100  0.939100  0.378000  1.0  0.0959
  H  H184  1  0.113600  0.888800  0.392800  1.0  0.1127
  H  H185  1  0.066600  0.905200  0.435400  1.0  0.0894
  H  H186  1  0.095200  0.953700  0.468400  1.0  0.1108
  H  H187  1  0.648600  0.376200  0.636900  1.0  0.1092
  H  H188  1  0.632000  0.370800  0.690300  1.0  0.1373
  H  H189  1  0.574300  0.308900  0.699500  1.0  0.1674
  H  H190  1  0.499900  0.283400  0.663700  1.0  0.1483
  H  H191  1  0.514500  0.309700  0.607400  1.0  0.1096
  H  H192  1  0.964200  0.007900  0.505300  1.0  0.0879
  H  H193  1  0.874400  0.967900  0.495600  1.0  0.168
  H  H194  1  0.788400  0.008100  0.476100  1.0  0.1284
  H  H195  1  0.810600  0.072200  0.457600  1.0  0.102
  H  H196  1  0.890900  0.115800  0.471000  1.0  0.1669
  H  H197  1  0.045700  0.206200  0.576400  1.0  0.1153
  H  H198  1  0.093900  0.098600  0.616300  1.0  0.1122
  H  H199  1  0.084400  0.130900  0.667700  1.0  0.1195
  H  H200  1  0.043300  0.197800  0.671300  1.0  0.1179
  H  H201  1  0.030900  0.237300  0.626200  1.0  0.1322
  H  H202  1  0.763200  0.280700  0.531400  1.0  0.1768
  H  H203  1  0.836800  0.222900  0.537800  1.0  0.1839
  H  H204  1  0.781200  0.160500  0.530600  1.0  0.1245
  H  H205  1  0.684900  0.145300  0.529700  1.0  0.1315
  H  H206  1  0.614400  0.206700  0.522200  1.0  0.1999
  H  H207  1  0.275300  0.065100  0.581200  1.0  0.1144
  H  H208  1  0.340000  0.092500  0.621100  1.0  0.113
  H  H209  1  0.426000  0.109000  0.598000  1.0  0.1105
  H  H210  1  0.434400  0.144400  0.549500  1.0  0.1216
  H  H211  1  0.355700  0.133300  0.517200  1.0  0.0873
  H  H212  1  0.074100  0.764400  0.507600  1.0  0.1043
  H  H213  1  0.093600  0.835300  0.500500  1.0  0.1367
  H  H214  1  0.183700  0.851700  0.520500  1.0  0.1065
  H  H215  1  0.259800  0.810900  0.541800  1.0  0.1965
  H  H216  1  0.231900  0.739000  0.540000  1.0  0.1227
  H  H217  1  0.955900  0.652100  0.595900  1.0  0.1184
  H  H218  1  0.906300  0.646300  0.647600  1.0  0.1179
  H  H219  1  0.959600  0.633400  0.692300  1.0  0.1069
  H  H220  1  0.049100  0.598000  0.690100  1.0  0.1389
  H  H221  1  0.093700  0.593500  0.635400  1.0  0.1281
  H  H222  1  0.705500  0.998100  0.402800  1.0  0.1007
  H  H223  1  0.716500  0.056100  0.369300  1.0  0.1395
  H  H224  1  0.710700  0.113800  0.390400  1.0  0.1324
  H  H225  1  0.665400  0.126600  0.440700  1.0  0.1764
  H  H226  1  0.638900  0.065400  0.473400  1.0  0.14
  H  H227  1  0.012500  0.690700  0.417100  1.0  0.0917
  H  H228  1  0.017400  0.723100  0.368700  1.0  0.1351
  H  H229  1  0.056500  0.679400  0.330900  1.0  0.0937
  H  H230  1  0.082700  0.610500  0.333600  1.0  0.1352
  H  H231  1  0.105200  0.596100  0.388600  1.0  0.1051
  H  H232  1  0.880200  0.569500  0.541000  1.0  0.0935
  H  H233  1  0.813400  0.532600  0.567400  1.0  0.1177
  H  H234  1  0.801400  0.465800  0.549500  1.0  0.081
  H  H235  1  0.864300  0.437100  0.513100  1.0  0.1118
  H  H236  1  0.931900  0.478300  0.491300  1.0  0.0963
  H  H237  1  0.709400  0.915500  0.392800  1.0  0.0912
  H  H238  1  0.780300  0.903300  0.355700  1.0  0.123
  H  H239  1  0.857300  0.869400  0.375100  1.0  0.0643
  H  H240  1  0.776400  0.841400  0.454900  1.0  0.0882
  H  H241  1  0.986600  0.714200  0.474700  1.0  0.1228
  H  H242  1  0.828700  0.749600  0.498000  1.0  0.1178
  H  H243  1  0.828400  0.696000  0.533700  1.0  0.1092
  H  H244  1  0.909200  0.652300  0.541500  1.0  0.09
  H  H245  1  0.060600  0.459800  0.475500  1.0  0.0928
  H  H246  1  0.066900  0.405800  0.440000  1.0  0.1149
  H  H247  1  0.116400  0.417400  0.388500  1.0  0.1332
  H  H248  1  0.149500  0.529400  0.418900  1.0  0.067
  H  H249  1  0.249300  0.594900  0.385300  1.0  0.1265
  H  H250  1  0.309400  0.646300  0.383700  1.0  0.1296
  H  H251  1  0.370500  0.657000  0.339800  1.0  0.1216
  H  H252  1  0.306100  0.555700  0.302700  1.0  0.1226
  H  H253  1  0.474200  0.635500  0.366800  1.0  0.1197
  H  H254  1  0.523900  0.652500  0.416500  1.0  0.1403
  H  H255  1  0.618100  0.661400  0.415700  1.0  0.1131
  H  H256  1  0.668800  0.662700  0.369200  1.0  0.118
  H  H257  1  0.630400  0.628700  0.325500  1.0  0.1331
  H  H258  1  0.367100  0.467000  0.283400  1.0  0.1181
  H  H259  1  0.360800  0.392600  0.282300  1.0  0.1595
  H  H260  1  0.454300  0.362900  0.272200  1.0  0.136
  H  H261  1  0.538700  0.395600  0.260100  1.0  0.1289
  H  H262  1  0.544700  0.469600  0.265600  1.0  0.1379
  H  H263  1  0.420400  0.533100  0.132100  1.0  0.1304
  H  H264  1  0.432300  0.485500  0.092500  1.0  0.0989
  H  H265  1  0.518200  0.444800  0.085300  1.0  0.1376
  H  H266  1  0.593200  0.479200  0.111200  1.0  0.1194
  H  H267  1  0.589900  0.514000  0.161500  1.0  0.149
  H  H268  1  0.560100  0.713600  0.143300  1.0  0.1188
  H  H269  1  0.639500  0.738100  0.106500  1.0  0.1305
  H  H270  1  0.734900  0.716000  0.122100  1.0  0.1155
  H  H271  1  0.754400  0.690000  0.171700  1.0  0.1153
  H  H272  1  0.676000  0.656700  0.203600  1.0  0.1348
  H  H273  1  0.224800  0.552600  0.255100  1.0  0.1181
  H  H274  1  0.140000  0.522700  0.244400  1.0  0.1227
  H  H275  1  0.103600  0.537400  0.193200  1.0  0.113
  H  H276  1  0.146300  0.592100  0.162600  1.0  0.1245
  H  H277  1  0.243800  0.603000  0.169400  1.0  0.1002
  H  H278  1  0.342300  0.729500  0.301000  1.0  0.1074
  H  H279  1  0.313800  0.799300  0.313100  1.0  0.1422
  H  H280  1  0.300600  0.843600  0.270500  1.0  0.0958
  H  H281  1  0.352800  0.830900  0.222900  1.0  0.1298
  H  H282  1  0.365200  0.758300  0.211800  1.0  0.1149
  H  H283  1  0.333700  0.692200  0.167400  1.0  0.0995
  H  H284  1  0.307500  0.723900  0.119200  1.0  0.1596
  H  H285  1  0.390800  0.727400  0.081500  1.0  0.135
  H  H286  1  0.473700  0.643500  0.135500  1.0  0.1175
  H  H287  1  0.615300  0.716400  0.992600  1.0  0.1054
  H  H288  1  0.612400  0.757300  0.945500  1.0  0.1381
  H  H289  1  0.533500  0.802100  0.940400  1.0  0.1085
  H  H290  1  0.466300  0.761400  0.019200  1.0  0.1031
  H  H291  1  0.676800  0.649800  0.043600  1.0  0.1139
  H  H292  1  0.589900  0.604600  0.119800  1.0  0.1211
  H  H293  1  0.669300  0.564300  0.132200  1.0  0.1379
  H  H294  1  0.766800  0.587500  0.106800  1.0  0.1066
  H  H295  1  0.345600  0.090800  0.290200  1.0  0.0855
  H  H296  1  0.261000  0.045800  0.288400  1.0  0.1437
  H  H297  1  0.240400  0.018500  0.238800  1.0  0.0866
  H  H298  1  0.398400  0.050900  0.209400  1.0  0.0964
  H  H299  1  0.334800  0.945300  0.085600  1.0  0.127
  H  H300  1  0.406300  0.049000  0.120500  1.0  0.1229
  H  H301  1  0.435000  0.065500  0.068700  1.0  0.1276
  H  H302  1  0.440100  0.013500  0.033100  1.0  0.106
  H  H303  1  0.171300  0.804100  0.189800  1.0  0.0838
  H  H304  1  0.241700  0.804600  0.149600  1.0  0.1302
  H  H305  1  0.287000  0.868600  0.140200  1.0  0.0798
  H  H306  1  0.186300  0.921000  0.205500  1.0  0.1006
  H  H307  1  0.255600  0.940100  0.255600  1.0  0.1471
  H  H308  1  0.351900  0.952200  0.275700  1.0  0.1741
  H  H309  1  0.399500  0.939300  0.325000  1.0  0.1689
  H  H310  1  0.329600  0.907800  0.363200  1.0  0.126
  H  H311  1  0.235200  0.887900  0.346500  1.0  0.1332
  H  H312  1  0.874200  0.496600  0.281300  1.0  0.126
  H  H313  1  0.854300  0.564800  0.268600  1.0  0.1228
  H  H314  1  0.928400  0.612400  0.248200  1.0  0.1576
  H  H315  1  0.016200  0.578600  0.230700  1.0  0.127
  H  H316  1  0.038000  0.509400  0.241600  1.0  0.1128
  H  H317  1  0.209600  0.748500  0.229600  1.0  0.1149
  H  H318  1  0.251100  0.686100  0.227400  1.0  0.118
  H  H319  1  0.243900  0.644300  0.269600  1.0  0.0961
  H  H320  1  0.199900  0.660100  0.317600  1.0  0.1249
  H  H321  1  0.164200  0.731200  0.319600  1.0  0.1336
  H  H322  1  0.940800  0.300000  0.349800  1.0  0.1116
  H  H323  1  0.959600  0.281400  0.403100  1.0  0.1344
  H  H324  1  0.054500  0.295800  0.422600  1.0  0.1077
  H  H325  1  0.127600  0.331500  0.388800  1.0  0.1327
  H  H326  1  0.096700  0.350900  0.335700  1.0  0.1374
  H  H327  1  0.938200  0.774100  0.352100  1.0  0.1274
  H  H328  1  0.869100  0.726400  0.376200  1.0  0.1345
  H  H329  1  0.770200  0.731800  0.360100  1.0  0.1229
  H  H330  1  0.744400  0.774800  0.317800  1.0  0.1137
  H  H331  1  0.812800  0.814200  0.291800  1.0  0.1391
  H  H332  1  0.999400  0.924200  0.382900  1.0  0.1068
  H  H333  1  0.965400  0.969600  0.420000  1.0  0.1238
  H  H334  1  0.865500  0.999400  0.411900  1.0  0.1276
  H  H335  1  0.825600  0.990500  0.362400  1.0  0.0932
  H  H336  1  0.874200  0.956800  0.321700  1.0  0.1305
  H  H337  1  0.160100  0.394600  0.214000  1.0  0.0829
  H  H338  1  0.254600  0.417900  0.223300  1.0  0.1276
  H  H339  1  0.263400  0.461200  0.266200  1.0  0.0993
  H  H340  1  0.102000  0.432300  0.298400  1.0  0.1232
  H  H341  1  0.160100  0.817300  0.353300  1.0  0.1015
  H  H342  1  0.160700  0.770800  0.401900  1.0  0.1248
  H  H343  1  0.080900  0.779200  0.433900  1.0  0.066
  H  H344  1  0.988500  0.838200  0.368700  1.0  0.1399
  H  H345  1  0.308500  0.999200  0.904600  1.0  0.0928
  H  H346  1  0.317900  0.060900  0.878000  1.0  0.096
  H  H347  1  0.386400  0.111200  0.892800  1.0  0.1133
  H  H348  1  0.433400  0.094800  0.935400  1.0  0.0912
  H  H349  1  0.404800  0.046300  0.968400  1.0  0.1104
  H  H350  1  0.851400  0.623800  0.136900  1.0  0.1085
  H  H351  1  0.868000  0.629200  0.190300  1.0  0.1374
  H  H352  1  0.925700  0.691100  0.199500  1.0  0.1682
  H  H353  1  0.000100  0.716600  0.163700  1.0  0.1482
  H  H354  1  0.985500  0.690300  0.107400  1.0  0.1099
  H  H355  1  0.535800  0.992100  0.005300  1.0  0.0882
  H  H356  1  0.625600  0.032100  0.995600  1.0  0.1687
  H  H357  1  0.711600  0.991900  0.976100  1.0  0.129
  H  H358  1  0.689400  0.927800  0.957600  1.0  0.1035
  H  H359  1  0.609100  0.884200  0.971000  1.0  0.1667
  H  H360  1  0.454300  0.793800  0.076400  1.0  0.1154
  H  H361  1  0.406100  0.901400  0.116300  1.0  0.112
  H  H362  1  0.415600  0.869100  0.167700  1.0  0.1191
  H  H363  1  0.456700  0.802200  0.171300  1.0  0.1176
  H  H364  1  0.469100  0.762700  0.126200  1.0  0.132
  H  H365  1  0.736800  0.719300  0.031400  1.0  0.1772
  H  H366  1  0.663200  0.777100  0.037800  1.0  0.185
  H  H367  1  0.718800  0.839500  0.030600  1.0  0.1249
  H  H368  1  0.815100  0.854700  0.029700  1.0  0.1319
  H  H369  1  0.885600  0.793300  0.022200  1.0  0.197
  H  H370  1  0.224700  0.934900  0.081200  1.0  0.1146
  H  H371  1  0.160000  0.907500  0.121100  1.0  0.113
  H  H372  1  0.074000  0.891000  0.098000  1.0  0.1099
  H  H373  1  0.065600  0.855600  0.049500  1.0  0.1227
  H  H374  1  0.144300  0.866700  0.017200  1.0  0.0877
  H  H375  1  0.574100  0.735600  0.492400  1.0  0.1037
  H  H376  1  0.593600  0.664700  0.499500  1.0  0.1361
  H  H377  1  0.683700  0.648300  0.479500  1.0  0.1069
  H  H378  1  0.759800  0.689100  0.458200  1.0  0.1961
  H  H379  1  0.731900  0.761000  0.460000  1.0  0.1228
  H  H380  1  0.455900  0.847900  0.404100  1.0  0.1184
  H  H381  1  0.406300  0.853700  0.352400  1.0  0.1167
  H  H382  1  0.459600  0.866600  0.307700  1.0  0.1072
  H  H383  1  0.549100  0.902000  0.309900  1.0  0.1384
  H  H384  1  0.593700  0.906500  0.364600  1.0  0.1281
  H  H385  1  0.205500  0.501900  0.597200  1.0  0.1006
  H  H386  1  0.216500  0.443900  0.630700  1.0  0.1401
  H  H387  1  0.210700  0.386200  0.609600  1.0  0.1324
  H  H388  1  0.165400  0.373400  0.559300  1.0  0.1753
  H  H389  1  0.138900  0.434600  0.526600  1.0  0.1398
  H  H390  1  0.512500  0.809300  0.582900  1.0  0.0921
  H  H391  1  0.517400  0.776900  0.631300  1.0  0.1359
  H  H392  1  0.556500  0.820600  0.669100  1.0  0.0934
  H  H393  1  0.582700  0.889500  0.666400  1.0  0.1365
  H  H394  1  0.605200  0.903900  0.611400  1.0  0.1053
  H  H395  1  0.380200  0.930500  0.459000  1.0  0.093
  H  H396  1  0.313400  0.967400  0.432600  1.0  0.1185
  H  H397  1  0.301400  0.034200  0.450500  1.0  0.0808
  H  H398  1  0.364300  0.062900  0.486900  1.0  0.1118
  H  H399  1  0.431900  0.021700  0.508700  1.0  0.0959
  H  H400  1  0.209400  0.584500  0.607200  1.0  0.092
  H  H401  1  0.280300  0.596700  0.644300  1.0  0.1228
  H  H402  1  0.357300  0.630600  0.624900  1.0  0.0643
  H  H403  1  0.276400  0.658600  0.545100  1.0  0.0884
  H  H404  1  0.486600  0.785800  0.525300  1.0  0.1233
  H  H405  1  0.328700  0.750400  0.502000  1.0  0.1175
  H  H406  1  0.328400  0.804000  0.466300  1.0  0.1087
  H  H407  1  0.409200  0.847700  0.458500  1.0  0.0891
  H  H408  1  0.560600  0.040200  0.524500  1.0  0.0937
  H  H409  1  0.566900  0.094200  0.560000  1.0  0.1151
  H  H410  1  0.616400  0.082600  0.611500  1.0  0.1328
  H  H411  1  0.649500  0.970600  0.581100  1.0  0.067
  H  H412  1  0.749300  0.905100  0.614700  1.0  0.1265
  H  H413  1  0.809400  0.853700  0.616300  1.0  0.1292
  H  H414  1  0.870500  0.843000  0.660200  1.0  0.1208
  H  H415  1  0.806100  0.944300  0.697300  1.0  0.1221
  H  H416  1  0.974200  0.864500  0.633200  1.0  0.119
  H  H417  1  0.023900  0.847500  0.583500  1.0  0.1401
  H  H418  1  0.118100  0.838600  0.584300  1.0  0.1134
  H  H419  1  0.168800  0.837300  0.630800  1.0  0.1181
  H  H420  1  0.130400  0.871300  0.674500  1.0  0.1335
  H  H421  1  0.867100  0.033000  0.716600  1.0  0.1174
  H  H422  1  0.860800  0.107400  0.717700  1.0  0.1595
  H  H423  1  0.954300  0.137100  0.727800  1.0  0.1391
  H  H424  1  0.038700  0.104400  0.739900  1.0  0.1284
  H  H425  1  0.044700  0.030400  0.734400  1.0  0.1378
  H  H426  1  0.920400  0.966900  0.867900  1.0  0.1312
  H  H427  1  0.932300  0.014500  0.907500  1.0  0.0985
  H  H428  1  0.018200  0.055200  0.914700  1.0  0.1383
  H  H429  1  0.093200  0.020800  0.888800  1.0  0.1195
  H  H430  1  0.089900  0.986000  0.838500  1.0  0.1486
  H  H431  1  0.060100  0.786400  0.856700  1.0  0.119
  H  H432  1  0.139500  0.761900  0.893500  1.0  0.1325
  H  H433  1  0.234900  0.784000  0.877900  1.0  0.1152
  H  H434  1  0.254400  0.810000  0.828300  1.0  0.1148
  H  H435  1  0.176000  0.843300  0.796400  1.0  0.135
  H  H436  1  0.724800  0.947400  0.744900  1.0  0.1193
  H  H437  1  0.640000  0.977300  0.755600  1.0  0.1223
  H  H438  1  0.603600  0.962600  0.806800  1.0  0.1129
  H  H439  1  0.646300  0.907900  0.837400  1.0  0.1248
  H  H440  1  0.743800  0.897000  0.830600  1.0  0.1
  H  H441  1  0.842300  0.770500  0.699000  1.0  0.1084
  H  H442  1  0.813800  0.700700  0.686900  1.0  0.1432
  H  H443  1  0.800600  0.656400  0.729500  1.0  0.0954
  H  H444  1  0.852800  0.669100  0.777100  1.0  0.1294
  H  H445  1  0.865200  0.741700  0.788200  1.0  0.1152
  H  H446  1  0.833700  0.807800  0.832600  1.0  0.1001
  H  H447  1  0.807500  0.776100  0.880800  1.0  0.1594
  H  H448  1  0.890800  0.772600  0.918500  1.0  0.1355
  H  H449  1  0.973700  0.856500  0.864500  1.0  0.1176
  H  H450  1  0.115300  0.783600  0.007400  1.0  0.1055
  H  H451  1  0.112400  0.742700  0.054500  1.0  0.137
  H  H452  1  0.033500  0.697900  0.059600  1.0  0.1085
  H  H453  1  0.966300  0.738600  0.980800  1.0  0.1036
  H  H454  1  0.176800  0.850200  0.956400  1.0  0.114
  H  H455  1  0.089900  0.895400  0.880200  1.0  0.1211
  H  H456  1  0.169300  0.935700  0.867800  1.0  0.1377
  H  H457  1  0.266800  0.912500  0.893200  1.0  0.1064
  H  H458  1  0.845600  0.409200  0.709800  1.0  0.086
  H  H459  1  0.761000  0.454200  0.711600  1.0  0.1434
  H  H460  1  0.740400  0.481500  0.761200  1.0  0.0865
  H  H461  1  0.898400  0.449100  0.790600  1.0  0.0969
  H  H462  1  0.834800  0.554700  0.914400  1.0  0.1267
  H  H463  1  0.906300  0.451000  0.879500  1.0  0.1242
  H  H464  1  0.935000  0.434500  0.931300  1.0  0.1279
  H  H465  1  0.940100  0.486500  0.966900  1.0  0.1054
  H  H466  1  0.671300  0.695900  0.810200  1.0  0.0839
  H  H467  1  0.741700  0.695400  0.850400  1.0  0.1313
  H  H468  1  0.787000  0.631400  0.859800  1.0  0.0797
  H  H469  1  0.686300  0.579000  0.794500  1.0  0.1008
  H  H470  1  0.755600  0.559900  0.744400  1.0  0.1466
  H  H471  1  0.851900  0.547800  0.724300  1.0  0.1744
  H  H472  1  0.899500  0.560700  0.675000  1.0  0.1688
  H  H473  1  0.829600  0.592200  0.636800  1.0  0.1257
  H  H474  1  0.735200  0.612100  0.653500  1.0  0.1322
  H  H475  1  0.374200  0.003400  0.718700  1.0  0.1256
  H  H476  1  0.354300  0.935200  0.731400  1.0  0.1226
  H  H477  1  0.428400  0.887600  0.751800  1.0  0.1572
  H  H478  1  0.516200  0.921400  0.769300  1.0  0.1273
  H  H479  1  0.538000  0.990600  0.758400  1.0  0.1124
  H  H480  1  0.709600  0.751500  0.770400  1.0  0.1148
  H  H481  1  0.751100  0.813900  0.772600  1.0  0.1181
  H  H482  1  0.743900  0.855700  0.730400  1.0  0.0958
  H  H483  1  0.699900  0.839900  0.682400  1.0  0.1244
  H  H484  1  0.664200  0.768800  0.680400  1.0  0.135
  H  H485  1  0.440800  0.200000  0.650200  1.0  0.1111
  H  H486  1  0.459600  0.218600  0.596900  1.0  0.1337
  H  H487  1  0.554500  0.204200  0.577400  1.0  0.1078
  H  H488  1  0.627600  0.168500  0.611200  1.0  0.1327
  H  H489  1  0.596700  0.149100  0.664300  1.0  0.1371
  H  H490  1  0.438200  0.725900  0.647900  1.0  0.1275
  H  H491  1  0.369100  0.773600  0.623800  1.0  0.1338
  H  H492  1  0.270200  0.768200  0.639900  1.0  0.1237
  H  H493  1  0.244400  0.725200  0.682200  1.0  0.1132
  H  H494  1  0.312800  0.685800  0.708200  1.0  0.1395
  H  H495  1  0.499400  0.575800  0.617100  1.0  0.1068
  H  H496  1  0.465400  0.530400  0.580000  1.0  0.1245
  H  H497  1  0.365500  0.500600  0.588100  1.0  0.1285
  H  H498  1  0.325600  0.509500  0.637600  1.0  0.0932
  H  H499  1  0.374200  0.543200  0.678300  1.0  0.1304
  H  H500  1  0.660100  0.105400  0.786000  1.0  0.083
  H  H501  1  0.754600  0.082100  0.776700  1.0  0.1278
  H  H502  1  0.763400  0.038800  0.733800  1.0  0.0994
  H  H503  1  0.602000  0.067700  0.701600  1.0  0.1235
  H  H504  1  0.660100  0.682700  0.646700  1.0  0.1009
  H  H505  1  0.660700  0.729200  0.598100  1.0  0.1253
  H  H506  1  0.580900  0.720800  0.566100  1.0  0.0674
  H  H507  1  0.488500  0.661800  0.631300  1.0  0.1395
  H  H508  1  0.808500  0.500800  0.095400  1.0  0.0926
  H  H509  1  0.817900  0.439100  0.122000  1.0  0.0963
  H  H510  1  0.886400  0.388800  0.107200  1.0  0.1131
  H  H511  1  0.933400  0.405200  0.064600  1.0  0.0894
  H  H512  1  0.904800  0.453700  0.031600  1.0  0.1111
  H  H513  1  0.351400  0.876200  0.863100  1.0  0.1088
  H  H514  1  0.368000  0.870800  0.809700  1.0  0.137
  H  H515  1  0.425700  0.808900  0.800500  1.0  0.1659
  H  H516  1  0.500100  0.783400  0.836300  1.0  0.1481
  H  H517  1  0.485500  0.809700  0.892600  1.0  0.1093
  H  H518  1  0.035800  0.507900  0.994700  1.0  0.0886
  H  H519  1  0.125600  0.467900  0.004400  1.0  0.1674
  H  H520  1  0.211600  0.508100  0.023900  1.0  0.1282
  H  H521  1  0.189400  0.572200  0.042400  1.0  0.1015
  H  H522  1  0.109100  0.615800  0.029000  1.0  0.1661
  H  H523  1  0.954300  0.706200  0.923600  1.0  0.1154
  H  H524  1  0.906100  0.598600  0.883700  1.0  0.1122
  H  H525  1  0.915600  0.630900  0.832300  1.0  0.1192
  H  H526  1  0.956700  0.697800  0.828700  1.0  0.1177
  H  H527  1  0.969100  0.737300  0.873800  1.0  0.1317
  H  H528  1  0.236800  0.780700  0.968600  1.0  0.1764
  H  H529  1  0.163200  0.722900  0.962200  1.0  0.1851
  H  H530  1  0.218800  0.660500  0.969400  1.0  0.1238
  H  H531  1  0.315100  0.645300  0.970300  1.0  0.1316
  H  H532  1  0.385600  0.706700  0.977800  1.0  0.1972
  H  H533  1  0.724700  0.565100  0.918800  1.0  0.1141
  H  H534  1  0.660000  0.592500  0.878900  1.0  0.1138
  H  H535  1  0.574000  0.609000  0.902000  1.0  0.1111
  H  H536  1  0.565600  0.644400  0.950500  1.0  0.1226
  H  H537  1  0.644300  0.633300  0.982800  1.0  0.0872
  H  H538  1  0.925900  0.264400  0.992400  1.0  0.1023
  H  H539  1  0.906400  0.335300  0.999500  1.0  0.1364
  H  H540  1  0.816300  0.351700  0.979500  1.0  0.1066
  H  H541  1  0.740200  0.310900  0.958200  1.0  0.1972
  H  H542  1  0.768100  0.239000  0.960000  1.0  0.1224
  H  H543  1  0.044100  0.152100  0.904100  1.0  0.1179
  H  H544  1  0.093700  0.146300  0.852400  1.0  0.1167
  H  H545  1  0.040400  0.133400  0.807700  1.0  0.1083
  H  H546  1  0.950900  0.098000  0.809900  1.0  0.1385
  H  H547  1  0.906300  0.093500  0.864600  1.0  0.128
  H  H548  1  0.294500  0.498100  0.097200  1.0  0.1012
  H  H549  1  0.283500  0.556100  0.130700  1.0  0.1404
  H  H550  1  0.289300  0.613800  0.109600  1.0  0.1326
  H  H551  1  0.334600  0.626600  0.059300  1.0  0.1758
  H  H552  1  0.361100  0.565400  0.026600  1.0  0.1403
  H  H553  1  0.987500  0.190700  0.082900  1.0  0.0921
  H  H554  1  0.982600  0.223100  0.131300  1.0  0.1353
  H  H555  1  0.943500  0.179400  0.169100  1.0  0.094
  H  H556  1  0.917300  0.110500  0.166400  1.0  0.1356
  H  H557  1  0.894800  0.096100  0.111400  1.0  0.105
  H  H558  1  0.119800  0.069500  0.959000  1.0  0.0939
  H  H559  1  0.186600  0.032600  0.932600  1.0  0.1184
  H  H560  1  0.198600  0.965800  0.950500  1.0  0.0811
  H  H561  1  0.135700  0.937100  0.986900  1.0  0.1116
  H  H562  1  0.068100  0.978300  0.008700  1.0  0.0965
  H  H563  1  0.290600  0.415500  0.107200  1.0  0.0915
  H  H564  1  0.219700  0.403300  0.144300  1.0  0.1218
  H  H565  1  0.142700  0.369400  0.124900  1.0  0.0638
  H  H566  1  0.223600  0.341400  0.045100  1.0  0.0888
  H  H567  1  0.013400  0.214200  0.025300  1.0  0.1236
  H  H568  1  0.171300  0.249600  0.002000  1.0  0.1175
  H  H569  1  0.171600  0.196000  0.966300  1.0  0.108
  H  H570  1  0.090800  0.152300  0.958500  1.0  0.0893
  H  H571  1  0.939400  0.959800  0.024500  1.0  0.0932
  H  H572  1  0.933100  0.905800  0.060000  1.0  0.1147
  H  H573  1  0.883600  0.917400  0.111500  1.0  0.1332
  H  H574  1  0.850500  0.029400  0.081100  1.0  0.067
  H  H575  1  0.750700  0.094900  0.114700  1.0  0.1261
  H  H576  1  0.690600  0.146300  0.116300  1.0  0.1294
  H  H577  1  0.629500  0.157000  0.160200  1.0  0.1214
  H  H578  1  0.693900  0.055700  0.197300  1.0  0.1222
  H  H579  1  0.525800  0.135500  0.133200  1.0  0.1194
  H  H580  1  0.476100  0.152500  0.083500  1.0  0.1404
  H  H581  1  0.381900  0.161400  0.084300  1.0  0.1131
  H  H582  1  0.331200  0.162700  0.130800  1.0  0.1183
  H  H583  1  0.369600  0.128700  0.174500  1.0  0.1325
  H  H584  1  0.632900  0.967000  0.216600  1.0  0.1184
  H  H585  1  0.639200  0.892600  0.217700  1.0  0.1589
  H  H586  1  0.545700  0.862900  0.227800  1.0  0.1362
  H  H587  1  0.461300  0.895600  0.239900  1.0  0.129
  H  H588  1  0.455300  0.969600  0.234400  1.0  0.1374
  H  H589  1  0.579600  0.033100  0.367900  1.0  0.1312
  H  H590  1  0.567700  0.985500  0.407500  1.0  0.0983
  H  H591  1  0.481800  0.944800  0.414700  1.0  0.1386
  H  H592  1  0.406800  0.979200  0.388800  1.0  0.1191
  H  H593  1  0.410100  0.014000  0.338500  1.0  0.1491
  H  H594  1  0.439900  0.213600  0.356700  1.0  0.1195
  H  H595  1  0.360500  0.238100  0.393500  1.0  0.1311
  H  H596  1  0.265100  0.216000  0.377900  1.0  0.1147
  H  H597  1  0.245600  0.190000  0.328300  1.0  0.1159
  H  H598  1  0.324000  0.156700  0.296400  1.0  0.1345
  H  H599  1  0.775200  0.052600  0.244900  1.0  0.1198
  H  H600  1  0.860000  0.022700  0.255600  1.0  0.1227
  H  H601  1  0.896400  0.037400  0.306800  1.0  0.1126
  H  H602  1  0.853700  0.092100  0.337400  1.0  0.1239
  H  H603  1  0.756200  0.103000  0.330600  1.0  0.1
  H  H604  1  0.657700  0.229500  0.199000  1.0  0.1079
  H  H605  1  0.686200  0.299300  0.186900  1.0  0.1429
  H  H606  1  0.699400  0.343600  0.229500  1.0  0.0952
  H  H607  1  0.647200  0.330900  0.277100  1.0  0.129
  H  H608  1  0.634800  0.258300  0.288200  1.0  0.1154
  H  H609  1  0.666300  0.192200  0.332600  1.0  0.0996
  H  H610  1  0.692500  0.223900  0.380800  1.0  0.1579
  H  H611  1  0.609200  0.227400  0.418500  1.0  0.135
  H  H612  1  0.526300  0.143500  0.364500  1.0  0.1178
  H  H613  1  0.384700  0.216400  0.507400  1.0  0.1053
  H  H614  1  0.387600  0.257300  0.554500  1.0  0.1388
  H  H615  1  0.466500  0.302100  0.559600  1.0  0.1083
  H  H616  1  0.533700  0.261400  0.480800  1.0  0.1023
  H  H617  1  0.323200  0.149800  0.456400  1.0  0.1138
  H  H618  1  0.410100  0.104600  0.380200  1.0  0.121
  H  H619  1  0.330700  0.064300  0.367800  1.0  0.1379
  H  H620  1  0.233200  0.087500  0.393200  1.0  0.1065
  H  H621  1  0.654400  0.590800  0.209800  1.0  0.0863
  H  H622  1  0.739000  0.545800  0.211600  1.0  0.1445
  H  H623  1  0.759600  0.518500  0.261200  1.0  0.0865
  H  H624  1  0.601600  0.550900  0.290600  1.0  0.0966
  H  H625  1  0.665200  0.445300  0.414400  1.0  0.1267
  H  H626  1  0.593700  0.549000  0.379500  1.0  0.1243
  H  H627  1  0.565000  0.565500  0.431300  1.0  0.1276
  H  H628  1  0.559900  0.513500  0.466900  1.0  0.1055
  H  H629  1  0.828700  0.304100  0.310200  1.0  0.0844
  H  H630  1  0.758300  0.304600  0.350400  1.0  0.1314
  H  H631  1  0.713000  0.368600  0.359800  1.0  0.0801
  H  H632  1  0.813700  0.421000  0.294500  1.0  0.1005
  H  H633  1  0.744400  0.440100  0.244400  1.0  0.1464
  H  H634  1  0.648100  0.452200  0.224300  1.0  0.1736
  H  H635  1  0.600500  0.439300  0.175000  1.0  0.1691
  H  H636  1  0.670400  0.407800  0.136800  1.0  0.1262
  H  H637  1  0.764800  0.387900  0.153500  1.0  0.1321
  H  H638  1  0.125800  0.996600  0.218700  1.0  0.126
  H  H639  1  0.145700  0.064800  0.231400  1.0  0.1232
  H  H640  1  0.071600  0.112400  0.251800  1.0  0.1574
  H  H641  1  0.983800  0.078600  0.269300  1.0  0.127
  H  H642  1  0.962000  0.009400  0.258400  1.0  0.1132
  H  H643  1  0.790400  0.248500  0.270400  1.0  0.1143
  H  H644  1  0.748900  0.186100  0.272600  1.0  0.1177
  H  H645  1  0.756100  0.144300  0.230400  1.0  0.0962
  H  H646  1  0.800100  0.160100  0.182400  1.0  0.1247
  H  H647  1  0.835800  0.231200  0.180400  1.0  0.1348
  H  H648  1  0.059200  0.800000  0.150200  1.0  0.1112
  H  H649  1  0.040400  0.781400  0.096900  1.0  0.1343
  H  H650  1  0.945500  0.795800  0.077400  1.0  0.109
  H  H651  1  0.872400  0.831500  0.111200  1.0  0.1319
  H  H652  1  0.903300  0.850900  0.164300  1.0  0.1379
  H  H653  1  0.061800  0.274100  0.147900  1.0  0.1279
  H  H654  1  0.130900  0.226400  0.123800  1.0  0.1336
  H  H655  1  0.229800  0.231800  0.139900  1.0  0.1226
  H  H656  1  0.255600  0.274800  0.182200  1.0  0.1121
  H  H657  1  0.187200  0.314200  0.208200  1.0  0.1387
  H  H658  1  0.000600  0.424200  0.117100  1.0  0.1076
  H  H659  1  0.034600  0.469600  0.080000  1.0  0.1243
  H  H660  1  0.134500  0.499400  0.088100  1.0  0.1287
  H  H661  1  0.174400  0.490500  0.137600  1.0  0.0926
  H  H662  1  0.125800  0.456800  0.178300  1.0  0.13
  H  H663  1  0.839900  0.894600  0.286000  1.0  0.0833
  H  H664  1  0.745400  0.917900  0.276700  1.0  0.1276
  H  H665  1  0.736600  0.961200  0.233800  1.0  0.0998
  H  H666  1  0.898000  0.932300  0.201600  1.0  0.1236
  H  H667  1  0.839900  0.317300  0.146700  1.0  0.1
  H  H668  1  0.839300  0.270800  0.098100  1.0  0.1241
  H  H669  1  0.919100  0.279200  0.066100  1.0  0.068
  H  H670  1  0.011500  0.338200  0.131300  1.0  0.1393
  H  H671  1  0.691500  0.499200  0.595400  1.0  0.0926
  H  H672  1  0.682100  0.560900  0.622000  1.0  0.0963
  H  H673  1  0.613600  0.611200  0.607200  1.0  0.1137
  H  H674  1  0.566600  0.594800  0.564600  1.0  0.0915
  H  H675  1  0.595200  0.546300  0.531600  1.0  0.1111
  H  H676  1  0.148600  0.123800  0.363100  1.0  0.1086
  H  H677  1  0.132000  0.129200  0.309700  1.0  0.1369
  H  H678  1  0.074300  0.191100  0.300500  1.0  0.1667
  H  H679  1  0.999900  0.216600  0.336300  1.0  0.148
  H  H680  1  0.014500  0.190300  0.392600  1.0  0.1092
  H  H681  1  0.464200  0.492100  0.494700  1.0  0.0867
  H  H682  1  0.374400  0.532100  0.504400  1.0  0.1684
  H  H683  1  0.288400  0.491900  0.523900  1.0  0.1297
  H  H684  1  0.310600  0.427800  0.542400  1.0  0.1031
  H  H685  1  0.390900  0.384200  0.529000  1.0  0.1669
  H  H686  1  0.545700  0.293800  0.423600  1.0  0.1153
  H  H687  1  0.593900  0.401400  0.383700  1.0  0.1127
  H  H688  1  0.584400  0.369100  0.332300  1.0  0.1184
  H  H689  1  0.543300  0.302200  0.328700  1.0  0.1178
  H  H690  1  0.530900  0.262700  0.373800  1.0  0.132
  H  H691  1  0.263200  0.219300  0.468600  1.0  0.1774
  H  H692  1  0.336800  0.277100  0.462200  1.0  0.1848
  H  H693  1  0.281200  0.339500  0.469400  1.0  0.1248
  H  H694  1  0.184900  0.354700  0.470300  1.0  0.1327
  H  H695  1  0.114400  0.293300  0.477800  1.0  0.199
  H  H696  1  0.775300  0.434900  0.418800  1.0  0.1151
  H  H697  1  0.840000  0.407500  0.378900  1.0  0.1134
  H  H698  1  0.926000  0.391000  0.402000  1.0  0.1103
  H  H699  1  0.934400  0.355600  0.450500  1.0  0.1223
  H  H700  1  0.855700  0.366700  0.482800  1.0  0.0879
  C  C701  1  0.378900  0.300900  0.019200  1.0  0.3095
  C  C702  1  0.350800  0.258700  0.020200  1.0  -0.1731
  C  C703  1  0.387600  0.226900  0.012000  1.0  -0.052
  C  C704  1  0.380000  0.184000  0.008900  1.0  -0.1599
  C  C705  1  0.324700  0.176700  0.020900  1.0  -0.1258
  C  C706  1  0.275800  0.199500  0.034000  1.0  -0.1414
  C  C707  1  0.294900  0.241400  0.032300  1.0  -0.0432
  C  C708  1  0.444600  0.369200  0.081400  1.0  0.6661
  C  C709  1  0.469300  0.370200  0.114900  1.0  -0.0674
  C  C710  1  0.525200  0.357400  0.114200  1.0  -0.0838
  C  C711  1  0.553800  0.360100  0.145800  1.0  -0.0988
  C  C712  1  0.523300  0.371800  0.172600  1.0  -0.0879
  C  C713  1  0.468900  0.390900  0.172000  1.0  -0.1311
  C  C714  1  0.441100  0.391900  0.139100  1.0  -0.1062
  C  C715  1  0.776000  0.081700  0.013000  1.0  0.4704
  C  C716  1  0.844300  0.013800  0.960300  1.0  0.647
  C  C717  1  0.821700  0.975100  0.941700  1.0  -0.0261
  C  C718  1  0.802900  0.975800  0.911300  1.0  -0.0627
  C  C719  1  0.794100  0.940900  0.890600  1.0  -0.0446
  C  C720  1  0.801200  0.909300  0.902200  1.0  -0.0617
  C  C721  1  0.827300  0.900500  0.933900  1.0  -0.124
  C  C722  1  0.841200  0.936900  0.954100  1.0  -0.0936
  C  C723  1  0.445700  0.381400  0.943100  1.0  0.7382
  C  C724  1  0.452200  0.363800  0.907500  1.0  -0.1036
  C  C725  1  0.471300  0.324100  0.900200  1.0  -0.048
  C  C726  1  0.470200  0.304100  0.872700  1.0  -0.1365
  C  C727  1  0.446400  0.332400  0.851100  1.0  -0.066
  C  C728  1  0.425900  0.372800  0.851100  1.0  -0.1441
  C  C729  1  0.421000  0.382800  0.883000  1.0  -0.0805
  C  C730  1  0.528200  0.441800  0.008400  1.0  0.6411
  C  C731  1  0.573600  0.471100  0.017600  1.0  -0.085
  C  C732  1  0.619200  0.459100  0.037200  1.0  -0.1158
  C  C733  1  0.662700  0.479200  0.051700  1.0  -0.0773
  C  C734  1  0.668100  0.518000  0.041400  1.0  -0.0347
  C  C735  1  0.631600  0.535300  0.019600  1.0  -0.0814
  C  C736  1  0.589700  0.510700  0.008100  1.0  -0.0591
  C  C737  1  0.760200  0.102600  0.898400  1.0  0.1658
  C  C738  1  0.718400  0.107500  0.876200  1.0  -0.1044
  C  C739  1  0.676300  0.129400  0.887700  1.0  -0.0167
  C  C740  1  0.672700  0.151300  0.915700  1.0  -0.0371
  C  C741  1  0.722200  0.144500  0.935400  1.0  0.2056
  C  C742  1  0.620700  0.180800  0.929500  1.0  0.3997
  C  C743  1  0.522500  0.195700  0.923200  1.0  0.2977
  C  C744  1  0.544200  0.289300  0.989100  1.0  0.0657
  C  C745  1  0.590400  0.262000  0.985100  1.0  0.3748
  C  C746  1  0.638400  0.267300  0.000900  1.0  -0.1188
  C  C747  1  0.637700  0.299000  0.021700  1.0  -0.0809
  C  C748  1  0.587100  0.326200  0.026800  1.0  0.1578
  C  C749  1  0.420100  0.535600  0.956200  1.0  0.1772
  C  C750  1  0.417400  0.568300  0.934800  1.0  -0.1242
  C  C751  1  0.389400  0.561500  0.903500  1.0  -0.0611
  C  C752  1  0.372200  0.519200  0.898400  1.0  0.0185
  C  C753  1  0.371900  0.495000  0.922200  1.0  0.1235
  C  C754  1  0.336200  0.514300  0.867100  1.0  0.247
  C  C755  1  0.274900  0.470000  0.843100  1.0  0.4697
  C  C756  1  0.304800  0.530300  0.820800  1.0  0.3535
  C  C757  1  0.234300  0.439500  0.844700  1.0  -0.1179
  C  C758  1  0.226300  0.404100  0.867500  1.0  -0.0447
  C  C759  1  0.191300  0.372500  0.866800  1.0  -0.0768
  C  C760  1  0.154100  0.366200  0.840500  1.0  0.121
  C  C761  1  0.193500  0.426400  0.820200  1.0  0.083
  C  C762  1  0.986800  0.377600  0.809100  1.0  0.6231
  C  C763  1  0.953600  0.361700  0.839000  1.0  -0.0647
  C  C764  1  0.985300  0.359600  0.867000  1.0  -0.0355
  C  C765  1  0.955100  0.349600  0.897500  1.0  -0.0911
  C  C766  1  0.901600  0.344300  0.896700  1.0  -0.0625
  C  C767  1  0.870200  0.346500  0.869200  1.0  -0.0988
  C  C768  1  0.893600  0.361500  0.841900  1.0  -0.1563
  C  C769  1  0.041300  0.475200  0.770900  1.0  0.6688
  C  C770  1  0.046300  0.523400  0.775500  1.0  -0.1027
  C  C771  1  0.098400  0.547900  0.779700  1.0  -0.047
  C  C772  1  0.104800  0.592200  0.779000  1.0  -0.12
  C  C773  1  0.047600  0.608100  0.772300  1.0  -0.0923
  C  C774  1  0.994200  0.588800  0.765900  1.0  -0.087
  C  C775  1  0.990600  0.544800  0.768400  1.0  -0.1034
  C  C776  1  0.003500  0.436600  0.675400  1.0  0.6439
  C  C777  1  0.996400  0.469500  0.649100  1.0  -0.0509
  C  C778  1  0.043200  0.479800  0.629500  1.0  -0.1199
  C  C779  1  0.035400  0.509700  0.605600  1.0  -0.0558
  C  C780  1  0.986100  0.532800  0.599200  1.0  -0.1043
  C  C781  1  0.944600  0.514800  0.618600  1.0  -0.0778
  C  C782  1  0.941600  0.488800  0.647500  1.0  -0.1361
  C  C783  1  0.888700  0.314900  0.677200  1.0  -0.0637
  C  C784  1  0.900700  0.292200  0.648200  1.0  -0.0488
  C  C785  1  0.853200  0.277000  0.625000  1.0  -0.1208
  C  C786  1  0.796800  0.289100  0.635600  1.0  -0.0921
  C  C787  1  0.784700  0.308300  0.665000  1.0  -0.0912
  C  C788  1  0.832000  0.326200  0.686200  1.0  -0.0658
  C  C789  1  0.196400  0.404300  0.720000  1.0  0.4763
  C  C790  1  0.252400  0.417300  0.713900  1.0  -0.0118
  C  C791  1  0.290400  0.442900  0.734800  1.0  -0.0589
  C  C792  1  0.340600  0.460100  0.729900  1.0  -0.1056
  C  C793  1  0.362000  0.449800  0.700300  1.0  -0.0796
  C  C794  1  0.333400  0.419800  0.679600  1.0  -0.0957
  C  C795  1  0.278200  0.409700  0.685400  1.0  -0.131
  C  C796  1  0.125200  0.305400  0.750700  1.0  0.5611
  C  C797  1  0.139500  0.261800  0.756500  1.0  0.0496
  C  C798  1  0.157300  0.250600  0.784900  1.0  -0.0523
  C  C799  1  0.176500  0.208600  0.792500  1.0  -0.1372
  C  C800  1  0.179700  0.181600  0.767600  1.0  -0.064
  C  C801  1  0.154800  0.189800  0.737900  1.0  -0.0829
  C  C802  1  0.141900  0.232900  0.732500  1.0  -0.0979
  C  C803  1  0.140500  0.311800  0.650500  1.0  0.1713
  C  C804  1  0.156400  0.289300  0.622300  1.0  -0.1044
  C  C805  1  0.108700  0.290000  0.599200  1.0  -0.1488
  C  C806  1  0.064100  0.316300  0.604300  1.0  -0.1144
  C  C807  1  0.058400  0.338800  0.632600  1.0  0.0951
  C  C808  1  0.014700  0.318500  0.579700  1.0  0.3487
  C  C809  1  0.966500  0.297000  0.540900  1.0  0.3266
  C  C810  1  0.922300  0.340700  0.568200  1.0  0.196
  C  C811  1  0.966400  0.270300  0.510800  1.0  -0.0676
  C  C812  1  0.917900  0.267300  0.488700  1.0  -0.0842
  C  C813  1  0.916900  0.240900  0.461000  1.0  -0.1362
  C  C814  1  0.962400  0.213100  0.459200  1.0  0.0644
  C  C815  1  0.002200  0.237700  0.505100  1.0  0.035
  C  C816  1  0.993700  0.082200  0.497100  1.0  0.7026
  C  C817  1  0.820600  0.364500  0.562800  1.0  0.1508
  C  C818  1  0.869700  0.364700  0.582300  1.0  -0.0879
  C  C819  1  0.874900  0.392900  0.608700  1.0  -0.0738
  C  C820  1  0.829000  0.415000  0.616600  1.0  -0.1185
  C  C821  1  0.768600  0.404200  0.597500  1.0  0.1352
  C  C822  1  0.158900  0.928000  0.773500  1.0  0.1665
  C  C823  1  0.212900  0.951600  0.771400  1.0  -0.1135
  C  C824  1  0.222500  0.969900  0.742200  1.0  -0.0602
  C  C825  1  0.184200  0.972900  0.718400  1.0  0.0552
  C  C826  1  0.129800  0.950500  0.725400  1.0  0.1592
  C  C827  1  0.187400  0.002600  0.692600  1.0  0.5202
  C  C828  1  0.223200  0.058600  0.671400  1.0  0.3355
  C  C829  1  0.173500  0.014600  0.638000  1.0  0.3807
  C  C830  1  0.142200  0.030700  0.584500  1.0  0.1237
  C  C831  1  0.141600  0.003900  0.613600  1.0  -0.0422
  C  C832  1  0.104000  0.969600  0.604400  1.0  -0.0611
  C  C833  1  0.080600  0.960700  0.573300  1.0  -0.1049
  C  C834  1  0.081600  0.990100  0.551700  1.0  0.1923
  C  C835  1  0.313000  0.170200  0.683800  1.0  0.1983
  C  C836  1  0.268900  0.171300  0.660600  1.0  -0.1262
  C  C837  1  0.242600  0.133000  0.655500  1.0  -0.0405
  C  C838  1  0.256000  0.100200  0.670200  1.0  0.0745
  C  C839  1  0.304300  0.102600  0.693600  1.0  0.142
  C  C840  1  0.325200  0.108000  0.789200  1.0  0.6012
  C  C841  1  0.266600  0.090200  0.800800  1.0  -0.0926
  C  C842  1  0.231900  0.067800  0.775800  1.0  -0.0558
  C  C843  1  0.172700  0.060800  0.790500  1.0  -0.0715
  C  C844  1  0.139600  0.067500  0.820800  1.0  -0.0791
  C  C845  1  0.181600  0.086900  0.842200  1.0  -0.1105
  C  C846  1  0.241100  0.098300  0.831800  1.0  -0.0449
  C  C847  1  0.540200  0.551700  0.769800  1.0  0.6124
  C  C848  1  0.541100  0.505500  0.763400  1.0  -0.0757
  C  C849  1  0.597000  0.487300  0.771400  1.0  -0.1163
  C  C850  1  0.608100  0.445300  0.764300  1.0  -0.1099
  C  C851  1  0.565100  0.416100  0.750600  1.0  -0.1059
  C  C852  1  0.511900  0.437000  0.741500  1.0  -0.1011
  C  C853  1  0.498300  0.479600  0.747700  1.0  -0.0746
  C  C854  1  0.368400  0.213200  0.771200  1.0  0.7547
  C  C855  1  0.333900  0.252000  0.772600  1.0  -0.0647
  C  C856  1  0.296100  0.269000  0.747000  1.0  -0.0404
  C  C857  1  0.269400  0.305400  0.745500  1.0  -0.0511
  C  C858  1  0.273400  0.329500  0.771500  1.0  -0.0839
  C  C859  1  0.299000  0.321500  0.800400  1.0  -0.129
  C  C860  1  0.324300  0.279400  0.800000  1.0  -0.0694
  C  C861  1  0.496200  0.660300  0.808000  1.0  0.6098
  C  C862  1  0.487200  0.673400  0.843700  1.0  0.0692
  C  C863  1  0.523300  0.693000  0.859200  1.0  -0.0524
  C  C864  1  0.512100  0.705300  0.890700  1.0  -0.1056
  C  C865  1  0.455600  0.696400  0.902000  1.0  -0.0761
  C  C866  1  0.410200  0.674200  0.881300  1.0  -0.0926
  C  C867  1  0.427900  0.662500  0.850200  1.0  -0.1044
  C  C868  1  0.562800  0.189700  0.797300  1.0  0.7072
  C  C869  1  0.614100  0.214600  0.811700  1.0  -0.0786
  C  C870  1  0.598500  0.231300  0.843100  1.0  -0.0993
  C  C871  1  0.641700  0.256100  0.859500  1.0  -0.104
  C  C872  1  0.700700  0.253100  0.849500  1.0  -0.097
  C  C873  1  0.716000  0.227500  0.823500  1.0  -0.0808
  C  C874  1  0.675500  0.205900  0.806500  1.0  -0.1092
  C  C875  1  0.526600  0.085100  0.823400  1.0  0.5754
  C  C876  1  0.559300  0.060200  0.850300  1.0  -0.0725
  C  C877  1  0.533600  0.059400  0.878900  1.0  -0.0751
  C  C878  1  0.555500  0.035200  0.901300  1.0  -0.0833
  C  C879  1  0.614800  0.015500  0.896000  1.0  -0.1016
  C  C880  1  0.637400  0.020900  0.866500  1.0  -0.0837
  C  C881  1  0.610300  0.041800  0.842100  1.0  -0.1091
  C  C882  1  0.330300  0.595400  0.734100  1.0  0.1493
  C  C883  1  0.275900  0.578100  0.737800  1.0  -0.0821
  C  C884  1  0.270300  0.555100  0.763900  1.0  -0.0612
  C  C885  1  0.314700  0.554100  0.789000  1.0  -0.0646
  C  C886  1  0.366400  0.572100  0.784600  1.0  0.1111
  C  C887  1  0.373700  0.186400  0.865500  1.0  0.1526
  C  C888  1  0.371000  0.212300  0.896300  1.0  -0.1152
  C  C889  1  0.420000  0.207700  0.914100  1.0  -0.0526
  C  C890  1  0.466800  0.188200  0.907800  1.0  0.1994
  C  C891  1  0.474900  0.171100  0.875800  1.0  0.0634
  C  C892  1  0.157000  0.028200  0.464700  1.0  0.6192
  C  C893  1  0.151900  0.986200  0.443500  1.0  -0.0811
  C  C894  1  0.170100  0.979500  0.414400  1.0  -0.0837
  C  C895  1  0.160200  0.942800  0.396500  1.0  -0.149
  C  C896  1  0.121200  0.912700  0.404600  1.0  -0.0897
  C  C897  1  0.098200  0.921700  0.429000  1.0  -0.0731
  C  C898  1  0.113500  0.953700  0.448600  1.0  -0.0923
  C  C899  1  0.601400  0.349700  0.584600  1.0  0.626
  C  C900  1  0.589800  0.339100  0.616600  1.0  -0.0862
  C  C901  1  0.619000  0.357700  0.643000  1.0  -0.0313
  C  C902  1  0.613600  0.354600  0.674800  1.0  -0.1554
  C  C903  1  0.573000  0.320900  0.679300  1.0  -0.0868
  C  C904  1  0.529700  0.301700  0.657600  1.0  -0.0816
  C  C905  1  0.541100  0.316400  0.623500  1.0  -0.0549
  C  C906  1  0.935300  0.059800  0.492000  1.0  -0.0295
  C  C907  1  0.931300  0.021600  0.497200  1.0  -0.1061
  C  C908  1  0.876300  0.996300  0.491400  1.0  -0.0661
  C  C909  1  0.825900  0.019500  0.478400  1.0  -0.1269
  C  C910  1  0.839800  0.059900  0.470000  1.0  -0.0515
  C  C911  1  0.888300  0.087500  0.475800  1.0  -0.1526
  C  C912  1  0.076400  0.142900  0.556400  1.0  0.5907
  C  C913  1  0.053000  0.190500  0.594600  1.0  -0.1102
  C  C914  1  0.072700  0.150100  0.590900  1.0  -0.0301
  C  C915  1  0.082500  0.126300  0.618000  1.0  -0.0557
  C  C916  1  0.074600  0.145600  0.649300  1.0  -0.0626
  C  C917  1  0.052100  0.186600  0.651400  1.0  -0.0614
  C  C918  1  0.043100  0.209700  0.624800  1.0  -0.1687
  C  C919  1  0.675400  0.289400  0.526400  1.0  0.5912
  C  C920  1  0.693200  0.242600  0.528500  1.0  -0.1003
  C  C921  1  0.752000  0.252800  0.531500  1.0  -0.1329
  C  C922  1  0.796300  0.220900  0.534700  1.0  -0.0505
  C  C923  1  0.758100  0.184400  0.531400  1.0  -0.1011
  C  C924  1  0.697100  0.173000  0.529000  1.0  -0.0956
  C  C925  1  0.655000  0.207500  0.525500  1.0  -0.1291
  C  C926  1  0.253600  0.093300  0.524900  1.0  0.6887
  C  C927  1  0.304000  0.102600  0.546400  1.0  -0.0897
  C  C928  1  0.303900  0.084900  0.576300  1.0  -0.094
  C  C929  1  0.345100  0.095700  0.599200  1.0  -0.0973
  C  C930  1  0.392000  0.110900  0.585600  1.0  -0.028
  C  C931  1  0.400900  0.129700  0.555700  1.0  -0.1189
  C  C932  1  0.354300  0.123000  0.537900  1.0  -0.0686
  C  C933  1  0.934200  0.326900  0.702100  1.0  0.1898
  C  C934  1  0.582100  0.231300  0.962500  1.0  0.3105
  C  C935  1  0.121100  0.699100  0.519200  1.0  0.308
  C  C936  1  0.149200  0.741300  0.520200  1.0  -0.1712
  C  C937  1  0.112400  0.773100  0.512000  1.0  -0.0523
  C  C938  1  0.120000  0.816000  0.508900  1.0  -0.159
  C  C939  1  0.175300  0.823300  0.520900  1.0  -0.124
  C  C940  1  0.224200  0.800500  0.534000  1.0  -0.1381
  C  C941  1  0.205100  0.758600  0.532300  1.0  -0.0421
  C  C942  1  0.055400  0.630800  0.581400  1.0  0.6664
  C  C943  1  0.030700  0.629800  0.614900  1.0  -0.0677
  C  C944  1  0.974800  0.642600  0.614200  1.0  -0.0836
  C  C945  1  0.946200  0.639900  0.645800  1.0  -0.1012
  C  C946  1  0.976700  0.628200  0.672600  1.0  -0.0862
  C  C947  1  0.031100  0.609100  0.672000  1.0  -0.1294
  C  C948  1  0.058900  0.608100  0.639100  1.0  -0.1082
  C  C949  1  0.724000  0.918300  0.513000  1.0  0.4707
  C  C950  1  0.655700  0.986200  0.460300  1.0  0.6455
  C  C951  1  0.678300  0.024900  0.441700  1.0  -0.0248
  C  C952  1  0.697100  0.024200  0.411300  1.0  -0.0607
  C  C953  1  0.705900  0.059100  0.390600  1.0  -0.0411
  C  C954  1  0.698800  0.090700  0.402200  1.0  -0.0608
  C  C955  1  0.672700  0.099500  0.433900  1.0  -0.1257
  C  C956  1  0.658800  0.063100  0.454100  1.0  -0.094
  C  C957  1  0.054300  0.618600  0.443100  1.0  0.7371
  C  C958  1  0.047800  0.636200  0.407500  1.0  -0.1043
  C  C959  1  0.028700  0.675900  0.400200  1.0  -0.0477
  C  C960  1  0.029800  0.695900  0.372700  1.0  -0.1378
  C  C961  1  0.053600  0.667600  0.351100  1.0  -0.0642
  C  C962  1  0.074100  0.627200  0.351100  1.0  -0.1427
  C  C963  1  0.079000  0.617200  0.383000  1.0  -0.0812
  C  C964  1  0.971800  0.558200  0.508400  1.0  0.6408
  C  C965  1  0.926400  0.528900  0.517600  1.0  -0.0835
  C  C966  1  0.880800  0.540900  0.537200  1.0  -0.1176
  C  C967  1  0.837300  0.520800  0.551700  1.0  -0.0793
  C  C968  1  0.831900  0.482000  0.541400  1.0  -0.0364
  C  C969  1  0.868400  0.464700  0.519600  1.0  -0.0808
  C  C970  1  0.910300  0.489300  0.508100  1.0  -0.0596
  C  C971  1  0.739800  0.897400  0.398400  1.0  0.1677
  C  C972  1  0.781600  0.892500  0.376200  1.0  -0.1053
  C  C973  1  0.823700  0.870600  0.387700  1.0  -0.0189
  C  C974  1  0.827300  0.848700  0.415700  1.0  -0.0369
  C  C975  1  0.777800  0.855500  0.435400  1.0  0.2067
  C  C976  1  0.879300  0.819200  0.429500  1.0  0.3995
  C  C977  1  0.977500  0.804300  0.423200  1.0  0.2973
  C  C978  1  0.955800  0.710700  0.489100  1.0  0.0644
  C  C979  1  0.909600  0.738000  0.485100  1.0  0.3772
  C  C980  1  0.861600  0.732700  0.500900  1.0  -0.1199
  C  C981  1  0.862300  0.701000  0.521700  1.0  -0.0831
  C  C982  1  0.912900  0.673800  0.526800  1.0  0.1577
  C  C983  1  0.079900  0.464400  0.456200  1.0  0.1777
  C  C984  1  0.082600  0.431700  0.434800  1.0  -0.124
  C  C985  1  0.110600  0.438500  0.403500  1.0  -0.0615
  C  C986  1  0.127800  0.480800  0.398400  1.0  0.0179
  C  C987  1  0.128100  0.505000  0.422200  1.0  0.1226
  C  C988  1  0.163800  0.485700  0.367100  1.0  0.2465
  C  C989  1  0.225100  0.530000  0.343100  1.0  0.4709
  C  C990  1  0.195200  0.469700  0.320800  1.0  0.3521
  C  C991  1  0.265700  0.560500  0.344700  1.0  -0.1179
  C  C992  1  0.273700  0.595900  0.367500  1.0  -0.0448
  C  C993  1  0.308700  0.627500  0.366800  1.0  -0.0777
  C  C994  1  0.345900  0.633800  0.340500  1.0  0.12
  C  C995  1  0.306500  0.573600  0.320200  1.0  0.0842
  C  C996  1  0.513200  0.622400  0.309100  1.0  0.6243
  C  C997  1  0.546400  0.638300  0.339000  1.0  -0.0628
  C  C998  1  0.514700  0.640400  0.367000  1.0  -0.0375
  C  C999  1  0.544900  0.650400  0.397500  1.0  -0.0934
  C  C1000  1  0.598400  0.655700  0.396700  1.0  -0.0628
  C  C1001  1  0.629800  0.653500  0.369200  1.0  -0.0986
  C  C1002  1  0.606400  0.638500  0.341900  1.0  -0.1555
  C  C1003  1  0.458700  0.524800  0.270900  1.0  0.6692
  C  C1004  1  0.453700  0.476600  0.275500  1.0  -0.1026
  C  C1005  1  0.401600  0.452100  0.279700  1.0  -0.0466
  C  C1006  1  0.395200  0.407800  0.279000  1.0  -0.1224
  C  C1007  1  0.452400  0.391900  0.272300  1.0  -0.0923
  C  C1008  1  0.505800  0.411200  0.265900  1.0  -0.0861
  C  C1009  1  0.509400  0.455200  0.268400  1.0  -0.104
  C  C1010  1  0.496500  0.563400  0.175400  1.0  0.6438
  C  C1011  1  0.503600  0.530500  0.149100  1.0  -0.0511
  C  C1012  1  0.456800  0.520200  0.129500  1.0  -0.1186
  C  C1013  1  0.464600  0.490300  0.105600  1.0  -0.0566
  C  C1014  1  0.513900  0.467200  0.099200  1.0  -0.1051
  C  C1015  1  0.555400  0.485200  0.118600  1.0  -0.0793
  C  C1016  1  0.558400  0.511200  0.147500  1.0  -0.135
  C  C1017  1  0.611300  0.685100  0.177200  1.0  -0.0627
  C  C1018  1  0.599300  0.707800  0.148200  1.0  -0.0492
  C  C1019  1  0.646800  0.723000  0.125000  1.0  -0.1262
  C  C1020  1  0.703200  0.710900  0.135600  1.0  -0.0902
  C  C1021  1  0.715300  0.691700  0.165000  1.0  -0.0861
  C  C1022  1  0.668000  0.673800  0.186200  1.0  -0.0634
  C  C1023  1  0.303600  0.595700  0.220000  1.0  0.4763
  C  C1024  1  0.247600  0.582700  0.213900  1.0  -0.0116
  C  C1025  1  0.209600  0.557100  0.234800  1.0  -0.0573
  C  C1026  1  0.159400  0.539900  0.229900  1.0  -0.1059
  C  C1027  1  0.138000  0.550200  0.200300  1.0  -0.0809
  C  C1028  1  0.166600  0.580200  0.179600  1.0  -0.0979
  C  C1029  1  0.221800  0.590300  0.185400  1.0  -0.1299
  C  C1030  1  0.374800  0.694600  0.250700  1.0  0.5617
  C  C1031  1  0.360500  0.738200  0.256500  1.0  0.0503
  C  C1032  1  0.342700  0.749400  0.284900  1.0  -0.0527
  C  C1033  1  0.323500  0.791400  0.292500  1.0  -0.138
  C  C1034  1  0.320300  0.818400  0.267600  1.0  -0.0639
  C  C1035  1  0.345200  0.810200  0.237900  1.0  -0.0823
  C  C1036  1  0.358100  0.767100  0.232500  1.0  -0.0974
  C  C1037  1  0.359500  0.688200  0.150500  1.0  0.1732
  C  C1038  1  0.343600  0.710700  0.122300  1.0  -0.1065
  C  C1039  1  0.391300  0.710000  0.099200  1.0  -0.1504
  C  C1040  1  0.435900  0.683700  0.104300  1.0  -0.1148
  C  C1041  1  0.441600  0.661200  0.132600  1.0  0.0973
  C  C1042  1  0.485300  0.681500  0.079700  1.0  0.3487
  C  C1043  1  0.533500  0.703000  0.040900  1.0  0.3276
  C  C1044  1  0.577700  0.659300  0.068200  1.0  0.1954
  C  C1045  1  0.533600  0.729700  0.010800  1.0  -0.0693
  C  C1046  1  0.582100  0.732700  0.988700  1.0  -0.0847
  C  C1047  1  0.583100  0.759100  0.961000  1.0  -0.135
  C  C1048  1  0.537600  0.786900  0.959200  1.0  0.0637
  C  C1049  1  0.497800  0.762300  0.005100  1.0  0.0352
  C  C1050  1  0.506300  0.917800  0.997100  1.0  0.7035
  C  C1051  1  0.679400  0.635500  0.062800  1.0  0.1502
  C  C1052  1  0.630300  0.635300  0.082300  1.0  -0.0874
  C  C1053  1  0.625100  0.607100  0.108700  1.0  -0.0742
  C  C1054  1  0.671000  0.585000  0.116600  1.0  -0.1183
  C  C1055  1  0.731400  0.595800  0.097500  1.0  0.1362
  C  C1056  1  0.341100  0.072000  0.273500  1.0  0.1663
  C  C1057  1  0.287100  0.048400  0.271400  1.0  -0.1156
  C  C1058  1  0.277500  0.030100  0.242200  1.0  -0.0589
  C  C1059  1  0.315800  0.027100  0.218400  1.0  0.0561
  C  C1060  1  0.370200  0.049500  0.225400  1.0  0.1577
  C  C1061  1  0.312600  0.997400  0.192600  1.0  0.5184
  C  C1062  1  0.276800  0.941400  0.171400  1.0  0.3351
  C  C1063  1  0.326500  0.985400  0.138000  1.0  0.3824
  C  C1064  1  0.357800  0.969300  0.084500  1.0  0.1233
  C  C1065  1  0.358400  0.996100  0.113600  1.0  -0.0416
  C  C1066  1  0.396000  0.030400  0.104400  1.0  -0.0589
  C  C1067  1  0.419400  0.039300  0.073300  1.0  -0.1051
  C  C1068  1  0.418400  0.009900  0.051700  1.0  0.1918
  C  C1069  1  0.187000  0.829800  0.183800  1.0  0.1981
  C  C1070  1  0.231100  0.828700  0.160600  1.0  -0.1259
  C  C1071  1  0.257400  0.867000  0.155500  1.0  -0.0402
  C  C1072  1  0.244000  0.899800  0.170200  1.0  0.0752
  C  C1073  1  0.195700  0.897400  0.193600  1.0  0.1412
  C  C1074  1  0.174800  0.892000  0.289200  1.0  0.6017
  C  C1075  1  0.233400  0.909800  0.300800  1.0  -0.0917
  C  C1076  1  0.268100  0.932200  0.275800  1.0  -0.0573
  C  C1077  1  0.327300  0.939200  0.290500  1.0  -0.0705
  C  C1078  1  0.360400  0.932500  0.320800  1.0  -0.0797
  C  C1079  1  0.318400  0.913100  0.342200  1.0  -0.1087
  C  C1080  1  0.258900  0.901700  0.331800  1.0  -0.0439
  C  C1081  1  0.959800  0.448300  0.269800  1.0  0.6125
  C  C1082  1  0.958900  0.494500  0.263400  1.0  -0.0758
  C  C1083  1  0.903000  0.512700  0.271400  1.0  -0.1164
  C  C1084  1  0.891900  0.554700  0.264300  1.0  -0.1156
  C  C1085  1  0.934900  0.583900  0.250600  1.0  -0.1096
  C  C1086  1  0.988100  0.563000  0.241500  1.0  -0.1007
  C  C1087  1  0.001700  0.520400  0.247700  1.0  -0.0732
  C  C1088  1  0.131600  0.786800  0.271200  1.0  0.7547
  C  C1089  1  0.166100  0.748000  0.272600  1.0  -0.0636
  C  C1090  1  0.203900  0.731000  0.247000  1.0  -0.0403
  C  C1091  1  0.230600  0.694600  0.245500  1.0  -0.053
  C  C1092  1  0.226600  0.670500  0.271500  1.0  -0.0853
  C  C1093  1  0.201000  0.678500  0.300400  1.0  -0.1297
  C  C1094  1  0.175700  0.720600  0.300000  1.0  -0.0714
  C  C1095  1  0.003800  0.339700  0.308000  1.0  0.61
  C  C1096  1  0.012800  0.326600  0.343700  1.0  0.0715
  C  C1097  1  0.976700  0.307000  0.359200  1.0  -0.0549
  C  C1098  1  0.987900  0.294700  0.390700  1.0  -0.1057
  C  C1099  1  0.044400  0.303600  0.402000  1.0  -0.0748
  C  C1100  1  0.089800  0.325800  0.381300  1.0  -0.0912
  C  C1101  1  0.072100  0.337500  0.350200  1.0  -0.1037
  C  C1102  1  0.937200  0.810300  0.297300  1.0  0.7081
  C  C1103  1  0.885900  0.785400  0.311700  1.0  -0.0811
  C  C1104  1  0.901500  0.768700  0.343100  1.0  -0.1001
  C  C1105  1  0.858300  0.743900  0.359500  1.0  -0.1045
  C  C1106  1  0.799300  0.746900  0.349500  1.0  -0.1007
  C  C1107  1  0.784000  0.772500  0.323500  1.0  -0.0834
  C  C1108  1  0.824500  0.794100  0.306500  1.0  -0.1092
  C  C1109  1  0.973400  0.914900  0.323400  1.0  0.5755
  C  C1110  1  0.940700  0.939800  0.350300  1.0  -0.0715
  C  C1111  1  0.966400  0.940600  0.378900  1.0  -0.0764
  C  C1112  1  0.944500  0.964800  0.401300  1.0  -0.0827
  C  C1113  1  0.885200  0.984500  0.396000  1.0  -0.1033
  C  C1114  1  0.862600  0.979100  0.366500  1.0  -0.0824
  C  C1115  1  0.889700  0.958200  0.342100  1.0  -0.1092
  C  C1116  1  0.169700  0.404600  0.234100  1.0  0.1478
  C  C1117  1  0.224100  0.421900  0.237800  1.0  -0.0825
  C  C1118  1  0.229700  0.444900  0.263900  1.0  -0.0611
  C  C1119  1  0.185300  0.445900  0.289000  1.0  -0.0642
  C  C1120  1  0.133600  0.427900  0.284600  1.0  0.112
  C  C1121  1  0.126300  0.813600  0.365500  1.0  0.1529
  C  C1122  1  0.129000  0.787700  0.396300  1.0  -0.115
  C  C1123  1  0.080000  0.792300  0.414100  1.0  -0.0536
  C  C1124  1  0.033200  0.811800  0.407800  1.0  0.1988
  C  C1125  1  0.025100  0.828900  0.375800  1.0  0.0647
  C  C1126  1  0.343000  0.971800  0.964700  1.0  0.6199
  C  C1127  1  0.348100  0.013800  0.943500  1.0  -0.0831
  C  C1128  1  0.329900  0.020500  0.914400  1.0  -0.0846
  C  C1129  1  0.339800  0.057200  0.896500  1.0  -0.1514
  C  C1130  1  0.378800  0.087300  0.904600  1.0  -0.0905
  C  C1131  1  0.401800  0.078300  0.929000  1.0  -0.0712
  C  C1132  1  0.386500  0.046300  0.948600  1.0  -0.091
  C  C1133  1  0.898600  0.650300  0.084600  1.0  0.6266
  C  C1134  1  0.910200  0.660900  0.116600  1.0  -0.0869
  C  C1135  1  0.881000  0.642300  0.143000  1.0  -0.0316
  C  C1136  1  0.886400  0.645400  0.174800  1.0  -0.1563
  C  C1137  1  0.927000  0.679100  0.179300  1.0  -0.0868
  C  C1138  1  0.970300  0.698300  0.157600  1.0  -0.0793
  C  C1139  1  0.958900  0.683600  0.123500  1.0  -0.0533
  C  C1140  1  0.564700  0.940200  0.992000  1.0  -0.0304
  C  C1141  1  0.568700  0.978400  0.997200  1.0  -0.1078
  C  C1142  1  0.623700  0.003700  0.991400  1.0  -0.0675
  C  C1143  1  0.674100  0.980500  0.978400  1.0  -0.1264
  C  C1144  1  0.660200  0.940100  0.970000  1.0  -0.0507
  C  C1145  1  0.611700  0.912500  0.975800  1.0  -0.1497
  C  C1146  1  0.423600  0.857100  0.056400  1.0  0.5916
  C  C1147  1  0.447000  0.809500  0.094600  1.0  -0.1114
  C  C1148  1  0.427300  0.849900  0.090900  1.0  -0.0291
  C  C1149  1  0.417500  0.873700  0.118000  1.0  -0.0573
  C  C1150  1  0.425400  0.854400  0.149300  1.0  -0.0643
  C  C1151  1  0.447900  0.813400  0.151400  1.0  -0.0608
  C  C1152  1  0.456900  0.790300  0.124800  1.0  -0.1685
  C  C1153  1  0.824600  0.710600  0.026400  1.0  0.5915
  C  C1154  1  0.806800  0.757400  0.028500  1.0  -0.0978
  C  C1155  1  0.748000  0.747200  0.031500  1.0  -0.1341
  C  C1156  1  0.703700  0.779100  0.034700  1.0  -0.0579
  C  C1157  1  0.741900  0.815600  0.031400  1.0  -0.0969
  C  C1158  1  0.802900  0.827000  0.029000  1.0  -0.0968
  C  C1159  1  0.845000  0.792500  0.025500  1.0  -0.1267
  C  C1160  1  0.246400  0.906700  0.024900  1.0  0.6895
  C  C1161  1  0.196000  0.897400  0.046400  1.0  -0.0876
  C  C1162  1  0.196100  0.915100  0.076300  1.0  -0.0962
  C  C1163  1  0.154900  0.904300  0.099200  1.0  -0.0972
  C  C1164  1  0.108000  0.889100  0.085600  1.0  -0.0257
  C  C1165  1  0.099100  0.870300  0.055700  1.0  -0.1189
  C  C1166  1  0.145700  0.877000  0.037900  1.0  -0.0692
  C  C1167  1  0.565800  0.673100  0.202100  1.0  0.1905
  C  C1168  1  0.917900  0.768700  0.462500  1.0  0.3102
  C  C1169  1  0.621100  0.800900  0.480800  1.0  0.3084
  C  C1170  1  0.649200  0.758700  0.479800  1.0  -0.1734
  C  C1171  1  0.612400  0.726900  0.488000  1.0  -0.0518
  C  C1172  1  0.620000  0.684000  0.491100  1.0  -0.1586
  C  C1173  1  0.675300  0.676700  0.479100  1.0  -0.1238
  C  C1174  1  0.724200  0.699500  0.466000  1.0  -0.1387
  C  C1175  1  0.705100  0.741400  0.467700  1.0  -0.0433
  C  C1176  1  0.555400  0.869200  0.418600  1.0  0.667
  C  C1177  1  0.530700  0.870200  0.385100  1.0  -0.0679
  C  C1178  1  0.474800  0.857400  0.385800  1.0  -0.0826
  C  C1179  1  0.446200  0.860100  0.354200  1.0  -0.0998
  C  C1180  1  0.476700  0.871800  0.327400  1.0  -0.0869
  C  C1181  1  0.531100  0.890900  0.328000  1.0  -0.1291
  C  C1182  1  0.558900  0.891900  0.360900  1.0  -0.1072
  C  C1183  1  0.224000  0.581700  0.487000  1.0  0.4731
  C  C1184  1  0.155700  0.513800  0.539700  1.0  0.6459
  C  C1185  1  0.178300  0.475100  0.558300  1.0  -0.0254
  C  C1186  1  0.197100  0.475800  0.588700  1.0  -0.0628
  C  C1187  1  0.205900  0.440900  0.609400  1.0  -0.0412
  C  C1188  1  0.198800  0.409300  0.597800  1.0  -0.061
  C  C1189  1  0.172700  0.400500  0.566100  1.0  -0.125
  C  C1190  1  0.158800  0.436900  0.545900  1.0  -0.0925
  C  C1191  1  0.554300  0.881400  0.556900  1.0  0.7372
  C  C1192  1  0.547800  0.863800  0.592500  1.0  -0.1029
  C  C1193  1  0.528700  0.824100  0.599800  1.0  -0.05
  C  C1194  1  0.529800  0.804100  0.627300  1.0  -0.1346
  C  C1195  1  0.553600  0.832400  0.648900  1.0  -0.066
  C  C1196  1  0.574100  0.872800  0.648900  1.0  -0.1428
  C  C1197  1  0.579000  0.882800  0.617000  1.0  -0.0813
  C  C1198  1  0.471800  0.941800  0.491600  1.0  0.6402
  C  C1199  1  0.426400  0.971100  0.482400  1.0  -0.0842
  C  C1200  1  0.380800  0.959100  0.462800  1.0  -0.1164
  C  C1201  1  0.337300  0.979200  0.448300  1.0  -0.0797
  C  C1202  1  0.331900  0.018000  0.458600  1.0  -0.0359
  C  C1203  1  0.368400  0.035300  0.480400  1.0  -0.0823
  C  C1204  1  0.410300  0.010700  0.491900  1.0  -0.0577
  C  C1205  1  0.239800  0.602600  0.601600  1.0  0.1692
  C  C1206  1  0.281600  0.607500  0.623800  1.0  -0.1037
  C  C1207  1  0.323700  0.629400  0.612300  1.0  -0.0174
  C  C1208  1  0.327300  0.651300  0.584300  1.0  -0.0379
  C  C1209  1  0.277800  0.644500  0.564600  1.0  0.2054
  C  C1210  1  0.379300  0.680800  0.570500  1.0  0.399
  C  C1211  1  0.477500  0.695700  0.576800  1.0  0.2981
  C  C1212  1  0.455800  0.789300  0.510900  1.0  0.0641
  C  C1213  1  0.409600  0.762000  0.514900  1.0  0.3761
  C  C1214  1  0.361600  0.767300  0.499100  1.0  -0.1194
  C  C1215  1  0.362300  0.799000  0.478300  1.0  -0.0826
  C  C1216  1  0.412900  0.826200  0.473200  1.0  0.1576
  C  C1217  1  0.579900  0.035600  0.543800  1.0  0.1768
  C  C1218  1  0.582600  0.068300  0.565200  1.0  -0.1244
  C  C1219  1  0.610600  0.061500  0.596500  1.0  -0.061
  C  C1220  1  0.627800  0.019200  0.601600  1.0  0.0163
  C  C1221  1  0.628100  0.995000  0.577800  1.0  0.1227
  C  C1222  1  0.663800  0.014300  0.632900  1.0  0.247
  C  C1223  1  0.725100  0.970000  0.656900  1.0  0.4703
  C  C1224  1  0.695200  0.030300  0.679200  1.0  0.3535
  C  C1225  1  0.765700  0.939500  0.655300  1.0  -0.1169
  C  C1226  1  0.773700  0.904100  0.632500  1.0  -0.0464
  C  C1227  1  0.808700  0.872500  0.633200  1.0  -0.075
  C  C1228  1  0.845900  0.866200  0.659500  1.0  0.1196
  C  C1229  1  0.806500  0.926400  0.679800  1.0  0.0813
  C  C1230  1  0.013200  0.877600  0.690900  1.0  0.6243
  C  C1231  1  0.046400  0.861700  0.661000  1.0  -0.0636
  C  C1232  1  0.014700  0.859600  0.633000  1.0  -0.0379
  C  C1233  1  0.044900  0.849600  0.602500  1.0  -0.092
  C  C1234  1  0.098400  0.844300  0.603300  1.0  -0.0619
  C  C1235  1  0.129800  0.846500  0.630800  1.0  -0.0996
  C  C1236  1  0.106400  0.861500  0.658100  1.0  -0.1556
  C  C1237  1  0.958700  0.975200  0.729100  1.0  0.6683
  C  C1238  1  0.953700  0.023400  0.724500  1.0  -0.1027
  C  C1239  1  0.901600  0.047900  0.720300  1.0  -0.0476
  C  C1240  1  0.895200  0.092200  0.721000  1.0  -0.124
  C  C1241  1  0.952400  0.108100  0.727700  1.0  -0.0918
  C  C1242  1  0.005800  0.088800  0.734100  1.0  -0.0859
  C  C1243  1  0.009400  0.044800  0.731600  1.0  -0.1037
  C  C1244  1  0.996500  0.936600  0.824600  1.0  0.6435
  C  C1245  1  0.003600  0.969500  0.850900  1.0  -0.0507
  C  C1246  1  0.956800  0.979800  0.870500  1.0  -0.1187
  C  C1247  1  0.964600  0.009700  0.894400  1.0  -0.0551
  C  C1248  1  0.013900  0.032800  0.900800  1.0  -0.1041
  C  C1249  1  0.055400  0.014800  0.881400  1.0  -0.0779
  C  C1250  1  0.058400  0.988800  0.852500  1.0  -0.1353
  C  C1251  1  0.111300  0.814900  0.822800  1.0  -0.0655
  C  C1252  1  0.099300  0.792200  0.851800  1.0  -0.049
  C  C1253  1  0.146800  0.777000  0.875000  1.0  -0.1214
  C  C1254  1  0.203200  0.789100  0.864400  1.0  -0.0915
  C  C1255  1  0.215300  0.808300  0.835000  1.0  -0.0864
  C  C1256  1  0.168000  0.826200  0.813800  1.0  -0.066
  C  C1257  1  0.803600  0.904300  0.780000  1.0  0.476
  C  C1258  1  0.747600  0.917300  0.786100  1.0  -0.011
  C  C1259  1  0.709600  0.942900  0.765200  1.0  -0.0578
  C  C1260  1  0.659400  0.960100  0.770100  1.0  -0.1059
  C  C1261  1  0.638000  0.949800  0.799700  1.0  -0.0798
  C  C1262  1  0.666667  0.919800  0.820400  1.0  -0.0992
  C  C1263  1  0.721800  0.909700  0.814600  1.0  -0.1255
  C  C1264  1  0.874800  0.805400  0.749300  1.0  0.5612
  C  C1265  1  0.860500  0.761800  0.743500  1.0  0.05
  C  C1266  1  0.842700  0.750600  0.715100  1.0  -0.053
  C  C1267  1  0.823500  0.708600  0.707500  1.0  -0.1371
  C  C1268  1  0.820300  0.681600  0.732400  1.0  -0.0641
  C  C1269  1  0.845200  0.689800  0.762100  1.0  -0.0814
  C  C1270  1  0.858100  0.732900  0.767500  1.0  -0.0996
  C  C1271  1  0.859500  0.811800  0.849500  1.0  0.174
  C  C1272  1  0.843600  0.789300  0.877700  1.0  -0.1042
  C  C1273  1  0.891300  0.790000  0.900800  1.0  -0.1509
  C  C1274  1  0.935900  0.816300  0.895700  1.0  -0.1148
  C  C1275  1  0.941600  0.838800  0.867400  1.0  0.0959
  C  C1276  1  0.985300  0.818500  0.920300  1.0  0.3493
  C  C1277  1  0.033500  0.797000  0.959100  1.0  0.3264
  C  C1278  1  0.077700  0.840700  0.931800  1.0  0.1953
  C  C1279  1  0.033600  0.770300  0.989200  1.0  -0.0675
  C  C1280  1  0.082100  0.767300  0.011300  1.0  -0.0848
  C  C1281  1  0.083100  0.740900  0.039000  1.0  -0.1349
  C  C1282  1  0.037600  0.713100  0.040800  1.0  0.0651
  C  C1283  1  0.997800  0.737700  0.994900  1.0  0.0352
  C  C1284  1  0.006300  0.582200  0.002900  1.0  0.7032
  C  C1285  1  0.179400  0.864500  0.937200  1.0  0.1503
  C  C1286  1  0.130300  0.864700  0.917700  1.0  -0.0876
  C  C1287  1  0.125100  0.892900  0.891300  1.0  -0.0748
  C  C1288  1  0.171000  0.915000  0.883400  1.0  -0.1187
  C  C1289  1  0.231400  0.904200  0.902500  1.0  0.1352
  C  C1290  1  0.841100  0.428000  0.726500  1.0  0.1658
  C  C1291  1  0.787100  0.451600  0.728600  1.0  -0.1152
  C  C1292  1  0.777500  0.469900  0.757800  1.0  -0.0596
  C  C1293  1  0.815800  0.472900  0.781600  1.0  0.0574
  C  C1294  1  0.870200  0.450500  0.774600  1.0  0.159
  C  C1295  1  0.812600  0.502600  0.807400  1.0  0.5188
  C  C1296  1  0.776800  0.558600  0.828600  1.0  0.3356
  C  C1297  1  0.826500  0.514600  0.862000  1.0  0.3818
  C  C1298  1  0.857800  0.530700  0.915500  1.0  0.123
  C  C1299  1  0.858400  0.503900  0.886400  1.0  -0.0416
  C  C1300  1  0.896000  0.469600  0.895600  1.0  -0.0609
  C  C1301  1  0.919400  0.460700  0.926700  1.0  -0.1056
  C  C1302  1  0.918400  0.490100  0.948300  1.0  0.1925
  C  C1303  1  0.687000  0.670200  0.816200  1.0  0.1989
  C  C1304  1  0.731100  0.671300  0.839400  1.0  -0.1247
  C  C1305  1  0.757400  0.633000  0.844500  1.0  -0.0383
  C  C1306  1  0.744000  0.600200  0.829800  1.0  0.0753
  C  C1307  1  0.695700  0.602600  0.806400  1.0  0.1411
  C  C1308  1  0.674800  0.608000  0.710800  1.0  0.602
  C  C1309  1  0.733400  0.590200  0.699200  1.0  -0.0928
  C  C1310  1  0.768100  0.567800  0.724200  1.0  -0.0562
  C  C1311  1  0.827300  0.560800  0.709500  1.0  -0.0704
  C  C1312  1  0.860400  0.567500  0.679200  1.0  -0.0806
  C  C1313  1  0.818400  0.586900  0.657800  1.0  -0.1114
  C  C1314  1  0.758900  0.598300  0.668200  1.0  -0.0436
  C  C1315  1  0.459800  0.051700  0.730200  1.0  0.6125
  C  C1316  1  0.458900  0.005500  0.736600  1.0  -0.0754
  C  C1317  1  0.403000  0.987300  0.728600  1.0  -0.1173
  C  C1318  1  0.391900  0.945300  0.735700  1.0  -0.1155
  C  C1319  1  0.434900  0.916100  0.749400  1.0  -0.1054
  C  C1320  1  0.488100  0.937000  0.758500  1.0  -0.1005
  C  C1321  1  0.501700  0.979600  0.752300  1.0  -0.0735
  C  C1322  1  0.631600  0.713200  0.728800  1.0  0.7532
  C  C1323  1  0.666100  0.752000  0.727400  1.0  -0.0635
  C  C1324  1  0.703900  0.769000  0.753000  1.0  -0.0384
  C  C1325  1  0.730600  0.805400  0.754500  1.0  -0.053
  C  C1326  1  0.726600  0.829500  0.728500  1.0  -0.0838
  C  C1327  1  0.701000  0.821500  0.699600  1.0  -0.13
  C  C1328  1  0.675700  0.779400  0.700000  1.0  -0.0737
  C  C1329  1  0.503800  0.160300  0.692000  1.0  0.6118
  C  C1330  1  0.512800  0.173400  0.656300  1.0  0.0716
  C  C1331  1  0.476700  0.193000  0.640800  1.0  -0.0544
  C  C1332  1  0.487900  0.205300  0.609300  1.0  -0.1056
  C  C1333  1  0.544400  0.196400  0.598000  1.0  -0.0762
  C  C1334  1  0.589800  0.174200  0.618700  1.0  -0.092
  C  C1335  1  0.572100  0.162500  0.649800  1.0  -0.1047
  C  C1336  1  0.437200  0.689700  0.702700  1.0  0.7065
  C  C1337  1  0.385900  0.714600  0.688300  1.0  -0.0774
  C  C1338  1  0.401500  0.731300  0.656900  1.0  -0.1
  C  C1339  1  0.358300  0.756100  0.640500  1.0  -0.1035
  C  C1340  1  0.299300  0.753100  0.650500  1.0  -0.1005
  C  C1341  1  0.284000  0.727500  0.676500  1.0  -0.0844
  C  C1342  1  0.324500  0.705900  0.693500  1.0  -0.1104
  C  C1343  1  0.473400  0.585100  0.676600  1.0  0.5758
  C  C1344  1  0.440700  0.560200  0.649700  1.0  -0.0717
  C  C1345  1  0.466400  0.559400  0.621100  1.0  -0.0743
  C  C1346  1  0.444500  0.535200  0.598700  1.0  -0.0841
  C  C1347  1  0.385200  0.515500  0.604000  1.0  -0.1026
  C  C1348  1  0.362600  0.520900  0.633500  1.0  -0.0841
  C  C1349  1  0.389700  0.541800  0.657900  1.0  -0.1099
  C  C1350  1  0.669700  0.095400  0.765900  1.0  0.1487
  C  C1351  1  0.724100  0.078100  0.762200  1.0  -0.0814
  C  C1352  1  0.729700  0.055100  0.736100  1.0  -0.0617
  C  C1353  1  0.685300  0.054100  0.711000  1.0  -0.064
  C  C1354  1  0.633600  0.072100  0.715400  1.0  0.1122
  C  C1355  1  0.626300  0.686400  0.634500  1.0  0.1536
  C  C1356  1  0.629000  0.712300  0.603700  1.0  -0.1156
  C  C1357  1  0.580000  0.707700  0.585900  1.0  -0.051
  C  C1358  1  0.533200  0.688200  0.592200  1.0  0.1994
  C  C1359  1  0.525100  0.671100  0.624200  1.0  0.0645
  C  C1360  1  0.843000  0.528200  0.035300  1.0  0.6197
  C  C1361  1  0.848100  0.486200  0.056500  1.0  -0.0821
  C  C1362  1  0.829900  0.479500  0.085600  1.0  -0.0838
  C  C1363  1  0.839800  0.442800  0.103500  1.0  -0.152
  C  C1364  1  0.878800  0.412700  0.095400  1.0  -0.0921
  C  C1365  1  0.901800  0.421700  0.071000  1.0  -0.0701
  C  C1366  1  0.886500  0.453700  0.051400  1.0  -0.0905
  C  C1367  1  0.398600  0.849700  0.915400  1.0  0.6269
  C  C1368  1  0.410200  0.839100  0.883400  1.0  -0.0856
  C  C1369  1  0.381000  0.857700  0.857000  1.0  -0.0303
  C  C1370  1  0.386400  0.854600  0.825200  1.0  -0.1548
  C  C1371  1  0.427000  0.820900  0.820700  1.0  -0.0858
  C  C1372  1  0.470300  0.801700  0.842400  1.0  -0.0804
  C  C1373  1  0.458900  0.816400  0.876500  1.0  -0.0548
  C  C1374  1  0.064700  0.559800  0.008000  1.0  -0.0305
  C  C1375  1  0.068700  0.521600  0.002800  1.0  -0.1066
  C  C1376  1  0.123700  0.496300  0.008600  1.0  -0.0671
  C  C1377  1  0.174100  0.519500  0.021600  1.0  -0.1255
  C  C1378  1  0.160200  0.559900  0.030000  1.0  -0.0514
  C  C1379  1  0.111700  0.587500  0.024200  1.0  -0.1516
  C  C1380  1  0.923600  0.642900  0.943600  1.0  0.5904
  C  C1381  1  0.947000  0.690500  0.905400  1.0  -0.109
  C  C1382  1  0.927300  0.650100  0.909100  1.0  -0.0303
  C  C1383  1  0.917500  0.626300  0.882000  1.0  -0.0557
  C  C1384  1  0.925400  0.645600  0.850700  1.0  -0.0647
  C  C1385  1  0.947900  0.686600  0.848600  1.0  -0.0605
  C  C1386  1  0.956900  0.709700  0.875200  1.0  -0.1677
  C  C1387  1  0.324600  0.789400  0.973600  1.0  0.593
  C  C1388  1  0.306800  0.742600  0.971500  1.0  -0.0971
  C  C1389  1  0.248000  0.752800  0.968500  1.0  -0.134
  C  C1390  1  0.203700  0.720900  0.965300  1.0  -0.0567
  C  C1391  1  0.241900  0.684400  0.968600  1.0  -0.0968
  C  C1392  1  0.302900  0.673000  0.971000  1.0  -0.0957
  C  C1393  1  0.345000  0.707500  0.974500  1.0  -0.1264
  C  C1394  1  0.746400  0.593300  0.975100  1.0  0.6888
  C  C1395  1  0.696000  0.602600  0.953600  1.0  -0.0883
  C  C1396  1  0.696100  0.584900  0.923700  1.0  -0.0954
  C  C1397  1  0.654900  0.595700  0.900800  1.0  -0.0969
  C  C1398  1  0.608000  0.610900  0.914400  1.0  -0.0282
  C  C1399  1  0.599100  0.629700  0.944300  1.0  -0.1186
  C  C1400  1  0.645700  0.623000  0.962100  1.0  -0.0673
  C  C1401  1  0.065800  0.826900  0.797900  1.0  0.1891
  C  C1402  1  0.417900  0.731300  0.537500  1.0  0.3087
  C  C1403  1  0.878900  0.199100  0.980800  1.0  0.3089
  C  C1404  1  0.850800  0.241300  0.979800  1.0  -0.1729
  C  C1405  1  0.887600  0.273100  0.988000  1.0  -0.0513
  C  C1406  1  0.880000  0.316000  0.991100  1.0  -0.1591
  C  C1407  1  0.824700  0.323300  0.979100  1.0  -0.1249
  C  C1408  1  0.775800  0.300500  0.966000  1.0  -0.1399
  C  C1409  1  0.794900  0.258600  0.967700  1.0  -0.0436
  C  C1410  1  0.944600  0.130800  0.918600  1.0  0.6673
  C  C1411  1  0.969300  0.129800  0.885100  1.0  -0.0675
  C  C1412  1  0.025200  0.142600  0.885800  1.0  -0.0851
  C  C1413  1  0.053800  0.139900  0.854200  1.0  -0.099
  C  C1414  1  0.023300  0.128200  0.827400  1.0  -0.0874
  C  C1415  1  0.968900  0.109100  0.828000  1.0  -0.1298
  C  C1416  1  0.941100  0.108100  0.860900  1.0  -0.1055
  C  C1417  1  0.276000  0.418300  0.987000  1.0  0.4701
  C  C1418  1  0.344300  0.486200  0.039700  1.0  0.6459
  C  C1419  1  0.321700  0.524900  0.058300  1.0  -0.0264
  C  C1420  1  0.302900  0.524200  0.088700  1.0  -0.061
  C  C1421  1  0.294100  0.559100  0.109400  1.0  -0.0412
  C  C1422  1  0.301200  0.590700  0.097800  1.0  -0.062
  C  C1423  1  0.327300  0.599500  0.066100  1.0  -0.1242
  C  C1424  1  0.341200  0.563100  0.045900  1.0  -0.0928
  C  C1425  1  0.945700  0.118600  0.056900  1.0  0.7374
  C  C1426  1  0.952200  0.136200  0.092500  1.0  -0.1035
  C  C1427  1  0.971300  0.175900  0.099800  1.0  -0.0489
  C  C1428  1  0.970200  0.195900  0.127300  1.0  -0.1366
  C  C1429  1  0.946400  0.167600  0.148900  1.0  -0.0652
  C  C1430  1  0.925900  0.127200  0.148900  1.0  -0.1459
  C  C1431  1  0.921000  0.117200  0.117000  1.0  -0.0806
  C  C1432  1  0.028200  0.058200  0.991600  1.0  0.6419
  C  C1433  1  0.073600  0.028900  0.982400  1.0  -0.0851
  C  C1434  1  0.119200  0.040900  0.962800  1.0  -0.1161
  C  C1435  1  0.162700  0.020800  0.948300  1.0  -0.0779
  C  C1436  1  0.168100  0.982000  0.958600  1.0  -0.0339
  C  C1437  1  0.131600  0.964700  0.980400  1.0  -0.0831
  C  C1438  1  0.089700  0.989300  0.991900  1.0  -0.0591
  C  C1439  1  0.260200  0.397400  0.101600  1.0  0.1669
  C  C1440  1  0.218400  0.392500  0.123800  1.0  -0.1035
  C  C1441  1  0.176300  0.370600  0.112300  1.0  -0.0155
  C  C1442  1  0.172700  0.348700  0.084300  1.0  -0.0373
  C  C1443  1  0.222200  0.355500  0.064600  1.0  0.2058
  C  C1444  1  0.120700  0.319200  0.070500  1.0  0.4001
  C  C1445  1  0.022500  0.304300  0.076800  1.0  0.2972
  C  C1446  1  0.044200  0.210700  0.010900  1.0  0.0659
  C  C1447  1  0.090400  0.238000  0.014900  1.0  0.3743
  C  C1448  1  0.138400  0.232700  0.999100  1.0  -0.1193
  C  C1449  1  0.137700  0.201000  0.978300  1.0  -0.0801
  C  C1450  1  0.087100  0.173800  0.973200  1.0  0.1568
  C  C1451  1  0.920100  0.964400  0.043800  1.0  0.1766
  C  C1452  1  0.917400  0.931700  0.065200  1.0  -0.1239
  C  C1453  1  0.889400  0.938500  0.096500  1.0  -0.0609
  C  C1454  1  0.872200  0.980800  0.101600  1.0  0.016
  C  C1455  1  0.871900  0.005000  0.077800  1.0  0.1237
  C  C1456  1  0.836200  0.985700  0.132900  1.0  0.2472
  C  C1457  1  0.774900  0.030000  0.156900  1.0  0.4698
  C  C1458  1  0.804800  0.969700  0.179200  1.0  0.3531
  C  C1459  1  0.734300  0.060500  0.155300  1.0  -0.1183
  C  C1460  1  0.726300  0.095900  0.132500  1.0  -0.0474
  C  C1461  1  0.691300  0.127500  0.133200  1.0  -0.0744
  C  C1462  1  0.654100  0.133800  0.159500  1.0  0.1217
  C  C1463  1  0.693500  0.073600  0.179800  1.0  0.0813
  C  C1464  1  0.486800  0.122400  0.190900  1.0  0.6236
  C  C1465  1  0.453600  0.138300  0.161000  1.0  -0.0618
  C  C1466  1  0.485300  0.140400  0.133000  1.0  -0.0352
  C  C1467  1  0.455100  0.150400  0.102500  1.0  -0.0918
  C  C1468  1  0.401600  0.155700  0.103300  1.0  -0.0604
  C  C1469  1  0.370200  0.153500  0.130800  1.0  -0.0993
  C  C1470  1  0.393600  0.138500  0.158100  1.0  -0.1553
  C  C1471  1  0.541300  0.024800  0.229100  1.0  0.6691
  C  C1472  1  0.546300  0.976600  0.224500  1.0  -0.1032
  C  C1473  1  0.598400  0.952100  0.220300  1.0  -0.0481
  C  C1474  1  0.604800  0.907800  0.221000  1.0  -0.1207
  C  C1475  1  0.547600  0.891900  0.227700  1.0  -0.0928
  C  C1476  1  0.494200  0.911200  0.234100  1.0  -0.087
  C  C1477  1  0.490600  0.955200  0.231600  1.0  -0.1031
  C  C1478  1  0.503500  0.063400  0.324600  1.0  0.644
  C  C1479  1  0.496400  0.030500  0.350900  1.0  -0.0487
  C  C1480  1  0.543200  0.020200  0.370500  1.0  -0.1195
  C  C1481  1  0.535400  0.990300  0.394400  1.0  -0.0544
  C  C1482  1  0.486100  0.967200  0.400800  1.0  -0.1055
  C  C1483  1  0.444600  0.985200  0.381400  1.0  -0.0771
  C  C1484  1  0.441600  0.011200  0.352500  1.0  -0.136
  C  C1485  1  0.388700  0.185100  0.322800  1.0  -0.0637
  C  C1486  1  0.400700  0.207800  0.351800  1.0  -0.0485
  C  C1487  1  0.353200  0.223000  0.375000  1.0  -0.1239
  C  C1488  1  0.296800  0.210900  0.364400  1.0  -0.0926
  C  C1489  1  0.284700  0.191700  0.335000  1.0  -0.0933
  C  C1490  1  0.332000  0.173800  0.313800  1.0  -0.065
  C  C1491  1  0.696400  0.095700  0.280000  1.0  0.4765
  C  C1492  1  0.752400  0.082700  0.286100  1.0  -0.0119
  C  C1493  1  0.790400  0.057100  0.265200  1.0  -0.0591
  C  C1494  1  0.840600  0.039900  0.270100  1.0  -0.1049
  C  C1495  1  0.862000  0.050200  0.299700  1.0  -0.0793
  C  C1496  1  0.833400  0.080200  0.320400  1.0  -0.0973
  C  C1497  1  0.778200  0.090300  0.314600  1.0  -0.1297
  C  C1498  1  0.625200  0.194600  0.249300  1.0  0.5613
  C  C1499  1  0.639500  0.238200  0.243500  1.0  0.052
  C  C1500  1  0.657300  0.249400  0.215100  1.0  -0.0522
  C  C1501  1  0.676500  0.291400  0.207500  1.0  -0.1373
  C  C1502  1  0.679700  0.318400  0.232400  1.0  -0.0639
  C  C1503  1  0.654800  0.310200  0.262100  1.0  -0.0827
  C  C1504  1  0.641900  0.267100  0.267500  1.0  -0.1004
  C  C1505  1  0.640500  0.188200  0.349500  1.0  0.1724
  C  C1506  1  0.656400  0.210700  0.377700  1.0  -0.1045
  C  C1507  1  0.608700  0.210000  0.400800  1.0  -0.1497
  C  C1508  1  0.564100  0.183700  0.395700  1.0  -0.1139
  C  C1509  1  0.558400  0.161200  0.367400  1.0  0.0967
  C  C1510  1  0.514700  0.181500  0.420300  1.0  0.3493
  C  C1511  1  0.466500  0.203000  0.459100  1.0  0.3271
  C  C1512  1  0.422300  0.159300  0.431800  1.0  0.1948
  C  C1513  1  0.466400  0.229700  0.489200  1.0  -0.0685
  C  C1514  1  0.417900  0.232700  0.511300  1.0  -0.0846
  C  C1515  1  0.416900  0.259100  0.539000  1.0  -0.1365
  C  C1516  1  0.462400  0.286900  0.540800  1.0  0.0645
  C  C1517  1  0.502200  0.262300  0.494900  1.0  0.0347
  C  C1518  1  0.493700  0.417800  0.502900  1.0  0.7032
  C  C1519  1  0.320600  0.135500  0.437200  1.0  0.1505
  C  C1520  1  0.369700  0.135300  0.417700  1.0  -0.0877
  C  C1521  1  0.374900  0.107100  0.391300  1.0  -0.0744
  C  C1522  1  0.329000  0.085000  0.383400  1.0  -0.1186
  C  C1523  1  0.268600  0.095800  0.402500  1.0  0.134
  C  C1524  1  0.658900  0.572000  0.226500  1.0  0.1657
  C  C1525  1  0.712900  0.548400  0.228600  1.0  -0.1144
  C  C1526  1  0.722500  0.530100  0.257800  1.0  -0.0602
  C  C1527  1  0.684200  0.527100  0.281600  1.0  0.057
  C  C1528  1  0.629800  0.549500  0.274600  1.0  0.1596
  C  C1529  1  0.687400  0.497400  0.307400  1.0  0.5204
  C  C1530  1  0.723200  0.441400  0.328600  1.0  0.3353
  C  C1531  1  0.673500  0.485400  0.362000  1.0  0.3806
  C  C1532  1  0.642200  0.469300  0.415500  1.0  0.1236
  C  C1533  1  0.641600  0.496100  0.386400  1.0  -0.0416
  C  C1534  1  0.604000  0.530400  0.395600  1.0  -0.0621
  C  C1535  1  0.580600  0.539300  0.426700  1.0  -0.1064
  C  C1536  1  0.581600  0.509900  0.448300  1.0  0.1923
  C  C1537  1  0.813000  0.329800  0.316200  1.0  0.1979
  C  C1538  1  0.768900  0.328700  0.339400  1.0  -0.1261
  C  C1539  1  0.742600  0.367000  0.344500  1.0  -0.0389
  C  C1540  1  0.756000  0.399800  0.329800  1.0  0.0751
  C  C1541  1  0.804300  0.397400  0.306400  1.0  0.1416
  C  C1542  1  0.825200  0.392000  0.210800  1.0  0.6012
  C  C1543  1  0.766600  0.409800  0.199200  1.0  -0.0931
  C  C1544  1  0.731900  0.432200  0.224200  1.0  -0.0558
  C  C1545  1  0.672700  0.439200  0.209500  1.0  -0.0709
  C  C1546  1  0.639600  0.432500  0.179200  1.0  -0.0797
  C  C1547  1  0.681600  0.413100  0.157800  1.0  -0.1116
  C  C1548  1  0.741100  0.401700  0.168200  1.0  -0.0445
  C  C1549  1  0.040200  0.948300  0.230200  1.0  0.6119
  C  C1550  1  0.041100  0.994500  0.236600  1.0  -0.0765
  C  C1551  1  0.097000  0.012700  0.228600  1.0  -0.1169
  C  C1552  1  0.108100  0.054700  0.235700  1.0  -0.1106
  C  C1553  1  0.065100  0.083900  0.249400  1.0  -0.1084
  C  C1554  1  0.011900  0.063000  0.258500  1.0  -0.1012
  C  C1555  1  0.998300  0.020400  0.252300  1.0  -0.0746
  C  C1556  1  0.868400  0.286800  0.228800  1.0  0.7558
  C  C1557  1  0.833900  0.248000  0.227400  1.0  -0.0647
  C  C1558  1  0.796100  0.231000  0.253000  1.0  -0.0376
  C  C1559  1  0.769400  0.194600  0.254500  1.0  -0.0501
  C  C1560  1  0.773400  0.170500  0.228500  1.0  -0.0844
  C  C1561  1  0.799000  0.178500  0.199600  1.0  -0.129
  C  C1562  1  0.824300  0.220600  0.200000  1.0  -0.0721
  C  C1563  1  0.996200  0.839700  0.192000  1.0  0.6125
  C  C1564  1  0.987200  0.826600  0.156300  1.0  0.0685
  C  C1565  1  0.023300  0.807000  0.140800  1.0  -0.0528
  C  C1566  1  0.012100  0.794700  0.109300  1.0  -0.1053
  C  C1567  1  0.955600  0.803600  0.098000  1.0  -0.0774
  C  C1568  1  0.910200  0.825800  0.118700  1.0  -0.0921
  C  C1569  1  0.927900  0.837500  0.149800  1.0  -0.1051
  C  C1570  1  0.062800  0.310300  0.202700  1.0  0.7077
  C  C1571  1  0.114100  0.285400  0.188300  1.0  -0.0805
  C  C1572  1  0.098500  0.268700  0.156900  1.0  -0.1002
  C  C1573  1  0.141700  0.243900  0.140500  1.0  -0.1044
  C  C1574  1  0.200700  0.246900  0.150500  1.0  -0.0979
  C  C1575  1  0.216000  0.272500  0.176500  1.0  -0.0809
  C  C1576  1  0.175500  0.294100  0.193500  1.0  -0.1088
  C  C1577  1  0.026600  0.414900  0.176600  1.0  0.5745
  C  C1578  1  0.059300  0.439800  0.149700  1.0  -0.0705
  C  C1579  1  0.033600  0.440600  0.121100  1.0  -0.0763
  C  C1580  1  0.055500  0.464800  0.098700  1.0  -0.0834
  C  C1581  1  0.114800  0.484500  0.104000  1.0  -0.1027
  C  C1582  1  0.137400  0.479100  0.133500  1.0  -0.0815
  C  C1583  1  0.110300  0.458200  0.157900  1.0  -0.1095
  C  C1584  1  0.830300  0.904600  0.265900  1.0  0.1486
  C  C1585  1  0.775900  0.921900  0.262200  1.0  -0.0822
  C  C1586  1  0.770300  0.944900  0.236100  1.0  -0.0614
  C  C1587  1  0.814700  0.945900  0.211000  1.0  -0.0638
  C  C1588  1  0.866400  0.927900  0.215400  1.0  0.1108
  C  C1589  1  0.873700  0.313600  0.134500  1.0  0.1528
  C  C1590  1  0.871000  0.287700  0.103700  1.0  -0.1173
  C  C1591  1  0.920000  0.292300  0.085900  1.0  -0.0498
  C  C1592  1  0.966800  0.311800  0.092200  1.0  0.2016
  C  C1593  1  0.974900  0.328900  0.124200  1.0  0.063
  C  C1594  1  0.657000  0.471800  0.535300  1.0  0.619
  C  C1595  1  0.651900  0.513800  0.556500  1.0  -0.0826
  C  C1596  1  0.670100  0.520500  0.585600  1.0  -0.0824
  C  C1597  1  0.660200  0.557200  0.603500  1.0  -0.1499
  C  C1598  1  0.621200  0.587300  0.595400  1.0  -0.0891
  C  C1599  1  0.598200  0.578300  0.571000  1.0  -0.0734
  C  C1600  1  0.613500  0.546300  0.551400  1.0  -0.092
  C  C1601  1  0.101400  0.150300  0.415400  1.0  0.6266
  C  C1602  1  0.089800  0.160900  0.383400  1.0  -0.0854
  C  C1603  1  0.119000  0.142300  0.357000  1.0  -0.0322
  C  C1604  1  0.113600  0.145400  0.325200  1.0  -0.1555
  C  C1605  1  0.073000  0.179100  0.320700  1.0  -0.086
  C  C1606  1  0.029700  0.198300  0.342400  1.0  -0.0828
  C  C1607  1  0.041100  0.183600  0.376500  1.0  -0.0553
  C  C1608  1  0.435300  0.440200  0.508000  1.0  -0.0293
  C  C1609  1  0.431300  0.478400  0.502800  1.0  -0.1076
  C  C1610  1  0.376300  0.503700  0.508600  1.0  -0.0674
  C  C1611  1  0.325900  0.480500  0.521600  1.0  -0.1284
  C  C1612  1  0.339800  0.440100  0.530000  1.0  -0.0499
  C  C1613  1  0.388300  0.412500  0.524200  1.0  -0.15
  C  C1614  1  0.576400  0.357100  0.443600  1.0  0.5898
  C  C1615  1  0.553000  0.309500  0.405400  1.0  -0.1101
  C  C1616  1  0.572700  0.349900  0.409100  1.0  -0.0295
  C  C1617  1  0.582500  0.373700  0.382000  1.0  -0.0567
  C  C1618  1  0.574600  0.354400  0.350700  1.0  -0.0628
  C  C1619  1  0.552100  0.313400  0.348600  1.0  -0.0613
  C  C1620  1  0.543100  0.290300  0.375200  1.0  -0.1691
  C  C1621  1  0.175400  0.210600  0.473600  1.0  0.591
  C  C1622  1  0.193200  0.257400  0.471500  1.0  -0.1005
  C  C1623  1  0.252000  0.247200  0.468500  1.0  -0.1321
  C  C1624  1  0.296300  0.279100  0.465300  1.0  -0.0516
  C  C1625  1  0.258100  0.315600  0.468600  1.0  -0.0984
  C  C1626  1  0.197100  0.327000  0.471000  1.0  -0.0981
  C  C1627  1  0.155000  0.292500  0.474500  1.0  -0.1299
  C  C1628  1  0.753600  0.406700  0.475100  1.0  0.6887
  C  C1629  1  0.804000  0.397400  0.453600  1.0  -0.0901
  C  C1630  1  0.803900  0.415100  0.423700  1.0  -0.0965
  C  C1631  1  0.845100  0.404300  0.400800  1.0  -0.0971
  C  C1632  1  0.892000  0.389100  0.414400  1.0  -0.0295
  C  C1633  1  0.900900  0.370300  0.444300  1.0  -0.119
  C  C1634  1  0.854300  0.377000  0.462100  1.0  -0.0677
  C  C1635  1  0.434200  0.173100  0.297900  1.0  0.1883
  C  C1636  1  0.082100  0.268700  0.037500  1.0  0.3096
  N  N1637  1  0.535600  0.322100  0.011600  1.0  -0.3902
  N  N1638  1  0.765600  0.120300  0.928500  1.0  -0.3013
  N  N1639  1  0.396400  0.497600  0.951100  1.0  -0.2704
  N  N1640  1  0.630800  0.210200  0.951400  1.0  -0.3982
  N  N1641  1  0.571400  0.174900  0.913100  1.0  -0.4195
  N  N1642  1  0.527700  0.226800  0.946400  1.0  -0.4112
  N  N1643  1  0.300000  0.476200  0.869100  1.0  -0.2324
  N  N1644  1  0.342900  0.538300  0.844300  1.0  -0.2424
  N  N1645  1  0.269800  0.497900  0.818800  1.0  -0.4199
  N  N1646  1  0.153900  0.394000  0.816100  1.0  -0.3638
  N  N1647  1  0.100500  0.334800  0.656500  1.0  -0.2444
  N  N1648  1  0.117200  0.931700  0.753300  1.0  -0.2926
  N  N1649  1  0.016900  0.294200  0.556400  1.0  -0.2898
  N  N1650  1  0.973000  0.346200  0.589400  1.0  -0.4111
  N  N1651  1  0.916800  0.317600  0.543700  1.0  -0.319
  N  N1652  1  0.162200  0.988100  0.666400  1.0  -0.2895
  N  N1653  1  0.192600  0.049900  0.643200  1.0  -0.3321
  N  N1654  1  0.225000  0.032200  0.693800  1.0  -0.2634
  N  N1655  1  0.111800  0.023800  0.555300  1.0  -0.3125
  N  N1656  1  0.334800  0.137400  0.698000  1.0  -0.2935
  N  N1657  1  0.765600  0.384800  0.570200  1.0  -0.3296
  N  N1658  1  0.424400  0.169400  0.856400  1.0  -0.3499
  N  N1659  1  0.371000  0.599300  0.756900  1.0  -0.3469
  N  N1660  1  0.007800  0.205100  0.486300  1.0  -0.3961
  N  N1661  1  0.964400  0.677900  0.511600  1.0  -0.3889
  N  N1662  1  0.734400  0.879700  0.428500  1.0  -0.3002
  N  N1663  1  0.103600  0.502400  0.451100  1.0  -0.2709
  N  N1664  1  0.869200  0.789800  0.451400  1.0  -0.3971
  N  N1665  1  0.928600  0.825100  0.413100  1.0  -0.4197
  N  N1666  1  0.972300  0.773200  0.446400  1.0  -0.4094
  N  N1667  1  0.200000  0.523800  0.369100  1.0  -0.2322
  N  N1668  1  0.157100  0.461700  0.344300  1.0  -0.2434
  N  N1669  1  0.230200  0.502100  0.318800  1.0  -0.4205
  N  N1670  1  0.346100  0.606000  0.316100  1.0  -0.3614
  N  N1671  1  0.399500  0.665200  0.156500  1.0  -0.2436
  N  N1672  1  0.382800  0.068300  0.253300  1.0  -0.2904
  N  N1673  1  0.483100  0.705800  0.056400  1.0  -0.2911
  N  N1674  1  0.527000  0.653800  0.089400  1.0  -0.4117
  N  N1675  1  0.583200  0.682400  0.043700  1.0  -0.3187
  N  N1676  1  0.337800  0.011900  0.166400  1.0  -0.2878
  N  N1677  1  0.307400  0.950100  0.143200  1.0  -0.3333
  N  N1678  1  0.275000  0.967800  0.193800  1.0  -0.2668
  N  N1679  1  0.388200  0.976200  0.055300  1.0  -0.314
  N  N1680  1  0.165200  0.862600  0.198000  1.0  -0.2961
  N  N1681  1  0.734400  0.615200  0.070200  1.0  -0.329
  N  N1682  1  0.075600  0.830600  0.356400  1.0  -0.3496
  N  N1683  1  0.129000  0.400700  0.256900  1.0  -0.3473
  N  N1684  1  0.492200  0.794900  0.986300  1.0  -0.3973
  N  N1685  1  0.464400  0.822100  0.488400  1.0  -0.3892
  N  N1686  1  0.234400  0.620300  0.571500  1.0  -0.3007
  N  N1687  1  0.603600  0.997600  0.548900  1.0  -0.2702
  N  N1688  1  0.369200  0.710200  0.548600  1.0  -0.3967
  N  N1689  1  0.428600  0.674900  0.586900  1.0  -0.4202
  N  N1690  1  0.472300  0.726800  0.553600  1.0  -0.4102
  N  N1691  1  0.700000  0.976200  0.630900  1.0  -0.2341
  N  N1692  1  0.657100  0.038300  0.655700  1.0  -0.2419
  N  N1693  1  0.730200  0.997900  0.681200  1.0  -0.4226
  N  N1694  1  0.846100  0.894000  0.683900  1.0  -0.3619
  N  N1695  1  0.899500  0.834800  0.843500  1.0  -0.2458
  N  N1696  1  0.882800  0.431700  0.746700  1.0  -0.2898
  N  N1697  1  0.983100  0.794200  0.943600  1.0  -0.2927
  N  N1698  1  0.027000  0.846200  0.910600  1.0  -0.4117
  N  N1699  1  0.083200  0.817600  0.956300  1.0  -0.3175
  N  N1700  1  0.837800  0.488100  0.833600  1.0  -0.2871
  N  N1701  1  0.807400  0.549900  0.856800  1.0  -0.3318
  N  N1702  1  0.775000  0.532200  0.806200  1.0  -0.2671
  N  N1703  1  0.888200  0.523800  0.944700  1.0  -0.3136
  N  N1704  1  0.665200  0.637400  0.802000  1.0  -0.2954
  N  N1705  1  0.234400  0.884800  0.929800  1.0  -0.3291
  N  N1706  1  0.575600  0.669400  0.643600  1.0  -0.35
  N  N1707  1  0.629000  0.099300  0.743100  1.0  -0.3467
  N  N1708  1  0.992200  0.705100  0.013700  1.0  -0.3964
  N  N1709  1  0.035600  0.177900  0.988400  1.0  -0.3904
  N  N1710  1  0.265600  0.379700  0.071500  1.0  -0.3018
  N  N1711  1  0.896400  0.002400  0.048900  1.0  -0.2703
  N  N1712  1  0.130800  0.289800  0.048600  1.0  -0.3977
  N  N1713  1  0.071400  0.325100  0.086900  1.0  -0.4205
  N  N1714  1  0.027700  0.273200  0.053600  1.0  -0.4119
  N  N1715  1  0.800000  0.023800  0.130900  1.0  -0.2345
  N  N1716  1  0.842900  0.961700  0.155700  1.0  -0.2438
  N  N1717  1  0.769800  0.002100  0.181200  1.0  -0.4216
  N  N1718  1  0.653900  0.106000  0.183900  1.0  -0.3648
  N  N1719  1  0.600500  0.165200  0.343500  1.0  -0.2457
  N  N1720  1  0.617200  0.568300  0.246700  1.0  -0.2923
  N  N1721  1  0.516900  0.205800  0.443600  1.0  -0.2901
  N  N1722  1  0.473000  0.153800  0.410600  1.0  -0.4104
  N  N1723  1  0.416800  0.182400  0.456300  1.0  -0.3179
  N  N1724  1  0.662200  0.511900  0.333600  1.0  -0.2896
  N  N1725  1  0.692600  0.450100  0.356800  1.0  -0.3323
  N  N1726  1  0.725000  0.467800  0.306200  1.0  -0.2653
  N  N1727  1  0.611800  0.476200  0.444700  1.0  -0.3132
  N  N1728  1  0.834800  0.362600  0.302000  1.0  -0.2937
  N  N1729  1  0.265600  0.115200  0.429800  1.0  -0.3299
  N  N1730  1  0.924400  0.330600  0.143600  1.0  -0.3515
  N  N1731  1  0.871000  0.900700  0.243100  1.0  -0.3449
  N  N1732  1  0.507800  0.294900  0.513700  1.0  -0.3975
  O  O1733  1  0.422600  0.309500  0.009200  1.0  -0.5623
  O  O1734  1  0.400600  0.400400  0.012100  1.0  -0.9366
  O  O1735  1  0.332900  0.326100  0.034900  1.0  -0.7636
  O  O1736  1  0.048000  0.386000  0.738580  1.0  -0.9344
  O  O1737  1  0.473700  0.357100  0.059100  1.0  -0.5551
  O  O1738  1  0.125900  0.116200  0.490100  1.0  -0.9336
  O  O1739  1  0.389600  0.382100  0.078300  1.0  -0.6074
  O  O1740  1  0.457900  0.137600  0.767700  1.0  -0.9232
  O  O1741  1  0.774300  0.107600  0.992800  1.0  -0.5329
  O  O1742  1  0.813800  0.057400  0.026300  1.0  -0.5675
  O  O1743  1  0.826500  0.050500  0.948300  1.0  -0.5971
  O  O1744  1  0.876400  0.008700  0.983900  1.0  -0.546
  O  O1745  1  0.417600  0.413700  0.944500  1.0  -0.5506
  O  O1746  1  0.470000  0.359100  0.963600  1.0  -0.5875
  O  O1747  1  0.487200  0.464300  0.992600  1.0  -0.6028
  O  O1748  1  0.529300  0.405400  0.013000  1.0  -0.5613
  O  O1749  1  0.171500  0.407600  0.751200  1.0  -0.6134
  O  O1750  1  0.159800  0.383200  0.699600  1.0  -0.6004
  O  O1751  1  0.123600  0.329200  0.772900  1.0  -0.5382
  O  O1752  1  0.107100  0.308800  0.720300  1.0  -0.5595
  O  O1753  1  0.049600  0.411500  0.675900  1.0  -0.6091
  O  O1754  1  0.965600  0.432700  0.698000  1.0  -0.5962
  O  O1755  1  0.994200  0.333333  0.694300  1.0  -0.7132
  O  O1756  1  0.924000  0.357300  0.726100  1.0  -0.639
  O  O1757  1  0.992700  0.460200  0.761600  1.0  -0.5807
  O  O1758  1  0.088600  0.454900  0.781500  1.0  -0.5508
  O  O1759  1  0.948300  0.382000  0.787700  1.0  -0.5768
  O  O1760  1  0.042200  0.373500  0.810200  1.0  -0.5669
  O  O1761  1  0.187700  0.057000  0.450700  1.0  -0.5992
  O  O1762  1  0.136500  0.022800  0.491500  1.0  -0.5265
  O  O1763  1  0.255800  0.112900  0.497500  1.0  -0.5589
  O  O1764  1  0.207300  0.074100  0.534500  1.0  -0.5906
  O  O1765  1  0.035200  0.060200  0.512400  1.0  -0.5904
  O  O1766  1  0.000000  0.116400  0.486300  1.0  -0.5647
  O  O1767  1  0.100800  0.107800  0.557300  1.0  -0.6189
  O  O1768  1  0.059800  0.163800  0.533400  1.0  -0.5671
  O  O1769  1  0.623300  0.294000  0.513600  1.0  -0.5938
  O  O1770  1  0.706300  0.320400  0.535400  1.0  -0.5994
  O  O1771  1  0.564300  0.340800  0.564200  1.0  -0.5555
  O  O1772  1  0.648800  0.375600  0.579700  1.0  -0.5959
  O  O1773  1  0.340200  0.109200  0.759500  1.0  -0.5979
  O  O1774  1  0.359800  0.121500  0.812400  1.0  -0.56
  O  O1775  1  0.366400  0.192700  0.747000  1.0  -0.6093
  O  O1776  1  0.393400  0.204100  0.795000  1.0  -0.5927
  O  O1777  1  0.552600  0.663100  0.799000  1.0  -0.6227
  O  O1778  1  0.461200  0.645000  0.790500  1.0  -0.5481
  O  O1779  1  0.581300  0.577400  0.781200  1.0  -0.5784
  O  O1780  1  0.488600  0.563500  0.763100  1.0  -0.6015
  O  O1781  1  0.555700  0.092400  0.796800  1.0  -0.606
  O  O1782  1  0.479100  0.105900  0.829300  1.0  -0.6034
  O  O1783  1  0.578600  0.169400  0.773600  1.0  -0.5891
  O  O1784  1  0.515900  0.185700  0.813900  1.0  -0.5941
  O  O1785  1  0.077400  0.690500  0.509200  1.0  -0.5611
  O  O1786  1  0.099400  0.599600  0.512100  1.0  -0.9376
  O  O1787  1  0.167100  0.673900  0.534900  1.0  -0.7641
  O  O1788  1  0.452000  0.614000  0.238580  1.0  -0.9343
  O  O1789  1  0.026300  0.642900  0.559100  1.0  -0.5552
  O  O1790  1  0.374100  0.883800  0.990100  1.0  -0.9333
  O  O1791  1  0.110400  0.617900  0.578300  1.0  -0.6057
  O  O1792  1  0.042100  0.862400  0.267700  1.0  -0.9229
  O  O1793  1  0.725700  0.892400  0.492800  1.0  -0.5316
  O  O1794  1  0.686200  0.942600  0.526300  1.0  -0.5677
  O  O1795  1  0.673500  0.949500  0.448300  1.0  -0.5972
  O  O1796  1  0.623600  0.991300  0.483900  1.0  -0.5455
  O  O1797  1  0.082400  0.586300  0.444500  1.0  -0.5515
  O  O1798  1  0.030000  0.640900  0.463600  1.0  -0.5883
  O  O1799  1  0.012800  0.535700  0.492600  1.0  -0.6037
  O  O1800  1  0.970700  0.594600  0.513000  1.0  -0.5625
  O  O1801  1  0.328500  0.592400  0.251200  1.0  -0.613
  O  O1802  1  0.340200  0.616800  0.199600  1.0  -0.6003
  O  O1803  1  0.376400  0.670800  0.272900  1.0  -0.538
  O  O1804  1  0.392900  0.691200  0.220300  1.0  -0.5596
  O  O1805  1  0.450400  0.588500  0.175900  1.0  -0.6115
  O  O1806  1  0.534400  0.567300  0.198000  1.0  -0.5973
  O  O1807  1  0.505800  0.666667  0.194300  1.0  -0.7121
  O  O1808  1  0.576000  0.642700  0.226100  1.0  -0.6386
  O  O1809  1  0.507300  0.539800  0.261600  1.0  -0.5809
  O  O1810  1  0.411400  0.545100  0.281500  1.0  -0.5516
  O  O1811  1  0.551700  0.618000  0.287700  1.0  -0.5759
  O  O1812  1  0.457800  0.626500  0.310200  1.0  -0.5666
  O  O1813  1  0.312300  0.943000  0.950700  1.0  -0.5986
  O  O1814  1  0.363500  0.977200  0.991500  1.0  -0.5264
  O  O1815  1  0.244200  0.887100  0.997500  1.0  -0.5591
  O  O1816  1  0.292700  0.925900  0.034500  1.0  -0.5899
  O  O1817  1  0.464800  0.939800  0.012400  1.0  -0.5906
  O  O1818  1  0.500000  0.883600  0.986300  1.0  -0.5656
  O  O1819  1  0.399200  0.892200  0.057300  1.0  -0.6184
  O  O1820  1  0.440200  0.836200  0.033400  1.0  -0.5669
  O  O1821  1  0.876700  0.706000  0.013600  1.0  -0.5933
  O  O1822  1  0.793700  0.679600  0.035400  1.0  -0.6001
  O  O1823  1  0.935700  0.659200  0.064200  1.0  -0.5547
  O  O1824  1  0.851200  0.624400  0.079700  1.0  -0.5963
  O  O1825  1  0.159800  0.890800  0.259500  1.0  -0.5982
  O  O1826  1  0.140200  0.878500  0.312400  1.0  -0.5603
  O  O1827  1  0.133600  0.807300  0.247000  1.0  -0.609
  O  O1828  1  0.106600  0.795900  0.295000  1.0  -0.5933
  O  O1829  1  0.947400  0.336900  0.299000  1.0  -0.6232
  O  O1830  1  0.038800  0.355000  0.290500  1.0  -0.5473
  O  O1831  1  0.918700  0.422600  0.281200  1.0  -0.5804
  O  O1832  1  0.011400  0.436500  0.263100  1.0  -0.6026
  O  O1833  1  0.944300  0.907600  0.296800  1.0  -0.6061
  O  O1834  1  0.020900  0.894100  0.329300  1.0  -0.6013
  O  O1835  1  0.921400  0.830600  0.273600  1.0  -0.5887
  O  O1836  1  0.984100  0.814300  0.313900  1.0  -0.5944
  O  O1837  1  0.577400  0.809500  0.490800  1.0  -0.5616
  O  O1838  1  0.599400  0.900400  0.487900  1.0  -0.937
  O  O1839  1  0.667100  0.826100  0.465100  1.0  -0.764
  O  O1840  1  0.952000  0.886000  0.761420  1.0  -0.9346
  O  O1841  1  0.526300  0.857100  0.440900  1.0  -0.5558
  O  O1842  1  0.874100  0.616200  0.009900  1.0  -0.9328
  O  O1843  1  0.610400  0.882100  0.421700  1.0  -0.6067
  O  O1844  1  0.542100  0.637600  0.732300  1.0  -0.9222
  O  O1845  1  0.225700  0.607600  0.507200  1.0  -0.5318
  O  O1846  1  0.186200  0.557400  0.473700  1.0  -0.5661
  O  O1847  1  0.173500  0.550500  0.551700  1.0  -0.5972
  O  O1848  1  0.123600  0.508700  0.516100  1.0  -0.547
  O  O1849  1  0.582400  0.913700  0.555500  1.0  -0.5511
  O  O1850  1  0.530000  0.859100  0.536400  1.0  -0.5885
  O  O1851  1  0.512800  0.964300  0.507400  1.0  -0.6041
  O  O1852  1  0.470700  0.905400  0.487000  1.0  -0.5618
  O  O1853  1  0.828500  0.907600  0.748800  1.0  -0.614
  O  O1854  1  0.840200  0.883200  0.800400  1.0  -0.6004
  O  O1855  1  0.876400  0.829200  0.727100  1.0  -0.5369
  O  O1856  1  0.892900  0.808800  0.779700  1.0  -0.559
  O  O1857  1  0.950400  0.911500  0.824100  1.0  -0.6123
  O  O1858  1  0.034400  0.932700  0.802000  1.0  -0.5974
  O  O1859  1  0.005800  0.833300  0.805700  1.0  -0.7118
  O  O1860  1  0.076000  0.857300  0.773900  1.0  -0.6368
  O  O1861  1  0.007300  0.960200  0.738400  1.0  -0.5808
  O  O1862  1  0.911400  0.954900  0.718500  1.0  -0.5517
  O  O1863  1  0.051700  0.882000  0.712300  1.0  -0.5764
  O  O1864  1  0.957800  0.873500  0.689800  1.0  -0.5667
  O  O1865  1  0.812300  0.557000  0.049300  1.0  -0.5973
  O  O1866  1  0.863500  0.522800  0.008500  1.0  -0.5267
  O  O1867  1  0.744200  0.612900  0.002500  1.0  -0.5599
  O  O1868  1  0.792700  0.574100  0.965500  1.0  -0.5897
  O  O1869  1  0.964800  0.560200  0.987600  1.0  -0.5899
  O  O1870  1  0.000000  0.616400  0.013700  1.0  -0.5653
  O  O1871  1  0.899200  0.607800  0.942700  1.0  -0.6187
  O  O1872  1  0.940200  0.663800  0.966600  1.0  -0.5661
  O  O1873  1  0.376700  0.794000  0.986400  1.0  -0.593
  O  O1874  1  0.293700  0.820400  0.964600  1.0  -0.6005
  O  O1875  1  0.435700  0.840800  0.935800  1.0  -0.5551
  O  O1876  1  0.351200  0.875600  0.920300  1.0  -0.5966
  O  O1877  1  0.659800  0.609200  0.740500  1.0  -0.5993
  O  O1878  1  0.640200  0.621500  0.687600  1.0  -0.5618
  O  O1879  1  0.633600  0.692700  0.753000  1.0  -0.6101
  O  O1880  1  0.606600  0.704100  0.705000  1.0  -0.5931
  O  O1881  1  0.447400  0.163100  0.701000  1.0  -0.6235
  O  O1882  1  0.538800  0.145000  0.709500  1.0  -0.5477
  O  O1883  1  0.418700  0.077400  0.718800  1.0  -0.5793
  O  O1884  1  0.511400  0.063500  0.736900  1.0  -0.6027
  O  O1885  1  0.444300  0.592400  0.703200  1.0  -0.6066
  O  O1886  1  0.520900  0.605900  0.670700  1.0  -0.6019
  O  O1887  1  0.421400  0.669400  0.726400  1.0  -0.5886
  O  O1888  1  0.484100  0.685700  0.686100  1.0  -0.5948
  O  O1889  1  0.922600  0.190500  0.990800  1.0  -0.5621
  O  O1890  1  0.900600  0.099600  0.987900  1.0  -0.9361
  O  O1891  1  0.832900  0.173900  0.965100  1.0  -0.7639
  O  O1892  1  0.548000  0.114000  0.261420  1.0  -0.9348
  O  O1893  1  0.973700  0.142900  0.940900  1.0  -0.556
  O  O1894  1  0.625900  0.383800  0.509900  1.0  -0.933
  O  O1895  1  0.889600  0.117900  0.921700  1.0  -0.6082
  O  O1896  1  0.957900  0.362400  0.232300  1.0  -0.9225
  O  O1897  1  0.274300  0.392400  0.007200  1.0  -0.5309
  O  O1898  1  0.313800  0.442600  0.973700  1.0  -0.5651
  O  O1899  1  0.326500  0.449500  0.051700  1.0  -0.5975
  O  O1900  1  0.376400  0.491300  0.016100  1.0  -0.5468
  O  O1901  1  0.917600  0.086300  0.055500  1.0  -0.5507
  O  O1902  1  0.970000  0.140900  0.036400  1.0  -0.5882
  O  O1903  1  0.987200  0.035700  0.007400  1.0  -0.6039
  O  O1904  1  0.029300  0.094600  0.987000  1.0  -0.5617
  O  O1905  1  0.671500  0.092400  0.248800  1.0  -0.6142
  O  O1906  1  0.659800  0.116800  0.300400  1.0  -0.6007
  O  O1907  1  0.623600  0.170800  0.227100  1.0  -0.5361
  O  O1908  1  0.607100  0.191200  0.279700  1.0  -0.5589
  O  O1909  1  0.549600  0.088500  0.324100  1.0  -0.6084
  O  O1910  1  0.465600  0.067300  0.302000  1.0  -0.5966
  O  O1911  1  0.494200  0.166700  0.305700  1.0  -0.7126
  O  O1912  1  0.424000  0.142700  0.273900  1.0  -0.6383
  O  O1913  1  0.492700  0.039800  0.238400  1.0  -0.5806
  O  O1914  1  0.588600  0.045100  0.218500  1.0  -0.5501
  O  O1915  1  0.448300  0.118000  0.212300  1.0  -0.5764
  O  O1916  1  0.542200  0.126500  0.189800  1.0  -0.567
  O  O1917  1  0.687700  0.443000  0.549300  1.0  -0.5989
  O  O1918  1  0.636500  0.477200  0.508500  1.0  -0.5249
  O  O1919  1  0.755800  0.387100  0.502500  1.0  -0.56
  O  O1920  1  0.707300  0.425900  0.465500  1.0  -0.5907
  O  O1921  1  0.535200  0.439800  0.487600  1.0  -0.5909
  O  O1922  1  0.500000  0.383600  0.513700  1.0  -0.5645
  O  O1923  1  0.600800  0.392200  0.442700  1.0  -0.6187
  O  O1924  1  0.559800  0.336200  0.466600  1.0  -0.5672
  O  O1925  1  0.123300  0.206000  0.486400  1.0  -0.5938
  O  O1926  1  0.206300  0.179600  0.464600  1.0  -0.6001
  O  O1927  1  0.064300  0.159200  0.435800  1.0  -0.5554
  O  O1928  1  0.148800  0.124400  0.420300  1.0  -0.5956
  O  O1929  1  0.840200  0.390800  0.240500  1.0  -0.5996
  O  O1930  1  0.859800  0.378500  0.187600  1.0  -0.5594
  O  O1931  1  0.866400  0.307300  0.253000  1.0  -0.6098
  O  O1932  1  0.893400  0.295900  0.205000  1.0  -0.5923
  O  O1933  1  0.052600  0.836900  0.201000  1.0  -0.6233
  O  O1934  1  0.961200  0.855000  0.209500  1.0  -0.5477
  O  O1935  1  0.081300  0.922600  0.218800  1.0  -0.5786
  O  O1936  1  0.988600  0.936500  0.236900  1.0  -0.6018
  O  O1937  1  0.055700  0.407600  0.203200  1.0  -0.6067
  O  O1938  1  0.979100  0.394100  0.170700  1.0  -0.6028
  O  O1939  1  0.078600  0.330600  0.226400  1.0  -0.588
  O  O1940  1  0.015900  0.314300  0.186100  1.0  -0.5948
