# generated using pymatgen
data_Zn26H52C144O127
_symmetry_space_group_name_H-M   'P 1'
_cell_length_a   26.83260000
_cell_length_b   26.83260000
_cell_length_c   26.83260000
_cell_angle_alpha   109.47100000
_cell_angle_beta   109.47100000
_cell_angle_gamma   109.47100000
_symmetry_Int_Tables_number   1
_chemical_formula_structural   Zn26H52C144O127
_chemical_formula_sum   'Zn52 H104 C288 O254'
_cell_volume   14872.01882719
_cell_formula_units_Z   2
loop_
 _symmetry_equiv_pos_site_id
 _symmetry_equiv_pos_as_xyz
  1  'x, y, z'
loop_
 _atom_site_type_symbol
 _atom_site_label
 _atom_site_symmetry_multiplicity
 _atom_site_fract_x
 _atom_site_fract_y
 _atom_site_fract_z
 _atom_site_occupancy
 _atom_site_charge
  Zn  Zn1  1  0.760410  0.213700  0.557730  1.0  1.0784
  Zn  Zn2  1  0.230520  0.779550  0.558630  1.0  1.0676
  Zn  Zn3  1  0.034540  0.946360  0.670660  1.0  1.0688
  Zn  Zn4  1  0.963690  0.051130  0.363240  1.0  1.0385
  Zn  Zn5  1  0.655970  0.202680  0.442270  1.0  1.0765
  Zn  Zn6  1  0.220920  0.671890  0.441370  1.0  1.0697
  Zn  Zn7  1  0.275700  0.363880  0.329340  1.0  1.0616
  Zn  Zn8  1  0.687890  0.600450  0.636760  1.0  1.0399
  Zn  Zn9  1  0.344030  0.786300  0.546710  1.0  1.0773
  Zn  Zn10  1  0.779080  0.220450  0.450970  1.0  1.0675
  Zn  Zn11  1  0.724300  0.053640  0.088180  1.0  1.0676
  Zn  Zn12  1  0.312110  0.948870  0.912560  1.0  1.0374
  Zn  Zn13  1  0.239590  0.797320  0.453290  1.0  1.0776
  Zn  Zn14  1  0.769480  0.328110  0.549030  1.0  1.067
  Zn  Zn15  1  0.965460  0.636120  0.911820  1.0  1.0691
  Zn  Zn16  1  0.036310  0.399550  0.087440  1.0  1.0362
  Zn  Zn17  1  0.546710  0.344030  0.786300  1.0  1.0786
  Zn  Zn18  1  0.450970  0.779080  0.220450  1.0  1.068
  Zn  Zn19  1  0.088180  0.724300  0.053640  1.0  1.0723
  Zn  Zn20  1  0.912560  0.312110  0.948870  1.0  1.0411
  Zn  Zn21  1  0.453290  0.239590  0.797320  1.0  1.078
  Zn  Zn22  1  0.549030  0.769480  0.328110  1.0  1.0687
  Zn  Zn23  1  0.911820  0.965460  0.636120  1.0  1.0676
  Zn  Zn24  1  0.087440  0.036310  0.399550  1.0  1.0366
  Zn  Zn25  1  0.557730  0.760410  0.213700  1.0  1.0779
  Zn  Zn26  1  0.558630  0.230520  0.779550  1.0  1.0673
  Zn  Zn27  1  0.670660  0.034540  0.946360  1.0  1.0687
  Zn  Zn28  1  0.363240  0.963690  0.051130  1.0  1.0364
  Zn  Zn29  1  0.442270  0.655970  0.202680  1.0  1.078
  Zn  Zn30  1  0.441370  0.220920  0.671890  1.0  1.0682
  Zn  Zn31  1  0.329340  0.275700  0.363880  1.0  1.0695
  Zn  Zn32  1  0.636760  0.687890  0.600450  1.0  1.0422
  Zn  Zn33  1  0.202680  0.442270  0.655970  1.0  1.0791
  Zn  Zn34  1  0.671890  0.441370  0.220920  1.0  1.068
  Zn  Zn35  1  0.363880  0.329340  0.275700  1.0  1.0719
  Zn  Zn36  1  0.600450  0.636760  0.687890  1.0  1.0398
  Zn  Zn37  1  0.213700  0.557730  0.760410  1.0  1.0773
  Zn  Zn38  1  0.779550  0.558630  0.230520  1.0  1.0693
  Zn  Zn39  1  0.946360  0.670660  0.034540  1.0  1.0708
  Zn  Zn40  1  0.051130  0.363240  0.963690  1.0  1.0386
  Zn  Zn41  1  0.797320  0.453290  0.239590  1.0  1.0774
  Zn  Zn42  1  0.328110  0.549030  0.769480  1.0  1.0676
  Zn  Zn43  1  0.636120  0.911820  0.965460  1.0  1.0689
  Zn  Zn44  1  0.399550  0.087440  0.036310  1.0  1.042
  Zn  Zn45  1  0.786300  0.546710  0.344030  1.0  1.0791
  Zn  Zn46  1  0.220450  0.450970  0.779080  1.0  1.069
  Zn  Zn47  1  0.053640  0.088180  0.724300  1.0  1.0742
  Zn  Zn48  1  0.948870  0.912560  0.312110  1.0  1.0421
  Zn  Zn49  1  0.000000  0.000000  0.519240  1.0  0.7961
  Zn  Zn50  1  0.480760  0.480760  0.480760  1.0  0.7957
  Zn  Zn51  1  0.519240  0.000000  0.000000  1.0  0.7966
  Zn  Zn52  1  0.000000  0.519240  0.000000  1.0  0.7956
  H  H53  1  0.926800  0.746300  0.607300  1.0  0.1431
  H  H54  1  0.884400  0.128500  0.602300  1.0  0.1287
  H  H55  1  0.935400  0.071500  0.568700  1.0  0.146
  H  H56  1  0.558500  0.929900  0.498400  1.0  0.1308
  H  H57  1  0.612400  0.044000  0.556600  1.0  0.1284
  H  H58  1  0.129900  0.892900  0.440400  1.0  0.1371
  H  H59  1  0.064500  0.931100  0.467400  1.0  0.127
  H  H60  1  0.842300  0.661700  0.597000  1.0  0.1377
  H  H61  1  0.139000  0.319500  0.392700  1.0  0.1443
  H  H62  1  0.526200  0.282100  0.397700  1.0  0.1276
  H  H63  1  0.502800  0.366700  0.431300  1.0  0.1472
  H  H64  1  0.431500  0.060100  0.501600  1.0  0.1322
  H  H65  1  0.487400  0.055800  0.443400  1.0  0.1281
  H  H66  1  0.452500  0.689500  0.559600  1.0  0.1381
  H  H67  1  0.463700  0.597100  0.532600  1.0  0.1286
  H  H68  1  0.064700  0.245300  0.403000  1.0  0.1368
  H  H69  1  0.861000  0.253700  0.180500  1.0  0.142
  H  H70  1  0.473800  0.871500  0.755900  1.0  0.1272
  H  H71  1  0.497200  0.928500  0.863900  1.0  0.1476
  H  H72  1  0.568500  0.070100  0.628600  1.0  0.1315
  H  H73  1  0.512600  0.956000  0.568400  1.0  0.1284
  H  H74  1  0.547500  0.107100  0.237000  1.0  0.1367
  H  H75  1  0.536300  0.068900  0.133400  1.0  0.1292
  H  H76  1  0.935300  0.338300  0.180600  1.0  0.1376
  H  H77  1  0.073200  0.680500  0.819500  1.0  0.1438
  H  H78  1  0.115600  0.717900  0.244100  1.0  0.1292
  H  H79  1  0.064600  0.633300  0.136100  1.0  0.1464
  H  H80  1  0.441500  0.939900  0.371400  1.0  0.1311
  H  H81  1  0.387600  0.944200  0.431600  1.0  0.1282
  H  H82  1  0.870100  0.310500  0.763000  1.0  0.1383
  H  H83  1  0.935500  0.402900  0.866600  1.0  0.1287
  H  H84  1  0.157700  0.754700  0.819400  1.0  0.1369
  H  H85  1  0.180500  0.861000  0.253700  1.0  0.1425
  H  H86  1  0.755900  0.473800  0.871500  1.0  0.1276
  H  H87  1  0.863900  0.497200  0.928500  1.0  0.146
  H  H88  1  0.628600  0.568500  0.070100  1.0  0.1325
  H  H89  1  0.568400  0.512600  0.956000  1.0  0.1299
  H  H90  1  0.237000  0.547500  0.107100  1.0  0.1365
  H  H91  1  0.133400  0.536300  0.068900  1.0  0.1292
  H  H92  1  0.180600  0.935300  0.338300  1.0  0.1376
  H  H93  1  0.819500  0.073200  0.680500  1.0  0.1444
  H  H94  1  0.244100  0.115600  0.717900  1.0  0.1278
  H  H95  1  0.136100  0.064600  0.633300  1.0  0.1462
  H  H96  1  0.371400  0.441500  0.939900  1.0  0.1324
  H  H97  1  0.431600  0.387600  0.944200  1.0  0.1303
  H  H98  1  0.763000  0.870100  0.310500  1.0  0.1371
  H  H99  1  0.866600  0.935500  0.402900  1.0  0.1266
  H  H100  1  0.819400  0.157700  0.754700  1.0  0.1382
  H  H101  1  0.607300  0.926800  0.746300  1.0  0.1459
  H  H102  1  0.602300  0.884400  0.128500  1.0  0.1283
  H  H103  1  0.568700  0.935400  0.071500  1.0  0.1464
  H  H104  1  0.498400  0.558500  0.929900  1.0  0.1318
  H  H105  1  0.556600  0.612400  0.044000  1.0  0.1282
  H  H106  1  0.440400  0.129900  0.892900  1.0  0.138
  H  H107  1  0.467400  0.064500  0.931100  1.0  0.128
  H  H108  1  0.597000  0.842300  0.661700  1.0  0.1365
  H  H109  1  0.392700  0.139000  0.319500  1.0  0.1426
  H  H110  1  0.397700  0.526200  0.282100  1.0  0.1279
  H  H111  1  0.431300  0.502800  0.366700  1.0  0.1483
  H  H112  1  0.501600  0.431500  0.060100  1.0  0.1329
  H  H113  1  0.443400  0.487400  0.055800  1.0  0.1286
  H  H114  1  0.559600  0.452500  0.689500  1.0  0.1358
  H  H115  1  0.532600  0.463700  0.597100  1.0  0.1306
  H  H116  1  0.403000  0.064700  0.245300  1.0  0.1385
  H  H117  1  0.319500  0.392700  0.139000  1.0  0.1433
  H  H118  1  0.282100  0.397700  0.526200  1.0  0.1282
  H  H119  1  0.366700  0.431300  0.502800  1.0  0.1455
  H  H120  1  0.060100  0.501600  0.431500  1.0  0.1317
  H  H121  1  0.055800  0.443400  0.487400  1.0  0.1289
  H  H122  1  0.689500  0.559600  0.452500  1.0  0.1369
  H  H123  1  0.597100  0.532600  0.463700  1.0  0.1281
  H  H124  1  0.245300  0.403000  0.064700  1.0  0.1368
  H  H125  1  0.746300  0.607300  0.926800  1.0  0.1427
  H  H126  1  0.128500  0.602300  0.884400  1.0  0.1281
  H  H127  1  0.071500  0.568700  0.935400  1.0  0.1477
  H  H128  1  0.929900  0.498400  0.558500  1.0  0.1317
  H  H129  1  0.044000  0.556600  0.612400  1.0  0.1295
  H  H130  1  0.892900  0.440400  0.129900  1.0  0.137
  H  H131  1  0.931100  0.467400  0.064500  1.0  0.1291
  H  H132  1  0.661700  0.597000  0.842300  1.0  0.1385
  H  H133  1  0.680500  0.819500  0.073200  1.0  0.1455
  H  H134  1  0.717900  0.244100  0.115600  1.0  0.1268
  H  H135  1  0.633300  0.136100  0.064600  1.0  0.1473
  H  H136  1  0.939900  0.371400  0.441500  1.0  0.1323
  H  H137  1  0.944200  0.431600  0.387600  1.0  0.1291
  H  H138  1  0.310500  0.763000  0.870100  1.0  0.1376
  H  H139  1  0.402900  0.866600  0.935500  1.0  0.1294
  H  H140  1  0.754700  0.819400  0.157700  1.0  0.139
  H  H141  1  0.253700  0.180500  0.861000  1.0  0.146
  H  H142  1  0.871500  0.755900  0.473800  1.0  0.1278
  H  H143  1  0.928500  0.863900  0.497200  1.0  0.1469
  H  H144  1  0.070100  0.628600  0.568500  1.0  0.133
  H  H145  1  0.956000  0.568400  0.512600  1.0  0.1295
  H  H146  1  0.107100  0.237000  0.547500  1.0  0.1373
  H  H147  1  0.068900  0.133400  0.536300  1.0  0.1283
  H  H148  1  0.338300  0.180600  0.935300  1.0  0.139
  H  H149  1  0.000000  0.000000  0.623000  1.0  0.2555
  H  H150  1  0.000000  0.000000  0.413600  1.0  0.2032
  H  H151  1  0.377000  0.377000  0.377000  1.0  0.2529
  H  H152  1  0.586400  0.586400  0.586400  1.0  0.2042
  H  H153  1  0.623000  0.000000  0.000000  1.0  0.252
  H  H154  1  0.413600  0.000000  0.000000  1.0  0.201
  H  H155  1  0.000000  0.623000  0.000000  1.0  0.2543
  H  H156  1  0.000000  0.413600  0.000000  1.0  0.2029
  C  C157  1  0.892000  0.745600  0.607400  1.0  -0.0554
  C  C158  1  0.888900  0.120800  0.568100  1.0  -0.07
  C  C159  1  0.917600  0.089100  0.549500  1.0  -0.1358
  C  C160  1  0.937700  0.066700  0.458600  1.0  0.6631
  C  C161  1  0.868500  0.138600  0.525900  1.0  0.0029
  C  C162  1  0.092600  0.917800  0.540200  1.0  0.0581
  C  C163  1  0.913800  0.089100  0.497300  1.0  0.1094
  C  C164  1  0.837300  0.173700  0.520400  1.0  0.7316
  C  C165  1  0.064000  0.935100  0.577700  1.0  0.6723
  C  C166  1  0.636300  0.039400  0.493900  1.0  0.0676
  C  C167  1  0.580300  0.955700  0.488000  1.0  -0.0844
  C  C168  1  0.587300  0.936900  0.437800  1.0  0.0014
  C  C169  1  0.676900  0.099100  0.499400  1.0  0.6846
  C  C170  1  0.186000  0.850600  0.519000  1.0  0.732
  C  C171  1  0.610900  0.020100  0.521200  1.0  -0.1194
  C  C172  1  0.576020  0.882600  0.387820  1.0  0.6873
  C  C173  1  0.123600  0.896100  0.473100  1.0  -0.1356
  C  C174  1  0.087600  0.918300  0.488700  1.0  -0.1382
  C  C175  1  0.147800  0.879700  0.514300  1.0  0.0079
  C  C176  1  0.912300  0.854000  0.621300  1.0  0.7348
  C  C177  1  0.878300  0.791400  0.613300  1.0  -0.0015
  C  C178  1  0.844800  0.698400  0.601400  1.0  -0.0639
  C  C179  1  0.802800  0.715400  0.603400  1.0  0.0356
  C  C180  1  0.741400  0.683900  0.599100  1.0  0.6958
  C  C181  1  0.138200  0.284600  0.392600  1.0  -0.0579
  C  C182  1  0.552700  0.320800  0.431900  1.0  -0.0717
  C  C183  1  0.539600  0.368100  0.450500  1.0  -0.1363
  C  C184  1  0.608100  0.479100  0.541400  1.0  0.6616
  C  C185  1  0.612700  0.342600  0.474100  1.0  0.0051
  C  C186  1  0.377600  0.552400  0.459800  1.0  0.0569
  C  C187  1  0.591800  0.416500  0.502700  1.0  0.1052
  C  C188  1  0.653300  0.316900  0.479600  1.0  0.7334
  C  C189  1  0.357400  0.486300  0.422300  1.0  0.6684
  C  C190  1  0.545500  0.142400  0.506100  1.0  0.0679
  C  C191  1  0.467700  0.092300  0.512000  1.0  -0.085
  C  C192  1  0.499100  0.149500  0.562200  1.0  -0.0014
  C  C193  1  0.599700  0.177500  0.500600  1.0  0.6831
  C  C194  1  0.331600  0.667000  0.481000  1.0  0.7312
  C  C195  1  0.498900  0.089700  0.478800  1.0  -0.1219
  C  C196  1  0.494780  0.188200  0.612180  1.0  0.6864
  C  C197  1  0.423000  0.650500  0.526900  1.0  -0.1362
  C  C198  1  0.429600  0.598900  0.511300  1.0  -0.1376
  C  C199  1  0.365400  0.633500  0.485700  1.0  0.007
  C  C200  1  0.232700  0.291000  0.378700  1.0  0.7349
  C  C201  1  0.178100  0.265000  0.386700  1.0  -0.0014
  C  C202  1  0.097000  0.243400  0.398600  1.0  -0.0615
  C  C203  1  0.112000  0.199400  0.396600  1.0  0.0364
  C  C204  1  0.084800  0.142300  0.400900  1.0  0.6968
  C  C205  1  0.861800  0.254400  0.146400  1.0  -0.0548
  C  C206  1  0.447300  0.879200  0.768100  1.0  -0.0704
  C  C207  1  0.460400  0.910900  0.828500  1.0  -0.1375
  C  C208  1  0.391900  0.933300  0.871000  1.0  0.6604
  C  C209  1  0.387300  0.861400  0.729900  1.0  0.0009
  C  C210  1  0.622400  0.082200  0.174800  1.0  0.0582
  C  C211  1  0.408200  0.910900  0.824700  1.0  0.1094
  C  C212  1  0.346700  0.826300  0.663600  1.0  0.7331
  C  C213  1  0.642600  0.064900  0.128900  1.0  0.6694
  C  C214  1  0.454500  0.960600  0.596900  1.0  0.0674
  C  C215  1  0.532300  0.044300  0.624600  1.0  -0.0863
  C  C216  1  0.500900  0.063100  0.650400  1.0  -0.0003
  C  C217  1  0.400300  0.900900  0.577800  1.0  0.6834
  C  C218  1  0.668400  0.149400  0.335400  1.0  0.7333
  C  C219  1  0.501100  0.979900  0.590800  1.0  -0.1206
  C  C220  1  0.505220  0.117400  0.693420  1.0  0.686
  C  C221  1  0.577000  0.103900  0.227500  1.0  -0.138
  C  C222  1  0.570400  0.081700  0.169300  1.0  -0.141
  C  C223  1  0.634600  0.120300  0.268100  1.0  0.0075
  C  C224  1  0.767300  0.146000  0.058300  1.0  0.7369
  C  C225  1  0.821900  0.208600  0.086900  1.0  -0.0006
  C  C226  1  0.903000  0.301600  0.146400  1.0  -0.0643
  C  C227  1  0.888000  0.284600  0.087400  1.0  0.034
  C  C228  1  0.915200  0.316100  0.057500  1.0  0.6962
  C  C229  1  0.108000  0.715400  0.853600  1.0  -0.0576
  C  C230  1  0.111100  0.679200  0.231900  1.0  -0.0723
  C  C231  1  0.082400  0.631900  0.171500  1.0  -0.1357
  C  C232  1  0.062300  0.520900  0.129000  1.0  0.6634
  C  C233  1  0.131500  0.657400  0.270100  1.0  0.0033
  C  C234  1  0.907400  0.447600  0.825200  1.0  0.0619
  C  C235  1  0.086200  0.583500  0.175300  1.0  0.1097
  C  C236  1  0.162700  0.683100  0.336400  1.0  0.7344
  C  C237  1  0.936000  0.513700  0.871100  1.0  0.6672
  C  C238  1  0.363700  0.857600  0.403100  1.0  0.0661
  C  C239  1  0.419700  0.907700  0.375400  1.0  -0.0877
  C  C240  1  0.412700  0.850500  0.349600  1.0  -0.0011
  C  C241  1  0.323100  0.822500  0.422200  1.0  0.6854
  C  C242  1  0.814000  0.333000  0.664600  1.0  0.7315
  C  C243  1  0.389100  0.910300  0.409200  1.0  -0.1223
  C  C244  1  0.423980  0.811800  0.306580  1.0  0.6863
  C  C245  1  0.876400  0.349500  0.772500  1.0  -0.1376
  C  C246  1  0.912400  0.401100  0.830700  1.0  -0.1393
  C  C247  1  0.852200  0.366500  0.731900  1.0  0.0064
  C  C248  1  0.087700  0.709000  0.941700  1.0  0.7356
  C  C249  1  0.121700  0.735000  0.913100  1.0  -0.0014
  C  C250  1  0.155200  0.756600  0.853600  1.0  -0.0608
  C  C251  1  0.197200  0.800600  0.912600  1.0  0.0366
  C  C252  1  0.258600  0.857700  0.942500  1.0  0.6942
  C  C253  1  0.146400  0.861800  0.254400  1.0  -0.0544
  C  C254  1  0.768100  0.447300  0.879200  1.0  -0.069
  C  C255  1  0.828500  0.460400  0.910900  1.0  -0.1331
  C  C256  1  0.871000  0.391900  0.933300  1.0  0.662
  C  C257  1  0.729900  0.387300  0.861400  1.0  0.0026
  C  C258  1  0.174800  0.622400  0.082200  1.0  0.0596
  C  C259  1  0.824700  0.408200  0.910900  1.0  0.1093
  C  C260  1  0.663600  0.346700  0.826300  1.0  0.7326
  C  C261  1  0.128900  0.642600  0.064900  1.0  0.6686
  C  C262  1  0.596900  0.454500  0.960600  1.0  0.0677
  C  C263  1  0.624600  0.532300  0.044300  1.0  -0.0875
  C  C264  1  0.650400  0.500900  0.063100  1.0  -0.0013
  C  C265  1  0.577800  0.400300  0.900900  1.0  0.6828
  C  C266  1  0.335400  0.668400  0.149400  1.0  0.7317
  C  C267  1  0.590800  0.501100  0.979900  1.0  -0.1217
  C  C268  1  0.693420  0.505220  0.117400  1.0  0.6853
  C  C269  1  0.227500  0.577000  0.103900  1.0  -0.1346
  C  C270  1  0.169300  0.570400  0.081700  1.0  -0.1335
  C  C271  1  0.268100  0.634600  0.120300  1.0  0.0063
  C  C272  1  0.058300  0.767300  0.146000  1.0  0.7353
  C  C273  1  0.086900  0.821900  0.208600  1.0  -0.0031
  C  C274  1  0.146400  0.903000  0.301600  1.0  -0.0641
  C  C275  1  0.087400  0.888000  0.284600  1.0  0.0363
  C  C276  1  0.057500  0.915200  0.316100  1.0  0.6989
  C  C277  1  0.853600  0.108000  0.715400  1.0  -0.0586
  C  C278  1  0.231900  0.111100  0.679200  1.0  -0.0678
  C  C279  1  0.171500  0.082400  0.631900  1.0  -0.135
  C  C280  1  0.129000  0.062300  0.520900  1.0  0.6653
  C  C281  1  0.270100  0.131500  0.657400  1.0  0.0044
  C  C282  1  0.825200  0.907400  0.447600  1.0  0.0587
  C  C283  1  0.175300  0.086200  0.583500  1.0  0.1089
  C  C284  1  0.336400  0.162700  0.683100  1.0  0.7339
  C  C285  1  0.871100  0.936000  0.513700  1.0  0.6709
  C  C286  1  0.403100  0.363700  0.857600  1.0  0.0694
  C  C287  1  0.375400  0.419700  0.907700  1.0  -0.0868
  C  C288  1  0.349600  0.412700  0.850500  1.0  -0.0004
  C  C289  1  0.422200  0.323100  0.822500  1.0  0.6843
  C  C290  1  0.664600  0.814000  0.333000  1.0  0.7312
  C  C291  1  0.409200  0.389100  0.910300  1.0  -0.1193
  C  C292  1  0.306580  0.423980  0.811800  1.0  0.6888
  C  C293  1  0.772500  0.876400  0.349500  1.0  -0.1352
  C  C294  1  0.830700  0.912400  0.401100  1.0  -0.1346
  C  C295  1  0.731900  0.852200  0.366500  1.0  0.0066
  C  C296  1  0.941700  0.087700  0.709000  1.0  0.7327
  C  C297  1  0.913100  0.121700  0.735000  1.0  -0.0004
  C  C298  1  0.853600  0.155200  0.756600  1.0  -0.0614
  C  C299  1  0.912600  0.197200  0.800600  1.0  0.0365
  C  C300  1  0.942500  0.258600  0.857700  1.0  0.6952
  C  C301  1  0.607400  0.892000  0.745600  1.0  -0.0597
  C  C302  1  0.568100  0.888900  0.120800  1.0  -0.0672
  C  C303  1  0.549500  0.917600  0.089100  1.0  -0.1372
  C  C304  1  0.458600  0.937700  0.066700  1.0  0.66
  C  C305  1  0.525900  0.868500  0.138600  1.0  0.003
  C  C306  1  0.540200  0.092600  0.917800  1.0  0.0593
  C  C307  1  0.497300  0.913800  0.089100  1.0  0.109
  C  C308  1  0.520400  0.837300  0.173700  1.0  0.7345
  C  C309  1  0.577700  0.064000  0.935100  1.0  0.6659
  C  C310  1  0.493900  0.636300  0.039400  1.0  0.0666
  C  C311  1  0.488000  0.580300  0.955700  1.0  -0.0889
  C  C312  1  0.437800  0.587300  0.936900  1.0  0.0003
  C  C313  1  0.499400  0.676900  0.099100  1.0  0.6832
  C  C314  1  0.519000  0.186000  0.850600  1.0  0.7326
  C  C315  1  0.521200  0.610900  0.020100  1.0  -0.1199
  C  C316  1  0.387820  0.576020  0.882600  1.0  0.6851
  C  C317  1  0.473100  0.123600  0.896100  1.0  -0.1348
  C  C318  1  0.488700  0.087600  0.918300  1.0  -0.1393
  C  C319  1  0.514300  0.147800  0.879700  1.0  0.005
  C  C320  1  0.621300  0.912300  0.854000  1.0  0.7375
  C  C321  1  0.613300  0.878300  0.791400  1.0  -0.0006
  C  C322  1  0.601400  0.844800  0.698400  1.0  -0.0615
  C  C323  1  0.603400  0.802800  0.715400  1.0  0.0385
  C  C324  1  0.599100  0.741400  0.683900  1.0  0.6942
  C  C325  1  0.392600  0.138200  0.284600  1.0  -0.057
  C  C326  1  0.431900  0.552700  0.320800  1.0  -0.0712
  C  C327  1  0.450500  0.539600  0.368100  1.0  -0.1361
  C  C328  1  0.541400  0.608100  0.479100  1.0  0.6643
  C  C329  1  0.474100  0.612700  0.342600  1.0  0.0026
  C  C330  1  0.459800  0.377600  0.552400  1.0  0.0595
  C  C331  1  0.502700  0.591800  0.416500  1.0  0.1104
  C  C332  1  0.479600  0.653300  0.316900  1.0  0.7328
  C  C333  1  0.422300  0.357400  0.486300  1.0  0.6703
  C  C334  1  0.506100  0.545500  0.142400  1.0  0.0679
  C  C335  1  0.512000  0.467700  0.092300  1.0  -0.0905
  C  C336  1  0.562200  0.499100  0.149500  1.0  0.0017
  C  C337  1  0.500600  0.599700  0.177500  1.0  0.6849
  C  C338  1  0.481000  0.331600  0.667000  1.0  0.7334
  C  C339  1  0.478800  0.498900  0.089700  1.0  -0.1231
  C  C340  1  0.612180  0.494780  0.188200  1.0  0.6859
  C  C341  1  0.526900  0.423000  0.650500  1.0  -0.138
  C  C342  1  0.511300  0.429600  0.598900  1.0  -0.1401
  C  C343  1  0.485700  0.365400  0.633500  1.0  0.0056
  C  C344  1  0.378700  0.232700  0.291000  1.0  0.7372
  C  C345  1  0.386700  0.178100  0.265000  1.0  -0.001
  C  C346  1  0.398600  0.097000  0.243400  1.0  -0.0641
  C  C347  1  0.396600  0.112000  0.199400  1.0  0.0337
  C  C348  1  0.400900  0.084800  0.142300  1.0  0.6991
  C  C349  1  0.284600  0.392600  0.138200  1.0  -0.0545
  C  C350  1  0.320800  0.431900  0.552700  1.0  -0.0707
  C  C351  1  0.368100  0.450500  0.539600  1.0  -0.1347
  C  C352  1  0.479100  0.541400  0.608100  1.0  0.6616
  C  C353  1  0.342600  0.474100  0.612700  1.0  0.0009
  C  C354  1  0.552400  0.459800  0.377600  1.0  0.0599
  C  C355  1  0.416500  0.502700  0.591800  1.0  0.1073
  C  C356  1  0.316900  0.479600  0.653300  1.0  0.7359
  C  C357  1  0.486300  0.422300  0.357400  1.0  0.6645
  C  C358  1  0.142400  0.506100  0.545500  1.0  0.0658
  C  C359  1  0.092300  0.512000  0.467700  1.0  -0.0881
  C  C360  1  0.149500  0.562200  0.499100  1.0  -0.0005
  C  C361  1  0.177500  0.500600  0.599700  1.0  0.6835
  C  C362  1  0.667000  0.481000  0.331600  1.0  0.7333
  C  C363  1  0.089700  0.478800  0.498900  1.0  -0.1244
  C  C364  1  0.188200  0.612180  0.494780  1.0  0.6854
  C  C365  1  0.650500  0.526900  0.423000  1.0  -0.1361
  C  C366  1  0.598900  0.511300  0.429600  1.0  -0.1373
  C  C367  1  0.633500  0.485700  0.365400  1.0  0.0061
  C  C368  1  0.291000  0.378700  0.232700  1.0  0.7366
  C  C369  1  0.265000  0.386700  0.178100  1.0  -0.002
  C  C370  1  0.243400  0.398600  0.097000  1.0  -0.0613
  C  C371  1  0.199400  0.396600  0.112000  1.0  0.0319
  C  C372  1  0.142300  0.400900  0.084800  1.0  0.6968
  C  C373  1  0.745600  0.607400  0.892000  1.0  -0.0568
  C  C374  1  0.120800  0.568100  0.888900  1.0  -0.0724
  C  C375  1  0.089100  0.549500  0.917600  1.0  -0.1372
  C  C376  1  0.066700  0.458600  0.937700  1.0  0.6646
  C  C377  1  0.138600  0.525900  0.868500  1.0  0.0021
  C  C378  1  0.917800  0.540200  0.092600  1.0  0.0607
  C  C379  1  0.089100  0.497300  0.913800  1.0  0.1081
  C  C380  1  0.173700  0.520400  0.837300  1.0  0.7328
  C  C381  1  0.935100  0.577700  0.064000  1.0  0.6696
  C  C382  1  0.039400  0.493900  0.636300  1.0  0.0664
  C  C383  1  0.955700  0.488000  0.580300  1.0  -0.0871
  C  C384  1  0.936900  0.437800  0.587300  1.0  0.0021
  C  C385  1  0.099100  0.499400  0.676900  1.0  0.683
  C  C386  1  0.850600  0.519000  0.186000  1.0  0.7336
  C  C387  1  0.020100  0.521200  0.610900  1.0  -0.1246
  C  C388  1  0.882600  0.387820  0.576020  1.0  0.6883
  C  C389  1  0.896100  0.473100  0.123600  1.0  -0.1384
  C  C390  1  0.918300  0.488700  0.087600  1.0  -0.1403
  C  C391  1  0.879700  0.514300  0.147800  1.0  0.0066
  C  C392  1  0.854000  0.621300  0.912300  1.0  0.735
  C  C393  1  0.791400  0.613300  0.878300  1.0  -0.0015
  C  C394  1  0.698400  0.601400  0.844800  1.0  -0.062
  C  C395  1  0.715400  0.603400  0.802800  1.0  0.0318
  C  C396  1  0.683900  0.599100  0.741400  1.0  0.699
  C  C397  1  0.715400  0.853600  0.108000  1.0  -0.0598
  C  C398  1  0.679200  0.231900  0.111100  1.0  -0.069
  C  C399  1  0.631900  0.171500  0.082400  1.0  -0.1391
  C  C400  1  0.520900  0.129000  0.062300  1.0  0.6624
  C  C401  1  0.657400  0.270100  0.131500  1.0  0.0036
  C  C402  1  0.447600  0.825200  0.907400  1.0  0.0592
  C  C403  1  0.583500  0.175300  0.086200  1.0  0.1107
  C  C404  1  0.683100  0.336400  0.162700  1.0  0.733
  C  C405  1  0.513700  0.871100  0.936000  1.0  0.6693
  C  C406  1  0.857600  0.403100  0.363700  1.0  0.0653
  C  C407  1  0.907700  0.375400  0.419700  1.0  -0.0847
  C  C408  1  0.850500  0.349600  0.412700  1.0  -0.0016
  C  C409  1  0.822500  0.422200  0.323100  1.0  0.6848
  C  C410  1  0.333000  0.664600  0.814000  1.0  0.7326
  C  C411  1  0.910300  0.409200  0.389100  1.0  -0.1229
  C  C412  1  0.811800  0.306580  0.423980  1.0  0.6871
  C  C413  1  0.349500  0.772500  0.876400  1.0  -0.1351
  C  C414  1  0.401100  0.830700  0.912400  1.0  -0.1398
  C  C415  1  0.366500  0.731900  0.852200  1.0  0.0058
  C  C416  1  0.709000  0.941700  0.087700  1.0  0.7405
  C  C417  1  0.735000  0.913100  0.121700  1.0  -0.0033
  C  C418  1  0.756600  0.853600  0.155200  1.0  -0.0639
  C  C419  1  0.800600  0.912600  0.197200  1.0  0.0372
  C  C420  1  0.857700  0.942500  0.258600  1.0  0.6966
  C  C421  1  0.254400  0.146400  0.861800  1.0  -0.0603
  C  C422  1  0.879200  0.768100  0.447300  1.0  -0.0698
  C  C423  1  0.910900  0.828500  0.460400  1.0  -0.1363
  C  C424  1  0.933300  0.871000  0.391900  1.0  0.6641
  C  C425  1  0.861400  0.729900  0.387300  1.0  0.0034
  C  C426  1  0.082200  0.174800  0.622400  1.0  0.0593
  C  C427  1  0.910900  0.824700  0.408200  1.0  0.1084
  C  C428  1  0.826300  0.663600  0.346700  1.0  0.7319
  C  C429  1  0.064900  0.128900  0.642600  1.0  0.6693
  C  C430  1  0.960600  0.596900  0.454500  1.0  0.0648
  C  C431  1  0.044300  0.624600  0.532300  1.0  -0.088
  C  C432  1  0.063100  0.650400  0.500900  1.0  0.0004
  C  C433  1  0.900900  0.577800  0.400300  1.0  0.6845
  C  C434  1  0.149400  0.335400  0.668400  1.0  0.7324
  C  C435  1  0.979900  0.590800  0.501100  1.0  -0.1235
  C  C436  1  0.117400  0.693420  0.505220  1.0  0.6868
  C  C437  1  0.103900  0.227500  0.577000  1.0  -0.1358
  C  C438  1  0.081700  0.169300  0.570400  1.0  -0.1391
  C  C439  1  0.120300  0.268100  0.634600  1.0  0.0067
  C  C440  1  0.146000  0.058300  0.767300  1.0  0.7347
  C  C441  1  0.208600  0.086900  0.821900  1.0  -0.0043
  C  C442  1  0.301600  0.146400  0.903000  1.0  -0.0641
  C  C443  1  0.284600  0.087400  0.888000  1.0  0.0357
  C  C444  1  0.316100  0.057500  0.915200  1.0  0.6965
  O  O445  1  0.958100  0.865400  0.620300  1.0  -0.5769
  O  O446  1  0.887500  0.882400  0.630700  1.0  -0.5672
  O  O447  1  0.824970  0.191240  0.561530  1.0  -0.5784
  O  O448  1  0.932060  0.079080  0.417720  1.0  -0.5608
  O  O449  1  0.202480  0.839910  0.560590  1.0  -0.5327
  O  O450  1  0.071480  0.922540  0.620040  1.0  -0.5721
  O  O451  1  0.963250  0.037220  0.469710  1.0  -0.5605
  O  O452  1  0.035930  0.960450  0.565620  1.0  -0.5715
  O  O453  1  0.821060  0.176970  0.472890  1.0  -0.5774
  O  O454  1  0.885750  0.120730  0.482780  1.0  -0.1262
  O  O455  1  0.198210  0.840470  0.476760  1.0  -0.5897
  O  O456  1  0.689430  0.101110  0.462080  1.0  -0.4727
  O  O457  1  0.698240  0.146690  0.552830  1.0  -0.5481
  O  O458  1  0.623890  0.990760  0.441170  1.0  -0.2236
  O  O459  1  0.588930  0.884660  0.350510  1.0  -0.444
  O  O460  1  0.128150  0.892240  0.557730  1.0  -0.1662
  O  O461  1  0.550730  0.834990  0.392800  1.0  -0.5676
  O  O462  1  0.823700  0.771800  0.610700  1.0  -0.2867
  O  O463  1  0.715700  0.712700  0.602600  1.0  -0.5564
  O  O464  1  0.728500  0.634200  0.593900  1.0  -0.5814
  O  O465  1  0.245100  0.337800  0.379700  1.0  -0.5794
  O  O466  1  0.251700  0.256800  0.369300  1.0  -0.5673
  O  O467  1  0.629710  0.263440  0.438470  1.0  -0.5794
  O  O468  1  0.661360  0.514340  0.582280  1.0  -0.5567
  O  O469  1  0.279320  0.641890  0.439410  1.0  -0.5296
  O  O470  1  0.302500  0.451440  0.379960  1.0  -0.5679
  O  O471  1  0.567510  0.493540  0.530290  1.0  -0.5635
  O  O472  1  0.394830  0.470310  0.434380  1.0  -0.5731
  O  O473  1  0.704080  0.348170  0.527110  1.0  -0.5775
  O  O474  1  0.637950  0.402970  0.517220  1.0  -0.132
  O  O475  1  0.363710  0.721450  0.523240  1.0  -0.5929
  O  O476  1  0.639030  0.227350  0.537920  1.0  -0.4757
  O  O477  1  0.593860  0.145410  0.447170  1.0  -0.5488
  O  O478  1  0.549590  0.182720  0.558830  1.0  -0.2215
  O  O479  1  0.534150  0.238420  0.649490  1.0  -0.4434
  O  O480  1  0.334510  0.570420  0.442270  1.0  -0.1678
  O  O481  1  0.442190  0.157930  0.607200  1.0  -0.5661
  O  O482  1  0.161100  0.213000  0.389300  1.0  -0.2876
  O  O483  1  0.110100  0.113100  0.397400  1.0  -0.56
  O  O484  1  0.040300  0.134600  0.406100  1.0  -0.5785
  O  O485  1  0.754900  0.134600  0.092700  1.0  -0.574
  O  O486  1  0.748300  0.117600  0.005100  1.0  -0.5656
  O  O487  1  0.370290  0.808760  0.633730  1.0  -0.5801
  O  O488  1  0.338640  0.920920  0.852980  1.0  -0.5569
  O  O489  1  0.720680  0.160090  0.362570  1.0  -0.5321
  O  O490  1  0.697500  0.077460  0.148940  1.0  -0.5706
  O  O491  1  0.432490  0.962780  0.926030  1.0  -0.5603
  O  O492  1  0.605170  0.039550  0.075480  1.0  -0.5722
  O  O493  1  0.295920  0.823030  0.644090  1.0  -0.5765
  O  O494  1  0.362050  0.879270  0.765020  1.0  -0.1323
  O  O495  1  0.636290  0.159530  0.357740  1.0  -0.589
  O  O496  1  0.360970  0.898890  0.588320  1.0  -0.4764
  O  O497  1  0.406140  0.853310  0.551550  1.0  -0.551
  O  O498  1  0.450410  0.009240  0.633130  1.0  -0.2288
  O  O499  1  0.465850  0.115340  0.704270  1.0  -0.445
  O  O500  1  0.665490  0.107760  0.235910  1.0  -0.1665
  O  O501  1  0.557810  0.165010  0.715740  1.0  -0.5655
  O  O502  1  0.838900  0.228200  0.051900  1.0  -0.273
  O  O503  1  0.889900  0.287300  0.003000  1.0  -0.5578
  O  O504  1  0.959700  0.365800  0.094300  1.0  -0.5797
  O  O505  1  0.041900  0.662200  0.907300  1.0  -0.5769
  O  O506  1  0.112500  0.743200  0.994900  1.0  -0.5616
  O  O507  1  0.175030  0.736560  0.366270  1.0  -0.5806
  O  O508  1  0.067940  0.485660  0.147020  1.0  -0.5592
  O  O509  1  0.797520  0.358110  0.637430  1.0  -0.5338
  O  O510  1  0.928520  0.548560  0.851060  1.0  -0.5716
  O  O511  1  0.036750  0.506460  0.073970  1.0  -0.5619
  O  O512  1  0.964070  0.529690  0.924520  1.0  -0.5739
  O  O513  1  0.178940  0.651830  0.355910  1.0  -0.5752
  O  O514  1  0.114250  0.597030  0.234980  1.0  -0.1331
  O  O515  1  0.801790  0.278550  0.642260  1.0  -0.5888
  O  O516  1  0.310570  0.772650  0.411680  1.0  -0.474
  O  O517  1  0.301760  0.854590  0.448450  1.0  -0.5488
  O  O518  1  0.376110  0.817280  0.366870  1.0  -0.2217
  O  O519  1  0.411070  0.761580  0.295730  1.0  -0.4463
  O  O520  1  0.871850  0.429580  0.764090  1.0  -0.1698
  O  O521  1  0.449270  0.842070  0.284260  1.0  -0.5677
  O  O522  1  0.176300  0.787000  0.948100  1.0  -0.2754
  O  O523  1  0.284300  0.886900  0.997000  1.0  -0.5697
  O  O524  1  0.271500  0.865400  0.905700  1.0  -0.5776
  O  O525  1  0.092700  0.754900  0.134600  1.0  -0.5751
  O  O526  1  0.005100  0.748300  0.117600  1.0  -0.564
  O  O527  1  0.633730  0.370290  0.808760  1.0  -0.5783
  O  O528  1  0.852980  0.338640  0.920920  1.0  -0.5562
  O  O529  1  0.362570  0.720680  0.160090  1.0  -0.5334
  O  O530  1  0.148940  0.697500  0.077460  1.0  -0.5716
  O  O531  1  0.926030  0.432490  0.962780  1.0  -0.5625
  O  O532  1  0.075480  0.605170  0.039550  1.0  -0.5724
  O  O533  1  0.644090  0.295920  0.823030  1.0  -0.5786
  O  O534  1  0.765020  0.362050  0.879270  1.0  -0.1276
  O  O535  1  0.357740  0.636290  0.159530  1.0  -0.5906
  O  O536  1  0.588320  0.360970  0.898890  1.0  -0.478
  O  O537  1  0.551550  0.406140  0.853310  1.0  -0.5473
  O  O538  1  0.633130  0.450410  0.009240  1.0  -0.2244
  O  O539  1  0.704270  0.465850  0.115340  1.0  -0.4441
  O  O540  1  0.235910  0.665490  0.107760  1.0  -0.1668
  O  O541  1  0.715740  0.557810  0.165010  1.0  -0.5667
  O  O542  1  0.051900  0.838900  0.228200  1.0  -0.2761
  O  O543  1  0.003000  0.889900  0.287300  1.0  -0.559
  O  O544  1  0.094300  0.959700  0.365800  1.0  -0.5783
  O  O545  1  0.907300  0.041900  0.662200  1.0  -0.5766
  O  O546  1  0.994900  0.112500  0.743200  1.0  -0.5642
  O  O547  1  0.366270  0.175030  0.736560  1.0  -0.576
  O  O548  1  0.147020  0.067940  0.485660  1.0  -0.5607
  O  O549  1  0.637430  0.797520  0.358110  1.0  -0.532
  O  O550  1  0.851060  0.928520  0.548560  1.0  -0.5741
  O  O551  1  0.073970  0.036750  0.506460  1.0  -0.5621
  O  O552  1  0.924520  0.964070  0.529690  1.0  -0.572
  O  O553  1  0.355910  0.178940  0.651830  1.0  -0.5763
  O  O554  1  0.234980  0.114250  0.597030  1.0  -0.1258
  O  O555  1  0.642260  0.801790  0.278550  1.0  -0.5889
  O  O556  1  0.411680  0.310570  0.772650  1.0  -0.4738
  O  O557  1  0.448450  0.301760  0.854590  1.0  -0.5472
  O  O558  1  0.366870  0.376110  0.817280  1.0  -0.2227
  O  O559  1  0.295730  0.411070  0.761580  1.0  -0.4455
  O  O560  1  0.764090  0.871850  0.429580  1.0  -0.1666
  O  O561  1  0.284260  0.449270  0.842070  1.0  -0.5663
  O  O562  1  0.948100  0.176300  0.787000  1.0  -0.2866
  O  O563  1  0.997000  0.284300  0.886900  1.0  -0.5625
  O  O564  1  0.905700  0.271500  0.865400  1.0  -0.5783
  O  O565  1  0.620300  0.958100  0.865400  1.0  -0.5777
  O  O566  1  0.630700  0.887500  0.882400  1.0  -0.5652
  O  O567  1  0.561530  0.824970  0.191240  1.0  -0.5797
  O  O568  1  0.417720  0.932060  0.079080  1.0  -0.5578
  O  O569  1  0.560590  0.202480  0.839910  1.0  -0.5336
  O  O570  1  0.620040  0.071480  0.922540  1.0  -0.5702
  O  O571  1  0.469710  0.963250  0.037220  1.0  -0.56
  O  O572  1  0.565620  0.035930  0.960450  1.0  -0.5716
  O  O573  1  0.472890  0.821060  0.176970  1.0  -0.5781
  O  O574  1  0.482780  0.885750  0.120730  1.0  -0.1331
  O  O575  1  0.476760  0.198210  0.840470  1.0  -0.5897
  O  O576  1  0.462080  0.689430  0.101110  1.0  -0.4775
  O  O577  1  0.552830  0.698240  0.146690  1.0  -0.5499
  O  O578  1  0.441170  0.623890  0.990760  1.0  -0.2256
  O  O579  1  0.350510  0.588930  0.884660  1.0  -0.4483
  O  O580  1  0.557730  0.128150  0.892240  1.0  -0.1712
  O  O581  1  0.392800  0.550730  0.834990  1.0  -0.5661
  O  O582  1  0.610700  0.823700  0.771800  1.0  -0.2826
  O  O583  1  0.602600  0.715700  0.712700  1.0  -0.5611
  O  O584  1  0.593900  0.728500  0.634200  1.0  -0.5719
  O  O585  1  0.379700  0.245100  0.337800  1.0  -0.5738
  O  O586  1  0.369300  0.251700  0.256800  1.0  -0.5706
  O  O587  1  0.438470  0.629710  0.263440  1.0  -0.5805
  O  O588  1  0.582280  0.661360  0.514340  1.0  -0.557
  O  O589  1  0.439410  0.279320  0.641890  1.0  -0.5328
  O  O590  1  0.379960  0.302500  0.451440  1.0  -0.5699
  O  O591  1  0.530290  0.567510  0.493540  1.0  -0.5603
  O  O592  1  0.434380  0.394830  0.470310  1.0  -0.5718
  O  O593  1  0.527110  0.704080  0.348170  1.0  -0.5767
  O  O594  1  0.517220  0.637950  0.402970  1.0  -0.127
  O  O595  1  0.523240  0.363710  0.721450  1.0  -0.592
  O  O596  1  0.537920  0.639030  0.227350  1.0  -0.4791
  O  O597  1  0.447170  0.593860  0.145410  1.0  -0.5495
  O  O598  1  0.558830  0.549590  0.182720  1.0  -0.2266
  O  O599  1  0.649490  0.534150  0.238420  1.0  -0.4458
  O  O600  1  0.442270  0.334510  0.570420  1.0  -0.1649
  O  O601  1  0.607200  0.442190  0.157930  1.0  -0.5664
  O  O602  1  0.389300  0.161100  0.213000  1.0  -0.2834
  O  O603  1  0.397400  0.110100  0.113100  1.0  -0.5621
  O  O604  1  0.406100  0.040300  0.134600  1.0  -0.5791
  O  O605  1  0.337800  0.379700  0.245100  1.0  -0.5786
  O  O606  1  0.256800  0.369300  0.251700  1.0  -0.5689
  O  O607  1  0.263440  0.438470  0.629710  1.0  -0.5799
  O  O608  1  0.514340  0.582280  0.661360  1.0  -0.5579
  O  O609  1  0.641890  0.439410  0.279320  1.0  -0.5337
  O  O610  1  0.451440  0.379960  0.302500  1.0  -0.5719
  O  O611  1  0.493540  0.530290  0.567510  1.0  -0.56
  O  O612  1  0.470310  0.434380  0.394830  1.0  -0.5737
  O  O613  1  0.348170  0.527110  0.704080  1.0  -0.5772
  O  O614  1  0.402970  0.517220  0.637950  1.0  -0.1316
  O  O615  1  0.721450  0.523240  0.363710  1.0  -0.5896
  O  O616  1  0.227350  0.537920  0.639030  1.0  -0.4737
  O  O617  1  0.145410  0.447170  0.593860  1.0  -0.5446
  O  O618  1  0.182720  0.558830  0.549590  1.0  -0.2254
  O  O619  1  0.238420  0.649490  0.534150  1.0  -0.4468
  O  O620  1  0.570420  0.442270  0.334510  1.0  -0.1701
  O  O621  1  0.157930  0.607200  0.442190  1.0  -0.5645
  O  O622  1  0.213000  0.389300  0.161100  1.0  -0.2845
  O  O623  1  0.113100  0.397400  0.110100  1.0  -0.5623
  O  O624  1  0.134600  0.406100  0.040300  1.0  -0.5749
  O  O625  1  0.865400  0.620300  0.958100  1.0  -0.5775
  O  O626  1  0.882400  0.630700  0.887500  1.0  -0.572
  O  O627  1  0.191240  0.561530  0.824970  1.0  -0.5805
  O  O628  1  0.079080  0.417720  0.932060  1.0  -0.5586
  O  O629  1  0.839910  0.560590  0.202480  1.0  -0.5305
  O  O630  1  0.922540  0.620040  0.071480  1.0  -0.5712
  O  O631  1  0.037220  0.469710  0.963250  1.0  -0.5624
  O  O632  1  0.960450  0.565620  0.035930  1.0  -0.5726
  O  O633  1  0.176970  0.472890  0.821060  1.0  -0.5744
  O  O634  1  0.120730  0.482780  0.885750  1.0  -0.1311
  O  O635  1  0.840470  0.476760  0.198210  1.0  -0.5904
  O  O636  1  0.101110  0.462080  0.689430  1.0  -0.4764
  O  O637  1  0.146690  0.552830  0.698240  1.0  -0.5466
  O  O638  1  0.990760  0.441170  0.623890  1.0  -0.2266
  O  O639  1  0.884660  0.350510  0.588930  1.0  -0.4476
  O  O640  1  0.892240  0.557730  0.128150  1.0  -0.1671
  O  O641  1  0.834990  0.392800  0.550730  1.0  -0.5666
  O  O642  1  0.771800  0.610700  0.823700  1.0  -0.2876
  O  O643  1  0.712700  0.602600  0.715700  1.0  -0.5581
  O  O644  1  0.634200  0.593900  0.728500  1.0  -0.5758
  O  O645  1  0.662200  0.907300  0.041900  1.0  -0.5757
  O  O646  1  0.743200  0.994900  0.112500  1.0  -0.5598
  O  O647  1  0.736560  0.366270  0.175030  1.0  -0.5777
  O  O648  1  0.485660  0.147020  0.067940  1.0  -0.56
  O  O649  1  0.358110  0.637430  0.797520  1.0  -0.5305
  O  O650  1  0.548560  0.851060  0.928520  1.0  -0.5698
  O  O651  1  0.506460  0.073970  0.036750  1.0  -0.5611
  O  O652  1  0.529690  0.924520  0.964070  1.0  -0.5731
  O  O653  1  0.651830  0.355910  0.178940  1.0  -0.5768
  O  O654  1  0.597030  0.234980  0.114250  1.0  -0.1312
  O  O655  1  0.278550  0.642260  0.801790  1.0  -0.5906
  O  O656  1  0.772650  0.411680  0.310570  1.0  -0.4779
  O  O657  1  0.854590  0.448450  0.301760  1.0  -0.5494
  O  O658  1  0.817280  0.366870  0.376110  1.0  -0.2259
  O  O659  1  0.761580  0.295730  0.411070  1.0  -0.446
  O  O660  1  0.429580  0.764090  0.871850  1.0  -0.1673
  O  O661  1  0.842070  0.284260  0.449270  1.0  -0.565
  O  O662  1  0.787000  0.948100  0.176300  1.0  -0.2766
  O  O663  1  0.886900  0.997000  0.284300  1.0  -0.5655
  O  O664  1  0.865400  0.905700  0.271500  1.0  -0.5774
  O  O665  1  0.134600  0.092700  0.754900  1.0  -0.5755
  O  O666  1  0.117600  0.005100  0.748300  1.0  -0.5629
  O  O667  1  0.808760  0.633730  0.370290  1.0  -0.5775
  O  O668  1  0.920920  0.852980  0.338640  1.0  -0.5566
  O  O669  1  0.160090  0.362570  0.720680  1.0  -0.5319
  O  O670  1  0.077460  0.148940  0.697500  1.0  -0.5691
  O  O671  1  0.962780  0.926030  0.432490  1.0  -0.5596
  O  O672  1  0.039550  0.075480  0.605170  1.0  -0.5693
  O  O673  1  0.823030  0.644090  0.295920  1.0  -0.5754
  O  O674  1  0.879270  0.765020  0.362050  1.0  -0.1208
  O  O675  1  0.159530  0.357740  0.636290  1.0  -0.5884
  O  O676  1  0.898890  0.588320  0.360970  1.0  -0.4734
  O  O677  1  0.853310  0.551550  0.406140  1.0  -0.5486
  O  O678  1  0.009240  0.633130  0.450410  1.0  -0.2225
  O  O679  1  0.115340  0.704270  0.465850  1.0  -0.4445
  O  O680  1  0.107760  0.235910  0.665490  1.0  -0.1636
  O  O681  1  0.165010  0.715740  0.557810  1.0  -0.5646
  O  O682  1  0.228200  0.051900  0.838900  1.0  -0.2724
  O  O683  1  0.287300  0.003000  0.889900  1.0  -0.5575
  O  O684  1  0.365800  0.094300  0.959700  1.0  -0.5789
  O  O685  1  0.000000  0.000000  0.659580  1.0  -0.8558
  O  O686  1  0.000000  0.000000  0.377100  1.0  -0.8507
  O  O687  1  0.340420  0.340420  0.340420  1.0  -0.8553
  O  O688  1  0.622900  0.622900  0.622900  1.0  -0.8549
  O  O689  1  0.659580  0.000000  0.000000  1.0  -0.8586
  O  O690  1  0.377100  0.000000  0.000000  1.0  -0.8537
  O  O691  1  0.000000  0.659580  0.000000  1.0  -0.8574
  O  O692  1  0.000000  0.377100  0.000000  1.0  -0.8511
  O  O693  1  0.743430  0.243430  0.500000  1.0  -1.1883
  O  O694  1  0.256570  0.756570  0.500000  1.0  -1.1883
  O  O695  1  0.500000  0.256570  0.756570  1.0  -1.1882
  O  O696  1  0.500000  0.743430  0.243430  1.0  -1.1884
  O  O697  1  0.243430  0.500000  0.743430  1.0  -1.1883
  O  O698  1  0.756570  0.500000  0.256570  1.0  -1.1884
