# generated using pymatgen
data_NaMn2Cu3H21C39N6O19
_symmetry_space_group_name_H-M   'P 1'
_cell_length_a   36.33200000
_cell_length_b   36.33200000
_cell_length_c   15.20800000
_cell_angle_alpha   90.00000000
_cell_angle_beta   90.00000000
_cell_angle_gamma   90.00000000
_symmetry_Int_Tables_number   1
_chemical_formula_structural   NaMn2Cu3H21C39N6O19
_chemical_formula_sum   'Na8 Mn16 Cu24 H168 C312 N48 O152'
_cell_volume   20074.77631859
_cell_formula_units_Z   8
loop_
 _symmetry_equiv_pos_site_id
 _symmetry_equiv_pos_as_xyz
  1  'x, y, z'
loop_
 _atom_site_type_symbol
 _atom_site_label
 _atom_site_symmetry_multiplicity
 _atom_site_fract_x
 _atom_site_fract_y
 _atom_site_fract_z
 _atom_site_occupancy
 _atom_site_charge
  Na  Na1  1  0.272500  0.272500  0.430100  1.0  1.0542
  Na  Na2  1  0.727500  0.727500  0.430100  1.0  1.0548
  Na  Na3  1  0.727500  0.272500  0.430100  1.0  1.0559
  Na  Na4  1  0.272500  0.727500  0.430100  1.0  1.0531
  Na  Na5  1  0.727500  0.272500  0.569900  1.0  1.0561
  Na  Na6  1  0.272500  0.727500  0.569900  1.0  1.0535
  Na  Na7  1  0.272500  0.272500  0.569900  1.0  1.0546
  Na  Na8  1  0.727500  0.727500  0.569900  1.0  1.0551
  Mn  Mn9  1  0.147270  0.352120  0.248240  1.0  1.0612
  Mn  Mn10  1  0.852730  0.647880  0.248240  1.0  1.0614
  Mn  Mn11  1  0.647880  0.147270  0.248240  1.0  1.0601
  Mn  Mn12  1  0.352120  0.852730  0.248240  1.0  1.0624
  Mn  Mn13  1  0.852730  0.352120  0.751760  1.0  1.0625
  Mn  Mn14  1  0.147270  0.647880  0.751760  1.0  1.0615
  Mn  Mn15  1  0.352120  0.147270  0.751760  1.0  1.0606
  Mn  Mn16  1  0.647880  0.852730  0.751760  1.0  1.0631
  Mn  Mn17  1  0.852730  0.647880  0.751760  1.0  1.062
  Mn  Mn18  1  0.147270  0.352120  0.751760  1.0  1.0619
  Mn  Mn19  1  0.352120  0.852730  0.751760  1.0  1.063
  Mn  Mn20  1  0.647880  0.147270  0.751760  1.0  1.0607
  Mn  Mn21  1  0.147270  0.647880  0.248240  1.0  1.061
  Mn  Mn22  1  0.852730  0.352120  0.248240  1.0  1.0616
  Mn  Mn23  1  0.647880  0.852730  0.248240  1.0  1.0625
  Mn  Mn24  1  0.352120  0.147270  0.248240  1.0  1.06
  Cu  Cu25  1  0.000000  0.332590  0.273660  1.0  0.6819
  Cu  Cu26  1  0.000000  0.667410  0.273660  1.0  0.6816
  Cu  Cu27  1  0.667410  0.000000  0.273660  1.0  0.6809
  Cu  Cu28  1  0.332590  0.000000  0.273660  1.0  0.6802
  Cu  Cu29  1  0.000000  0.332590  0.726340  1.0  0.6809
  Cu  Cu30  1  0.000000  0.667410  0.726340  1.0  0.68
  Cu  Cu31  1  0.332590  0.000000  0.726340  1.0  0.679
  Cu  Cu32  1  0.667410  0.000000  0.726340  1.0  0.6797
  Cu  Cu33  1  0.151850  0.500000  0.269380  1.0  0.7019
  Cu  Cu34  1  0.848150  0.500000  0.269380  1.0  0.7028
  Cu  Cu35  1  0.500000  0.151850  0.269380  1.0  0.701
  Cu  Cu36  1  0.500000  0.848150  0.269380  1.0  0.7045
  Cu  Cu37  1  0.848150  0.500000  0.730620  1.0  0.7036
  Cu  Cu38  1  0.151850  0.500000  0.730620  1.0  0.703
  Cu  Cu39  1  0.500000  0.151850  0.730620  1.0  0.7016
  Cu  Cu40  1  0.500000  0.848150  0.730620  1.0  0.7024
  Cu  Cu41  1  0.242300  0.242300  0.230920  1.0  0.6566
  Cu  Cu42  1  0.757700  0.757700  0.230920  1.0  0.6558
  Cu  Cu43  1  0.757700  0.242300  0.230920  1.0  0.6568
  Cu  Cu44  1  0.242300  0.757700  0.230920  1.0  0.655
  Cu  Cu45  1  0.757700  0.242300  0.769080  1.0  0.6549
  Cu  Cu46  1  0.242300  0.757700  0.769080  1.0  0.6543
  Cu  Cu47  1  0.242300  0.242300  0.769080  1.0  0.655
  Cu  Cu48  1  0.757700  0.757700  0.769080  1.0  0.6549
  H  H49  1  0.073800  0.450500  0.286500  1.0  0.1207
  H  H50  1  0.039300  0.468700  0.330900  1.0  0.1201
  H  H51  1  0.044600  0.425900  0.334600  1.0  0.1172
  H  H52  1  0.050700  0.254400  0.286700  1.0  0.118
  H  H53  1  0.032100  0.219900  0.329900  1.0  0.1101
  H  H54  1  0.074900  0.225000  0.335100  1.0  0.1121
  H  H55  1  0.121000  0.194100  0.148900  1.0  0.0993
  H  H56  1  0.134000  0.228400  0.203000  1.0  0.1224
  H  H57  1  0.160300  0.194600  0.191000  1.0  0.1168
  H  H58  1  0.926200  0.549500  0.286500  1.0  0.1209
  H  H59  1  0.960700  0.531300  0.330900  1.0  0.1199
  H  H60  1  0.955400  0.574100  0.334600  1.0  0.1195
  H  H61  1  0.949300  0.745600  0.286700  1.0  0.1178
  H  H62  1  0.967900  0.780100  0.329900  1.0  0.1105
  H  H63  1  0.925100  0.775000  0.335100  1.0  0.1156
  H  H64  1  0.879000  0.805900  0.148900  1.0  0.1007
  H  H65  1  0.866000  0.771600  0.203000  1.0  0.1228
  H  H66  1  0.839700  0.805400  0.191000  1.0  0.1166
  H  H67  1  0.549500  0.073800  0.286500  1.0  0.1209
  H  H68  1  0.531300  0.039300  0.330900  1.0  0.1198
  H  H69  1  0.574100  0.044600  0.334600  1.0  0.1138
  H  H70  1  0.745600  0.050700  0.286700  1.0  0.1188
  H  H71  1  0.780100  0.032100  0.329900  1.0  0.1113
  H  H72  1  0.775000  0.074900  0.335100  1.0  0.1173
  H  H73  1  0.805900  0.121000  0.148900  1.0  0.0994
  H  H74  1  0.771600  0.134000  0.203000  1.0  0.1235
  H  H75  1  0.805400  0.160300  0.191000  1.0  0.1182
  H  H76  1  0.450500  0.926200  0.286500  1.0  0.1207
  H  H77  1  0.468700  0.960700  0.330900  1.0  0.1186
  H  H78  1  0.425900  0.955400  0.334600  1.0  0.1138
  H  H79  1  0.254400  0.949300  0.286700  1.0  0.1166
  H  H80  1  0.219900  0.967900  0.329900  1.0  0.1094
  H  H81  1  0.225000  0.925100  0.335100  1.0  0.117
  H  H82  1  0.194100  0.879000  0.148900  1.0  0.0999
  H  H83  1  0.228400  0.866000  0.203000  1.0  0.1224
  H  H84  1  0.194600  0.839700  0.191000  1.0  0.1169
  H  H85  1  0.926200  0.450500  0.713500  1.0  0.1218
  H  H86  1  0.960700  0.468700  0.669100  1.0  0.117
  H  H87  1  0.955400  0.425900  0.665400  1.0  0.1186
  H  H88  1  0.949300  0.254400  0.713300  1.0  0.1179
  H  H89  1  0.967900  0.219900  0.670100  1.0  0.1116
  H  H90  1  0.925100  0.225000  0.664900  1.0  0.1163
  H  H91  1  0.879000  0.194100  0.851100  1.0  0.0985
  H  H92  1  0.866000  0.228400  0.797000  1.0  0.1233
  H  H93  1  0.839700  0.194600  0.809000  1.0  0.1166
  H  H94  1  0.073800  0.549500  0.713500  1.0  0.1214
  H  H95  1  0.039300  0.531300  0.669100  1.0  0.1198
  H  H96  1  0.044600  0.574100  0.665400  1.0  0.1198
  H  H97  1  0.050700  0.745600  0.713300  1.0  0.1169
  H  H98  1  0.032100  0.780100  0.670100  1.0  0.1112
  H  H99  1  0.074900  0.775000  0.664900  1.0  0.1115
  H  H100  1  0.121000  0.805900  0.851100  1.0  0.0989
  H  H101  1  0.134000  0.771600  0.797000  1.0  0.122
  H  H102  1  0.160300  0.805400  0.809000  1.0  0.1185
  H  H103  1  0.450500  0.073800  0.713500  1.0  0.122
  H  H104  1  0.468700  0.039300  0.669100  1.0  0.1199
  H  H105  1  0.425900  0.044600  0.665400  1.0  0.1155
  H  H106  1  0.254400  0.050700  0.713300  1.0  0.117
  H  H107  1  0.219900  0.032100  0.670100  1.0  0.1097
  H  H108  1  0.225000  0.074900  0.664900  1.0  0.117
  H  H109  1  0.194100  0.121000  0.851100  1.0  0.0982
  H  H110  1  0.228400  0.134000  0.797000  1.0  0.1232
  H  H111  1  0.194600  0.160300  0.809000  1.0  0.1178
  H  H112  1  0.549500  0.926200  0.713500  1.0  0.1216
  H  H113  1  0.531300  0.960700  0.669100  1.0  0.1187
  H  H114  1  0.574100  0.955400  0.665400  1.0  0.1113
  H  H115  1  0.745600  0.949300  0.713300  1.0  0.1178
  H  H116  1  0.780100  0.967900  0.670100  1.0  0.1104
  H  H117  1  0.775000  0.925100  0.664900  1.0  0.1172
  H  H118  1  0.805900  0.879000  0.851100  1.0  0.0986
  H  H119  1  0.771600  0.866000  0.797000  1.0  0.124
  H  H120  1  0.805400  0.839700  0.809000  1.0  0.1162
  H  H121  1  0.926200  0.549500  0.713500  1.0  0.1219
  H  H122  1  0.960700  0.531300  0.669100  1.0  0.1182
  H  H123  1  0.955400  0.574100  0.665400  1.0  0.1188
  H  H124  1  0.949300  0.745600  0.713300  1.0  0.1173
  H  H125  1  0.967900  0.780100  0.670100  1.0  0.1089
  H  H126  1  0.925100  0.775000  0.664900  1.0  0.1155
  H  H127  1  0.879000  0.805900  0.851100  1.0  0.0992
  H  H128  1  0.866000  0.771600  0.797000  1.0  0.1229
  H  H129  1  0.839700  0.805400  0.809000  1.0  0.1134
  H  H130  1  0.073800  0.450500  0.713500  1.0  0.1214
  H  H131  1  0.039300  0.468700  0.669100  1.0  0.1184
  H  H132  1  0.044600  0.425900  0.665400  1.0  0.1171
  H  H133  1  0.050700  0.254400  0.713300  1.0  0.1176
  H  H134  1  0.032100  0.219900  0.670100  1.0  0.1085
  H  H135  1  0.074900  0.225000  0.664900  1.0  0.1118
  H  H136  1  0.121000  0.194100  0.851100  1.0  0.097
  H  H137  1  0.134000  0.228400  0.797000  1.0  0.1232
  H  H138  1  0.160300  0.194600  0.809000  1.0  0.1133
  H  H139  1  0.450500  0.926200  0.713500  1.0  0.1221
  H  H140  1  0.468700  0.960700  0.669100  1.0  0.1184
  H  H141  1  0.425900  0.955400  0.665400  1.0  0.1153
  H  H142  1  0.254400  0.949300  0.713300  1.0  0.1166
  H  H143  1  0.219900  0.967900  0.670100  1.0  0.1078
  H  H144  1  0.225000  0.925100  0.664900  1.0  0.1173
  H  H145  1  0.194100  0.879000  0.851100  1.0  0.0982
  H  H146  1  0.228400  0.866000  0.797000  1.0  0.1229
  H  H147  1  0.194600  0.839700  0.809000  1.0  0.1127
  H  H148  1  0.549500  0.073800  0.713500  1.0  0.1212
  H  H149  1  0.531300  0.039300  0.669100  1.0  0.1183
  H  H150  1  0.574100  0.044600  0.665400  1.0  0.1129
  H  H151  1  0.745600  0.050700  0.713300  1.0  0.1182
  H  H152  1  0.780100  0.032100  0.670100  1.0  0.1087
  H  H153  1  0.775000  0.074900  0.664900  1.0  0.1168
  H  H154  1  0.805900  0.121000  0.851100  1.0  0.0975
  H  H155  1  0.771600  0.134000  0.797000  1.0  0.1238
  H  H156  1  0.805400  0.160300  0.809000  1.0  0.1137
  H  H157  1  0.073800  0.549500  0.286500  1.0  0.1203
  H  H158  1  0.039300  0.531300  0.330900  1.0  0.1185
  H  H159  1  0.044600  0.574100  0.334600  1.0  0.12
  H  H160  1  0.050700  0.745600  0.286700  1.0  0.1179
  H  H161  1  0.032100  0.780100  0.329900  1.0  0.1083
  H  H162  1  0.074900  0.775000  0.335100  1.0  0.1119
  H  H163  1  0.121000  0.805900  0.148900  1.0  0.0991
  H  H164  1  0.134000  0.771600  0.203000  1.0  0.1224
  H  H165  1  0.160300  0.805400  0.191000  1.0  0.1148
  H  H166  1  0.926200  0.450500  0.286500  1.0  0.1212
  H  H167  1  0.960700  0.468700  0.330900  1.0  0.1179
  H  H168  1  0.955400  0.425900  0.334600  1.0  0.1191
  H  H169  1  0.949300  0.254400  0.286700  1.0  0.1181
  H  H170  1  0.967900  0.219900  0.329900  1.0  0.1085
  H  H171  1  0.925100  0.225000  0.335100  1.0  0.1162
  H  H172  1  0.879000  0.194100  0.148900  1.0  0.099
  H  H173  1  0.866000  0.228400  0.203000  1.0  0.1217
  H  H174  1  0.839700  0.194600  0.191000  1.0  0.1115
  H  H175  1  0.549500  0.926200  0.286500  1.0  0.1208
  H  H176  1  0.531300  0.960700  0.330900  1.0  0.1192
  H  H177  1  0.574100  0.955400  0.334600  1.0  0.1128
  H  H178  1  0.745600  0.949300  0.286700  1.0  0.1186
  H  H179  1  0.780100  0.967900  0.329900  1.0  0.1078
  H  H180  1  0.775000  0.925100  0.335100  1.0  0.1171
  H  H181  1  0.805900  0.879000  0.148900  1.0  0.0982
  H  H182  1  0.771600  0.866000  0.203000  1.0  0.1234
  H  H183  1  0.805400  0.839700  0.191000  1.0  0.1132
  H  H184  1  0.450500  0.073800  0.286500  1.0  0.121
  H  H185  1  0.468700  0.039300  0.330900  1.0  0.1181
  H  H186  1  0.425900  0.044600  0.334600  1.0  0.1144
  H  H187  1  0.254400  0.050700  0.286700  1.0  0.1167
  H  H188  1  0.219900  0.032100  0.329900  1.0  0.1074
  H  H189  1  0.225000  0.074900  0.335100  1.0  0.1172
  H  H190  1  0.194100  0.121000  0.148900  1.0  0.0989
  H  H191  1  0.228400  0.134000  0.203000  1.0  0.1232
  H  H192  1  0.194600  0.160300  0.191000  1.0  0.1137
  H  H193  1  0.053500  0.214500  0.500000  1.0  0.0968
  H  H194  1  0.034400  0.449100  0.500000  1.0  0.087
  H  H195  1  0.946500  0.785500  0.500000  1.0  0.0963
  H  H196  1  0.965600  0.550900  0.500000  1.0  0.0858
  H  H197  1  0.785500  0.053500  0.500000  1.0  0.0992
  H  H198  1  0.550900  0.034400  0.500000  1.0  0.0852
  H  H199  1  0.214500  0.946500  0.500000  1.0  0.0992
  H  H200  1  0.449100  0.965600  0.500000  1.0  0.0864
  H  H201  1  0.946500  0.214500  0.500000  1.0  0.0968
  H  H202  1  0.965600  0.449100  0.500000  1.0  0.0861
  H  H203  1  0.053500  0.785500  0.500000  1.0  0.0959
  H  H204  1  0.034400  0.550900  0.500000  1.0  0.0874
  H  H205  1  0.214500  0.053500  0.500000  1.0  0.0999
  H  H206  1  0.449100  0.034400  0.500000  1.0  0.0864
  H  H207  1  0.785500  0.946500  0.500000  1.0  0.0988
  H  H208  1  0.550900  0.965600  0.500000  1.0  0.0852
  H  H209  1  0.124300  0.193600  0.000000  1.0  0.122
  H  H210  1  0.875700  0.806400  0.000000  1.0  0.1218
  H  H211  1  0.806400  0.124300  0.000000  1.0  0.1228
  H  H212  1  0.193600  0.875700  0.000000  1.0  0.125
  H  H213  1  0.875700  0.193600  0.000000  1.0  0.1217
  H  H214  1  0.124300  0.806400  0.000000  1.0  0.1227
  H  H215  1  0.193600  0.124300  0.000000  1.0  0.1227
  H  H216  1  0.806400  0.875700  0.000000  1.0  0.1239
  C  C217  1  0.069800  0.352100  0.222600  1.0  0.5616
  C  C218  1  0.073700  0.326800  0.301600  1.0  0.6323
  C  C219  1  0.145700  0.425700  0.303800  1.0  0.6107
  C  C220  1  0.163200  0.430500  0.213500  1.0  0.5421
  C  C221  1  0.206000  0.304900  0.279700  1.0  0.5971
  C  C222  1  0.187600  0.291700  0.192300  1.0  0.5952
  C  C223  1  0.045600  0.297300  0.421800  1.0  0.1364
  C  C224  1  0.047300  0.258500  0.420100  1.0  0.0614
  C  C225  1  0.116100  0.454600  0.422400  1.0  0.1103
  C  C226  1  0.185000  0.249000  0.078400  1.0  0.2734
  C  C227  1  0.157200  0.226600  0.079300  1.0  0.1312
  C  C228  1  0.078100  0.453100  0.419400  1.0  0.0765
  C  C229  1  0.057100  0.449200  0.335300  1.0  -0.4089
  C  C230  1  0.051700  0.237600  0.335300  1.0  -0.4312
  C  C231  1  0.141700  0.209300  0.163400  1.0  -0.3895
  C  C232  1  0.930200  0.647900  0.222600  1.0  0.5609
  C  C233  1  0.926300  0.673200  0.301600  1.0  0.6324
  C  C234  1  0.854300  0.574300  0.303800  1.0  0.6105
  C  C235  1  0.836800  0.569500  0.213500  1.0  0.5425
  C  C236  1  0.794000  0.695100  0.279700  1.0  0.5963
  C  C237  1  0.812400  0.708300  0.192300  1.0  0.5952
  C  C238  1  0.954400  0.702700  0.421800  1.0  0.1358
  C  C239  1  0.952700  0.741500  0.420100  1.0  0.061
  C  C240  1  0.883900  0.545400  0.422400  1.0  0.1107
  C  C241  1  0.815000  0.751000  0.078400  1.0  0.2732
  C  C242  1  0.842800  0.773400  0.079300  1.0  0.1316
  C  C243  1  0.921900  0.546900  0.419400  1.0  0.0768
  C  C244  1  0.942900  0.550800  0.335300  1.0  -0.4108
  C  C245  1  0.948300  0.762400  0.335300  1.0  -0.4299
  C  C246  1  0.858300  0.790700  0.163400  1.0  -0.3874
  C  C247  1  0.647900  0.069800  0.222600  1.0  0.5623
  C  C248  1  0.673200  0.073700  0.301600  1.0  0.633
  C  C249  1  0.574300  0.145700  0.303800  1.0  0.6073
  C  C250  1  0.569500  0.163200  0.213500  1.0  0.5379
  C  C251  1  0.695100  0.206000  0.279700  1.0  0.5954
  C  C252  1  0.708300  0.187600  0.192300  1.0  0.598
  C  C253  1  0.702700  0.045600  0.421800  1.0  0.1354
  C  C254  1  0.741500  0.047300  0.420100  1.0  0.0615
  C  C255  1  0.545400  0.116100  0.422400  1.0  0.112
  C  C256  1  0.751000  0.185000  0.078400  1.0  0.2726
  C  C257  1  0.773400  0.157200  0.079300  1.0  0.133
  C  C258  1  0.546900  0.078100  0.419400  1.0  0.0773
  C  C259  1  0.550800  0.057100  0.335300  1.0  -0.4093
  C  C260  1  0.762400  0.051700  0.335300  1.0  -0.4307
  C  C261  1  0.790700  0.141700  0.163400  1.0  -0.387
  C  C262  1  0.352100  0.930200  0.222600  1.0  0.561
  C  C263  1  0.326800  0.926300  0.301600  1.0  0.6331
  C  C264  1  0.425700  0.854300  0.303800  1.0  0.6072
  C  C265  1  0.430500  0.836800  0.213500  1.0  0.5388
  C  C266  1  0.304900  0.794000  0.279700  1.0  0.5981
  C  C267  1  0.291700  0.812400  0.192300  1.0  0.5971
  C  C268  1  0.297300  0.954400  0.421800  1.0  0.1361
  C  C269  1  0.258500  0.952700  0.420100  1.0  0.0605
  C  C270  1  0.454600  0.883900  0.422400  1.0  0.1116
  C  C271  1  0.249000  0.815000  0.078400  1.0  0.2747
  C  C272  1  0.226600  0.842800  0.079300  1.0  0.1318
  C  C273  1  0.453100  0.921900  0.419400  1.0  0.0777
  C  C274  1  0.449200  0.942900  0.335300  1.0  -0.4085
  C  C275  1  0.237600  0.948300  0.335300  1.0  -0.4295
  C  C276  1  0.209300  0.858300  0.163400  1.0  -0.3889
  C  C277  1  0.930200  0.352100  0.777400  1.0  0.5609
  C  C278  1  0.926300  0.326800  0.698400  1.0  0.6317
  C  C279  1  0.854300  0.425700  0.696200  1.0  0.6104
  C  C280  1  0.836800  0.430500  0.786500  1.0  0.5402
  C  C281  1  0.794000  0.304900  0.720300  1.0  0.5982
  C  C282  1  0.812400  0.291700  0.807700  1.0  0.5957
  C  C283  1  0.954400  0.297300  0.578200  1.0  0.1364
  C  C284  1  0.952700  0.258500  0.579900  1.0  0.0614
  C  C285  1  0.883900  0.454600  0.577600  1.0  0.1112
  C  C286  1  0.815000  0.249000  0.921600  1.0  0.2728
  C  C287  1  0.842800  0.226600  0.920700  1.0  0.1319
  C  C288  1  0.921900  0.453100  0.580600  1.0  0.0772
  C  C289  1  0.942900  0.449200  0.664700  1.0  -0.4095
  C  C290  1  0.948300  0.237600  0.664700  1.0  -0.4308
  C  C291  1  0.858300  0.209300  0.836600  1.0  -0.3886
  C  C292  1  0.069800  0.647900  0.777400  1.0  0.5603
  C  C293  1  0.073700  0.673200  0.698400  1.0  0.6321
  C  C294  1  0.145700  0.574300  0.696200  1.0  0.6095
  C  C295  1  0.163200  0.569500  0.786500  1.0  0.5413
  C  C296  1  0.206000  0.695100  0.720300  1.0  0.5948
  C  C297  1  0.187600  0.708300  0.807700  1.0  0.5946
  C  C298  1  0.045600  0.702700  0.578200  1.0  0.1372
  C  C299  1  0.047300  0.741500  0.579900  1.0  0.061
  C  C300  1  0.116100  0.545400  0.577600  1.0  0.1103
  C  C301  1  0.185000  0.751000  0.921600  1.0  0.274
  C  C302  1  0.157200  0.773400  0.920700  1.0  0.1303
  C  C303  1  0.078100  0.546900  0.580600  1.0  0.0768
  C  C304  1  0.057100  0.550800  0.664700  1.0  -0.4098
  C  C305  1  0.051700  0.762400  0.664700  1.0  -0.4325
  C  C306  1  0.141700  0.790700  0.836600  1.0  -0.3876
  C  C307  1  0.352100  0.069800  0.777400  1.0  0.5624
  C  C308  1  0.326800  0.073700  0.698400  1.0  0.632
  C  C309  1  0.425700  0.145700  0.696200  1.0  0.6073
  C  C310  1  0.430500  0.163200  0.786500  1.0  0.5368
  C  C311  1  0.304900  0.206000  0.720300  1.0  0.5958
  C  C312  1  0.291700  0.187600  0.807700  1.0  0.5976
  C  C313  1  0.297300  0.045600  0.578200  1.0  0.1364
  C  C314  1  0.258500  0.047300  0.579900  1.0  0.0612
  C  C315  1  0.454600  0.116100  0.577600  1.0  0.1128
  C  C316  1  0.249000  0.185000  0.921600  1.0  0.2748
  C  C317  1  0.226600  0.157200  0.920700  1.0  0.1316
  C  C318  1  0.453100  0.078100  0.580600  1.0  0.0781
  C  C319  1  0.449200  0.057100  0.664700  1.0  -0.4097
  C  C320  1  0.237600  0.051700  0.664700  1.0  -0.4316
  C  C321  1  0.209300  0.141700  0.836600  1.0  -0.3865
  C  C322  1  0.647900  0.930200  0.777400  1.0  0.5605
  C  C323  1  0.673200  0.926300  0.698400  1.0  0.6327
  C  C324  1  0.574300  0.854300  0.696200  1.0  0.6066
  C  C325  1  0.569500  0.836800  0.786500  1.0  0.5366
  C  C326  1  0.695100  0.794000  0.720300  1.0  0.5962
  C  C327  1  0.708300  0.812400  0.807700  1.0  0.598
  C  C328  1  0.702700  0.954400  0.578200  1.0  0.1351
  C  C329  1  0.741500  0.952700  0.579900  1.0  0.0612
  C  C330  1  0.545400  0.883900  0.577600  1.0  0.1121
  C  C331  1  0.751000  0.815000  0.921600  1.0  0.2724
  C  C332  1  0.773400  0.842800  0.920700  1.0  0.1316
  C  C333  1  0.546900  0.921900  0.580600  1.0  0.0781
  C  C334  1  0.550800  0.942900  0.664700  1.0  -0.4088
  C  C335  1  0.762400  0.948300  0.664700  1.0  -0.4297
  C  C336  1  0.790700  0.858300  0.836600  1.0  -0.3879
  C  C337  1  0.930200  0.647900  0.777400  1.0  0.5608
  C  C338  1  0.926300  0.673200  0.698400  1.0  0.6318
  C  C339  1  0.854300  0.574300  0.696200  1.0  0.61
  C  C340  1  0.836800  0.569500  0.786500  1.0  0.5397
  C  C341  1  0.794000  0.695100  0.720300  1.0  0.5964
  C  C342  1  0.812400  0.708300  0.807700  1.0  0.5956
  C  C343  1  0.954400  0.702700  0.578200  1.0  0.1365
  C  C344  1  0.952700  0.741500  0.579900  1.0  0.0612
  C  C345  1  0.883900  0.545400  0.577600  1.0  0.1109
  C  C346  1  0.815000  0.751000  0.921600  1.0  0.272
  C  C347  1  0.842800  0.773400  0.920700  1.0  0.1323
  C  C348  1  0.921900  0.546900  0.580600  1.0  0.0773
  C  C349  1  0.942900  0.550800  0.664700  1.0  -0.4097
  C  C350  1  0.948300  0.762400  0.664700  1.0  -0.432
  C  C351  1  0.858300  0.790700  0.836600  1.0  -0.3923
  C  C352  1  0.069800  0.352100  0.777400  1.0  0.5602
  C  C353  1  0.073700  0.326800  0.698400  1.0  0.6318
  C  C354  1  0.145700  0.425700  0.696200  1.0  0.6102
  C  C355  1  0.163200  0.430500  0.786500  1.0  0.5417
  C  C356  1  0.206000  0.304900  0.720300  1.0  0.5961
  C  C357  1  0.187600  0.291700  0.807700  1.0  0.5949
  C  C358  1  0.045600  0.297300  0.578200  1.0  0.1372
  C  C359  1  0.047300  0.258500  0.579900  1.0  0.0612
  C  C360  1  0.116100  0.454600  0.577600  1.0  0.1105
  C  C361  1  0.185000  0.249000  0.921600  1.0  0.2723
  C  C362  1  0.157200  0.226600  0.920700  1.0  0.1306
  C  C363  1  0.078100  0.453100  0.580600  1.0  0.077
  C  C364  1  0.057100  0.449200  0.664700  1.0  -0.4096
  C  C365  1  0.051700  0.237600  0.664700  1.0  -0.4314
  C  C366  1  0.141700  0.209300  0.836600  1.0  -0.391
  C  C367  1  0.352100  0.930200  0.777400  1.0  0.5622
  C  C368  1  0.326800  0.926300  0.698400  1.0  0.6326
  C  C369  1  0.425700  0.854300  0.696200  1.0  0.6068
  C  C370  1  0.430500  0.836800  0.786500  1.0  0.537
  C  C371  1  0.304900  0.794000  0.720300  1.0  0.5947
  C  C372  1  0.291700  0.812400  0.807700  1.0  0.5978
  C  C373  1  0.297300  0.954400  0.578200  1.0  0.1368
  C  C374  1  0.258500  0.952700  0.579900  1.0  0.0609
  C  C375  1  0.454600  0.883900  0.577600  1.0  0.111
  C  C376  1  0.249000  0.815000  0.921600  1.0  0.2735
  C  C377  1  0.226600  0.842800  0.920700  1.0  0.1312
  C  C378  1  0.453100  0.921900  0.580600  1.0  0.0784
  C  C379  1  0.449200  0.942900  0.664700  1.0  -0.4093
  C  C380  1  0.237600  0.948300  0.664700  1.0  -0.4312
  C  C381  1  0.209300  0.858300  0.836600  1.0  -0.3898
  C  C382  1  0.647900  0.069800  0.777400  1.0  0.5606
  C  C383  1  0.673200  0.073700  0.698400  1.0  0.6323
  C  C384  1  0.574300  0.145700  0.696200  1.0  0.6066
  C  C385  1  0.569500  0.163200  0.786500  1.0  0.536
  C  C386  1  0.695100  0.206000  0.720300  1.0  0.5978
  C  C387  1  0.708300  0.187600  0.807700  1.0  0.5979
  C  C388  1  0.702700  0.045600  0.578200  1.0  0.1362
  C  C389  1  0.741500  0.047300  0.579900  1.0  0.0615
  C  C390  1  0.545400  0.116100  0.577600  1.0  0.1121
  C  C391  1  0.751000  0.185000  0.921600  1.0  0.2712
  C  C392  1  0.773400  0.157200  0.920700  1.0  0.133
  C  C393  1  0.546900  0.078100  0.580600  1.0  0.0774
  C  C394  1  0.550800  0.057100  0.664700  1.0  -0.409
  C  C395  1  0.762400  0.051700  0.664700  1.0  -0.4297
  C  C396  1  0.790700  0.141700  0.836600  1.0  -0.3913
  C  C397  1  0.069800  0.647900  0.222600  1.0  0.5612
  C  C398  1  0.073700  0.673200  0.301600  1.0  0.6327
  C  C399  1  0.145700  0.574300  0.303800  1.0  0.6101
  C  C400  1  0.163200  0.569500  0.213500  1.0  0.5416
  C  C401  1  0.206000  0.695100  0.279700  1.0  0.5983
  C  C402  1  0.187600  0.708300  0.192300  1.0  0.5942
  C  C403  1  0.045600  0.702700  0.421800  1.0  0.1373
  C  C404  1  0.047300  0.741500  0.420100  1.0  0.0613
  C  C405  1  0.116100  0.545400  0.422400  1.0  0.1102
  C  C406  1  0.185000  0.751000  0.078400  1.0  0.2725
  C  C407  1  0.157200  0.773400  0.079300  1.0  0.1304
  C  C408  1  0.078100  0.546900  0.419400  1.0  0.0766
  C  C409  1  0.057100  0.550800  0.335300  1.0  -0.4089
  C  C410  1  0.051700  0.762400  0.335300  1.0  -0.4322
  C  C411  1  0.141700  0.790700  0.163400  1.0  -0.3924
  C  C412  1  0.930200  0.352100  0.222600  1.0  0.5612
  C  C413  1  0.926300  0.326800  0.301600  1.0  0.6322
  C  C414  1  0.854300  0.425700  0.303800  1.0  0.611
  C  C415  1  0.836800  0.430500  0.213500  1.0  0.5433
  C  C416  1  0.794000  0.304900  0.279700  1.0  0.5957
  C  C417  1  0.812400  0.291700  0.192300  1.0  0.596
  C  C418  1  0.954400  0.297300  0.421800  1.0  0.1361
  C  C419  1  0.952700  0.258500  0.420100  1.0  0.0609
  C  C420  1  0.883900  0.454600  0.422400  1.0  0.1101
  C  C421  1  0.815000  0.249000  0.078400  1.0  0.2714
  C  C422  1  0.842800  0.226600  0.079300  1.0  0.1315
  C  C423  1  0.921900  0.453100  0.419400  1.0  0.0764
  C  C424  1  0.942900  0.449200  0.335300  1.0  -0.4106
  C  C425  1  0.948300  0.237600  0.335300  1.0  -0.4293
  C  C426  1  0.858300  0.209300  0.163400  1.0  -0.3903
  C  C427  1  0.647900  0.930200  0.222600  1.0  0.5624
  C  C428  1  0.673200  0.926300  0.301600  1.0  0.6335
  C  C429  1  0.574300  0.854300  0.303800  1.0  0.6075
  C  C430  1  0.569500  0.836800  0.213500  1.0  0.5394
  C  C431  1  0.695100  0.794000  0.279700  1.0  0.5963
  C  C432  1  0.708300  0.812400  0.192300  1.0  0.5982
  C  C433  1  0.702700  0.954400  0.421800  1.0  0.1352
  C  C434  1  0.741500  0.952700  0.420100  1.0  0.0611
  C  C435  1  0.545400  0.883900  0.422400  1.0  0.1122
  C  C436  1  0.751000  0.815000  0.078400  1.0  0.2709
  C  C437  1  0.773400  0.842800  0.079300  1.0  0.1323
  C  C438  1  0.546900  0.921900  0.419400  1.0  0.0779
  C  C439  1  0.550800  0.942900  0.335300  1.0  -0.4097
  C  C440  1  0.762400  0.948300  0.335300  1.0  -0.4303
  C  C441  1  0.790700  0.858300  0.163400  1.0  -0.3914
  C  C442  1  0.352100  0.069800  0.222600  1.0  0.5611
  C  C443  1  0.326800  0.073700  0.301600  1.0  0.6324
  C  C444  1  0.425700  0.145700  0.303800  1.0  0.6074
  C  C445  1  0.430500  0.163200  0.213500  1.0  0.5379
  C  C446  1  0.304900  0.206000  0.279700  1.0  0.5966
  C  C447  1  0.291700  0.187600  0.192300  1.0  0.597
  C  C448  1  0.297300  0.045600  0.421800  1.0  0.1362
  C  C449  1  0.258500  0.047300  0.420100  1.0  0.0611
  C  C450  1  0.454600  0.116100  0.422400  1.0  0.1118
  C  C451  1  0.249000  0.185000  0.078400  1.0  0.2729
  C  C452  1  0.226600  0.157200  0.079300  1.0  0.1318
  C  C453  1  0.453100  0.078100  0.419400  1.0  0.0776
  C  C454  1  0.449200  0.057100  0.335300  1.0  -0.4086
  C  C455  1  0.237600  0.051700  0.335300  1.0  -0.4298
  C  C456  1  0.209300  0.141700  0.163400  1.0  -0.3903
  C  C457  1  0.046600  0.316800  0.500000  1.0  -0.0231
  C  C458  1  0.050000  0.239900  0.500000  1.0  -0.1349
  C  C459  1  0.137300  0.455600  0.500000  1.0  0.0341
  C  C460  1  0.178300  0.454200  0.500000  1.0  -0.0602
  C  C461  1  0.059900  0.451400  0.500000  1.0  -0.1509
  C  C462  1  0.046500  0.358600  0.500000  1.0  -0.1224
  C  C463  1  0.953400  0.683200  0.500000  1.0  -0.0198
  C  C464  1  0.950000  0.760100  0.500000  1.0  -0.135
  C  C465  1  0.862700  0.544400  0.500000  1.0  0.0385
  C  C466  1  0.821700  0.545800  0.500000  1.0  -0.058
  C  C467  1  0.940100  0.548600  0.500000  1.0  -0.1506
  C  C468  1  0.953500  0.641400  0.500000  1.0  -0.1231
  C  C469  1  0.683200  0.046600  0.500000  1.0  -0.0251
  C  C470  1  0.760100  0.050000  0.500000  1.0  -0.1395
  C  C471  1  0.544400  0.137300  0.500000  1.0  0.0407
  C  C472  1  0.545800  0.178300  0.500000  1.0  -0.0634
  C  C473  1  0.548600  0.059900  0.500000  1.0  -0.1464
  C  C474  1  0.641400  0.046500  0.500000  1.0  -0.1198
  C  C475  1  0.316800  0.953400  0.500000  1.0  -0.0273
  C  C476  1  0.239900  0.950000  0.500000  1.0  -0.1385
  C  C477  1  0.455600  0.862700  0.500000  1.0  0.0441
  C  C478  1  0.454200  0.821700  0.500000  1.0  -0.0659
  C  C479  1  0.451400  0.940100  0.500000  1.0  -0.1463
  C  C480  1  0.358600  0.953500  0.500000  1.0  -0.123
  C  C481  1  0.953400  0.316800  0.500000  1.0  -0.0212
  C  C482  1  0.950000  0.239900  0.500000  1.0  -0.1354
  C  C483  1  0.862700  0.455600  0.500000  1.0  0.0371
  C  C484  1  0.821700  0.454200  0.500000  1.0  -0.0575
  C  C485  1  0.940100  0.451400  0.500000  1.0  -0.1509
  C  C486  1  0.953500  0.358600  0.500000  1.0  -0.1229
  C  C487  1  0.046600  0.683200  0.500000  1.0  -0.0208
  C  C488  1  0.050000  0.760100  0.500000  1.0  -0.1351
  C  C489  1  0.137300  0.544400  0.500000  1.0  0.0341
  C  C490  1  0.178300  0.545800  0.500000  1.0  -0.0598
  C  C491  1  0.059900  0.548600  0.500000  1.0  -0.1505
  C  C492  1  0.046500  0.641400  0.500000  1.0  -0.1232
  C  C493  1  0.316800  0.046600  0.500000  1.0  -0.0278
  C  C494  1  0.239900  0.050000  0.500000  1.0  -0.1392
  C  C495  1  0.455600  0.137300  0.500000  1.0  0.0436
  C  C496  1  0.454200  0.178300  0.500000  1.0  -0.0636
  C  C497  1  0.451400  0.059900  0.500000  1.0  -0.1479
  C  C498  1  0.358600  0.046500  0.500000  1.0  -0.1234
  C  C499  1  0.683200  0.953400  0.500000  1.0  -0.0254
  C  C500  1  0.760100  0.950000  0.500000  1.0  -0.1386
  C  C501  1  0.544400  0.862700  0.500000  1.0  0.0428
  C  C502  1  0.545800  0.821700  0.500000  1.0  -0.0651
  C  C503  1  0.548600  0.940100  0.500000  1.0  -0.1466
  C  C504  1  0.641400  0.953500  0.500000  1.0  -0.1195
  C  C505  1  0.199800  0.263200  0.000000  1.0  -0.0839
  C  C506  1  0.228400  0.292100  0.000000  1.0  -0.0731
  C  C507  1  0.142400  0.211700  0.000000  1.0  -0.1525
  C  C508  1  0.800200  0.736800  0.000000  1.0  -0.0826
  C  C509  1  0.771600  0.707900  0.000000  1.0  -0.0782
  C  C510  1  0.857600  0.788300  0.000000  1.0  -0.1511
  C  C511  1  0.736800  0.199800  0.000000  1.0  -0.0885
  C  C512  1  0.707900  0.228400  0.000000  1.0  -0.0733
  C  C513  1  0.788300  0.142400  0.000000  1.0  -0.154
  C  C514  1  0.263200  0.800200  0.000000  1.0  -0.091
  C  C515  1  0.292100  0.771600  0.000000  1.0  -0.0761
  C  C516  1  0.211700  0.857600  0.000000  1.0  -0.1508
  C  C517  1  0.800200  0.263200  0.000000  1.0  -0.0822
  C  C518  1  0.771600  0.292100  0.000000  1.0  -0.0746
  C  C519  1  0.857600  0.211700  0.000000  1.0  -0.1506
  C  C520  1  0.199800  0.736800  0.000000  1.0  -0.0822
  C  C521  1  0.228400  0.707900  0.000000  1.0  -0.0773
  C  C522  1  0.142400  0.788300  0.000000  1.0  -0.1527
  C  C523  1  0.263200  0.199800  0.000000  1.0  -0.0912
  C  C524  1  0.292100  0.228400  0.000000  1.0  -0.0722
  C  C525  1  0.211700  0.142400  0.000000  1.0  -0.1522
  C  C526  1  0.736800  0.800200  0.000000  1.0  -0.0897
  C  C527  1  0.707900  0.771600  0.000000  1.0  -0.0778
  C  C528  1  0.788300  0.857600  0.000000  1.0  -0.1512
  N  N529  1  0.044700  0.316800  0.341400  1.0  -0.3473
  N  N530  1  0.137000  0.457200  0.339300  1.0  -0.388
  N  N531  1  0.201100  0.262730  0.160100  1.0  -0.3757
  N  N532  1  0.955300  0.683200  0.341400  1.0  -0.3482
  N  N533  1  0.863000  0.542800  0.339300  1.0  -0.3885
  N  N534  1  0.798900  0.737270  0.160100  1.0  -0.374
  N  N535  1  0.683200  0.044700  0.341400  1.0  -0.3482
  N  N536  1  0.542800  0.137000  0.339300  1.0  -0.3887
  N  N537  1  0.737270  0.201100  0.160100  1.0  -0.3763
  N  N538  1  0.316800  0.955300  0.341400  1.0  -0.347
  N  N539  1  0.457200  0.863000  0.339300  1.0  -0.3861
  N  N540  1  0.262730  0.798900  0.160100  1.0  -0.376
  N  N541  1  0.955300  0.316800  0.658600  1.0  -0.3483
  N  N542  1  0.863000  0.457200  0.660700  1.0  -0.3868
  N  N543  1  0.798900  0.262730  0.839900  1.0  -0.3745
  N  N544  1  0.044700  0.683200  0.658600  1.0  -0.3476
  N  N545  1  0.137000  0.542800  0.660700  1.0  -0.3864
  N  N546  1  0.201100  0.737270  0.839900  1.0  -0.3759
  N  N547  1  0.316800  0.044700  0.658600  1.0  -0.3472
  N  N548  1  0.457200  0.137000  0.660700  1.0  -0.3848
  N  N549  1  0.262730  0.201100  0.839900  1.0  -0.3775
  N  N550  1  0.683200  0.955300  0.658600  1.0  -0.3473
  N  N551  1  0.542800  0.863000  0.660700  1.0  -0.3884
  N  N552  1  0.737270  0.798900  0.839900  1.0  -0.3759
  N  N553  1  0.955300  0.683200  0.658600  1.0  -0.3482
  N  N554  1  0.863000  0.542800  0.660700  1.0  -0.3874
  N  N555  1  0.798900  0.737270  0.839900  1.0  -0.3749
  N  N556  1  0.044700  0.316800  0.658600  1.0  -0.3471
  N  N557  1  0.137000  0.457200  0.660700  1.0  -0.3868
  N  N558  1  0.201100  0.262730  0.839900  1.0  -0.3761
  N  N559  1  0.316800  0.955300  0.658600  1.0  -0.3467
  N  N560  1  0.457200  0.863000  0.660700  1.0  -0.3857
  N  N561  1  0.262730  0.798900  0.839900  1.0  -0.3767
  N  N562  1  0.683200  0.044700  0.658600  1.0  -0.3479
  N  N563  1  0.542800  0.137000  0.660700  1.0  -0.3871
  N  N564  1  0.737270  0.201100  0.839900  1.0  -0.3764
  N  N565  1  0.044700  0.683200  0.341400  1.0  -0.3478
  N  N566  1  0.137000  0.542800  0.339300  1.0  -0.3873
  N  N567  1  0.201100  0.737270  0.160100  1.0  -0.3752
  N  N568  1  0.955300  0.316800  0.341400  1.0  -0.3483
  N  N569  1  0.863000  0.457200  0.339300  1.0  -0.3885
  N  N570  1  0.798900  0.262730  0.160100  1.0  -0.3743
  N  N571  1  0.683200  0.955300  0.341400  1.0  -0.3478
  N  N572  1  0.542800  0.863000  0.339300  1.0  -0.3891
  N  N573  1  0.737270  0.798900  0.160100  1.0  -0.3756
  N  N574  1  0.316800  0.044700  0.341400  1.0  -0.3474
  N  N575  1  0.457200  0.137000  0.339300  1.0  -0.3858
  N  N576  1  0.262730  0.201100  0.160100  1.0  -0.3769
  O  O577  1  0.036100  0.357700  0.199700  1.0  -0.5579
  O  O578  1  0.097100  0.363180  0.182800  1.0  -0.5446
  O  O579  1  0.107200  0.319000  0.324600  1.0  -0.5753
  O  O580  1  0.171100  0.462300  0.189300  1.0  -0.5305
  O  O581  1  0.173000  0.400020  0.175700  1.0  -0.5538
  O  O582  1  0.140200  0.394700  0.332400  1.0  -0.5568
  O  O583  1  0.161300  0.311520  0.163900  1.0  -0.5606
  O  O584  1  0.193200  0.333140  0.315000  1.0  -0.5399
  O  O585  1  0.231100  0.285040  0.308900  1.0  -0.617
  O  O586  1  0.963900  0.642300  0.199700  1.0  -0.5572
  O  O587  1  0.902900  0.636820  0.182800  1.0  -0.5446
  O  O588  1  0.892800  0.681000  0.324600  1.0  -0.5766
  O  O589  1  0.828900  0.537700  0.189300  1.0  -0.5307
  O  O590  1  0.827000  0.599980  0.175700  1.0  -0.5563
  O  O591  1  0.859800  0.605300  0.332400  1.0  -0.557
  O  O592  1  0.838700  0.688480  0.163900  1.0  -0.5599
  O  O593  1  0.806800  0.666860  0.315000  1.0  -0.5409
  O  O594  1  0.768900  0.714960  0.308900  1.0  -0.616
  O  O595  1  0.642300  0.036100  0.199700  1.0  -0.5574
  O  O596  1  0.636820  0.097100  0.182800  1.0  -0.5445
  O  O597  1  0.681000  0.107200  0.324600  1.0  -0.5754
  O  O598  1  0.537700  0.171100  0.189300  1.0  -0.5333
  O  O599  1  0.599980  0.173000  0.175700  1.0  -0.5568
  O  O600  1  0.605300  0.140200  0.332400  1.0  -0.553
  O  O601  1  0.688480  0.161300  0.163900  1.0  -0.5614
  O  O602  1  0.666860  0.193200  0.315000  1.0  -0.5393
  O  O603  1  0.714960  0.231100  0.308900  1.0  -0.6184
  O  O604  1  0.357700  0.963900  0.199700  1.0  -0.5586
  O  O605  1  0.363180  0.902900  0.182800  1.0  -0.5459
  O  O606  1  0.319000  0.892800  0.324600  1.0  -0.5743
  O  O607  1  0.462300  0.828900  0.189300  1.0  -0.5295
  O  O608  1  0.400020  0.827000  0.175700  1.0  -0.5552
  O  O609  1  0.394700  0.859800  0.332400  1.0  -0.5525
  O  O610  1  0.311520  0.838700  0.163900  1.0  -0.5624
  O  O611  1  0.333140  0.806800  0.315000  1.0  -0.5393
  O  O612  1  0.285040  0.768900  0.308900  1.0  -0.6163
  O  O613  1  0.963900  0.357700  0.800300  1.0  -0.5577
  O  O614  1  0.902900  0.363180  0.817200  1.0  -0.5439
  O  O615  1  0.892800  0.319000  0.675400  1.0  -0.5776
  O  O616  1  0.828900  0.462300  0.810700  1.0  -0.5264
  O  O617  1  0.827000  0.400020  0.824300  1.0  -0.5564
  O  O618  1  0.859800  0.394700  0.667600  1.0  -0.5573
  O  O619  1  0.838700  0.311520  0.836100  1.0  -0.5604
  O  O620  1  0.806800  0.333140  0.685000  1.0  -0.5409
  O  O621  1  0.768900  0.285040  0.691100  1.0  -0.6169
  O  O622  1  0.036100  0.642300  0.800300  1.0  -0.56
  O  O623  1  0.097100  0.636820  0.817200  1.0  -0.5424
  O  O624  1  0.107200  0.681000  0.675400  1.0  -0.576
  O  O625  1  0.171100  0.537700  0.810700  1.0  -0.5302
  O  O626  1  0.173000  0.599980  0.824300  1.0  -0.5562
  O  O627  1  0.140200  0.605300  0.667600  1.0  -0.5553
  O  O628  1  0.161300  0.688480  0.836100  1.0  -0.5608
  O  O629  1  0.193200  0.666860  0.685000  1.0  -0.5391
  O  O630  1  0.231100  0.714960  0.691100  1.0  -0.6149
  O  O631  1  0.357700  0.036100  0.800300  1.0  -0.5615
  O  O632  1  0.363180  0.097100  0.817200  1.0  -0.5439
  O  O633  1  0.319000  0.107200  0.675400  1.0  -0.5767
  O  O634  1  0.462300  0.171100  0.810700  1.0  -0.5271
  O  O635  1  0.400020  0.173000  0.824300  1.0  -0.5566
  O  O636  1  0.394700  0.140200  0.667600  1.0  -0.5536
  O  O637  1  0.311520  0.161300  0.836100  1.0  -0.5615
  O  O638  1  0.333140  0.193200  0.685000  1.0  -0.5386
  O  O639  1  0.285040  0.231100  0.691100  1.0  -0.6159
  O  O640  1  0.642300  0.963900  0.800300  1.0  -0.5577
  O  O641  1  0.636820  0.902900  0.817200  1.0  -0.5447
  O  O642  1  0.681000  0.892800  0.675400  1.0  -0.5751
  O  O643  1  0.537700  0.828900  0.810700  1.0  -0.536
  O  O644  1  0.599980  0.827000  0.824300  1.0  -0.5574
  O  O645  1  0.605300  0.859800  0.667600  1.0  -0.5544
  O  O646  1  0.688480  0.838700  0.836100  1.0  -0.5628
  O  O647  1  0.666860  0.806800  0.685000  1.0  -0.5373
  O  O648  1  0.714960  0.768900  0.691100  1.0  -0.6174
  O  O649  1  0.963900  0.642300  0.800300  1.0  -0.559
  O  O650  1  0.902900  0.636820  0.817200  1.0  -0.5437
  O  O651  1  0.892800  0.681000  0.675400  1.0  -0.5776
  O  O652  1  0.828900  0.537700  0.810700  1.0  -0.5293
  O  O653  1  0.827000  0.599980  0.824300  1.0  -0.5571
  O  O654  1  0.859800  0.605300  0.667600  1.0  -0.557
  O  O655  1  0.838700  0.688480  0.836100  1.0  -0.5608
  O  O656  1  0.806800  0.666860  0.685000  1.0  -0.5398
  O  O657  1  0.768900  0.714960  0.691100  1.0  -0.6151
  O  O658  1  0.036100  0.357700  0.800300  1.0  -0.5588
  O  O659  1  0.097100  0.363180  0.817200  1.0  -0.543
  O  O660  1  0.107200  0.319000  0.675400  1.0  -0.5763
  O  O661  1  0.171100  0.462300  0.810700  1.0  -0.5271
  O  O662  1  0.173000  0.400020  0.824300  1.0  -0.557
  O  O663  1  0.140200  0.394700  0.667600  1.0  -0.5573
  O  O664  1  0.161300  0.311520  0.836100  1.0  -0.5603
  O  O665  1  0.193200  0.333140  0.685000  1.0  -0.5397
  O  O666  1  0.231100  0.285040  0.691100  1.0  -0.6169
  O  O667  1  0.357700  0.963900  0.800300  1.0  -0.5578
  O  O668  1  0.363180  0.902900  0.817200  1.0  -0.5438
  O  O669  1  0.319000  0.892800  0.675400  1.0  -0.5755
  O  O670  1  0.462300  0.828900  0.810700  1.0  -0.5339
  O  O671  1  0.400020  0.827000  0.824300  1.0  -0.5583
  O  O672  1  0.394700  0.859800  0.667600  1.0  -0.5535
  O  O673  1  0.311520  0.838700  0.836100  1.0  -0.5627
  O  O674  1  0.333140  0.806800  0.685000  1.0  -0.5379
  O  O675  1  0.285040  0.768900  0.691100  1.0  -0.6161
  O  O676  1  0.642300  0.036100  0.800300  1.0  -0.5618
  O  O677  1  0.636820  0.097100  0.817200  1.0  -0.5448
  O  O678  1  0.681000  0.107200  0.675400  1.0  -0.5766
  O  O679  1  0.537700  0.171100  0.810700  1.0  -0.5279
  O  O680  1  0.599980  0.173000  0.824300  1.0  -0.5567
  O  O681  1  0.605300  0.140200  0.667600  1.0  -0.554
  O  O682  1  0.688480  0.161300  0.836100  1.0  -0.5613
  O  O683  1  0.666860  0.193200  0.685000  1.0  -0.5388
  O  O684  1  0.714960  0.231100  0.691100  1.0  -0.618
  O  O685  1  0.036100  0.642300  0.199700  1.0  -0.5569
  O  O686  1  0.097100  0.636820  0.182800  1.0  -0.5441
  O  O687  1  0.107200  0.681000  0.324600  1.0  -0.5758
  O  O688  1  0.171100  0.537700  0.189300  1.0  -0.5305
  O  O689  1  0.173000  0.599980  0.175700  1.0  -0.554
  O  O690  1  0.140200  0.605300  0.332400  1.0  -0.5556
  O  O691  1  0.161300  0.688480  0.163900  1.0  -0.5605
  O  O692  1  0.193200  0.666860  0.315000  1.0  -0.5413
  O  O693  1  0.231100  0.714960  0.308900  1.0  -0.6157
  O  O694  1  0.963900  0.357700  0.199700  1.0  -0.5586
  O  O695  1  0.902900  0.363180  0.182800  1.0  -0.5449
  O  O696  1  0.892800  0.319000  0.324600  1.0  -0.5755
  O  O697  1  0.828900  0.462300  0.189300  1.0  -0.5305
  O  O698  1  0.827000  0.400020  0.175700  1.0  -0.5555
  O  O699  1  0.859800  0.394700  0.332400  1.0  -0.5559
  O  O700  1  0.838700  0.311520  0.163900  1.0  -0.5608
  O  O701  1  0.806800  0.333140  0.315000  1.0  -0.5401
  O  O702  1  0.768900  0.285040  0.308900  1.0  -0.6175
  O  O703  1  0.642300  0.963900  0.199700  1.0  -0.5582
  O  O704  1  0.636820  0.902900  0.182800  1.0  -0.5455
  O  O705  1  0.681000  0.892800  0.324600  1.0  -0.5741
  O  O706  1  0.537700  0.828900  0.189300  1.0  -0.5299
  O  O707  1  0.599980  0.827000  0.175700  1.0  -0.5543
  O  O708  1  0.605300  0.859800  0.332400  1.0  -0.5528
  O  O709  1  0.688480  0.838700  0.163900  1.0  -0.5631
  O  O710  1  0.666860  0.806800  0.315000  1.0  -0.5391
  O  O711  1  0.714960  0.768900  0.308900  1.0  -0.618
  O  O712  1  0.357700  0.036100  0.199700  1.0  -0.5584
  O  O713  1  0.363180  0.097100  0.182800  1.0  -0.5449
  O  O714  1  0.319000  0.107200  0.324600  1.0  -0.5759
  O  O715  1  0.462300  0.171100  0.189300  1.0  -0.5337
  O  O716  1  0.400020  0.173000  0.175700  1.0  -0.5568
  O  O717  1  0.394700  0.140200  0.332400  1.0  -0.553
  O  O718  1  0.311520  0.161300  0.163900  1.0  -0.5606
  O  O719  1  0.333140  0.193200  0.315000  1.0  -0.5386
  O  O720  1  0.285040  0.231100  0.308900  1.0  -0.6157
  O  O721  1  0.252000  0.213500  0.500000  1.0  -0.7222
  O  O722  1  0.748000  0.786500  0.500000  1.0  -0.7227
  O  O723  1  0.786500  0.252000  0.500000  1.0  -0.7199
  O  O724  1  0.213500  0.748000  0.500000  1.0  -0.7221
  O  O725  1  0.748000  0.213500  0.500000  1.0  -0.7222
  O  O726  1  0.252000  0.786500  0.500000  1.0  -0.7226
  O  O727  1  0.213500  0.252000  0.500000  1.0  -0.7214
  O  O728  1  0.786500  0.748000  0.500000  1.0  -0.7205
