# generated using pymatgen
data_AgH6C5N2
_symmetry_space_group_name_H-M   'P 1'
_cell_length_a   45.56460000
_cell_length_b   45.56460000
_cell_length_c   45.56460000
_cell_angle_alpha   94.94210000
_cell_angle_beta   94.94210000
_cell_angle_gamma   145.86300000
_symmetry_Int_Tables_number   1
_chemical_formula_structural   AgH6C5N2
_chemical_formula_sum   'Ag240 H1440 C1200 N480'
_cell_volume   50747.90146582
_cell_formula_units_Z   240
loop_
 _symmetry_equiv_pos_site_id
 _symmetry_equiv_pos_as_xyz
  1  'x, y, z'
loop_
 _atom_site_type_symbol
 _atom_site_label
 _atom_site_symmetry_multiplicity
 _atom_site_fract_x
 _atom_site_fract_y
 _atom_site_fract_z
 _atom_site_occupancy
 _atom_site_charge
  Ag  Ag1  1  0.007570  0.524430  0.066140  1.0  0.3278
  Ag  Ag2  1  0.028410  0.480580  0.021710  1.0  0.3023
  Ag  Ag3  1  0.565180  0.581130  0.988270  1.0  0.294
  Ag  Ag4  1  0.097560  0.233290  0.334030  1.0  0.3064
  Ag  Ag5  1  0.119340  0.188040  0.295980  1.0  0.3099
  Ag  Ag6  1  0.990750  0.108430  0.278480  1.0  0.2649
  Ag  Ag7  1  0.275950  0.014680  0.916930  1.0  0.3098
  Ag  Ag8  1  0.224190  0.004220  0.850330  1.0  0.3146
  Ag  Ag9  1  0.154200  0.947570  0.903470  1.0  0.3003
  Ag  Ag10  1  0.468120  0.356270  0.662890  1.0  0.3764
  Ag  Ag11  1  0.438280  0.271390  0.689350  1.0  0.3266
  Ag  Ag12  1  0.366150  0.225510  0.614900  1.0  0.2733
  Ag  Ag13  1  0.966150  0.352060  0.195650  1.0  0.3475
  Ag  Ag14  1  0.852100  0.293140  0.178560  1.0  0.29
  Ag  Ag15  1  0.901080  0.318380  0.252520  1.0  0.2814
  Ag  Ag16  1  0.877930  0.837730  0.153280  1.0  0.2796
  Ag  Ag17  1  0.925880  0.853340  0.222760  1.0  0.31
  Ag  Ag18  1  0.822700  0.729000  0.172480  1.0  0.2673
  Ag  Ag19  1  0.707460  0.535660  0.383240  1.0  0.2945
  Ag  Ag20  1  0.786830  0.599480  0.336370  1.0  0.337
  Ag  Ag21  1  0.760880  0.644920  0.365260  1.0  0.3073
  Ag  Ag22  1  0.602370  0.208660  0.231410  1.0  0.2915
  Ag  Ag23  1  0.580710  0.253920  0.267310  1.0  0.2632
  Ag  Ag24  1  0.713300  0.339700  0.282780  1.0  0.2961
  Ag  Ag25  1  0.141170  0.835000  0.075910  1.0  0.2733
  Ag  Ag26  1  0.251080  0.966960  0.112280  1.0  0.3306
  Ag  Ag27  1  0.218620  0.878590  0.145470  1.0  0.266
  Ag  Ag28  1  0.515180  0.474880  0.494820  1.0  0.2879
  Ag  Ag29  1  0.468180  0.477020  0.435120  1.0  0.2604
  Ag  Ag30  1  0.385880  0.392730  0.479890  1.0  0.3557
  Ag  Ag31  1  0.958290  0.941430  0.433860  1.0  0.3278
  Ag  Ag32  1  0.958870  0.006700  0.478290  1.0  0.2955
  Ag  Ag33  1  0.092860  0.576910  0.511730  1.0  0.2916
  Ag  Ag34  1  0.399260  0.763530  0.165970  1.0  0.305
  Ag  Ag35  1  0.392060  0.823360  0.204020  1.0  0.3191
  Ag  Ag36  1  0.329950  0.712270  0.221520  1.0  0.2644
  Ag  Ag37  1  0.597750  0.359020  0.583070  1.0  0.3041
  Ag  Ag38  1  0.653890  0.373860  0.649670  1.0  0.3134
  Ag  Ag39  1  0.544100  0.250730  0.596530  1.0  0.304
  Ag  Ag40  1  0.193380  0.805230  0.837110  1.0  0.377
  Ag  Ag41  1  0.082040  0.748930  0.810650  1.0  0.3336
  Ag  Ag42  1  0.110610  0.751250  0.885100  1.0  0.2716
  Ag  Ag43  1  0.656410  0.770500  0.304350  1.0  0.346
  Ag  Ag44  1  0.614580  0.673540  0.321440  1.0  0.2857
  Ag  Ag45  1  0.565860  0.648560  0.247480  1.0  0.2837
  Ag  Ag46  1  0.184450  0.724650  0.346720  1.0  0.2857
  Ag  Ag47  1  0.130580  0.703120  0.277240  1.0  0.3097
  Ag  Ag48  1  0.056520  0.650220  0.327520  1.0  0.2683
  Ag  Ag49  1  0.652420  0.324220  0.116760  1.0  0.2899
  Ag  Ag50  1  0.763110  0.450460  0.163630  1.0  0.3387
  Ag  Ag51  1  0.779660  0.395620  0.134740  1.0  0.2978
  Ag  Ag52  1  0.477250  0.370960  0.268590  1.0  0.2975
  Ag  Ag53  1  0.486610  0.313400  0.232690  1.0  0.2644
  Ag  Ag54  1  0.556920  0.430520  0.217220  1.0  0.2926
  Ag  Ag55  1  0.259090  0.065260  0.424090  1.0  0.2747
  Ag  Ag56  1  0.354680  0.138800  0.387720  1.0  0.3323
  Ag  Ag57  1  0.233120  0.073150  0.354530  1.0  0.2718
  Ag  Ag58  1  0.480060  0.020360  0.005180  1.0  0.2835
  Ag  Ag59  1  0.541900  0.033060  0.064880  1.0  0.2601
  Ag  Ag60  1  0.412840  0.905990  0.020110  1.0  0.3578
  Ag  Ag61  1  0.024430  0.458290  0.516860  1.0  0.326
  Ag  Ag62  1  0.980580  0.458870  0.452170  1.0  0.3018
  Ag  Ag63  1  0.081130  0.592860  0.015950  1.0  0.2895
  Ag  Ag64  1  0.733290  0.899260  0.135730  1.0  0.3027
  Ag  Ag65  1  0.688040  0.892060  0.068700  1.0  0.3172
  Ag  Ag66  1  0.608430  0.829950  0.117680  1.0  0.2694
  Ag  Ag67  1  0.514680  0.097750  0.738730  1.0  0.3078
  Ag  Ag68  1  0.504220  0.153890  0.780030  1.0  0.3138
  Ag  Ag69  1  0.447570  0.044100  0.793370  1.0  0.2982
  Ag  Ag70  1  0.856270  0.693380  0.888150  1.0  0.3717
  Ag  Ag71  1  0.771390  0.582040  0.833110  1.0  0.3329
  Ag  Ag72  1  0.725510  0.610610  0.859360  1.0  0.2714
  Ag  Ag73  1  0.852060  0.156410  0.385910  1.0  0.3458
  Ag  Ag74  1  0.793140  0.114580  0.441040  1.0  0.2893
  Ag  Ag75  1  0.818380  0.065860  0.417300  1.0  0.2808
  Ag  Ag76  1  0.337730  0.684450  0.959800  1.0  0.2851
  Ag  Ag77  1  0.353340  0.630580  0.927460  1.0  0.3085
  Ag  Ag78  1  0.229000  0.556520  0.906300  1.0  0.27
  Ag  Ag79  1  0.035660  0.152420  0.828200  1.0  0.2954
  Ag  Ag80  1  0.099480  0.263110  0.812650  1.0  0.3294
  Ag  Ag81  1  0.144920  0.279660  0.884040  1.0  0.3066
  Ag  Ag82  1  0.708660  0.977250  0.606290  1.0  0.2941
  Ag  Ag83  1  0.753920  0.986610  0.673210  1.0  0.2678
  Ag  Ag84  1  0.839700  0.056920  0.626400  1.0  0.2966
  Ag  Ag85  1  0.335000  0.759090  0.693830  1.0  0.2751
  Ag  Ag86  1  0.466960  0.854680  0.715880  1.0  0.3261
  Ag  Ag87  1  0.378590  0.733120  0.659970  1.0  0.2723
  Ag  Ag88  1  0.974880  0.980060  0.959700  1.0  0.2885
  Ag  Ag89  1  0.977020  0.041900  0.008840  1.0  0.2615
  Ag  Ag90  1  0.892730  0.912840  0.006850  1.0  0.3523
  Ag  Ag91  1  0.441430  0.507570  0.983140  1.0  0.3301
  Ag  Ag92  1  0.506700  0.528410  0.047830  1.0  0.3018
  Ag  Ag93  1  0.076910  0.065180  0.484050  1.0  0.2906
  Ag  Ag94  1  0.263530  0.597560  0.364270  1.0  0.3022
  Ag  Ag95  1  0.323360  0.619340  0.431300  1.0  0.3153
  Ag  Ag96  1  0.212270  0.490750  0.382320  1.0  0.2688
  Ag  Ag97  1  0.859020  0.775950  0.761270  1.0  0.3105
  Ag  Ag98  1  0.873860  0.724190  0.719970  1.0  0.3119
  Ag  Ag99  1  0.750730  0.654200  0.706630  1.0  0.2995
  Ag  Ag100  1  0.305230  0.968120  0.611850  1.0  0.3716
  Ag  Ag101  1  0.248930  0.938280  0.666890  1.0  0.3335
  Ag  Ag102  1  0.251250  0.866150  0.640640  1.0  0.2717
  Ag  Ag103  1  0.270500  0.466150  0.114090  1.0  0.3452
  Ag  Ag104  1  0.173540  0.352100  0.058960  1.0  0.2908
  Ag  Ag105  1  0.148560  0.401080  0.082700  1.0  0.2795
  Ag  Ag106  1  0.224650  0.377930  0.540200  1.0  0.2849
  Ag  Ag107  1  0.203120  0.425880  0.572540  1.0  0.3112
  Ag  Ag108  1  0.150220  0.322700  0.593700  1.0  0.2674
  Ag  Ag109  1  0.824220  0.207460  0.671800  1.0  0.2951
  Ag  Ag110  1  0.950460  0.286830  0.687350  1.0  0.3378
  Ag  Ag111  1  0.895620  0.260880  0.615960  1.0  0.3059
  Ag  Ag112  1  0.870960  0.102370  0.893710  1.0  0.2945
  Ag  Ag113  1  0.813400  0.080710  0.826790  1.0  0.2674
  Ag  Ag114  1  0.930520  0.213300  0.873600  1.0  0.297
  Ag  Ag115  1  0.565260  0.641170  0.806170  1.0  0.2727
  Ag  Ag116  1  0.638800  0.751080  0.784120  1.0  0.3305
  Ag  Ag117  1  0.573150  0.718620  0.840030  1.0  0.2708
  Ag  Ag118  1  0.520360  0.015180  0.540300  1.0  0.2881
  Ag  Ag119  1  0.533060  0.968180  0.491160  1.0  0.2566
  Ag  Ag120  1  0.405990  0.885880  0.493150  1.0  0.3546
  Ag  Ag121  1  0.992430  0.475570  0.933860  1.0  0.3304
  Ag  Ag122  1  0.971590  0.519420  0.978290  1.0  0.3037
  Ag  Ag123  1  0.434820  0.418870  0.011730  1.0  0.2921
  Ag  Ag124  1  0.902440  0.766710  0.665970  1.0  0.3034
  Ag  Ag125  1  0.880660  0.811960  0.704020  1.0  0.3109
  Ag  Ag126  1  0.009250  0.891570  0.721520  1.0  0.2664
  Ag  Ag127  1  0.724050  0.985320  0.083070  1.0  0.3062
  Ag  Ag128  1  0.775810  0.995780  0.149670  1.0  0.3125
  Ag  Ag129  1  0.845800  0.052430  0.096530  1.0  0.3036
  Ag  Ag130  1  0.531880  0.643730  0.337110  1.0  0.3766
  Ag  Ag131  1  0.561720  0.728610  0.310650  1.0  0.3283
  Ag  Ag132  1  0.633850  0.774490  0.385100  1.0  0.2739
  Ag  Ag133  1  0.033850  0.647940  0.804350  1.0  0.3483
  Ag  Ag134  1  0.147900  0.706860  0.821440  1.0  0.2892
  Ag  Ag135  1  0.098920  0.681620  0.747480  1.0  0.2824
  Ag  Ag136  1  0.122070  0.162270  0.846720  1.0  0.2788
  Ag  Ag137  1  0.074120  0.146660  0.777240  1.0  0.31
  Ag  Ag138  1  0.177300  0.271000  0.827520  1.0  0.2687
  Ag  Ag139  1  0.292540  0.464340  0.616760  1.0  0.2952
  Ag  Ag140  1  0.213170  0.400520  0.663630  1.0  0.337
  Ag  Ag141  1  0.239120  0.355080  0.634740  1.0  0.3032
  Ag  Ag142  1  0.397630  0.791340  0.768590  1.0  0.2963
  Ag  Ag143  1  0.419290  0.746080  0.732690  1.0  0.2633
  Ag  Ag144  1  0.286700  0.660300  0.717220  1.0  0.2933
  Ag  Ag145  1  0.858830  0.165000  0.924090  1.0  0.2732
  Ag  Ag146  1  0.748920  0.033040  0.887720  1.0  0.332
  Ag  Ag147  1  0.781380  0.121410  0.854530  1.0  0.2688
  Ag  Ag148  1  0.484820  0.525120  0.505180  1.0  0.2883
  Ag  Ag149  1  0.531820  0.522980  0.564880  1.0  0.2593
  Ag  Ag150  1  0.614120  0.607270  0.520110  1.0  0.358
  Ag  Ag151  1  0.041710  0.058570  0.566140  1.0  0.3314
  Ag  Ag152  1  0.041130  0.993300  0.521710  1.0  0.2979
  Ag  Ag153  1  0.907140  0.423090  0.488270  1.0  0.2945
  Ag  Ag154  1  0.600740  0.236470  0.834030  1.0  0.3069
  Ag  Ag155  1  0.607940  0.176640  0.795980  1.0  0.3161
  Ag  Ag156  1  0.670050  0.287730  0.778480  1.0  0.2632
  Ag  Ag157  1  0.402250  0.640980  0.416930  1.0  0.3067
  Ag  Ag158  1  0.346110  0.626140  0.350330  1.0  0.313
  Ag  Ag159  1  0.455900  0.749270  0.403470  1.0  0.3021
  Ag  Ag160  1  0.806620  0.194770  0.162890  1.0  0.3764
  Ag  Ag161  1  0.917960  0.251070  0.189350  1.0  0.3328
  Ag  Ag162  1  0.889390  0.248750  0.114900  1.0  0.2737
  Ag  Ag163  1  0.343590  0.229500  0.695650  1.0  0.3458
  Ag  Ag164  1  0.385420  0.326460  0.678560  1.0  0.2827
  Ag  Ag165  1  0.434140  0.351440  0.752520  1.0  0.2848
  Ag  Ag166  1  0.815550  0.275350  0.653280  1.0  0.2824
  Ag  Ag167  1  0.869420  0.296880  0.722760  1.0  0.3096
  Ag  Ag168  1  0.943480  0.349780  0.672480  1.0  0.2679
  Ag  Ag169  1  0.347580  0.675780  0.883240  1.0  0.2901
  Ag  Ag170  1  0.236890  0.549540  0.836370  1.0  0.338
  Ag  Ag171  1  0.220340  0.604380  0.865260  1.0  0.2989
  Ag  Ag172  1  0.522750  0.629040  0.731410  1.0  0.2994
  Ag  Ag173  1  0.513390  0.686600  0.767310  1.0  0.268
  Ag  Ag174  1  0.443080  0.569480  0.782780  1.0  0.2968
  Ag  Ag175  1  0.740910  0.934740  0.575910  1.0  0.2745
  Ag  Ag176  1  0.645320  0.861200  0.612280  1.0  0.3306
  Ag  Ag177  1  0.766880  0.926850  0.645470  1.0  0.2724
  Ag  Ag178  1  0.519940  0.979640  0.994820  1.0  0.2816
  Ag  Ag179  1  0.458100  0.966940  0.935120  1.0  0.2602
  Ag  Ag180  1  0.587160  0.094010  0.979890  1.0  0.3541
  Ag  Ag181  1  0.975570  0.541710  0.483140  1.0  0.3237
  Ag  Ag182  1  0.019420  0.541130  0.547830  1.0  0.3013
  Ag  Ag183  1  0.918870  0.407140  0.984050  1.0  0.2908
  Ag  Ag184  1  0.266710  0.100740  0.864270  1.0  0.3045
  Ag  Ag185  1  0.311960  0.107940  0.931300  1.0  0.3139
  Ag  Ag186  1  0.391570  0.170050  0.882320  1.0  0.2686
  Ag  Ag187  1  0.485320  0.902250  0.261270  1.0  0.3079
  Ag  Ag188  1  0.495780  0.846110  0.219970  1.0  0.3126
  Ag  Ag189  1  0.552430  0.955900  0.206630  1.0  0.2991
  Ag  Ag190  1  0.143730  0.306620  0.111850  1.0  0.3712
  Ag  Ag191  1  0.228610  0.417960  0.166890  1.0  0.3364
  Ag  Ag192  1  0.274490  0.389390  0.140640  1.0  0.2704
  Ag  Ag193  1  0.147940  0.843590  0.614090  1.0  0.3445
  Ag  Ag194  1  0.206860  0.885420  0.558960  1.0  0.2879
  Ag  Ag195  1  0.181620  0.934140  0.582700  1.0  0.2819
  Ag  Ag196  1  0.662270  0.315550  0.040200  1.0  0.2836
  Ag  Ag197  1  0.646660  0.369420  0.072540  1.0  0.3087
  Ag  Ag198  1  0.771000  0.443480  0.093700  1.0  0.2686
  Ag  Ag199  1  0.964340  0.847580  0.171800  1.0  0.2931
  Ag  Ag200  1  0.900520  0.736890  0.187350  1.0  0.3255
  Ag  Ag201  1  0.855080  0.720340  0.115960  1.0  0.3048
  Ag  Ag202  1  0.291340  0.022750  0.393710  1.0  0.3003
  Ag  Ag203  1  0.246080  0.013390  0.326790  1.0  0.268
  Ag  Ag204  1  0.160300  0.943080  0.373600  1.0  0.2957
  Ag  Ag205  1  0.665000  0.240910  0.306170  1.0  0.2699
  Ag  Ag206  1  0.533040  0.145320  0.284120  1.0  0.3286
  Ag  Ag207  1  0.621410  0.266880  0.340030  1.0  0.2708
  Ag  Ag208  1  0.025120  0.019940  0.040300  1.0  0.2866
  Ag  Ag209  1  0.022980  0.958100  0.991160  1.0  0.2595
  Ag  Ag210  1  0.107270  0.087160  0.993150  1.0  0.353
  Ag  Ag211  1  0.558570  0.492430  0.016860  1.0  0.3281
  Ag  Ag212  1  0.493300  0.471590  0.952170  1.0  0.3031
  Ag  Ag213  1  0.923090  0.934820  0.515950  1.0  0.2895
  Ag  Ag214  1  0.736470  0.402440  0.635730  1.0  0.3007
  Ag  Ag215  1  0.676640  0.380660  0.568700  1.0  0.3152
  Ag  Ag216  1  0.787730  0.509250  0.617680  1.0  0.2678
  Ag  Ag217  1  0.140980  0.224050  0.238730  1.0  0.3085
  Ag  Ag218  1  0.126140  0.275810  0.280030  1.0  0.3126
  Ag  Ag219  1  0.249270  0.345800  0.293370  1.0  0.2978
  Ag  Ag220  1  0.694770  0.031880  0.388150  1.0  0.3729
  Ag  Ag221  1  0.751070  0.061720  0.333110  1.0  0.3352
  Ag  Ag222  1  0.748750  0.133850  0.359360  1.0  0.274
  Ag  Ag223  1  0.729500  0.533850  0.885910  1.0  0.347
  Ag  Ag224  1  0.826460  0.647900  0.941040  1.0  0.289
  Ag  Ag225  1  0.851440  0.598920  0.917300  1.0  0.2791
  Ag  Ag226  1  0.775350  0.622070  0.459800  1.0  0.2832
  Ag  Ag227  1  0.796880  0.574120  0.427460  1.0  0.3094
  Ag  Ag228  1  0.849780  0.677300  0.406300  1.0  0.2701
  Ag  Ag229  1  0.175780  0.792540  0.328200  1.0  0.296
  Ag  Ag230  1  0.049540  0.713170  0.312650  1.0  0.3388
  Ag  Ag231  1  0.104380  0.739120  0.384040  1.0  0.3029
  Ag  Ag232  1  0.129040  0.897630  0.106290  1.0  0.292
  Ag  Ag233  1  0.186600  0.919290  0.173210  1.0  0.2668
  Ag  Ag234  1  0.069480  0.786700  0.126400  1.0  0.2985
  Ag  Ag235  1  0.434740  0.358830  0.193830  1.0  0.2738
  Ag  Ag236  1  0.361200  0.248920  0.215880  1.0  0.3264
  Ag  Ag237  1  0.426850  0.281380  0.159970  1.0  0.2715
  Ag  Ag238  1  0.479640  0.984820  0.459700  1.0  0.2876
  Ag  Ag239  1  0.466940  0.031820  0.508840  1.0  0.2548
  Ag  Ag240  1  0.594010  0.114120  0.506850  1.0  0.3512
  H  H241  1  0.945100  0.466400  0.107100  1.0  0.1228
  H  H242  1  0.963000  0.460100  0.134300  1.0  0.1264
  H  H243  1  0.901600  0.407900  0.112900  1.0  0.1308
  H  H244  1  0.996800  0.396800  0.037800  1.0  0.1162
  H  H245  1  0.946800  0.343800  0.048600  1.0  0.1289
  H  H246  1  0.007300  0.395000  0.071500  1.0  0.1129
  H  H247  1  0.569300  0.555600  0.100700  1.0  0.1265
  H  H248  1  0.629100  0.616300  0.120800  1.0  0.1119
  H  H249  1  0.617100  0.572100  0.109600  1.0  0.1258
  H  H250  1  0.677200  0.658400  0.998200  1.0  0.1173
  H  H251  1  0.712800  0.662400  0.015600  1.0  0.1202
  H  H252  1  0.728300  0.709000  0.027300  1.0  0.1152
  H  H253  1  0.121600  0.683400  0.011800  1.0  0.1187
  H  H254  1  0.162900  0.736900  0.039600  1.0  0.1199
  H  H255  1  0.108900  0.706600  0.019700  1.0  0.1205
  H  H256  1  0.018900  0.581700  0.116000  1.0  0.123
  H  H257  1  0.013300  0.611900  0.114200  1.0  0.1193
  H  H258  1  0.069300  0.645200  0.133500  1.0  0.1226
  H  H259  1  0.182000  0.325400  0.387600  1.0  0.0948
  H  H260  1  0.247200  0.380800  0.396200  1.0  0.1024
  H  H261  1  0.217600  0.337800  0.415400  1.0  0.1138
  H  H262  1  0.224900  0.248600  0.314900  1.0  0.1255
  H  H263  1  0.253000  0.264000  0.349200  1.0  0.1215
  H  H264  1  0.286100  0.310200  0.331900  1.0  0.1212
  H  H265  1  0.134700  0.144000  0.271700  1.0  0.1167
  H  H266  1  0.111500  0.106100  0.239200  1.0  0.1213
  H  H267  1  0.098900  0.085000  0.269100  1.0  0.1345
  H  H268  1  0.904200  0.002500  0.231100  1.0  0.1192
  H  H269  1  0.889700  0.956600  0.232700  1.0  0.1279
  H  H270  1  0.901400  0.976600  0.202400  1.0  0.121
  H  H271  1  0.098400  0.380900  0.349500  1.0  0.125
  H  H272  1  0.063400  0.351400  0.314400  1.0  0.1336
  H  H273  1  0.049700  0.363000  0.339700  1.0  0.1222
  H  H274  1  0.208700  0.574000  0.306700  1.0  0.128
  H  H275  1  0.147700  0.534700  0.301000  1.0  0.1201
  H  H276  1  0.163300  0.525600  0.275500  1.0  0.1299
  H  H277  1  0.371500  0.059700  0.922600  1.0  0.1192
  H  H278  1  0.384000  0.045900  0.897900  1.0  0.1139
  H  H279  1  0.425300  0.107500  0.911600  1.0  0.1292
  H  H280  1  0.281700  0.045700  0.804400  1.0  0.1307
  H  H281  1  0.343900  0.093500  0.804200  1.0  0.1319
  H  H282  1  0.300900  0.031200  0.790900  1.0  0.1285
  H  H283  1  0.487300  0.195000  0.813300  1.0  0.1249
  H  H284  1  0.428100  0.157600  0.812900  1.0  0.1198
  H  H285  1  0.473500  0.192800  0.844900  1.0  0.1178
  H  H286  1  0.370900  0.985500  0.830400  1.0  0.127
  H  H287  1  0.365900  0.002600  0.859300  1.0  0.1159
  H  H288  1  0.323900  0.970400  0.826100  1.0  0.1244
  H  H289  1  0.091800  0.891300  0.948300  1.0  0.114
  H  H290  1  0.085600  0.858500  0.966500  1.0  0.1034
  H  H291  1  0.110600  0.909900  0.984900  1.0  0.0929
  H  H292  1  0.318900  0.024300  0.975200  1.0  0.127
  H  H293  1  0.314700  0.029800  0.009100  1.0  0.1206
  H  H294  1  0.286000  0.976100  0.990700  1.0  0.1231
  H  H295  1  0.548700  0.466700  0.704200  1.0  0.1231
  H  H296  1  0.568500  0.491500  0.740400  1.0  0.1322
  H  H297  1  0.608400  0.507800  0.723600  1.0  0.1289
  H  H298  1  0.499000  0.308600  0.751000  1.0  0.1176
  H  H299  1  0.563500  0.365100  0.766200  1.0  0.1111
  H  H300  1  0.523000  0.348200  0.782800  1.0  0.1276
  H  H301  1  0.706600  0.497800  0.780000  1.0  0.1216
  H  H302  1  0.642900  0.437400  0.766500  1.0  0.1217
  H  H303  1  0.672600  0.482500  0.748900  1.0  0.1296
  H  H304  1  0.610900  0.530500  0.828000  1.0  0.0993
  H  H305  1  0.583800  0.507800  0.791800  1.0  0.1167
  H  H306  1  0.556700  0.466200  0.811700  1.0  0.1087
  H  H307  1  0.317000  0.203000  0.552200  1.0  0.1251
  H  H308  1  0.306000  0.225600  0.539400  1.0  0.1374
  H  H309  1  0.345300  0.236000  0.527100  1.0  0.1222
  H  H310  1  0.509000  0.436500  0.639300  1.0  0.1222
  H  H311  1  0.522800  0.449300  0.607300  1.0  0.105
  H  H312  1  0.479300  0.435100  0.616000  1.0  0.1005
  H  H313  1  0.037800  0.411000  0.154200  1.0  0.1293
  H  H314  1  0.052900  0.453500  0.142400  1.0  0.1265
  H  H315  1  0.029900  0.406600  0.118300  1.0  0.1183
  H  H316  1  0.811700  0.281400  0.119100  1.0  0.1166
  H  H317  1  0.822600  0.286300  0.086100  1.0  0.1163
  H  H318  1  0.847600  0.335200  0.109200  1.0  0.1082
  H  H319  1  0.765400  0.259400  0.161400  1.0  0.1121
  H  H320  1  0.772300  0.298500  0.176600  1.0  0.1292
  H  H321  1  0.718800  0.235100  0.174900  1.0  0.1102
  H  H322  1  0.858200  0.320000  0.299600  1.0  0.1292
  H  H323  1  0.801500  0.288300  0.299000  1.0  0.1222
  H  H324  1  0.853700  0.351300  0.300000  1.0  0.116
  H  H325  1  0.953700  0.346800  0.313700  1.0  0.121
  H  H326  1  0.016100  0.405300  0.332600  1.0  0.1254
  H  H327  1  0.991600  0.352200  0.328200  1.0  0.1275
  H  H328  1  0.064200  0.405100  0.212100  1.0  0.1206
  H  H329  1  0.094500  0.408500  0.237000  1.0  0.127
  H  H330  1  0.115700  0.459400  0.239700  1.0  0.1272
  H  H331  1  0.913700  0.928700  0.145000  1.0  0.1166
  H  H332  1  0.965900  0.993100  0.160000  1.0  0.1242
  H  H333  1  0.909800  0.953300  0.168100  1.0  0.1122
  H  H334  1  0.005400  0.953100  0.269500  1.0  0.1213
  H  H335  1  0.990100  0.972900  0.280200  1.0  0.1275
  H  H336  1  0.047600  0.015000  0.273400  1.0  0.1397
  H  H337  1  0.948900  0.863900  0.286400  1.0  0.1212
  H  H338  1  0.948100  0.835700  0.305800  1.0  0.1146
  H  H339  1  0.906500  0.827400  0.306300  1.0  0.1299
  H  H340  1  0.764800  0.635400  0.195200  1.0  0.1339
  H  H341  1  0.739900  0.621300  0.223600  1.0  0.1276
  H  H342  1  0.781000  0.628700  0.223500  1.0  0.1218
  H  H343  1  0.730800  0.623200  0.127800  1.0  0.1222
  H  H344  1  0.701300  0.598300  0.091800  1.0  0.1179
  H  H345  1  0.674600  0.593200  0.116000  1.0  0.1122
  H  H346  1  0.817000  0.812300  0.100500  1.0  0.124
  H  H347  1  0.753000  0.765300  0.091500  1.0  0.119
  H  H348  1  0.779000  0.769200  0.067200  1.0  0.1163
  H  H349  1  0.662900  0.440800  0.394700  1.0  0.1214
  H  H350  1  0.627900  0.388900  0.367800  1.0  0.1277
  H  H351  1  0.679900  0.421000  0.392900  1.0  0.116
  H  H352  1  0.791100  0.549900  0.299600  1.0  0.1239
  H  H353  1  0.794900  0.518900  0.305400  1.0  0.1231
  H  H354  1  0.741500  0.486600  0.282300  1.0  0.1243
  H  H355  1  0.844500  0.643100  0.291800  1.0  0.1296
  H  H356  1  0.823700  0.640400  0.259900  1.0  0.126
  H  H357  1  0.885500  0.696800  0.280300  1.0  0.1181
  H  H358  1  0.789000  0.720600  0.336800  1.0  0.1127
  H  H359  1  0.834400  0.766000  0.320400  1.0  0.1277
  H  H360  1  0.772500  0.708500  0.300400  1.0  0.1361
  H  H361  1  0.730000  0.674200  0.391600  1.0  0.1118
  H  H362  1  0.672100  0.637500  0.394200  1.0  0.1132
  H  H363  1  0.721500  0.676500  0.424600  1.0  0.1158
  H  H364  1  0.634100  0.479200  0.417500  1.0  0.1297
  H  H365  1  0.629600  0.495900  0.447100  1.0  0.1303
  H  H366  1  0.583000  0.457800  0.415200  1.0  0.1225
  H  H367  1  0.505500  0.096100  0.185600  1.0  0.1323
  H  H368  1  0.444400  0.041600  0.187600  1.0  0.1142
  H  H369  1  0.455800  0.068000  0.160600  1.0  0.1256
  H  H370  1  0.474700  0.190700  0.252200  1.0  0.1089
  H  H371  1  0.427200  0.151900  0.220700  1.0  0.0931
  H  H372  1  0.416900  0.127100  0.248400  1.0  0.0997
  H  H373  1  0.559900  0.292000  0.293500  1.0  0.1303
  H  H374  1  0.585300  0.332700  0.325200  1.0  0.1378
  H  H375  1  0.592300  0.348900  0.293800  1.0  0.1287
  H  H376  1  0.796200  0.445800  0.325000  1.0  0.1227
  H  H377  1  0.807000  0.489300  0.325100  1.0  0.1193
  H  H378  1  0.798500  0.469100  0.355000  1.0  0.1199
  H  H379  1  0.822600  0.406300  0.286100  1.0  0.1185
  H  H380  1  0.843900  0.391300  0.291600  1.0  0.1131
  H  H381  1  0.845300  0.406600  0.260900  1.0  0.1248
  H  H382  1  0.618300  0.166900  0.208000  1.0  0.123
  H  H383  1  0.662600  0.190700  0.191900  1.0  0.1235
  H  H384  1  0.655200  0.170900  0.221700  1.0  0.0982
  H  H385  1  0.094900  0.799100  0.009400  1.0  0.1271
  H  H386  1  0.128800  0.827700  0.984700  1.0  0.1366
  H  H387  1  0.086900  0.818600  0.987300  1.0  0.1167
  H  H388  1  0.289000  0.043600  0.078000  1.0  0.1223
  H  H389  1  0.262300  0.038600  0.048300  1.0  0.1118
  H  H390  1  0.303300  0.046300  0.046600  1.0  0.1243
  H  H391  1  0.349200  0.078400  0.140800  1.0  0.1123
  H  H392  1  0.407100  0.111000  0.148300  1.0  0.1115
  H  H393  1  0.391000  0.118400  0.174400  1.0  0.1049
  H  H394  1  0.301600  0.928700  0.198100  1.0  0.1278
  H  H395  1  0.348400  0.983400  0.226000  1.0  0.1203
  H  H396  1  0.364400  0.976600  0.199200  1.0  0.1167
  H  H397  1  0.200000  0.802200  0.159200  1.0  0.1302
  H  H398  1  0.197800  0.772900  0.134500  1.0  0.1186
  H  H399  1  0.150000  0.737600  0.150800  1.0  0.1317
  H  H400  1  0.052800  0.726500  0.041700  1.0  0.121
  H  H401  1  0.017000  0.669600  0.046000  1.0  0.125
  H  H402  1  0.063800  0.702900  0.029100  1.0  0.1219
  H  H403  1  0.623000  0.539900  0.506300  1.0  0.127
  H  H404  1  0.676800  0.589100  0.495700  1.0  0.1192
  H  H405  1  0.636200  0.528000  0.480600  1.0  0.1184
  H  H406  1  0.531200  0.529800  0.391200  1.0  0.1079
  H  H407  1  0.552300  0.518200  0.376300  1.0  0.114
  H  H408  1  0.593700  0.579500  0.391200  1.0  0.106
  H  H409  1  0.416000  0.457100  0.376300  1.0  0.1125
  H  H410  1  0.367800  0.439500  0.365100  1.0  0.1121
  H  H411  1  0.359400  0.398500  0.352900  1.0  0.1063
  H  H412  1  0.275300  0.322100  0.464200  1.0  0.1277
  H  H413  1  0.233700  0.277500  0.431400  1.0  0.1274
  H  H414  1  0.240700  0.317400  0.443700  1.0  0.1229
  H  H415  1  0.315300  0.311300  0.514400  1.0  0.1211
  H  H416  1  0.331000  0.320500  0.550500  1.0  0.1093
  H  H417  1  0.307600  0.273500  0.526100  1.0  0.1251
  H  H418  1  0.549400  0.461300  0.538300  1.0  0.1279
  H  H419  1  0.518900  0.407400  0.544100  1.0  0.1272
  H  H420  1  0.540700  0.451000  0.571300  1.0  0.1203
  H  H421  1  0.859300  0.838000  0.392900  1.0  0.1174
  H  H422  1  0.825800  0.828700  0.365700  1.0  0.1258
  H  H423  1  0.795000  0.788700  0.387100  1.0  0.1338
  H  H424  1  0.859000  0.959000  0.462200  1.0  0.1185
  H  H425  1  0.795200  0.898200  0.451400  1.0  0.1265
  H  H426  1  0.823500  0.935800  0.428500  1.0  0.1145
  H  H427  1  0.954900  0.468600  0.399300  1.0  0.122
  H  H428  1  0.995500  0.508300  0.379200  1.0  0.1117
  H  H429  1  0.962500  0.507500  0.390400  1.0  0.1236
  H  H430  1  0.160200  0.679000  0.501800  1.0  0.1187
  H  H431  1  0.146800  0.697200  0.484400  1.0  0.119
  H  H432  1  0.181700  0.701000  0.472700  1.0  0.1139
  H  H433  1  0.171600  0.109800  0.488200  1.0  0.1184
  H  H434  1  0.197300  0.123300  0.460400  1.0  0.1196
  H  H435  1  0.186900  0.089200  0.480300  1.0  0.1211
  H  H436  1  0.965700  0.902900  0.384000  1.0  0.1217
  H  H437  1  0.997700  0.899100  0.385800  1.0  0.1207
  H  H438  1  0.011700  0.935800  0.366500  1.0  0.1233
  H  H439  1  0.437800  0.794400  0.112400  1.0  0.0996
  H  H440  1  0.484600  0.851000  0.103800  1.0  0.1012
  H  H441  1  0.422400  0.802200  0.084600  1.0  0.1153
  H  H442  1  0.433700  0.910000  0.185100  1.0  0.1272
  H  H443  1  0.414800  0.903800  0.150800  1.0  0.1216
  H  H444  1  0.478300  0.954200  0.168100  1.0  0.1237
  H  H445  1  0.372300  0.863000  0.228300  1.0  0.1164
  H  H446  1  0.366900  0.872300  0.260800  1.0  0.12
  H  H447  1  0.315900  0.829800  0.230900  1.0  0.1361
  H  H448  1  0.271400  0.673100  0.268900  1.0  0.1204
  H  H449  1  0.223900  0.657000  0.267300  1.0  0.1252
  H  H450  1  0.274200  0.699000  0.297600  1.0  0.1186
  H  H451  1  0.531400  0.748900  0.150500  1.0  0.1242
  H  H452  1  0.537000  0.749000  0.185600  1.0  0.1282
  H  H453  1  0.523300  0.710000  0.160300  1.0  0.1249
  H  H454  1  0.767300  0.902000  0.193300  1.0  0.1255
  H  H455  1  0.733700  0.846700  0.199000  1.0  0.1191
  H  H456  1  0.750100  0.887800  0.224500  1.0  0.1291
  H  H457  1  0.637100  0.448900  0.577400  1.0  0.1197
  H  H458  1  0.648000  0.486100  0.602100  1.0  0.1149
  H  H459  1  0.695900  0.513700  0.588400  1.0  0.1262
  H  H460  1  0.741300  0.477300  0.695600  1.0  0.1318
  H  H461  1  0.789300  0.539700  0.695800  1.0  0.131
  H  H462  1  0.740300  0.510000  0.709100  1.0  0.1275
  H  H463  1  0.881700  0.674000  0.686700  1.0  0.1241
  H  H464  1  0.844700  0.615200  0.687100  1.0  0.1189
  H  H465  1  0.847900  0.628600  0.655100  1.0  0.1189
  H  H466  1  0.655100  0.540500  0.669600  1.0  0.1255
  H  H467  1  0.643300  0.506600  0.640700  1.0  0.116
  H  H468  1  0.644300  0.497800  0.673900  1.0  0.1265
  H  H469  1  0.443000  0.143500  0.551700  1.0  0.1133
  H  H470  1  0.392000  0.119100  0.533500  1.0  0.1004
  H  H471  1  0.425000  0.125700  0.515100  1.0  0.0937
  H  H472  1  0.549100  0.343700  0.524800  1.0  0.1256
  H  H473  1  0.520700  0.305600  0.490900  1.0  0.1209
  H  H474  1  0.485400  0.295300  0.509300  1.0  0.121
  H  H475  1  0.262500  0.844500  0.795800  1.0  0.1239
  H  H476  1  0.251100  0.828100  0.759600  1.0  0.1303
  H  H477  1  0.284200  0.884800  0.776400  1.0  0.1283
  H  H478  1  0.057600  0.748000  0.749000  1.0  0.1197
  H  H479  1  0.098900  0.797300  0.733800  1.0  0.1104
  H  H480  1  0.065400  0.740200  0.717200  1.0  0.1265
  H  H481  1  0.217800  0.926600  0.720000  1.0  0.1212
  H  H482  1  0.170900  0.876400  0.733500  1.0  0.1192
  H  H483  1  0.233600  0.923700  0.751100  1.0  0.1307
  H  H484  1  0.202500  0.782900  0.672000  1.0  0.0999
  H  H485  1  0.216000  0.792000  0.708200  1.0  0.1157
  H  H486  1  0.154500  0.745000  0.688300  1.0  0.1094
  H  H487  1  0.150800  0.764800  0.947800  1.0  0.1267
  H  H488  1  0.186200  0.766600  0.960600  1.0  0.1349
  H  H489  1  0.208900  0.818200  0.972900  1.0  0.1206
  H  H490  1  0.297200  0.869700  0.860700  1.0  0.1229
  H  H491  1  0.342000  0.915500  0.892700  1.0  0.1075
  H  H492  1  0.319100  0.863300  0.884000  1.0  0.1026
  H  H493  1  0.756800  0.883600  0.345800  1.0  0.1306
  H  H494  1  0.811100  0.910500  0.357600  1.0  0.1265
  H  H495  1  0.788300  0.911600  0.381700  1.0  0.1193
  H  H496  1  0.662300  0.692600  0.380900  1.0  0.1172
  H  H497  1  0.700200  0.736500  0.413900  1.0  0.1175
  H  H498  1  0.726000  0.738400  0.390800  1.0  0.1098
  H  H499  1  0.598000  0.604000  0.338600  1.0  0.114
  H  H500  1  0.621900  0.595700  0.323400  1.0  0.1293
  H  H501  1  0.560200  0.543900  0.325100  1.0  0.1093
  H  H502  1  0.520400  0.558600  0.200400  1.0  0.1322
  H  H503  1  0.489300  0.502500  0.201000  1.0  0.1263
  H  H504  1  0.551300  0.553700  0.200000  1.0  0.1154
  H  H505  1  0.533100  0.640000  0.186300  1.0  0.124
  H  H506  1  0.572700  0.683500  0.167400  1.0  0.1245
  H  H507  1  0.524000  0.663400  0.171800  1.0  0.1265
  H  H508  1  0.693000  0.852100  0.287900  1.0  0.1218
  H  H509  1  0.671500  0.857500  0.263000  1.0  0.1299
  H  H510  1  0.719700  0.876000  0.260300  1.0  0.128
  H  H511  1  0.283700  0.768700  0.355000  1.0  0.118
  H  H512  1  0.333100  0.805900  0.340000  1.0  0.1233
  H  H513  1  0.285200  0.741700  0.331900  1.0  0.1126
  H  H514  1  0.183600  0.735900  0.230500  1.0  0.1217
  H  H515  1  0.192700  0.709900  0.219800  1.0  0.126
  H  H516  1  0.241600  0.774200  0.226600  1.0  0.1401
  H  H517  1  0.077500  0.662500  0.213600  1.0  0.1224
  H  H518  1  0.029900  0.642300  0.194200  1.0  0.1139
  H  H519  1  0.021100  0.600200  0.193700  1.0  0.1301
  H  H520  1  0.940200  0.569600  0.304800  1.0  0.1358
  H  H521  1  0.897700  0.516300  0.276400  1.0  0.1269
  H  H522  1  0.905200  0.557500  0.276500  1.0  0.1213
  H  H523  1  0.995400  0.603000  0.372200  1.0  0.1214
  H  H524  1  0.006500  0.609500  0.408200  1.0  0.1171
  H  H525  1  0.977200  0.558600  0.384000  1.0  0.1157
  H  H526  1  0.211800  0.716500  0.399500  1.0  0.1233
  H  H527  1  0.173800  0.661500  0.408500  1.0  0.1221
  H  H528  1  0.202000  0.711800  0.432800  1.0  0.1176
  H  H529  1  0.546100  0.268200  0.105300  1.0  0.1222
  H  H530  1  0.521100  0.260100  0.132200  1.0  0.1252
  H  H531  1  0.528100  0.287000  0.107100  1.0  0.1181
  H  H532  1  0.750300  0.491500  0.200400  1.0  0.1246
  H  H533  1  0.713500  0.489500  0.194600  1.0  0.119
  H  H534  1  0.704300  0.459200  0.217700  1.0  0.1252
  H  H535  1  0.851300  0.552700  0.208200  1.0  0.1302
  H  H536  1  0.880500  0.563800  0.240100  1.0  0.1271
  H  H537  1  0.916500  0.605200  0.219700  1.0  0.1201
  H  H538  1  0.883800  0.452200  0.163200  1.0  0.113
  H  H539  1  0.945600  0.514000  0.179600  1.0  0.1259
  H  H540  1  0.908100  0.472100  0.199600  1.0  0.136
  H  H541  1  0.782600  0.338400  0.108400  1.0  0.1116
  H  H542  1  0.743300  0.277900  0.105800  1.0  0.1143
  H  H543  1  0.751900  0.296900  0.075400  1.0  0.1163
  H  H544  1  0.561700  0.216600  0.082500  1.0  0.1288
  H  H545  1  0.548800  0.182500  0.052900  1.0  0.1319
  H  H546  1  0.542600  0.167800  0.084800  1.0  0.1231
  H  H547  1  0.410500  0.319900  0.314400  1.0  0.1325
  H  H548  1  0.354000  0.256800  0.312400  1.0  0.1135
  H  H549  1  0.407400  0.295200  0.339400  1.0  0.1273
  H  H550  1  0.438500  0.222500  0.247800  1.0  0.108
  H  H551  1  0.431200  0.206500  0.279300  1.0  0.0921
  H  H552  1  0.378700  0.168500  0.251600  1.0  0.1015
  H  H553  1  0.498500  0.266400  0.206500  1.0  0.1303
  H  H554  1  0.507500  0.260100  0.174800  1.0  0.1343
  H  H555  1  0.555100  0.298500  0.206200  1.0  0.1278
  H  H556  1  0.620800  0.471200  0.175000  1.0  0.1264
  H  H557  1  0.664200  0.481900  0.174900  1.0  0.1187
  H  H558  1  0.614100  0.443500  0.145000  1.0  0.1194
  H  H559  1  0.620200  0.536500  0.213900  1.0  0.1184
  H  H560  1  0.599700  0.552300  0.208400  1.0  0.1137
  H  H561  1  0.645700  0.584400  0.239100  1.0  0.1235
  H  H562  1  0.458900  0.410300  0.292000  1.0  0.1254
  H  H563  1  0.498800  0.470700  0.308100  1.0  0.1211
  H  H564  1  0.449200  0.433500  0.278300  1.0  0.0984
  H  H565  1  0.289700  0.085500  0.490600  1.0  0.1278
  H  H566  1  0.343000  0.144100  0.515300  1.0  0.1352
  H  H567  1  0.331300  0.099600  0.512700  1.0  0.1175
  H  H568  1  0.465600  0.211000  0.422000  1.0  0.1191
  H  H569  1  0.490300  0.214000  0.451700  1.0  0.1183
  H  H570  1  0.499700  0.256700  0.453400  1.0  0.1256
  H  H571  1  0.437600  0.208400  0.359200  1.0  0.1103
  H  H572  1  0.462700  0.258800  0.351700  1.0  0.1117
  H  H573  1  0.444000  0.216600  0.325600  1.0  0.1041
  H  H574  1  0.230600  0.103500  0.301900  1.0  0.1307
  H  H575  1  0.257400  0.122400  0.274000  1.0  0.125
  H  H576  1  0.277400  0.165200  0.300800  1.0  0.1173
  H  H577  1  0.143000  0.040800  0.340800  1.0  0.1323
  H  H578  1  0.138400  0.063300  0.365500  1.0  0.1224
  H  H579  1  0.086800  0.999200  0.349200  1.0  0.1322
  H  H580  1  0.184800  0.011100  0.458300  1.0  0.1223
  H  H581  1  0.123600  0.971000  0.454000  1.0  0.1241
  H  H582  1  0.173800  0.034700  0.470900  1.0  0.1227
  H  H583  1  0.533600  0.116700  0.993700  1.0  0.1282
  H  H584  1  0.593400  0.181100  0.004300  1.0  0.1175
  H  H585  1  0.547400  0.155600  0.019400  1.0  0.1212
  H  H586  1  0.638600  0.140000  0.108800  1.0  0.107
  H  H587  1  0.641900  0.176000  0.123700  1.0  0.1146
  H  H588  1  0.688300  0.202500  0.108800  1.0  0.1069
  H  H589  1  0.580800  0.039700  0.123700  1.0  0.1135
  H  H590  1  0.574400  0.002700  0.134900  1.0  0.1142
  H  H591  1  0.545600  0.006500  0.147100  1.0  0.1073
  H  H592  1  0.357900  0.811100  0.035800  1.0  0.1264
  H  H593  1  0.346100  0.802300  0.068600  1.0  0.1238
  H  H594  1  0.373700  0.797000  0.056300  1.0  0.1231
  H  H595  1  0.296900  0.800900  0.985600  1.0  0.1212
  H  H596  1  0.270000  0.780500  0.949500  1.0  0.1099
  H  H597  1  0.247400  0.781500  0.973900  1.0  0.1219
  H  H598  1  0.423000  0.011100  0.961700  1.0  0.1256
  H  H599  1  0.363300  0.974800  0.955900  1.0  0.1262
  H  H600  1  0.379700  0.969400  0.928700  1.0  0.12
  H  H601  1  0.966400  0.359300  0.521300  1.0  0.1215
  H  H602  1  0.960100  0.325800  0.497100  1.0  0.1232
  H  H603  1  0.907900  0.295000  0.506300  1.0  0.13
  H  H604  1  0.896800  0.359000  0.400000  1.0  0.1187
  H  H605  1  0.843800  0.295200  0.397000  1.0  0.1276
  H  H606  1  0.895000  0.323500  0.387700  1.0  0.1131
  H  H607  1  0.055600  0.454900  0.986300  1.0  0.1258
  H  H608  1  0.116300  0.495500  0.987200  1.0  0.1069
  H  H609  1  0.072100  0.462500  0.955000  1.0  0.1222
  H  H610  1  0.158400  0.660200  0.981200  1.0  0.1175
  H  H611  1  0.162400  0.646800  0.949600  1.0  0.1202
  H  H612  1  0.209000  0.681700  0.980700  1.0  0.1149
  H  H613  1  0.183400  0.671600  0.561800  1.0  0.119
  H  H614  1  0.236900  0.697300  0.574000  1.0  0.1192
  H  H615  1  0.206600  0.686900  0.597700  1.0  0.1193
  H  H616  1  0.081700  0.465700  0.562800  1.0  0.1224
  H  H617  1  0.111900  0.497700  0.598600  1.0  0.1195
  H  H618  1  0.145200  0.511700  0.575900  1.0  0.1209
  H  H619  1  0.825400  0.937800  0.143400  1.0  0.0991
  H  H620  1  0.880800  0.984600  0.133600  1.0  0.1025
  H  H621  1  0.837800  0.922400  0.120200  1.0  0.1164
  H  H622  1  0.748600  0.933700  0.023700  1.0  0.1278
  H  H623  1  0.764000  0.914800  0.011000  1.0  0.1223
  H  H624  1  0.810200  0.978300  0.024100  1.0  0.1226
  H  H625  1  0.644000  0.872300  0.009300  1.0  0.1179
  H  H626  1  0.606100  0.866900  0.994600  1.0  0.1215
  H  H627  1  0.585000  0.815900  0.986100  1.0  0.1341
  H  H628  1  0.502500  0.771400  0.098300  1.0  0.1215
  H  H629  1  0.456600  0.723900  0.066900  1.0  0.13
  H  H630  1  0.476600  0.774200  0.075200  1.0  0.1177
  H  H631  1  0.880900  0.031400  0.282500  1.0  0.1243
  H  H632  1  0.851400  0.037000  0.288000  1.0  0.1314
  H  H633  1  0.863000  0.023300  0.313300  1.0  0.1237
  H  H634  1  0.074000  0.267300  0.365300  1.0  0.1283
  H  H635  1  0.034700  0.233700  0.387000  1.0  0.1213
  H  H636  1  0.025600  0.250100  0.362300  1.0  0.1298
  H  H637  1  0.559700  0.137100  0.688200  1.0  0.121
  H  H638  1  0.545900  0.148000  0.661900  1.0  0.1135
  H  H639  1  0.607500  0.195900  0.682200  1.0  0.1268
  H  H640  1  0.545700  0.241300  0.764000  1.0  0.1306
  H  H641  1  0.593500  0.289300  0.749600  1.0  0.1325
  H  H642  1  0.531200  0.240300  0.730300  1.0  0.1262
  H  H643  1  0.695000  0.381700  0.707700  1.0  0.1258
  H  H644  1  0.657600  0.344700  0.729500  1.0  0.1193
  H  H645  1  0.692800  0.347900  0.719300  1.0  0.1166
  H  H646  1  0.485500  0.155100  0.614600  1.0  0.1282
  H  H647  1  0.502600  0.143300  0.636700  1.0  0.1169
  H  H648  1  0.470400  0.144300  0.646500  1.0  0.1262
  H  H649  1  0.391300  0.943000  0.799500  1.0  0.1154
  H  H650  1  0.358500  0.892000  0.772900  1.0  0.1039
  H  H651  1  0.409900  0.925000  0.799300  1.0  0.0928
  H  H652  1  0.524300  0.049100  0.705400  1.0  0.1274
  H  H653  1  0.529800  0.020700  0.715100  1.0  0.125
  H  H654  1  0.476100  0.985400  0.690100  1.0  0.1219
  H  H655  1  0.966700  0.762500  0.918000  1.0  0.1251
  H  H656  1  0.991500  0.751100  0.923000  1.0  0.1315
  H  H657  1  0.007800  0.784200  0.899400  1.0  0.1287
  H  H658  1  0.808600  0.557600  0.809600  1.0  0.12
  H  H659  1  0.865100  0.598900  0.801600  1.0  0.1092
  H  H660  1  0.848200  0.565400  0.825200  1.0  0.1307
  H  H661  1  0.997800  0.717800  0.791200  1.0  0.121
  H  H662  1  0.937400  0.670900  0.794500  1.0  0.1128
  H  H663  1  0.982500  0.733600  0.809900  1.0  0.1296
  H  H664  1  0.030500  0.702500  0.919600  1.0  0.0948
  H  H665  1  0.007800  0.716000  0.924000  1.0  0.1169
  H  H666  1  0.966200  0.654500  0.909500  1.0  0.1087
  H  H667  1  0.703000  0.650800  0.886000  1.0  0.1226
  H  H668  1  0.725600  0.686200  0.919600  1.0  0.1369
  H  H669  1  0.736000  0.708900  0.890700  1.0  0.1204
  H  H670  1  0.936500  0.797200  0.927500  1.0  0.1201
  H  H671  1  0.949300  0.842000  0.926500  1.0  0.1052
  H  H672  1  0.935100  0.819100  0.955800  1.0  0.1012
  H  H673  1  0.911000  0.256800  0.373200  1.0  0.1286
  H  H674  1  0.953500  0.311100  0.400600  1.0  0.1256
  H  H675  1  0.906600  0.288300  0.376700  1.0  0.12
  H  H676  1  0.781400  0.162300  0.469700  1.0  0.1187
  H  H677  1  0.786300  0.200200  0.463700  1.0  0.119
  H  H678  1  0.835200  0.226000  0.487600  1.0  0.1078
  H  H679  1  0.759400  0.098000  0.494000  1.0  0.1129
  H  H680  1  0.798500  0.121900  0.526200  1.0  0.128
  H  H681  1  0.735100  0.060200  0.516300  1.0  0.1093
  H  H682  1  0.820000  0.020400  0.461800  1.0  0.1314
  H  H683  1  0.788300  0.989300  0.486800  1.0  0.1251
  H  H684  1  0.851300  0.051300  0.497600  1.0  0.1164
  H  H685  1  0.846800  0.033100  0.393100  1.0  0.1231
  H  H686  1  0.905300  0.072700  0.389200  1.0  0.1248
  H  H687  1  0.852200  0.024000  0.360600  1.0  0.1287
  H  H688  1  0.905100  0.193000  0.340900  1.0  0.1169
  H  H689  1  0.908500  0.171500  0.314000  1.0  0.1277
  H  H690  1  0.959400  0.219700  0.343700  1.0  0.1272
  H  H691  1  0.428700  0.783700  0.015000  1.0  0.1185
  H  H692  1  0.493100  0.833100  0.027200  1.0  0.1237
  H  H693  1  0.453300  0.785200  0.043500  1.0  0.1144
  H  H694  1  0.453100  0.683600  0.947700  1.0  0.1198
  H  H695  1  0.472900  0.692700  0.982800  1.0  0.1262
  H  H696  1  0.515000  0.741600  0.967400  1.0  0.1405
  H  H697  1  0.363900  0.577500  0.915000  1.0  0.1194
  H  H698  1  0.335700  0.529900  0.887600  1.0  0.1148
  H  H699  1  0.327400  0.521100  0.920900  1.0  0.1317
  H  H700  1  0.135400  0.440200  0.870600  1.0  0.1317
  H  H701  1  0.121300  0.397700  0.881400  1.0  0.1278
  H  H702  1  0.128700  0.405200  0.847700  1.0  0.121
  H  H703  1  0.123200  0.495400  0.892400  1.0  0.121
  H  H704  1  0.098300  0.506500  0.897000  1.0  0.1163
  H  H705  1  0.093200  0.477200  0.918600  1.0  0.1126
  H  H706  1  0.312300  0.711800  0.995300  1.0  0.1242
  H  H707  1  0.265300  0.673800  0.012300  1.0  0.1224
  H  H708  1  0.269200  0.702000  0.990200  1.0  0.1159
  H  H709  1  0.940800  0.046100  0.777900  1.0  0.1212
  H  H710  1  0.888900  0.021100  0.761000  1.0  0.1252
  H  H711  1  0.921000  0.028100  0.741100  1.0  0.118
  H  H712  1  0.049900  0.250300  0.758800  1.0  0.1246
  H  H713  1  0.018900  0.213500  0.724000  1.0  0.1207
  H  H714  1  0.986600  0.204300  0.745100  1.0  0.1277
  H  H715  1  0.143100  0.351300  0.798600  1.0  0.1295
  H  H716  1  0.140400  0.380500  0.816700  1.0  0.1308
  H  H717  1  0.196800  0.416500  0.811300  1.0  0.1187
  H  H718  1  0.220600  0.383800  0.931600  1.0  0.1165
  H  H719  1  0.266000  0.445600  0.931600  1.0  0.128
  H  H720  1  0.208500  0.408100  0.936000  1.0  0.1362
  H  H721  1  0.174200  0.282600  0.944200  1.0  0.1154
  H  H722  1  0.137500  0.243300  0.965400  1.0  0.1148
  H  H723  1  0.176500  0.251900  0.955000  1.0  0.1154
  H  H724  1  0.979200  0.061700  0.845100  1.0  0.1306
  H  H725  1  0.995900  0.048800  0.866300  1.0  0.1328
  H  H726  1  0.957800  0.042600  0.874800  1.0  0.1222
  H  H727  1  0.596100  0.910500  0.590600  1.0  0.1299
  H  H728  1  0.541600  0.854000  0.597200  1.0  0.1147
  H  H729  1  0.568000  0.907400  0.612200  1.0  0.1252
  H  H730  1  0.690700  0.938500  0.716000  1.0  0.1107
  H  H731  1  0.651900  0.931200  0.724700  1.0  0.0926
  H  H732  1  0.627100  0.878700  0.710200  1.0  0.1019
  H  H733  1  0.792000  0.998500  0.732100  1.0  0.1326
  H  H734  1  0.832700  0.007500  0.747400  1.0  0.1356
  H  H735  1  0.848900  0.055100  0.756600  1.0  0.1293
  H  H736  1  0.945800  0.120800  0.649600  1.0  0.1266
  H  H737  1  0.989300  0.164200  0.682300  1.0  0.1218
  H  H738  1  0.969100  0.114100  0.670600  1.0  0.1195
  H  H739  1  0.906300  0.120200  0.583700  1.0  0.1209
  H  H740  1  0.891300  0.099700  0.547400  1.0  0.1128
  H  H741  1  0.906600  0.145700  0.561300  1.0  0.1239
  H  H742  1  0.666900  0.958900  0.548600  1.0  0.1266
  H  H743  1  0.690700  0.998800  0.528100  1.0  0.1259
  H  H744  1  0.670900  0.949200  0.515700  1.0  0.0969
  H  H745  1  0.299100  0.789700  0.704200  1.0  0.129
  H  H746  1  0.327700  0.843000  0.698900  1.0  0.1359
  H  H747  1  0.318600  0.831300  0.731700  1.0  0.1191
  H  H748  1  0.543600  0.965600  0.754600  1.0  0.1175
  H  H749  1  0.538600  0.990300  0.776300  1.0  0.1148
  H  H750  1  0.546300  0.999700  0.743000  1.0  0.1248
  H  H751  1  0.578400  0.937600  0.729200  1.0  0.1117
  H  H752  1  0.611000  0.962700  0.703900  1.0  0.1107
  H  H753  1  0.618400  0.944000  0.727400  1.0  0.1044
  H  H754  1  0.428700  0.730600  0.627100  1.0  0.1307
  H  H755  1  0.483400  0.757400  0.635000  1.0  0.1246
  H  H756  1  0.476600  0.777400  0.612200  1.0  0.1177
  H  H757  1  0.302200  0.643000  0.602200  1.0  0.1312
  H  H758  1  0.272900  0.638400  0.575100  1.0  0.1218
  H  H759  1  0.237600  0.586800  0.587600  1.0  0.1337
  H  H760  1  0.226500  0.684800  0.673700  1.0  0.1221
  H  H761  1  0.169600  0.623600  0.652600  1.0  0.1248
  H  H762  1  0.202900  0.673800  0.639100  1.0  0.1237
  H  H763  1  0.039900  0.033600  0.916900  1.0  0.1286
  H  H764  1  0.089100  0.093400  0.912300  1.0  0.118
  H  H765  1  0.028000  0.047400  0.891800  1.0  0.1192
  H  H766  1  0.029800  0.138600  0.998600  1.0  0.1092
  H  H767  1  0.018200  0.141900  0.965900  1.0  0.1145
  H  H768  1  0.079500  0.188300  0.985800  1.0  0.1073
  H  H769  1  0.957100  0.080800  0.041100  1.0  0.1093
  H  H770  1  0.939500  0.074400  0.071700  1.0  0.1115
  H  H771  1  0.898500  0.045600  0.039100  1.0  0.1048
  H  H772  1  0.822100  0.857900  0.046800  1.0  0.1268
  H  H773  1  0.777500  0.846100  0.043800  1.0  0.1233
  H  H774  1  0.817400  0.873700  0.076700  1.0  0.1214
  H  H775  1  0.811300  0.796900  0.996000  1.0  0.1223
  H  H776  1  0.820500  0.770000  0.989500  1.0  0.1111
  H  H777  1  0.773500  0.747400  0.965900  1.0  0.1217
  H  H778  1  0.961300  0.923000  0.911900  1.0  0.1269
  H  H779  1  0.907400  0.863300  0.888500  1.0  0.1262
  H  H780  1  0.951000  0.879700  0.910300  1.0  0.1223
  H  H781  1  0.338000  0.445100  0.978700  1.0  0.1218
  H  H782  1  0.328700  0.463000  0.002900  1.0  0.1253
  H  H783  1  0.288700  0.401600  0.993700  1.0  0.1322
  H  H784  1  0.459000  0.496800  0.100000  1.0  0.1143
  H  H785  1  0.398200  0.446800  0.103000  1.0  0.1278
  H  H786  1  0.435800  0.507300  0.112300  1.0  0.1141
  H  H787  1  0.968600  0.069300  0.513700  1.0  0.1225
  H  H788  1  0.008300  0.129100  0.512800  1.0  0.1107
  H  H789  1  0.007500  0.117100  0.545000  1.0  0.1273
  H  H790  1  0.179000  0.177200  0.518800  1.0  0.1175
  H  H791  1  0.197200  0.212800  0.550400  1.0  0.1196
  H  H792  1  0.201000  0.228300  0.519300  1.0  0.1152
  H  H793  1  0.609800  0.621600  0.938200  1.0  0.1188
  H  H794  1  0.623300  0.662900  0.926000  1.0  0.1197
  H  H795  1  0.589200  0.608900  0.902300  1.0  0.119
  H  H796  1  0.402900  0.518900  0.937200  1.0  0.1221
  H  H797  1  0.399100  0.513300  0.901400  1.0  0.1207
  H  H798  1  0.435800  0.569300  0.924100  1.0  0.1225
  H  H799  1  0.294400  0.682000  0.356600  1.0  0.0981
  H  H800  1  0.351000  0.747200  0.366400  1.0  0.1008
  H  H801  1  0.302200  0.717600  0.379800  1.0  0.1165
  H  H802  1  0.410000  0.724900  0.476300  1.0  0.1284
  H  H803  1  0.403800  0.753000  0.489000  1.0  0.1222
  H  H804  1  0.454200  0.786100  0.475900  1.0  0.1245
  H  H805  1  0.363000  0.634700  0.490700  1.0  0.1176
  H  H806  1  0.372300  0.611500  0.505400  1.0  0.1164
  H  H807  1  0.329800  0.598900  0.513900  1.0  0.1345
  H  H808  1  0.173100  0.404200  0.401700  1.0  0.122
  H  H809  1  0.157000  0.389700  0.433100  1.0  0.1267
  H  H810  1  0.199000  0.401400  0.424800  1.0  0.1224
  H  H811  1  0.248900  0.598400  0.217500  1.0  0.123
  H  H812  1  0.249000  0.563400  0.212000  1.0  0.1324
  H  H813  1  0.210000  0.549700  0.186700  1.0  0.1236
  H  H814  1  0.402000  0.708700  0.134700  1.0  0.125
  H  H815  1  0.346700  0.647700  0.113000  1.0  0.1188
  H  H816  1  0.387800  0.663300  0.137700  1.0  0.1315
  H  H817  1  0.948900  0.871500  0.811800  1.0  0.1204
  H  H818  1  0.986100  0.884000  0.838100  1.0  0.1151
  H  H819  1  0.013700  0.925300  0.817800  1.0  0.1309
  H  H820  1  0.977300  0.781700  0.736000  1.0  0.1309
  H  H821  1  0.039700  0.843900  0.750400  1.0  0.1305
  H  H822  1  0.010000  0.800900  0.769700  1.0  0.1267
  H  H823  1  0.174000  0.987300  0.792300  1.0  0.1261
  H  H824  1  0.115200  0.928100  0.770500  1.0  0.1197
  H  H825  1  0.128600  0.973500  0.780700  1.0  0.1181
  H  H826  1  0.040500  0.870900  0.885400  1.0  0.1284
  H  H827  1  0.006600  0.865900  0.863300  1.0  0.1157
  H  H828  1  0.997800  0.823900  0.853500  1.0  0.1247
  H  H829  1  0.643500  0.591800  0.700500  1.0  0.1148
  H  H830  1  0.619100  0.585600  0.727100  1.0  0.1026
  H  H831  1  0.625700  0.610600  0.700700  1.0  0.0921
  H  H832  1  0.843700  0.818900  0.794600  1.0  0.1287
  H  H833  1  0.805600  0.814700  0.784900  1.0  0.1221
  H  H834  1  0.795300  0.786000  0.809900  1.0  0.1226
  H  H835  1  0.344500  0.048700  0.582000  1.0  0.1253
  H  H836  1  0.328100  0.068500  0.577000  1.0  0.1318
  H  H837  1  0.384800  0.108400  0.600600  1.0  0.1284
  H  H838  1  0.248000  0.999000  0.690400  1.0  0.1208
  H  H839  1  0.297300  0.063500  0.698400  1.0  0.1094
  H  H840  1  0.240200  0.023000  0.674800  1.0  0.1289
  H  H841  1  0.426600  0.206600  0.708800  1.0  0.1214
  H  H842  1  0.376400  0.142900  0.705500  1.0  0.1185
  H  H843  1  0.423700  0.172600  0.690100  1.0  0.1333
  H  H844  1  0.282900  0.110900  0.580400  1.0  0.1018
  H  H845  1  0.292000  0.083800  0.576000  1.0  0.1141
  H  H846  1  0.245000  0.056700  0.590500  1.0  0.1091
  H  H847  1  0.264800  0.817000  0.614000  1.0  0.1258
  H  H848  1  0.266600  0.806000  0.580400  1.0  0.1353
  H  H849  1  0.318200  0.845300  0.609300  1.0  0.1179
  H  H850  1  0.369700  0.009000  0.572500  1.0  0.1218
  H  H851  1  0.415500  0.022800  0.573500  1.0  0.1052
  H  H852  1  0.363300  0.979300  0.544200  1.0  0.1009
  H  H853  1  0.383600  0.537800  0.126800  1.0  0.1268
  H  H854  1  0.410500  0.552900  0.099400  1.0  0.1253
  H  H855  1  0.411600  0.529900  0.123300  1.0  0.1205
  H  H856  1  0.192600  0.311700  0.030300  1.0  0.1173
  H  H857  1  0.236500  0.322600  0.036300  1.0  0.1168
  H  H858  1  0.238400  0.347600  0.012400  1.0  0.1097
  H  H859  1  0.104000  0.265400  0.006000  1.0  0.1137
  H  H860  1  0.095700  0.272300  0.973800  1.0  0.1271
  H  H861  1  0.043900  0.218800  0.983700  1.0  0.1114
  H  H862  1  0.058600  0.358200  0.038200  1.0  0.1325
  H  H863  1  0.002500  0.301500  0.013200  1.0  0.1228
  H  H864  1  0.053700  0.353700  0.002400  1.0  0.1176
  H  H865  1  0.140000  0.453700  0.106900  1.0  0.1205
  H  H866  1  0.183500  0.516100  0.110800  1.0  0.124
  H  H867  1  0.163400  0.491600  0.139400  1.0  0.1296
  H  H868  1  0.352100  0.564200  0.159100  1.0  0.1194
  H  H869  1  0.357500  0.594500  0.186000  1.0  0.1268
  H  H870  1  0.376000  0.615700  0.156300  1.0  0.1263
  H  H871  1  0.268700  0.413700  0.485000  1.0  0.118
  H  H872  1  0.305900  0.465900  0.472800  1.0  0.1246
  H  H873  1  0.241700  0.409800  0.456500  1.0  0.1132
  H  H874  1  0.235900  0.505400  0.552300  1.0  0.1226
  H  H875  1  0.209900  0.490100  0.517200  1.0  0.1261
  H  H876  1  0.274200  0.547600  0.532600  1.0  0.1414
  H  H877  1  0.162500  0.448900  0.585000  1.0  0.1222
  H  H878  1  0.142300  0.448100  0.612400  1.0  0.1126
  H  H879  1  0.100200  0.406500  0.579100  1.0  0.1321
  H  H880  1  0.069600  0.264800  0.629400  1.0  0.1319
  H  H881  1  0.016300  0.239900  0.618600  1.0  0.1282
  H  H882  1  0.057500  0.281000  0.652300  1.0  0.1199
  H  H883  1  0.103000  0.230800  0.607600  1.0  0.1217
  H  H884  1  0.109500  0.201300  0.603000  1.0  0.1159
  H  H885  1  0.058600  0.174600  0.581400  1.0  0.1137
  H  H886  1  0.216500  0.317000  0.504700  1.0  0.1229
  H  H887  1  0.161500  0.253000  0.487700  1.0  0.1206
  H  H888  1  0.211800  0.279000  0.509800  1.0  0.1182
  H  H889  1  0.768200  0.162900  0.722100  1.0  0.1201
  H  H890  1  0.760100  0.127900  0.739000  1.0  0.1256
  H  H891  1  0.787000  0.179900  0.758900  1.0  0.1171
  H  H892  1  0.991500  0.291100  0.741200  1.0  0.1241
  H  H893  1  0.989500  0.294900  0.776000  1.0  0.1183
  H  H894  1  0.959200  0.241500  0.754900  1.0  0.1264
  H  H895  1  0.052700  0.344500  0.701400  1.0  0.1309
  H  H896  1  0.063800  0.323700  0.683300  1.0  0.1275
  H  H897  1  0.105200  0.385500  0.688700  1.0  0.1198
  H  H898  1  0.952200  0.289000  0.568400  1.0  0.1151
  H  H899  1  0.014000  0.334400  0.568400  1.0  0.1292
  H  H900  1  0.972100  0.272500  0.564000  1.0  0.1364
  H  H901  1  0.838400  0.230000  0.555800  1.0  0.1147
  H  H902  1  0.777900  0.172100  0.534600  1.0  0.1143
  H  H903  1  0.796900  0.221500  0.545000  1.0  0.1162
  H  H904  1  0.716600  0.134100  0.654900  1.0  0.1315
  H  H905  1  0.682500  0.129600  0.633700  1.0  0.1327
  H  H906  1  0.667800  0.083000  0.625200  1.0  0.1271
  H  H907  1  0.819900  0.005500  0.909400  1.0  0.1294
  H  H908  1  0.756800  0.944400  0.902800  1.0  0.1136
  H  H909  1  0.795200  0.955800  0.887800  1.0  0.1234
  H  H910  1  0.722500  0.974700  0.784000  1.0  0.1087
  H  H911  1  0.706500  0.927200  0.775300  1.0  0.0923
  H  H912  1  0.668500  0.916900  0.789800  1.0  0.101
  H  H913  1  0.766400  0.059900  0.767900  1.0  0.1321
  H  H914  1  0.760100  0.085300  0.752600  1.0  0.1348
  H  H915  1  0.798500  0.092300  0.743400  1.0  0.1294
  H  H916  1  0.971200  0.296200  0.850400  1.0  0.1269
  H  H917  1  0.981900  0.307000  0.817700  1.0  0.1178
  H  H918  1  0.943500  0.298500  0.829400  1.0  0.1194
  H  H919  1  0.036500  0.322600  0.916300  1.0  0.1197
  H  H920  1  0.052300  0.343900  0.952600  1.0  0.1129
  H  H921  1  0.084400  0.345300  0.938700  1.0  0.1222
  H  H922  1  0.910300  0.118300  0.951400  1.0  0.1209
  H  H923  1  0.970700  0.162600  0.971900  1.0  0.1224
  H  H924  1  0.933500  0.155200  0.984300  1.0  0.0979
  H  H925  1  0.585500  0.594900  0.795800  1.0  0.1268
  H  H926  1  0.644100  0.628800  0.801100  1.0  0.1345
  H  H927  1  0.599600  0.586900  0.768300  1.0  0.1178
  H  H928  1  0.711000  0.789000  0.745400  1.0  0.1207
  H  H929  1  0.714000  0.762300  0.723700  1.0  0.1134
  H  H930  1  0.756700  0.803300  0.757000  1.0  0.1244
  H  H931  1  0.708400  0.849200  0.770800  1.0  0.1115
  H  H932  1  0.758800  0.907100  0.796100  1.0  0.1095
  H  H933  1  0.716600  0.891000  0.772600  1.0  0.105
  H  H934  1  0.603500  0.801600  0.872900  1.0  0.1317
  H  H935  1  0.622400  0.848400  0.865000  1.0  0.1237
  H  H936  1  0.665200  0.864400  0.887800  1.0  0.121
  H  H937  1  0.540800  0.700000  0.897800  1.0  0.1315
  H  H938  1  0.563300  0.697800  0.924900  1.0  0.1237
  H  H939  1  0.499200  0.650000  0.912400  1.0  0.1309
  H  H940  1  0.511100  0.552800  0.826300  1.0  0.1234
  H  H941  1  0.471000  0.517000  0.847400  1.0  0.1245
  H  H942  1  0.534700  0.563800  0.860900  1.0  0.1255
  H  H943  1  0.616700  0.123000  0.583100  1.0  0.1269
  H  H944  1  0.681100  0.176800  0.587700  1.0  0.1185
  H  H945  1  0.655600  0.136200  0.608200  1.0  0.1203
  H  H946  1  0.640000  0.031200  0.501400  1.0  0.1071
  H  H947  1  0.676000  0.052300  0.534100  1.0  0.1153
  H  H948  1  0.702500  0.093700  0.514200  1.0  0.106
  H  H949  1  0.539700  0.916000  0.458900  1.0  0.113
  H  H950  1  0.502700  0.867800  0.428300  1.0  0.1114
  H  H951  1  0.506500  0.859400  0.460900  1.0  0.1057
  H  H952  1  0.311100  0.775300  0.453200  1.0  0.1276
  H  H953  1  0.302300  0.733700  0.456200  1.0  0.1255
  H  H954  1  0.297000  0.740700  0.423300  1.0  0.1224
  H  H955  1  0.300900  0.815300  0.504000  1.0  0.1202
  H  H956  1  0.280500  0.831000  0.510500  1.0  0.1097
  H  H957  1  0.281500  0.807600  0.534100  1.0  0.1243
  H  H958  1  0.511100  0.049400  0.588100  1.0  0.1268
  H  H959  1  0.474800  0.018900  0.611500  1.0  0.1285
  H  H960  1  0.469400  0.040700  0.589700  1.0  0.1199
  H  H961  1  0.054900  0.533600  0.892900  1.0  0.1213
  H  H962  1  0.037000  0.539900  0.865700  1.0  0.1264
  H  H963  1  0.098400  0.592100  0.887100  1.0  0.1304
  H  H964  1  0.003200  0.603200  0.962200  1.0  0.1145
  H  H965  1  0.053200  0.656200  0.951400  1.0  0.1293
  H  H966  1  0.992700  0.605000  0.928500  1.0  0.1142
  H  H967  1  0.430700  0.444400  0.899300  1.0  0.1272
  H  H968  1  0.370900  0.383700  0.879200  1.0  0.1113
  H  H969  1  0.382900  0.427900  0.890400  1.0  0.1249
  H  H970  1  0.322800  0.341600  0.001800  1.0  0.1178
  H  H971  1  0.287200  0.337600  0.984400  1.0  0.1197
  H  H972  1  0.271700  0.291000  0.972700  1.0  0.1153
  H  H973  1  0.878400  0.316600  0.988200  1.0  0.119
  H  H974  1  0.837100  0.263100  0.960400  1.0  0.1223
  H  H975  1  0.891100  0.293400  0.980300  1.0  0.1211
  H  H976  1  0.981100  0.418300  0.884000  1.0  0.1228
  H  H977  1  0.986700  0.388100  0.885800  1.0  0.1193
  H  H978  1  0.930700  0.354800  0.866500  1.0  0.1227
  H  H979  1  0.818000  0.674600  0.612400  1.0  0.0939
  H  H980  1  0.752800  0.619200  0.603800  1.0  0.1024
  H  H981  1  0.782400  0.662200  0.584600  1.0  0.1136
  H  H982  1  0.775100  0.751400  0.685100  1.0  0.1247
  H  H983  1  0.747000  0.736000  0.650800  1.0  0.1202
  H  H984  1  0.713900  0.689800  0.668100  1.0  0.1219
  H  H985  1  0.865300  0.856000  0.728300  1.0  0.1153
  H  H986  1  0.888500  0.893900  0.760800  1.0  0.1211
  H  H987  1  0.901100  0.915000  0.730900  1.0  0.1369
  H  H988  1  0.095800  0.997500  0.768900  1.0  0.1186
  H  H989  1  0.110300  0.043400  0.767300  1.0  0.1266
  H  H990  1  0.098600  0.023400  0.797600  1.0  0.1212
  H  H991  1  0.901600  0.619100  0.650500  1.0  0.1242
  H  H992  1  0.936600  0.648600  0.685600  1.0  0.1347
  H  H993  1  0.950300  0.637000  0.660300  1.0  0.1246
  H  H994  1  0.791300  0.426000  0.693300  1.0  0.1249
  H  H995  1  0.852300  0.465300  0.699000  1.0  0.1148
  H  H996  1  0.836700  0.474400  0.724500  1.0  0.1294
  H  H997  1  0.628500  0.940300  0.077400  1.0  0.1188
  H  H998  1  0.616000  0.954100  0.102100  1.0  0.113
  H  H999  1  0.574700  0.892500  0.088400  1.0  0.1293
  H  H1000  1  0.718300  0.954300  0.195600  1.0  0.1291
  H  H1001  1  0.656100  0.906500  0.195800  1.0  0.131
  H  H1002  1  0.699100  0.968800  0.209100  1.0  0.1279
  H  H1003  1  0.512700  0.805000  0.186700  1.0  0.125
  H  H1004  1  0.571900  0.842400  0.187100  1.0  0.1195
  H  H1005  1  0.526500  0.807200  0.155100  1.0  0.1194
  H  H1006  1  0.629100  0.014500  0.169600  1.0  0.1262
  H  H1007  1  0.634100  0.997400  0.140700  1.0  0.1155
  H  H1008  1  0.676100  0.029600  0.173900  1.0  0.1247
  H  H1009  1  0.908200  0.108700  0.051700  1.0  0.1139
  H  H1010  1  0.914400  0.141500  0.033500  1.0  0.1043
  H  H1011  1  0.889400  0.090100  0.015100  1.0  0.0939
  H  H1012  1  0.681100  0.975700  0.024800  1.0  0.1274
  H  H1013  1  0.685300  0.970200  0.990900  1.0  0.1204
  H  H1014  1  0.714000  0.023900  0.009300  1.0  0.1231
  H  H1015  1  0.451300  0.533300  0.295800  1.0  0.1239
  H  H1016  1  0.431500  0.508500  0.259600  1.0  0.1304
  H  H1017  1  0.391600  0.492200  0.276400  1.0  0.1294
  H  H1018  1  0.501000  0.691400  0.249000  1.0  0.1192
  H  H1019  1  0.436500  0.634900  0.233800  1.0  0.1109
  H  H1020  1  0.477000  0.651800  0.217200  1.0  0.1277
  H  H1021  1  0.293400  0.502200  0.220000  1.0  0.121
  H  H1022  1  0.357100  0.562600  0.233500  1.0  0.1211
  H  H1023  1  0.327400  0.517500  0.251100  1.0  0.1302
  H  H1024  1  0.389100  0.469500  0.172000  1.0  0.0984
  H  H1025  1  0.416200  0.492200  0.208200  1.0  0.1155
  H  H1026  1  0.443300  0.533800  0.188300  1.0  0.1103
  H  H1027  1  0.683000  0.797000  0.447800  1.0  0.1253
  H  H1028  1  0.694000  0.774400  0.460600  1.0  0.1366
  H  H1029  1  0.654700  0.764000  0.472900  1.0  0.1224
  H  H1030  1  0.491000  0.563500  0.360700  1.0  0.123
  H  H1031  1  0.477200  0.550700  0.392700  1.0  0.1043
  H  H1032  1  0.520700  0.564900  0.384000  1.0  0.1032
  H  H1033  1  0.962200  0.589000  0.845800  1.0  0.1302
  H  H1034  1  0.947100  0.546500  0.857600  1.0  0.1279
  H  H1035  1  0.970100  0.593400  0.881700  1.0  0.1185
  H  H1036  1  0.188300  0.718600  0.880900  1.0  0.1149
  H  H1037  1  0.177400  0.713700  0.913900  1.0  0.1165
  H  H1038  1  0.152400  0.664800  0.890800  1.0  0.1087
  H  H1039  1  0.234600  0.740600  0.838600  1.0  0.1135
  H  H1040  1  0.227700  0.701500  0.823400  1.0  0.1297
  H  H1041  1  0.281200  0.764900  0.825100  1.0  0.1114
  H  H1042  1  0.141800  0.680000  0.700400  1.0  0.1297
  H  H1043  1  0.198500  0.711700  0.701000  1.0  0.1235
  H  H1044  1  0.146300  0.648700  0.700000  1.0  0.1156
  H  H1045  1  0.046300  0.653200  0.686300  1.0  0.1224
  H  H1046  1  0.983900  0.594700  0.667400  1.0  0.1266
  H  H1047  1  0.008400  0.647800  0.671800  1.0  0.1285
  H  H1048  1  0.935800  0.594900  0.787900  1.0  0.1216
  H  H1049  1  0.905500  0.591500  0.763000  1.0  0.1279
  H  H1050  1  0.884300  0.540600  0.760300  1.0  0.1269
  H  H1051  1  0.086300  0.071300  0.855000  1.0  0.1169
  H  H1052  1  0.034100  0.006900  0.840000  1.0  0.1232
  H  H1053  1  0.090200  0.046700  0.831900  1.0  0.1136
  H  H1054  1  0.994600  0.046900  0.730500  1.0  0.1206
  H  H1055  1  0.009900  0.027100  0.719800  1.0  0.1262
  H  H1056  1  0.952400  0.985000  0.726600  1.0  0.1411
  H  H1057  1  0.051100  0.136100  0.713600  1.0  0.1224
  H  H1058  1  0.051900  0.164300  0.694200  1.0  0.1141
  H  H1059  1  0.093500  0.172600  0.693700  1.0  0.1303
  H  H1060  1  0.235200  0.364600  0.804800  1.0  0.1352
  H  H1061  1  0.260100  0.378700  0.776400  1.0  0.1278
  H  H1062  1  0.219000  0.371300  0.776500  1.0  0.1222
  H  H1063  1  0.269200  0.376800  0.872200  1.0  0.1208
  H  H1064  1  0.298700  0.401700  0.908200  1.0  0.1175
  H  H1065  1  0.325400  0.406800  0.884000  1.0  0.1122
  H  H1066  1  0.183000  0.187700  0.899500  1.0  0.1245
  H  H1067  1  0.247000  0.234700  0.908500  1.0  0.1191
  H  H1068  1  0.221000  0.230800  0.932800  1.0  0.1184
  H  H1069  1  0.337100  0.559200  0.605300  1.0  0.1223
  H  H1070  1  0.372100  0.611100  0.632200  1.0  0.1265
  H  H1071  1  0.320100  0.579000  0.607100  1.0  0.1164
  H  H1072  1  0.208900  0.450100  0.700400  1.0  0.1243
  H  H1073  1  0.205100  0.481100  0.694600  1.0  0.1216
  H  H1074  1  0.258500  0.513400  0.717700  1.0  0.1254
  H  H1075  1  0.155500  0.356900  0.708200  1.0  0.1304
  H  H1076  1  0.176300  0.359600  0.740100  1.0  0.1257
  H  H1077  1  0.114500  0.303200  0.719700  1.0  0.1156
  H  H1078  1  0.211000  0.279400  0.663200  1.0  0.1139
  H  H1079  1  0.165600  0.234000  0.679600  1.0  0.1287
  H  H1080  1  0.227500  0.291500  0.699600  1.0  0.137
  H  H1081  1  0.270000  0.325800  0.608400  1.0  0.1115
  H  H1082  1  0.327900  0.362500  0.605800  1.0  0.1125
  H  H1083  1  0.278500  0.323500  0.575400  1.0  0.1157
  H  H1084  1  0.365900  0.520800  0.582500  1.0  0.13
  H  H1085  1  0.370400  0.504100  0.552900  1.0  0.13
  H  H1086  1  0.417000  0.542200  0.584800  1.0  0.1231
  H  H1087  1  0.494500  0.903900  0.814400  1.0  0.1325
  H  H1088  1  0.555600  0.958400  0.812400  1.0  0.1152
  H  H1089  1  0.544200  0.932000  0.839400  1.0  0.1279
  H  H1090  1  0.525300  0.809300  0.747800  1.0  0.1093
  H  H1091  1  0.572800  0.848100  0.779300  1.0  0.0929
  H  H1092  1  0.583100  0.872900  0.751600  1.0  0.0985
  H  H1093  1  0.440100  0.708000  0.706500  1.0  0.132
  H  H1094  1  0.414700  0.667300  0.674800  1.0  0.1364
  H  H1095  1  0.407700  0.651100  0.706200  1.0  0.1291
  H  H1096  1  0.203800  0.554200  0.675000  1.0  0.1241
  H  H1097  1  0.193000  0.510700  0.674900  1.0  0.1206
  H  H1098  1  0.201500  0.530900  0.645000  1.0  0.1194
  H  H1099  1  0.177400  0.593700  0.713900  1.0  0.1191
  H  H1100  1  0.156100  0.608700  0.708400  1.0  0.1118
  H  H1101  1  0.154700  0.593400  0.739100  1.0  0.1241
  H  H1102  1  0.381700  0.833100  0.792000  1.0  0.1244
  H  H1103  1  0.337400  0.809300  0.808100  1.0  0.1221
  H  H1104  1  0.344800  0.829100  0.778300  1.0  0.0986
  H  H1105  1  0.905100  0.200900  0.990600  1.0  0.1258
  H  H1106  1  0.871200  0.172300  0.015300  1.0  0.1367
  H  H1107  1  0.913100  0.181400  0.012700  1.0  0.1173
  H  H1108  1  0.711000  0.956400  0.922000  1.0  0.1218
  H  H1109  1  0.737700  0.961400  0.951700  1.0  0.1105
  H  H1110  1  0.696700  0.953700  0.953400  1.0  0.1247
  H  H1111  1  0.650800  0.921600  0.859200  1.0  0.1114
  H  H1112  1  0.592900  0.889000  0.851700  1.0  0.1119
  H  H1113  1  0.609000  0.881600  0.825600  1.0  0.1044
  H  H1114  1  0.698400  0.071300  0.801900  1.0  0.1296
  H  H1115  1  0.651600  0.016600  0.774000  1.0  0.1221
  H  H1116  1  0.635600  0.023400  0.800800  1.0  0.1169
  H  H1117  1  0.800000  0.197800  0.840800  1.0  0.1302
  H  H1118  1  0.802200  0.227100  0.865500  1.0  0.1198
  H  H1119  1  0.850000  0.262400  0.849200  1.0  0.1318
  H  H1120  1  0.947200  0.273500  0.958300  1.0  0.121
  H  H1121  1  0.983000  0.330400  0.954000  1.0  0.1255
  H  H1122  1  0.936200  0.297100  0.970900  1.0  0.1226
  H  H1123  1  0.377000  0.460100  0.493700  1.0  0.1267
  H  H1124  1  0.323200  0.410900  0.504300  1.0  0.1195
  H  H1125  1  0.363800  0.472000  0.519400  1.0  0.1191
  H  H1126  1  0.468800  0.470200  0.608800  1.0  0.1079
  H  H1127  1  0.447700  0.481800  0.623700  1.0  0.1143
  H  H1128  1  0.406300  0.420500  0.608800  1.0  0.1073
  H  H1129  1  0.584000  0.542900  0.623700  1.0  0.1135
  H  H1130  1  0.632200  0.560500  0.634900  1.0  0.1126
  H  H1131  1  0.640600  0.601500  0.647100  1.0  0.1051
  H  H1132  1  0.724700  0.677900  0.535800  1.0  0.1261
  H  H1133  1  0.766300  0.722500  0.568600  1.0  0.1252
  H  H1134  1  0.759300  0.682600  0.556300  1.0  0.1232
  H  H1135  1  0.684700  0.688700  0.485600  1.0  0.1211
  H  H1136  1  0.669000  0.679500  0.449500  1.0  0.1101
  H  H1137  1  0.692400  0.726500  0.473900  1.0  0.1265
  H  H1138  1  0.450600  0.538700  0.461700  1.0  0.1276
  H  H1139  1  0.481100  0.592600  0.455900  1.0  0.126
  H  H1140  1  0.459300  0.549000  0.428700  1.0  0.1205
  H  H1141  1  0.140700  0.162000  0.607100  1.0  0.1194
  H  H1142  1  0.174200  0.171300  0.634300  1.0  0.1268
  H  H1143  1  0.205000  0.211300  0.612900  1.0  0.1309
  H  H1144  1  0.141000  0.041000  0.537800  1.0  0.1189
  H  H1145  1  0.204800  0.101800  0.548600  1.0  0.127
  H  H1146  1  0.176500  0.064200  0.571500  1.0  0.1139
  H  H1147  1  0.045100  0.531400  0.600700  1.0  0.1246
  H  H1148  1  0.004500  0.491700  0.620800  1.0  0.1121
  H  H1149  1  0.037500  0.492500  0.609600  1.0  0.1265
  H  H1150  1  0.839800  0.321000  0.498200  1.0  0.1184
  H  H1151  1  0.853200  0.302800  0.515600  1.0  0.1204
  H  H1152  1  0.818300  0.299000  0.527300  1.0  0.1124
  H  H1153  1  0.828400  0.890200  0.511800  1.0  0.1184
  H  H1154  1  0.802700  0.876700  0.539600  1.0  0.1211
  H  H1155  1  0.813100  0.910800  0.519700  1.0  0.1182
  H  H1156  1  0.034300  0.097100  0.616000  1.0  0.1224
  H  H1157  1  0.002300  0.100900  0.614200  1.0  0.1206
  H  H1158  1  0.988300  0.064200  0.633500  1.0  0.1217
  H  H1159  1  0.562200  0.205600  0.887600  1.0  0.0995
  H  H1160  1  0.515400  0.149000  0.896200  1.0  0.1015
  H  H1161  1  0.577600  0.197800  0.915400  1.0  0.1157
  H  H1162  1  0.566300  0.090000  0.814900  1.0  0.1266
  H  H1163  1  0.585200  0.096200  0.849200  1.0  0.1214
  H  H1164  1  0.521700  0.045800  0.831900  1.0  0.1254
  H  H1165  1  0.627700  0.137000  0.771700  1.0  0.1181
  H  H1166  1  0.633100  0.127700  0.739200  1.0  0.1208
  H  H1167  1  0.684100  0.170200  0.769100  1.0  0.1354
  H  H1168  1  0.728600  0.326900  0.731100  1.0  0.1203
  H  H1169  1  0.776100  0.343000  0.732700  1.0  0.1246
  H  H1170  1  0.725800  0.301000  0.702400  1.0  0.1198
  H  H1171  1  0.468600  0.251100  0.849500  1.0  0.1253
  H  H1172  1  0.463000  0.251000  0.814400  1.0  0.1288
  H  H1173  1  0.476700  0.290000  0.839700  1.0  0.1239
  H  H1174  1  0.232700  0.098000  0.806700  1.0  0.1267
  H  H1175  1  0.266300  0.153300  0.801000  1.0  0.1197
  H  H1176  1  0.249900  0.112200  0.775500  1.0  0.1301
  H  H1177  1  0.362900  0.551100  0.422600  1.0  0.1199
  H  H1178  1  0.352000  0.513900  0.397900  1.0  0.1136
  H  H1179  1  0.304100  0.486300  0.411600  1.0  0.1271
  H  H1180  1  0.258700  0.522700  0.304400  1.0  0.1318
  H  H1181  1  0.210700  0.460300  0.304200  1.0  0.1326
  H  H1182  1  0.259700  0.490000  0.290900  1.0  0.1274
  H  H1183  1  0.118300  0.326000  0.313300  1.0  0.123
  H  H1184  1  0.155300  0.384800  0.312900  1.0  0.1187
  H  H1185  1  0.152100  0.371400  0.344900  1.0  0.1191
  H  H1186  1  0.344900  0.459500  0.330400  1.0  0.1273
  H  H1187  1  0.356700  0.493400  0.359300  1.0  0.1156
  H  H1188  1  0.355700  0.502200  0.326100  1.0  0.1262
  H  H1189  1  0.557000  0.856500  0.448300  1.0  0.1135
  H  H1190  1  0.608000  0.880900  0.466500  1.0  0.1004
  H  H1191  1  0.575000  0.874300  0.484900  1.0  0.0928
  H  H1192  1  0.450900  0.656300  0.475200  1.0  0.1229
  H  H1193  1  0.479300  0.694400  0.509100  1.0  0.1208
  H  H1194  1  0.514600  0.704700  0.490700  1.0  0.1191
  H  H1195  1  0.737500  0.155500  0.204200  1.0  0.1229
  H  H1196  1  0.748900  0.171900  0.240400  1.0  0.1315
  H  H1197  1  0.715800  0.115200  0.223600  1.0  0.1281
  H  H1198  1  0.942400  0.252000  0.251000  1.0  0.1197
  H  H1199  1  0.901100  0.202700  0.266200  1.0  0.1099
  H  H1200  1  0.934600  0.259800  0.282800  1.0  0.1281
  H  H1201  1  0.782200  0.073400  0.280000  1.0  0.1207
  H  H1202  1  0.829100  0.123600  0.266500  1.0  0.1184
  H  H1203  1  0.766400  0.076300  0.248900  1.0  0.1297
  H  H1204  1  0.797500  0.217100  0.328000  1.0  0.1003
  H  H1205  1  0.784000  0.208000  0.291800  1.0  0.1142
  H  H1206  1  0.845500  0.255000  0.311700  1.0  0.1113
  H  H1207  1  0.849200  0.235200  0.052200  1.0  0.1284
  H  H1208  1  0.813800  0.233400  0.039400  1.0  0.1344
  H  H1209  1  0.791100  0.181800  0.027100  1.0  0.1198
  H  H1210  1  0.702800  0.130300  0.139300  1.0  0.1221
  H  H1211  1  0.658000  0.084500  0.107300  1.0  0.1081
  H  H1212  1  0.680900  0.136700  0.116000  1.0  0.1014
  H  H1213  1  0.243200  0.116400  0.654200  1.0  0.13
  H  H1214  1  0.188900  0.089500  0.642400  1.0  0.1268
  H  H1215  1  0.211700  0.088400  0.618300  1.0  0.1191
  H  H1216  1  0.337700  0.307400  0.619100  1.0  0.1181
  H  H1217  1  0.299800  0.263500  0.586100  1.0  0.1166
  H  H1218  1  0.274000  0.261600  0.609200  1.0  0.1081
  H  H1219  1  0.402000  0.396000  0.661400  1.0  0.1134
  H  H1220  1  0.378100  0.404300  0.676600  1.0  0.1316
  H  H1221  1  0.439800  0.456100  0.674900  1.0  0.1106
  H  H1222  1  0.479600  0.441400  0.799600  1.0  0.1333
  H  H1223  1  0.510700  0.497500  0.799000  1.0  0.1257
  H  H1224  1  0.448700  0.446300  0.800000  1.0  0.1162
  H  H1225  1  0.466900  0.360000  0.813700  1.0  0.1238
  H  H1226  1  0.427300  0.316500  0.832600  1.0  0.1253
  H  H1227  1  0.476000  0.336600  0.828200  1.0  0.1278
  H  H1228  1  0.307000  0.147900  0.712100  1.0  0.1206
  H  H1229  1  0.328500  0.142500  0.737000  1.0  0.1293
  H  H1230  1  0.280300  0.124000  0.739700  1.0  0.1273
  H  H1231  1  0.716300  0.231300  0.645000  1.0  0.1181
  H  H1232  1  0.666900  0.194100  0.660000  1.0  0.1233
  H  H1233  1  0.714800  0.258300  0.668100  1.0  0.1135
  H  H1234  1  0.816400  0.264100  0.769500  1.0  0.1165
  H  H1235  1  0.807300  0.290100  0.780200  1.0  0.1263
  H  H1236  1  0.758400  0.225800  0.773400  1.0  0.1395
  H  H1237  1  0.922500  0.337500  0.786400  1.0  0.1217
  H  H1238  1  0.970100  0.357700  0.805800  1.0  0.1138
  H  H1239  1  0.978900  0.399800  0.806300  1.0  0.13
  H  H1240  1  0.059800  0.430400  0.695200  1.0  0.1336
  H  H1241  1  0.102300  0.483700  0.723600  1.0  0.1294
  H  H1242  1  0.094800  0.442500  0.723500  1.0  0.1232
  H  H1243  1  0.004600  0.397000  0.627800  1.0  0.1222
  H  H1244  1  0.993500  0.390500  0.591800  1.0  0.1173
  H  H1245  1  0.022800  0.441400  0.616000  1.0  0.1148
  H  H1246  1  0.788200  0.283500  0.600500  1.0  0.1228
  H  H1247  1  0.826200  0.338500  0.591500  1.0  0.12
  H  H1248  1  0.798000  0.288200  0.567200  1.0  0.1163
  H  H1249  1  0.453900  0.731800  0.894700  1.0  0.1215
  H  H1250  1  0.478900  0.739900  0.867800  1.0  0.1258
  H  H1251  1  0.471900  0.713000  0.892900  1.0  0.1166
  H  H1252  1  0.249700  0.508500  0.799600  1.0  0.1238
  H  H1253  1  0.286500  0.510500  0.805400  1.0  0.1187
  H  H1254  1  0.295700  0.540800  0.782300  1.0  0.1245
  H  H1255  1  0.148700  0.447300  0.791800  1.0  0.1295
  H  H1256  1  0.119500  0.436200  0.759900  1.0  0.1266
  H  H1257  1  0.083500  0.394800  0.780300  1.0  0.1171
  H  H1258  1  0.116200  0.547800  0.836800  1.0  0.1134
  H  H1259  1  0.054400  0.486000  0.820400  1.0  0.1268
  H  H1260  1  0.091900  0.527900  0.800400  1.0  0.1356
  H  H1261  1  0.217400  0.661600  0.891600  1.0  0.1083
  H  H1262  1  0.256700  0.722100  0.894200  1.0  0.1147
  H  H1263  1  0.248100  0.703100  0.924600  1.0  0.1161
  H  H1264  1  0.438300  0.783400  0.917500  1.0  0.1287
  H  H1265  1  0.451200  0.817500  0.947100  1.0  0.1288
  H  H1266  1  0.457400  0.832200  0.915200  1.0  0.1218
  H  H1267  1  0.589500  0.680100  0.685600  1.0  0.1318
  H  H1268  1  0.646000  0.743200  0.687600  1.0  0.1131
  H  H1269  1  0.592600  0.704800  0.660600  1.0  0.1255
  H  H1270  1  0.561500  0.777500  0.752200  1.0  0.1067
  H  H1271  1  0.568800  0.793500  0.720700  1.0  0.0922
  H  H1272  1  0.621300  0.831500  0.748400  1.0  0.0994
  H  H1273  1  0.501500  0.733600  0.793500  1.0  0.1292
  H  H1274  1  0.492500  0.739900  0.825200  1.0  0.1362
  H  H1275  1  0.444900  0.701500  0.793800  1.0  0.1292
  H  H1276  1  0.379200  0.528800  0.825000  1.0  0.1259
  H  H1277  1  0.335800  0.518100  0.825100  1.0  0.1183
  H  H1278  1  0.385900  0.556500  0.855000  1.0  0.1193
  H  H1279  1  0.379800  0.463500  0.786100  1.0  0.1185
  H  H1280  1  0.400300  0.447700  0.791600  1.0  0.1142
  H  H1281  1  0.354300  0.415600  0.760900  1.0  0.1251
  H  H1282  1  0.541100  0.589700  0.708000  1.0  0.1251
  H  H1283  1  0.501200  0.529300  0.691900  1.0  0.1228
  H  H1284  1  0.550800  0.566500  0.721700  1.0  0.0977
  H  H1285  1  0.710300  0.914500  0.509400  1.0  0.1268
  H  H1286  1  0.657000  0.855900  0.484700  1.0  0.1364
  H  H1287  1  0.668700  0.900400  0.487300  1.0  0.1166
  H  H1288  1  0.534400  0.789000  0.578000  1.0  0.1192
  H  H1289  1  0.509700  0.786000  0.548300  1.0  0.1177
  H  H1290  1  0.500300  0.743300  0.546600  1.0  0.1269
  H  H1291  1  0.562400  0.791600  0.640800  1.0  0.1077
  H  H1292  1  0.537300  0.741200  0.648300  1.0  0.111
  H  H1293  1  0.556000  0.783400  0.674400  1.0  0.104
  H  H1294  1  0.769400  0.896500  0.698100  1.0  0.1313
  H  H1295  1  0.742600  0.877600  0.726000  1.0  0.1237
  H  H1296  1  0.722600  0.834800  0.699200  1.0  0.117
  H  H1297  1  0.857000  0.959200  0.659200  1.0  0.1335
  H  H1298  1  0.861600  0.936700  0.634500  1.0  0.1222
  H  H1299  1  0.913200  0.000800  0.650800  1.0  0.1307
  H  H1300  1  0.815200  0.988900  0.541700  1.0  0.127
  H  H1301  1  0.876400  0.029000  0.546000  1.0  0.1254
  H  H1302  1  0.826200  0.965300  0.529100  1.0  0.1238
  H  H1303  1  0.466400  0.883300  0.006300  1.0  0.1276
  H  H1304  1  0.406600  0.818900  0.995700  1.0  0.1175
  H  H1305  1  0.452600  0.844400  0.980600  1.0  0.1202
  H  H1306  1  0.361400  0.860000  0.891200  1.0  0.1075
  H  H1307  1  0.358100  0.824000  0.876300  1.0  0.1143
  H  H1308  1  0.311700  0.797500  0.891200  1.0  0.1068
  H  H1309  1  0.419200  0.960300  0.876300  1.0  0.1139
  H  H1310  1  0.425600  0.997300  0.865100  1.0  0.1158
  H  H1311  1  0.454400  0.993500  0.852900  1.0  0.1053
  H  H1312  1  0.642100  0.188900  0.964200  1.0  0.1281
  H  H1313  1  0.653900  0.197700  0.931400  1.0  0.1232
  H  H1314  1  0.626300  0.203000  0.943700  1.0  0.1217
  H  H1315  1  0.703100  0.199100  0.014400  1.0  0.1206
  H  H1316  1  0.730000  0.219500  0.050500  1.0  0.1092
  H  H1317  1  0.752600  0.218500  0.026100  1.0  0.1216
  H  H1318  1  0.577000  0.988900  0.038300  1.0  0.1238
  H  H1319  1  0.636700  0.025200  0.044100  1.0  0.1269
  H  H1320  1  0.620300  0.030600  0.071300  1.0  0.1193
  H  H1321  1  0.033600  0.640700  0.478700  1.0  0.1212
  H  H1322  1  0.039900  0.674200  0.502900  1.0  0.1256
  H  H1323  1  0.092100  0.705000  0.493700  1.0  0.1293
  H  H1324  1  0.103200  0.641000  0.600000  1.0  0.1194
  H  H1325  1  0.156200  0.704800  0.603000  1.0  0.1273
  H  H1326  1  0.105000  0.676500  0.612300  1.0  0.1116
  H  H1327  1  0.944400  0.545100  0.013700  1.0  0.1255
  H  H1328  1  0.883700  0.504500  0.012800  1.0  0.1081
  H  H1329  1  0.927900  0.537500  0.045000  1.0  0.1245
  H  H1330  1  0.841600  0.339800  0.018800  1.0  0.1166
  H  H1331  1  0.837600  0.353200  0.050400  1.0  0.1201
  H  H1332  1  0.791000  0.318300  0.019300  1.0  0.1142
  H  H1333  1  0.816600  0.328400  0.438200  1.0  0.1196
  H  H1334  1  0.763100  0.302700  0.426000  1.0  0.1204
  H  H1335  1  0.793400  0.313100  0.402300  1.0  0.1194
  H  H1336  1  0.918300  0.534300  0.437200  1.0  0.1222
  H  H1337  1  0.888100  0.502300  0.401400  1.0  0.1184
  H  H1338  1  0.854800  0.488300  0.424100  1.0  0.1214
  H  H1339  1  0.174600  0.062200  0.856600  1.0  0.099
  H  H1340  1  0.119200  0.015400  0.866400  1.0  0.1013
  H  H1341  1  0.162200  0.077600  0.879800  1.0  0.1157
  H  H1342  1  0.251400  0.066300  0.976300  1.0  0.1267
  H  H1343  1  0.236000  0.085200  0.989000  1.0  0.1227
  H  H1344  1  0.189800  0.021700  0.975900  1.0  0.1243
  H  H1345  1  0.356000  0.127700  0.990700  1.0  0.1182
  H  H1346  1  0.393900  0.133100  0.005400  1.0  0.122
  H  H1347  1  0.415000  0.184100  0.013900  1.0  0.1345
  H  H1348  1  0.497500  0.228600  0.901700  1.0  0.1208
  H  H1349  1  0.543400  0.276100  0.933100  1.0  0.1277
  H  H1350  1  0.523400  0.225800  0.924800  1.0  0.1204
  H  H1351  1  0.119100  0.968600  0.717500  1.0  0.123
  H  H1352  1  0.148600  0.963000  0.712000  1.0  0.1294
  H  H1353  1  0.137000  0.976700  0.686700  1.0  0.1243
  H  H1354  1  0.926000  0.732700  0.634700  1.0  0.1281
  H  H1355  1  0.965300  0.766300  0.613000  1.0  0.1196
  H  H1356  1  0.974400  0.749900  0.637700  1.0  0.1304
  H  H1357  1  0.440300  0.862900  0.311800  1.0  0.1214
  H  H1358  1  0.454100  0.852000  0.338100  1.0  0.1134
  H  H1359  1  0.392500  0.804100  0.317800  1.0  0.1264
  H  H1360  1  0.454300  0.758700  0.236000  1.0  0.1298
  H  H1361  1  0.406500  0.710700  0.250400  1.0  0.1339
  H  H1362  1  0.468800  0.759700  0.269700  1.0  0.1263
  H  H1363  1  0.305000  0.618300  0.292300  1.0  0.1266
  H  H1364  1  0.342400  0.655300  0.270500  1.0  0.1198
  H  H1365  1  0.307200  0.652100  0.280700  1.0  0.1181
  H  H1366  1  0.514500  0.844900  0.385400  1.0  0.1287
  H  H1367  1  0.497400  0.856700  0.363300  1.0  0.1148
  H  H1368  1  0.529600  0.855700  0.353500  1.0  0.1254
  H  H1369  1  0.608700  0.057000  0.200500  1.0  0.1156
  H  H1370  1  0.641500  0.108000  0.227100  1.0  0.1023
  H  H1371  1  0.590100  0.075000  0.200700  1.0  0.092
  H  H1372  1  0.475700  0.950900  0.294600  1.0  0.1278
  H  H1373  1  0.470200  0.979300  0.284900  1.0  0.1237
  H  H1374  1  0.523900  0.014600  0.309900  1.0  0.1233
  H  H1375  1  0.033300  0.237500  0.082000  1.0  0.1253
  H  H1376  1  0.008500  0.248900  0.077000  1.0  0.1301
  H  H1377  1  0.992200  0.215800  0.100600  1.0  0.1282
  H  H1378  1  0.191400  0.442400  0.190400  1.0  0.1201
  H  H1379  1  0.134900  0.401100  0.198400  1.0  0.1092
  H  H1380  1  0.151800  0.434600  0.174800  1.0  0.1318
  H  H1381  1  0.002200  0.282200  0.208800  1.0  0.1222
  H  H1382  1  0.062600  0.329100  0.205500  1.0  0.1129
  H  H1383  1  0.017500  0.266400  0.190100  1.0  0.1296
  H  H1384  1  0.969500  0.297500  0.080400  1.0  0.096
  H  H1385  1  0.992200  0.284000  0.076000  1.0  0.1159
  H  H1386  1  0.033800  0.345500  0.090500  1.0  0.1107
  H  H1387  1  0.297000  0.349200  0.114000  1.0  0.1257
  H  H1388  1  0.274400  0.313800  0.080400  1.0  0.1368
  H  H1389  1  0.264000  0.291100  0.109300  1.0  0.1211
  H  H1390  1  0.063500  0.202800  0.072500  1.0  0.1196
  H  H1391  1  0.050700  0.158000  0.073500  1.0  0.105
  H  H1392  1  0.064900  0.180900  0.044200  1.0  0.1022
  H  H1393  1  0.089000  0.743200  0.626800  1.0  0.1285
  H  H1394  1  0.046500  0.688900  0.599400  1.0  0.1247
  H  H1395  1  0.093400  0.711700  0.623300  1.0  0.1203
  H  H1396  1  0.218600  0.837700  0.530300  1.0  0.1197
  H  H1397  1  0.213700  0.799800  0.536300  1.0  0.1171
  H  H1398  1  0.164800  0.774000  0.512400  1.0  0.108
  H  H1399  1  0.240600  0.902000  0.506000  1.0  0.1134
  H  H1400  1  0.201500  0.878100  0.473800  1.0  0.129
  H  H1401  1  0.264900  0.939800  0.483700  1.0  0.1106
  H  H1402  1  0.180000  0.979600  0.538200  1.0  0.1319
  H  H1403  1  0.211700  0.010700  0.513200  1.0  0.1256
  H  H1404  1  0.148700  0.948700  0.502400  1.0  0.1169
  H  H1405  1  0.153200  0.966900  0.606900  1.0  0.1222
  H  H1406  1  0.094700  0.927300  0.610800  1.0  0.1227
  H  H1407  1  0.147800  0.976000  0.639400  1.0  0.1293
  H  H1408  1  0.094900  0.807000  0.659100  1.0  0.1149
  H  H1409  1  0.091500  0.828500  0.686000  1.0  0.1268
  H  H1410  1  0.040600  0.780300  0.656300  1.0  0.1265
  H  H1411  1  0.571300  0.216300  0.985000  1.0  0.1162
  H  H1412  1  0.506900  0.166900  0.972800  1.0  0.1236
  H  H1413  1  0.546700  0.214800  0.956500  1.0  0.1138
  H  H1414  1  0.546900  0.316400  0.052300  1.0  0.1205
  H  H1415  1  0.527100  0.307300  0.017200  1.0  0.1267
  H  H1416  1  0.485000  0.258400  0.032600  1.0  0.1403
  H  H1417  1  0.636100  0.422500  0.085000  1.0  0.1161
  H  H1418  1  0.664300  0.470100  0.112400  1.0  0.1138
  H  H1419  1  0.672600  0.478900  0.079100  1.0  0.1312
  H  H1420  1  0.864600  0.559800  0.129400  1.0  0.1297
  H  H1421  1  0.878700  0.602300  0.118600  1.0  0.1267
  H  H1422  1  0.871300  0.594800  0.152300  1.0  0.1214
  H  H1423  1  0.876800  0.504600  0.107600  1.0  0.1211
  H  H1424  1  0.901700  0.493500  0.103000  1.0  0.116
  H  H1425  1  0.906800  0.522800  0.081400  1.0  0.1123
  H  H1426  1  0.687700  0.288200  0.004700  1.0  0.1236
  H  H1427  1  0.734700  0.326200  0.987700  1.0  0.1215
  H  H1428  1  0.730800  0.298000  0.009800  1.0  0.115
  H  H1429  1  0.059200  0.953900  0.222100  1.0  0.1205
  H  H1430  1  0.111100  0.978900  0.239000  1.0  0.1235
  H  H1431  1  0.079000  0.971900  0.258900  1.0  0.1178
  H  H1432  1  0.950100  0.749700  0.241200  1.0  0.1253
  H  H1433  1  0.981100  0.786500  0.276000  1.0  0.1199
  H  H1434  1  0.013400  0.795700  0.254900  1.0  0.1278
  H  H1435  1  0.856900  0.648700  0.201400  1.0  0.1296
  H  H1436  1  0.859600  0.619500  0.183300  1.0  0.1306
  H  H1437  1  0.803200  0.583500  0.188700  1.0  0.116
  H  H1438  1  0.779400  0.616200  0.068400  1.0  0.1167
  H  H1439  1  0.734000  0.554400  0.068400  1.0  0.1288
  H  H1440  1  0.791500  0.591900  0.064000  1.0  0.1363
  H  H1441  1  0.825800  0.717400  0.055800  1.0  0.115
  H  H1442  1  0.862500  0.756700  0.034600  1.0  0.115
  H  H1443  1  0.823500  0.748100  0.045000  1.0  0.1165
  H  H1444  1  0.020800  0.938300  0.154900  1.0  0.1304
  H  H1445  1  0.004100  0.951200  0.133700  1.0  0.1314
  H  H1446  1  0.042200  0.957400  0.125200  1.0  0.1226
  H  H1447  1  0.403900  0.089500  0.409400  1.0  0.1309
  H  H1448  1  0.458400  0.146000  0.402800  1.0  0.1128
  H  H1449  1  0.432000  0.092600  0.387800  1.0  0.1234
  H  H1450  1  0.309300  0.061500  0.284000  1.0  0.1096
  H  H1451  1  0.348100  0.068800  0.275300  1.0  0.092
  H  H1452  1  0.372900  0.121300  0.289800  1.0  0.0991
  H  H1453  1  0.208000  0.001500  0.267900  1.0  0.1318
  H  H1454  1  0.167300  0.992500  0.252600  1.0  0.1351
  H  H1455  1  0.151100  0.944900  0.243400  1.0  0.1289
  H  H1456  1  0.054200  0.879200  0.350400  1.0  0.1274
  H  H1457  1  0.010700  0.835800  0.317700  1.0  0.1211
  H  H1458  1  0.030900  0.885900  0.329400  1.0  0.1182
  H  H1459  1  0.093700  0.879800  0.416300  1.0  0.1207
  H  H1460  1  0.108700  0.900300  0.452600  1.0  0.1121
  H  H1461  1  0.093400  0.854300  0.438700  1.0  0.1232
  H  H1462  1  0.333100  0.041100  0.451400  1.0  0.1241
  H  H1463  1  0.309300  0.001200  0.471900  1.0  0.1253
  H  H1464  1  0.329100  0.050800  0.484300  1.0  0.0949
  H  H1465  1  0.700900  0.210300  0.295800  1.0  0.128
  H  H1466  1  0.672300  0.157000  0.301100  1.0  0.1375
  H  H1467  1  0.681400  0.168700  0.268300  1.0  0.1189
  H  H1468  1  0.456400  0.034400  0.245400  1.0  0.1182
  H  H1469  1  0.461400  0.009700  0.223700  1.0  0.115
  H  H1470  1  0.453700  0.000300  0.257000  1.0  0.1245
  H  H1471  1  0.421600  0.062400  0.270800  1.0  0.11
  H  H1472  1  0.389000  0.037300  0.296100  1.0  0.1103
  H  H1473  1  0.381600  0.056000  0.272600  1.0  0.1036
  H  H1474  1  0.571300  0.269400  0.372900  1.0  0.1312
  H  H1475  1  0.516600  0.242600  0.365000  1.0  0.1234
  H  H1476  1  0.523400  0.222600  0.387800  1.0  0.1169
  H  H1477  1  0.697800  0.357000  0.397800  1.0  0.1299
  H  H1478  1  0.727100  0.361600  0.424900  1.0  0.1226
  H  H1479  1  0.762400  0.413200  0.412400  1.0  0.1336
  H  H1480  1  0.773500  0.315200  0.326300  1.0  0.1215
  H  H1481  1  0.830400  0.376400  0.347400  1.0  0.126
  H  H1482  1  0.797100  0.326200  0.360900  1.0  0.1242
  H  H1483  1  0.960100  0.966400  0.083100  1.0  0.1291
  H  H1484  1  0.910900  0.906600  0.087700  1.0  0.1169
  H  H1485  1  0.972000  0.952600  0.108200  1.0  0.1184
  H  H1486  1  0.970200  0.861400  0.001400  1.0  0.1088
  H  H1487  1  0.981800  0.858100  0.034100  1.0  0.1142
  H  H1488  1  0.920500  0.811700  0.014200  1.0  0.1073
  H  H1489  1  0.042900  0.919200  0.958900  1.0  0.1106
  H  H1490  1  0.060500  0.925600  0.928300  1.0  0.1125
  H  H1491  1  0.101500  0.954400  0.960900  1.0  0.1034
  H  H1492  1  0.177900  0.142100  0.953200  1.0  0.1282
  H  H1493  1  0.222500  0.153900  0.956200  1.0  0.124
  H  H1494  1  0.182600  0.126300  0.923300  1.0  0.1207
  H  H1495  1  0.188700  0.203100  0.004000  1.0  0.1208
  H  H1496  1  0.179500  0.230000  0.010500  1.0  0.111
  H  H1497  1  0.226500  0.252600  0.034100  1.0  0.1238
  H  H1498  1  0.038700  0.077000  0.088100  1.0  0.126
  H  H1499  1  0.092600  0.136700  0.111500  1.0  0.128
  H  H1500  1  0.049000  0.120300  0.089700  1.0  0.1211
  H  H1501  1  0.662000  0.554900  0.021300  1.0  0.1201
  H  H1502  1  0.671300  0.537000  0.997100  1.0  0.1257
  H  H1503  1  0.711300  0.598400  0.006300  1.0  0.1299
  H  H1504  1  0.541000  0.503200  0.900000  1.0  0.1164
  H  H1505  1  0.601800  0.553200  0.897000  1.0  0.1284
  H  H1506  1  0.564200  0.492700  0.887700  1.0  0.1144
  H  H1507  1  0.031400  0.930700  0.486300  1.0  0.1258
  H  H1508  1  0.991700  0.870900  0.487200  1.0  0.1113
  H  H1509  1  0.992500  0.882900  0.455000  1.0  0.1253
  H  H1510  1  0.821000  0.822800  0.481200  1.0  0.1172
  H  H1511  1  0.802800  0.787200  0.449600  1.0  0.1198
  H  H1512  1  0.799000  0.771700  0.480700  1.0  0.1159
  H  H1513  1  0.390200  0.378400  0.061800  1.0  0.1182
  H  H1514  1  0.376700  0.337100  0.074000  1.0  0.1228
  H  H1515  1  0.410800  0.391100  0.097700  1.0  0.1188
  H  H1516  1  0.597100  0.481100  0.062800  1.0  0.1217
  H  H1517  1  0.600900  0.486700  0.098600  1.0  0.1216
  H  H1518  1  0.564200  0.430700  0.075900  1.0  0.1225
  H  H1519  1  0.705600  0.318000  0.643400  1.0  0.0984
  H  H1520  1  0.649000  0.252800  0.633600  1.0  0.101
  H  H1521  1  0.697800  0.282400  0.620200  1.0  0.1159
  H  H1522  1  0.590000  0.275100  0.523700  1.0  0.127
  H  H1523  1  0.596200  0.247000  0.511000  1.0  0.1216
  H  H1524  1  0.545800  0.213900  0.524100  1.0  0.1254
  H  H1525  1  0.637000  0.365300  0.509300  1.0  0.117
  H  H1526  1  0.627700  0.388500  0.494600  1.0  0.1192
  H  H1527  1  0.670200  0.401100  0.486100  1.0  0.1345
  H  H1528  1  0.826900  0.595800  0.598300  1.0  0.1222
  H  H1529  1  0.843000  0.610300  0.566900  1.0  0.1251
  H  H1530  1  0.801000  0.598600  0.575200  1.0  0.1203
  H  H1531  1  0.751100  0.401600  0.782500  1.0  0.1254
  H  H1532  1  0.751000  0.436600  0.788000  1.0  0.132
  H  H1533  1  0.790000  0.450300  0.813300  1.0  0.1243
  H  H1534  1  0.598000  0.291300  0.865300  1.0  0.1237
  H  H1535  1  0.653300  0.352300  0.887000  1.0  0.1209
  H  H1536  1  0.612200  0.336700  0.862300  1.0  0.1292
  H  H1537  1  0.051100  0.128500  0.188200  1.0  0.1195
  H  H1538  1  0.013900  0.116000  0.161900  1.0  0.114
  H  H1539  1  0.986300  0.074700  0.182200  1.0  0.1297
  H  H1540  1  0.022700  0.218300  0.264000  1.0  0.1314
  H  H1541  1  0.960300  0.156100  0.249600  1.0  0.1319
  H  H1542  1  0.990000  0.199100  0.230300  1.0  0.1267
  H  H1543  1  0.826000  0.012700  0.207700  1.0  0.1252
  H  H1544  1  0.884800  0.071900  0.229500  1.0  0.1199
  H  H1545  1  0.871400  0.026500  0.219300  1.0  0.1197
  H  H1546  1  0.959500  0.129100  0.114600  1.0  0.1276
  H  H1547  1  0.993400  0.134100  0.136700  1.0  0.1175
  H  H1548  1  0.002200  0.176100  0.146500  1.0  0.1256
  H  H1549  1  0.356500  0.408200  0.299500  1.0  0.1141
  H  H1550  1  0.380900  0.414400  0.272900  1.0  0.103
  H  H1551  1  0.374300  0.389400  0.299300  1.0  0.0935
  H  H1552  1  0.156300  0.181100  0.205400  1.0  0.1267
  H  H1553  1  0.194400  0.185300  0.215100  1.0  0.1212
  H  H1554  1  0.204700  0.214000  0.190100  1.0  0.1218
  H  H1555  1  0.655500  0.951300  0.418000  1.0  0.1248
  H  H1556  1  0.671900  0.931500  0.423000  1.0  0.1334
  H  H1557  1  0.615200  0.891600  0.399400  1.0  0.1278
  H  H1558  1  0.752000  0.001000  0.309600  1.0  0.1207
  H  H1559  1  0.702700  0.936500  0.301600  1.0  0.1101
  H  H1560  1  0.759800  0.977000  0.325200  1.0  0.1282
  H  H1561  1  0.573400  0.793400  0.291200  1.0  0.1229
  H  H1562  1  0.623600  0.857100  0.294500  1.0  0.1187
  H  H1563  1  0.576300  0.827400  0.309900  1.0  0.1319
  H  H1564  1  0.717100  0.889100  0.419600  1.0  0.101
  H  H1565  1  0.708000  0.916200  0.424000  1.0  0.1153
  H  H1566  1  0.755000  0.943300  0.409500  1.0  0.1101
  H  H1567  1  0.735200  0.183000  0.386000  1.0  0.1244
  H  H1568  1  0.733400  0.194000  0.419600  1.0  0.137
  H  H1569  1  0.681800  0.154700  0.390700  1.0  0.122
  H  H1570  1  0.630300  0.991000  0.427500  1.0  0.1218
  H  H1571  1  0.584500  0.977200  0.426500  1.0  0.1051
  H  H1572  1  0.636700  0.020700  0.455800  1.0  0.1003
  H  H1573  1  0.616400  0.462200  0.873200  1.0  0.1281
  H  H1574  1  0.589500  0.447100  0.900600  1.0  0.1262
  H  H1575  1  0.588400  0.470100  0.876700  1.0  0.1207
  H  H1576  1  0.807400  0.688300  0.969700  1.0  0.1176
  H  H1577  1  0.763500  0.677400  0.963700  1.0  0.1148
  H  H1578  1  0.761600  0.652400  0.987600  1.0  0.1083
  H  H1579  1  0.896000  0.734600  0.994000  1.0  0.1135
  H  H1580  1  0.904300  0.727700  0.026200  1.0  0.1265
  H  H1581  1  0.956100  0.781200  0.016300  1.0  0.1125
  H  H1582  1  0.941400  0.641800  0.961800  1.0  0.1327
  H  H1583  1  0.997500  0.698500  0.986800  1.0  0.1233
  H  H1584  1  0.946300  0.646300  0.997600  1.0  0.1149
  H  H1585  1  0.860000  0.546300  0.893100  1.0  0.1213
  H  H1586  1  0.816500  0.483900  0.889200  1.0  0.1254
  H  H1587  1  0.836600  0.508400  0.860600  1.0  0.1303
  H  H1588  1  0.647900  0.435800  0.840900  1.0  0.1181
  H  H1589  1  0.642500  0.405500  0.814000  1.0  0.1279
  H  H1590  1  0.624000  0.384300  0.843700  1.0  0.1251
  H  H1591  1  0.731300  0.586300  0.515000  1.0  0.1176
  H  H1592  1  0.694100  0.534100  0.527200  1.0  0.125
  H  H1593  1  0.758300  0.590200  0.543500  1.0  0.1153
  H  H1594  1  0.764100  0.494600  0.447700  1.0  0.1211
  H  H1595  1  0.790100  0.509900  0.482800  1.0  0.1252
  H  H1596  1  0.725800  0.452400  0.467400  1.0  0.143
  H  H1597  1  0.837500  0.551100  0.415000  1.0  0.1231
  H  H1598  1  0.857700  0.551900  0.387600  1.0  0.1122
  H  H1599  1  0.899800  0.593500  0.420900  1.0  0.1314
  H  H1600  1  0.930400  0.735200  0.370600  1.0  0.1325
  H  H1601  1  0.983700  0.760100  0.381400  1.0  0.128
  H  H1602  1  0.942500  0.719000  0.347700  1.0  0.12
  H  H1603  1  0.897000  0.769200  0.392400  1.0  0.1216
  H  H1604  1  0.890500  0.798700  0.397000  1.0  0.1161
  H  H1605  1  0.941400  0.825400  0.418600  1.0  0.1138
  H  H1606  1  0.783500  0.683000  0.495300  1.0  0.1244
  H  H1607  1  0.838500  0.747000  0.512300  1.0  0.1208
  H  H1608  1  0.788200  0.721000  0.490200  1.0  0.115
  H  H1609  1  0.231800  0.837100  0.277900  1.0  0.122
  H  H1610  1  0.239900  0.872100  0.261000  1.0  0.1257
  H  H1611  1  0.213000  0.820100  0.241100  1.0  0.117
  H  H1612  1  0.008500  0.708900  0.258800  1.0  0.1238
  H  H1613  1  0.010500  0.705100  0.224000  1.0  0.1194
  H  H1614  1  0.040800  0.758500  0.245100  1.0  0.1267
  H  H1615  1  0.947300  0.655500  0.298600  1.0  0.1298
  H  H1616  1  0.936200  0.676300  0.316700  1.0  0.1272
  H  H1617  1  0.894800  0.614500  0.311300  1.0  0.1192
  H  H1618  1  0.047800  0.711000  0.431600  1.0  0.1101
  H  H1619  1  0.986000  0.665600  0.431600  1.0  0.1282
  H  H1620  1  0.027900  0.727500  0.436000  1.0  0.1377
  H  H1621  1  0.161600  0.770000  0.444200  1.0  0.1148
  H  H1622  1  0.222100  0.827900  0.465400  1.0  0.1144
  H  H1623  1  0.203100  0.778500  0.455000  1.0  0.1177
  H  H1624  1  0.283400  0.865900  0.345100  1.0  0.1306
  H  H1625  1  0.317500  0.870400  0.366300  1.0  0.1333
  H  H1626  1  0.332200  0.917000  0.374800  1.0  0.1254
  H  H1627  1  0.180100  0.994500  0.090600  1.0  0.1302
  H  H1628  1  0.243200  0.055600  0.097200  1.0  0.1141
  H  H1629  1  0.204800  0.044200  0.112200  1.0  0.1246
  H  H1630  1  0.277500  0.025300  0.216000  1.0  0.1094
  H  H1631  1  0.293500  0.072800  0.224700  1.0  0.0922
  H  H1632  1  0.331500  0.083100  0.210200  1.0  0.0994
  H  H1633  1  0.233600  0.940100  0.232100  1.0  0.1315
  H  H1634  1  0.239900  0.914700  0.247400  1.0  0.1368
  H  H1635  1  0.201500  0.907700  0.256600  1.0  0.1297
  H  H1636  1  0.028800  0.703800  0.149600  1.0  0.1268
  H  H1637  1  0.018100  0.693000  0.182300  1.0  0.1187
  H  H1638  1  0.056500  0.701500  0.170600  1.0  0.1202
  H  H1639  1  0.963500  0.677400  0.083700  1.0  0.1198
  H  H1640  1  0.947700  0.656100  0.047400  1.0  0.1139
  H  H1641  1  0.915600  0.654700  0.061300  1.0  0.1208
  H  H1642  1  0.089700  0.881700  0.048600  1.0  0.1236
  H  H1643  1  0.029300  0.837400  0.028100  1.0  0.1218
  H  H1644  1  0.066500  0.844800  0.015700  1.0  0.0982
  H  H1645  1  0.414500  0.405100  0.204200  1.0  0.1253
  H  H1646  1  0.355900  0.371200  0.198900  1.0  0.1344
  H  H1647  1  0.400400  0.413100  0.231700  1.0  0.1179
  H  H1648  1  0.289000  0.211000  0.254600  1.0  0.1209
  H  H1649  1  0.286000  0.237700  0.276300  1.0  0.1141
  H  H1650  1  0.243300  0.196700  0.243000  1.0  0.1257
  H  H1651  1  0.291600  0.150800  0.229200  1.0  0.1102
  H  H1652  1  0.241200  0.092900  0.203900  1.0  0.1096
  H  H1653  1  0.283400  0.109000  0.227400  1.0  0.1036
  H  H1654  1  0.396500  0.198400  0.127100  1.0  0.1309
  H  H1655  1  0.377600  0.151600  0.135000  1.0  0.1263
  H  H1656  1  0.334800  0.135600  0.112200  1.0  0.1196
  H  H1657  1  0.459200  0.300000  0.102200  1.0  0.1297
  H  H1658  1  0.436700  0.302200  0.075100  1.0  0.1217
  H  H1659  1  0.500800  0.350000  0.087600  1.0  0.1319
  H  H1660  1  0.488900  0.447200  0.173700  1.0  0.1227
  H  H1661  1  0.529000  0.483000  0.152600  1.0  0.1257
  H  H1662  1  0.465300  0.436200  0.139100  1.0  0.1268
  H  H1663  1  0.383300  0.877000  0.416900  1.0  0.1264
  H  H1664  1  0.318900  0.823200  0.412300  1.0  0.1189
  H  H1665  1  0.344400  0.863800  0.391800  1.0  0.1201
  H  H1666  1  0.360000  0.968800  0.498600  1.0  0.107
  H  H1667  1  0.324000  0.947700  0.465900  1.0  0.1144
  H  H1668  1  0.297500  0.906300  0.485800  1.0  0.1054
  H  H1669  1  0.460300  0.084000  0.541100  1.0  0.1134
  H  H1670  1  0.497300  0.132200  0.571700  1.0  0.1116
  H  H1671  1  0.493500  0.140600  0.539100  1.0  0.1039
  H  H1672  1  0.688900  0.224700  0.546800  1.0  0.1259
  H  H1673  1  0.697700  0.266300  0.543800  1.0  0.1233
  H  H1674  1  0.703000  0.259300  0.576700  1.0  0.1225
  H  H1675  1  0.699100  0.184700  0.496000  1.0  0.121
  H  H1676  1  0.719500  0.169000  0.489500  1.0  0.1109
  H  H1677  1  0.718500  0.192400  0.465900  1.0  0.1251
  H  H1678  1  0.488900  0.950600  0.411900  1.0  0.1266
  H  H1679  1  0.525200  0.981100  0.388500  1.0  0.1278
  H  H1680  1  0.530600  0.959300  0.410300  1.0  0.1205
  C  C1681  1  0.939800  0.442400  0.113400  1.0  -0.4369
  C  C1682  1  0.954800  0.431500  0.091700  1.0  0.239
  C  C1683  1  0.954500  0.401400  0.091900  1.0  -0.1688
  C  C1684  1  0.973700  0.406500  0.066800  1.0  0.1906
  C  C1685  1  0.981800  0.383700  0.055300  1.0  -0.4198
  C  C1686  1  0.608400  0.585000  0.104000  1.0  -0.4051
  C  C1687  1  0.623000  0.601700  0.075900  1.0  0.2148
  C  C1688  1  0.673000  0.641100  0.069300  1.0  -0.2072
  C  C1689  1  0.661300  0.638700  0.039200  1.0  0.1817
  C  C1690  1  0.698300  0.670000  0.018300  1.0  -0.4162
  C  C1691  1  0.124500  0.701500  0.028400  1.0  -0.4001
  C  C1692  1  0.094600  0.667500  0.049500  1.0  0.1823
  C  C1693  1  0.087300  0.675100  0.075800  1.0  -0.1647
  C  C1694  1  0.058400  0.630400  0.086600  1.0  0.1785
  C  C1695  1  0.038100  0.616000  0.115100  1.0  -0.3808
  C  C1696  1  0.215400  0.341980  0.394980  1.0  -0.4031
  C  C1697  1  0.214570  0.315370  0.373940  1.0  0.1933
  C  C1698  1  0.252500  0.324590  0.374090  1.0  -0.2071
  C  C1699  1  0.229180  0.287500  0.347080  1.0  0.1644
  C  C1700  1  0.250200  0.276600  0.334600  1.0  -0.385
  C  C1701  1  0.103900  0.106300  0.258600  1.0  -0.3994
  C  C1702  1  0.053700  0.082280  0.252380  1.0  0.1879
  C  C1703  1  0.000810  0.030600  0.235410  1.0  -0.0932
  C  C1704  1  0.970500  0.031100  0.237800  1.0  0.1759
  C  C1705  1  0.911500  0.988100  0.225000  1.0  -0.3886
  C  C1706  1  0.079000  0.376900  0.333333  1.0  -0.4002
  C  C1707  1  0.117200  0.430400  0.328000  1.0  0.213
  C  C1708  1  0.108000  0.444410  0.307010  1.0  -0.1366
  C  C1709  1  0.156180  0.499400  0.312180  1.0  0.1994
  C  C1710  1  0.170200  0.536600  0.297600  1.0  -0.409
  C  C1711  1  0.386900  0.069300  0.905200  1.0  -0.3999
  C  C1712  1  0.356600  0.061400  0.880000  1.0  0.2415
  C  C1713  1  0.364300  0.070000  0.851700  1.0  -0.1486
  C  C1714  1  0.325100  0.056800  0.837900  1.0  0.1662
  C  C1715  1  0.311700  0.056800  0.806700  1.0  -0.4
  C  C1716  1  0.458800  0.171600  0.823800  1.0  -0.3916
  C  C1717  1  0.439800  0.125190  0.824590  1.0  0.2085
  C  C1718  1  0.399900  0.081940  0.836840  1.0  -0.1857
  C  C1719  1  0.398900  0.050500  0.830600  1.0  0.221
  C  C1720  1  0.361800  0.997800  0.837200  1.0  -0.4026
  C  C1721  1  0.108200  0.894700  0.966500  1.0  -0.4219
  C  C1722  1  0.163100  0.930800  0.966100  1.0  0.2295
  C  C1723  1  0.200400  0.945800  0.988400  1.0  -0.2001
  C  C1724  1  0.244600  0.978500  0.975900  1.0  0.2416
  C  C1725  1  0.295400  0.004400  0.988800  1.0  -0.4478
  C  C1726  1  0.570400  0.478400  0.723800  1.0  -0.3879
  C  C1727  1  0.548240  0.430760  0.729000  1.0  0.1852
  C  C1728  1  0.565600  0.428200  0.753600  1.0  -0.1658
  C  C1729  1  0.530700  0.374200  0.746100  1.0  0.2063
  C  C1730  1  0.528800  0.346700  0.762900  1.0  -0.3937
  C  C1731  1  0.671200  0.476100  0.769100  1.0  -0.3895
  C  C1732  1  0.658700  0.492100  0.787000  1.0  0.1838
  C  C1733  1  0.613300  0.472600  0.780300  1.0  -0.0902
  C  C1734  1  0.624350  0.504600  0.804150  1.0  0.2081
  C  C1735  1  0.591200  0.502100  0.809300  1.0  -0.3893
  C  C1736  1  0.333200  0.232900  0.545100  1.0  -0.4215
  C  C1737  1  0.380700  0.284800  0.570100  1.0  0.1298
  C  C1738  1  0.417500  0.338800  0.572100  1.0  -0.189
  C  C1739  1  0.448900  0.367500  0.602600  1.0  0.2041
  C  C1740  1  0.494000  0.427400  0.617600  1.0  -0.3747
  C  C1741  1  0.027700  0.415600  0.137500  1.0  -0.4019
  C  C1742  1  0.970700  0.378600  0.133900  1.0  0.1162
  C  C1743  1  0.937500  0.369200  0.113100  1.0  -0.1433
  C  C1744  1  0.888400  0.331300  0.120900  1.0  0.1946
  C  C1745  1  0.838300  0.306400  0.107700  1.0  -0.3859
  C  C1746  1  0.758200  0.267100  0.177700  1.0  -0.3919
  C  C1747  1  0.786300  0.279500  0.209000  1.0  0.2309
  C  C1748  1  0.784700  0.290800  0.237300  1.0  -0.1892
  C  C1749  1  0.818610  0.300820  0.258030  1.0  0.1665
  C  C1750  1  0.834400  0.316500  0.292100  1.0  -0.409
  C  C1751  1  0.990800  0.369900  0.318500  1.0  -0.415
  C  C1752  1  0.007000  0.377700  0.289700  1.0  0.1947
  C  C1753  1  0.056080  0.407460  0.284140  1.0  -0.118
  C  C1754  1  0.046100  0.397800  0.253100  1.0  0.2175
  C  C1755  1  0.083400  0.419600  0.233800  1.0  -0.4001
  C  C1756  1  0.933500  0.957400  0.163500  1.0  -0.3924
  C  C1757  1  0.950400  0.952900  0.189700  1.0  0.1743
  C  C1758  1  0.979200  0.984400  0.220400  1.0  -0.1067
  C  C1759  1  0.984100  0.962100  0.234200  1.0  0.2158
  C  C1760  1  0.008900  0.977100  0.267200  1.0  -0.3951
  C  C1761  1  0.925600  0.831600  0.293600  1.0  -0.3879
  C  C1762  1  0.883950  0.781110  0.265860  1.0  0.208
  C  C1763  1  0.843600  0.727400  0.264600  1.0  -0.186
  C  C1764  1  0.818900  0.700500  0.233000  1.0  0.2346
  C  C1765  1  0.772200  0.641500  0.217500  1.0  -0.4043
  C  C1766  1  0.709100  0.616600  0.111700  1.0  -0.3809
  C  C1767  1  0.740000  0.669800  0.110400  1.0  0.1778
  C  C1768  1  0.726800  0.681500  0.091700  1.0  -0.1672
  C  C1769  1  0.771000  0.737500  0.100900  1.0  0.2256
  C  C1770  1  0.780900  0.774300  0.089000  1.0  -0.3963
  C  C1771  1  0.664600  0.424800  0.380800  1.0  -0.4063
  C  C1772  1  0.699500  0.460300  0.361600  1.0  0.1628
  C  C1773  1  0.713600  0.454900  0.338300  1.0  -0.1191
  C  C1774  1  0.745600  0.500600  0.327600  1.0  0.215
  C  C1775  1  0.770400  0.515200  0.301400  1.0  -0.4023
  C  C1776  1  0.847800  0.663100  0.280900  1.0  -0.3881
  C  C1777  1  0.831600  0.676600  0.297200  1.0  0.2796
  C  C1778  1  0.830960  0.704400  0.290560  1.0  -0.0854
  C  C1779  1  0.812500  0.704500  0.314000  1.0  0.2108
  C  C1780  1  0.801100  0.726800  0.318300  1.0  -0.4036
  C  C1781  1  0.704100  0.652800  0.403900  1.0  -0.4115
  C  C1782  1  0.686700  0.607330  0.405830  1.0  0.2126
  C  C1783  1  0.650770  0.567540  0.420310  1.0  -0.1914
  C  C1784  1  0.652990  0.538500  0.415890  1.0  0.1266
  C  C1785  1  0.622300  0.488500  0.424800  1.0  -0.3763
  C  C1786  1  0.469900  0.075900  0.182200  1.0  -0.416
  C  C1787  1  0.476000  0.109800  0.202200  1.0  0.1704
  C  C1788  1  0.434800  0.096000  0.204200  1.0  -0.1237
  C  C1789  1  0.464000  0.142700  0.225900  1.0  0.2031
  C  C1790  1  0.444000  0.154000  0.237800  1.0  -0.3748
  C  C1791  1  0.590500  0.330300  0.305200  1.0  -0.3968
  C  C1792  1  0.643200  0.357400  0.310000  1.0  0.202
  C  C1793  1  0.696000  0.410600  0.325400  1.0  -0.1452
  C  C1794  1  0.727700  0.413100  0.321000  1.0  0.1925
  C  C1795  1  0.787400  0.458100  0.332500  1.0  -0.3993
  C  C1796  1  0.825000  0.388600  0.276200  1.0  -0.4203
  C  C1797  1  0.769800  0.330800  0.260800  1.0  0.2042
  C  C1798  1  0.753600  0.290600  0.244000  1.0  -0.1834
  C  C1799  1  0.696900  0.245460  0.231960  1.0  0.1489
  C  C1800  1  0.654500  0.188400  0.211500  1.0  -0.3674
  C  C1801  1  0.113300  0.827000  0.998900  1.0  -0.4
  C  C1802  1  0.158600  0.882400  0.022400  1.0  0.2032
  C  C1803  1  0.194000  0.931700  0.017700  1.0  -0.0863
  C  C1804  1  0.227700  0.969200  0.046300  1.0  0.1698
  C  C1805  1  0.274600  0.029600  0.055600  1.0  -0.3862
  C  C1806  1  0.377100  0.092500  0.156600  1.0  -0.3989
  C  C1807  1  0.353600  0.047800  0.166000  1.0  0.1989
  C  C1808  1  0.377200  0.047500  0.187100  1.0  -0.1734
  C  C1809  1  0.335800  0.993000  0.186400  1.0  0.2078
  C  C1810  1  0.337800  0.968400  0.204000  1.0  -0.4307
  C  C1811  1  0.175900  0.769300  0.142800  1.0  -0.4062
  C  C1812  1  0.145300  0.761800  0.117700  1.0  0.231
  C  C1813  1  0.107500  0.721200  0.089900  1.0  -0.181
  C  C1814  1  0.093400  0.735200  0.075600  1.0  0.2247
  C  C1815  1  0.053300  0.706000  0.045500  1.0  -0.4015
  C  C1816  1  0.638500  0.550700  0.488800  1.0  -0.3815
  C  C1817  1  0.607400  0.543200  0.464400  1.0  0.1747
  C  C1818  1  0.615080  0.553910  0.435790  1.0  -0.1575
  C  C1819  1  0.575500  0.540460  0.423360  1.0  0.2146
  C  C1820  1  0.562100  0.542200  0.392900  1.0  -0.3841
  C  C1821  1  0.376500  0.426600  0.370500  1.0  -0.3892
  C  C1822  1  0.355200  0.403100  0.396900  1.0  0.1959
  C  C1823  1  0.300760  0.359160  0.398920  1.0  -0.1741
  C  C1824  1  0.304600  0.355000  0.428200  1.0  0.1929
  C  C1825  1  0.259600  0.314400  0.443200  1.0  -0.4102
  C  C1826  1  0.330300  0.310300  0.530200  1.0  -0.3954
  C  C1827  1  0.386600  0.349300  0.529900  1.0  0.19
  C  C1828  1  0.424000  0.361900  0.547900  1.0  -0.1559
  C  C1829  1  0.470400  0.403650  0.539250  1.0  0.2023
  C  C1830  1  0.524600  0.433400  0.549000  1.0  -0.3887
  C  C1831  1  0.829000  0.826400  0.386600  1.0  -0.4364
  C  C1832  1  0.839800  0.863100  0.408300  1.0  0.2374
  C  C1833  1  0.809500  0.862600  0.408100  1.0  -0.1685
  C  C1834  1  0.839700  0.906900  0.433200  1.0  0.1928
  C  C1835  1  0.828400  0.926500  0.444700  1.0  -0.4186
  C  C1836  1  0.981000  0.504400  0.396000  1.0  -0.4024
  C  C1837  1  0.025800  0.547100  0.424100  1.0  0.2141
  C  C1838  1  0.071800  0.603700  0.430700  1.0  -0.2066
  C  C1839  1  0.099500  0.622100  0.460800  1.0  0.1831
  C  C1840  1  0.151700  0.680000  0.481700  1.0  -0.4164
  C  C1841  1  0.173100  0.096100  0.471600  1.0  -0.4008
  C  C1842  1  0.118000  0.045100  0.450500  1.0  0.1827
  C  C1843  1  0.099300  0.011500  0.424200  1.0  -0.1643
  C  C1844  1  0.043800  0.971800  0.413400  1.0  0.1795
  C  C1845  1  0.000900  0.923000  0.384900  1.0  -0.3795
  C  C1846  1  0.447000  0.820420  0.105020  1.0  -0.4037
  C  C1847  1  0.441430  0.840630  0.126060  1.0  0.1929
  C  C1848  1  0.450500  0.878410  0.125910  1.0  -0.2066
  C  C1849  1  0.440420  0.882100  0.152920  1.0  0.1623
  C  C1850  1  0.442000  0.915600  0.165400  1.0  -0.3867
  C  C1851  1  0.347700  0.845300  0.241400  1.0  -0.3998
  C  C1852  1  0.329900  0.801320  0.247620  1.0  0.1867
  C  C1853  1  0.295190  0.765400  0.264590  1.0  -0.0936
  C  C1854  1  0.293300  0.732700  0.262200  1.0  0.1756
  C  C1855  1  0.263100  0.686500  0.275000  1.0  -0.3882
  C  C1856  1  0.543600  0.745700  0.166700  1.0  -0.3932
  C  C1857  1  0.602400  0.789200  0.172000  1.0  0.2149
  C  C1858  1  0.637400  0.800990  0.192990  1.0  -0.1369
  C  C1859  1  0.687220  0.844000  0.187820  1.0  0.2009
  C  C1860  1  0.739000  0.872600  0.202400  1.0  -0.4123
  C  C1861  1  0.664100  0.481700  0.594800  1.0  -0.3996
  C  C1862  1  0.681400  0.476600  0.620000  1.0  0.2404
  C  C1863  1  0.718300  0.512600  0.648300  1.0  -0.1465
  C  C1864  1  0.718900  0.487200  0.662100  1.0  0.1664
  C  C1865  1  0.750100  0.505000  0.693300  1.0  -0.4001
  C  C1866  1  0.847800  0.635000  0.676200  1.0  -0.3901
  C  C1867  1  0.800600  0.615210  0.675410  1.0  0.2076
  C  C1868  1  0.745100  0.563060  0.663160  1.0  -0.1853
  C  C1869  1  0.719900  0.568300  0.669400  1.0  0.2197
  C  C1870  1  0.660600  0.524600  0.662800  1.0  -0.4028
  C  C1871  1  0.428200  0.141700  0.533500  1.0  -0.4215
  C  C1872  1  0.464700  0.197000  0.533900  1.0  0.2282
  C  C1873  1  0.457400  0.212000  0.511600  1.0  -0.1998
  C  C1874  1  0.502600  0.268700  0.524100  1.0  0.2406
  C  C1875  1  0.515600  0.306600  0.511200  1.0  -0.4459
  C  C1876  1  0.254600  0.846600  0.776200  1.0  -0.3873
  C  C1877  1  0.201760  0.819240  0.771000  1.0  0.1849
  C  C1878  1  0.174600  0.812000  0.746400  1.0  -0.165
  C  C1879  1  0.128100  0.784600  0.753900  1.0  0.2052
  C  C1880  1  0.083800  0.765900  0.737100  1.0  -0.3942
  C  C1881  1  0.207000  0.902100  0.730900  1.0  -0.3863
  C  C1882  1  0.205100  0.871700  0.713000  1.0  0.1839
  C  C1883  1  0.192300  0.833000  0.719700  1.0  -0.0903
  C  C1884  1  0.200450  0.820200  0.695850  1.0  0.2079
  C  C1885  1  0.192800  0.781900  0.690700  1.0  -0.3925
  C  C1886  1  0.187800  0.788100  0.954900  1.0  -0.4229
  C  C1887  1  0.214700  0.810600  0.929900  1.0  0.1286
  C  C1888  1  0.266700  0.845400  0.927900  1.0  -0.1912
  C  C1889  1  0.264900  0.846300  0.897400  1.0  0.203
  C  C1890  1  0.309800  0.876400  0.882400  1.0  -0.3752
  C  C1891  1  0.778100  0.890200  0.362500  1.0  -0.4028
  C  C1892  1  0.744700  0.836800  0.366100  1.0  0.1152
  C  C1893  1  0.756100  0.824400  0.386900  1.0  -0.142
  C  C1894  1  0.710400  0.767500  0.379100  1.0  0.1951
  C  C1895  1  0.698700  0.730600  0.392300  1.0  -0.3859
  C  C1896  1  0.589400  0.580500  0.322300  1.0  -0.3945
  C  C1897  1  0.570500  0.577300  0.291000  1.0  0.2324
  C  C1898  1  0.553500  0.547400  0.262700  1.0  -0.1888
  C  C1899  1  0.542790  0.560580  0.241970  1.0  0.1669
  C  C1900  1  0.524400  0.542300  0.207900  1.0  -0.4075
  C  C1901  1  0.551400  0.672300  0.181500  1.0  -0.4138
  C  C1902  1  0.588000  0.717300  0.210300  1.0  0.1932
  C  C1903  1  0.623320  0.771940  0.215860  1.0  -0.1173
  C  C1904  1  0.644700  0.793000  0.246900  1.0  0.216
  C  C1905  1  0.685800  0.849600  0.266200  1.0  -0.4004
  C  C1906  1  0.293900  0.770000  0.336500  1.0  -0.3948
  C  C1907  1  0.263200  0.760700  0.310300  1.0  0.1725
  C  C1908  1  0.264000  0.758800  0.279600  1.0  -0.1048
  C  C1909  1  0.227900  0.749900  0.265800  1.0  0.2144
  C  C1910  1  0.209900  0.741700  0.232800  1.0  -0.393
  C  C1911  1  0.038000  0.632000  0.206400  1.0  -0.394
  C  C1912  1  0.015250  0.618090  0.234140  1.0  0.2081
  C  C1913  1  0.962800  0.579000  0.235400  1.0  -0.1869
  C  C1914  1  0.967500  0.585900  0.267000  1.0  0.2319
  C  C1915  1  0.924000  0.554700  0.282500  1.0  -0.4057
  C  C1916  1  0.004900  0.597400  0.388300  1.0  -0.3784
  C  C1917  1  0.059400  0.629600  0.389600  1.0  0.178
  C  C1918  1  0.089800  0.635100  0.408300  1.0  -0.1693
  C  C1919  1  0.136600  0.670100  0.399100  1.0  0.2254
  C  C1920  1  0.185300  0.691900  0.411000  1.0  -0.3964
  C  C1921  1  0.544000  0.283800  0.119200  1.0  -0.409
  C  C1922  1  0.598700  0.337900  0.138400  1.0  0.1614
  C  C1923  1  0.616600  0.375300  0.161700  1.0  -0.1189
  C  C1924  1  0.673000  0.418000  0.172400  1.0  0.2148
  C  C1925  1  0.713800  0.469000  0.198600  1.0  -0.4015
  C  C1926  1  0.882200  0.566900  0.219100  1.0  -0.3887
  C  C1927  1  0.879400  0.534400  0.202800  1.0  0.2801
  C  C1928  1  0.913840  0.540400  0.209440  1.0  -0.0871
  C  C1929  1  0.890500  0.498500  0.186000  1.0  0.2116
  C  C1930  1  0.908500  0.482800  0.181700  1.0  -0.4028
  C  C1931  1  0.748900  0.300200  0.096100  1.0  -0.4117
  C  C1932  1  0.701500  0.280870  0.094170  1.0  0.2112
  C  C1933  1  0.647230  0.230460  0.079690  1.0  -0.1905
  C  C1934  1  0.622610  0.237100  0.084110  1.0  0.1267
  C  C1935  1  0.563700  0.197500  0.075200  1.0  -0.3755
  C  C1936  1  0.393700  0.287700  0.317800  1.0  -0.4138
  C  C1937  1  0.407600  0.273800  0.297800  1.0  0.1704
  C  C1938  1  0.391800  0.230600  0.295800  1.0  -0.1231
  C  C1939  1  0.416800  0.238100  0.274100  1.0  0.2049
  C  C1940  1  0.416200  0.206200  0.262200  1.0  -0.3742
  C  C1941  1  0.525100  0.285300  0.194800  1.0  -0.3978
  C  C1942  1  0.547400  0.333200  0.190000  1.0  0.2044
  C  C1943  1  0.585200  0.370600  0.174600  1.0  -0.1452
  C  C1944  1  0.592100  0.406700  0.179000  1.0  0.1923
  C  C1945  1  0.625600  0.454900  0.167500  1.0  -0.3972
  C  C1946  1  0.612400  0.548800  0.223800  1.0  -0.4178
  C  C1947  1  0.570000  0.509000  0.239200  1.0  0.201
  C  C1948  1  0.546600  0.509600  0.256000  1.0  -0.1837
  C  C1949  1  0.513500  0.464940  0.268040  1.0  0.1458
  C  C1950  1  0.476900  0.443000  0.288500  1.0  -0.3674
  C  C1951  1  0.328100  0.114400  0.501100  1.0  -0.3986
  C  C1952  1  0.360000  0.136200  0.477600  1.0  0.2048
  C  C1953  1  0.414000  0.176300  0.482300  1.0  -0.0852
  C  C1954  1  0.422900  0.181400  0.453700  1.0  0.1698
  C  C1955  1  0.474000  0.219000  0.444400  1.0  -0.3856
  C  C1956  1  0.435900  0.220500  0.343400  1.0  -0.3984
  C  C1957  1  0.381800  0.187600  0.334000  1.0  0.2004
  C  C1958  1  0.360400  0.190100  0.312900  1.0  -0.1739
  C  C1959  1  0.306600  0.149400  0.313600  1.0  0.2087
  C  C1960  1  0.264400  0.133800  0.296000  1.0  -0.429
  C  C1961  1  0.126500  0.033100  0.357200  1.0  -0.406
  C  C1962  1  0.144100  0.027600  0.382300  1.0  0.2257
  C  C1963  1  0.131300  0.017600  0.410100  1.0  -0.181
  C  C1964  1  0.159600  0.017800  0.424400  1.0  0.2238
  C  C1965  1  0.160500  0.007800  0.454500  1.0  -0.4032
  C  C1966  1  0.561900  0.149700  0.011200  1.0  -0.3809
  C  C1967  1  0.578800  0.143000  0.035600  1.0  0.1742
  C  C1968  1  0.618120  0.179290  0.064210  1.0  -0.1559
  C  C1969  1  0.617100  0.152140  0.076640  1.0  0.2123
  C  C1970  1  0.649300  0.169200  0.107100  1.0  -0.382
  C  C1971  1  0.556100  0.006000  0.129500  1.0  -0.3878
  C  C1972  1  0.506200  0.958300  0.103100  1.0  0.1977
  C  C1973  1  0.460240  0.901840  0.101080  1.0  -0.1741
  C  C1974  1  0.426800  0.876400  0.071800  1.0  0.1962
  C  C1975  1  0.371200  0.816400  0.056800  1.0  -0.41
  C  C1976  1  0.280100  0.800100  0.969800  1.0  -0.3959
  C  C1977  1  0.319400  0.856700  0.970100  1.0  0.191
  C  C1978  1  0.314000  0.876100  0.952100  1.0  -0.1564
  C  C1979  1  0.364400  0.931150  0.960750  1.0  0.2028
  C  C1980  1  0.384400  0.975600  0.951000  1.0  -0.3876
  C  C1981  1  0.942400  0.329000  0.502600  1.0  -0.4399
  C  C1982  1  0.931500  0.339800  0.476700  1.0  0.239
  C  C1983  1  0.901400  0.309500  0.446900  1.0  -0.1691
  C  C1984  1  0.906500  0.339700  0.432800  1.0  0.193
  C  C1985  1  0.883700  0.328400  0.401900  1.0  -0.4196
  C  C1986  1  0.085000  0.481000  0.976600  1.0  -0.4043
  C  C1987  1  0.101700  0.525800  0.978700  1.0  0.2155
  C  C1988  1  0.141100  0.571800  0.968100  1.0  -0.2056
  C  C1989  1  0.138700  0.599500  0.977400  1.0  0.183
  C  C1990  1  0.170000  0.651700  0.971700  1.0  -0.4158
  C  C1991  1  0.201500  0.673100  0.577000  1.0  -0.4034
  C  C1992  1  0.167500  0.618000  0.572900  1.0  0.1828
  C  C1993  1  0.175100  0.599300  0.587800  1.0  -0.1622
  C  C1994  1  0.130400  0.543800  0.572000  1.0  0.1785
  C  C1995  1  0.116000  0.500900  0.577900  1.0  -0.3817
  C  C1996  1  0.841980  0.947000  0.126580  1.0  -0.404
  C  C1997  1  0.815370  0.941430  0.100800  1.0  0.1926
  C  C1998  1  0.824590  0.950500  0.072090  1.0  -0.2073
  C  C1999  1  0.787500  0.940420  0.058320  1.0  0.164
  C  C2000  1  0.776600  0.942000  0.026400  1.0  -0.3893
  C  C2001  1  0.606300  0.847700  0.002400  1.0  -0.4037
  C  C2002  1  0.582280  0.829900  0.028580  1.0  0.1883
  C  C2003  1  0.530600  0.795190  0.029790  1.0  -0.0942
  C  C2004  1  0.531100  0.793300  0.060600  1.0  0.1741
  C  C2005  1  0.488100  0.763100  0.076600  1.0  -0.3885
  C  C2006  1  0.876900  0.043600  0.297900  1.0  -0.3946
  C  C2007  1  0.930400  0.102400  0.313200  1.0  0.2129
  C  C2008  1  0.944410  0.137400  0.336410  1.0  -0.1368
  C  C2009  1  0.999400  0.187220  0.343220  1.0  0.1999
  C  C2010  1  0.036600  0.239000  0.366400  1.0  -0.4129
  C  C2011  1  0.569300  0.164100  0.682400  1.0  -0.3998
  C  C2012  1  0.561400  0.181400  0.704800  1.0  0.2427
  C  C2013  1  0.570000  0.218300  0.705700  1.0  -0.1472
  C  C2014  1  0.556800  0.218900  0.731700  1.0  0.1659
  C  C2015  1  0.556800  0.250100  0.745100  1.0  -0.3967
  C  C2016  1  0.671600  0.347800  0.712800  1.0  -0.3894
  C  C2017  1  0.625190  0.300600  0.685390  1.0  0.2087
  C  C2018  1  0.581940  0.245100  0.682040  1.0  -0.1883
  C  C2019  1  0.550500  0.219900  0.651600  1.0  0.2203
  C  C2020  1  0.497800  0.160600  0.636000  1.0  -0.4039
  C  C2021  1  0.394700  0.928200  0.786500  1.0  -0.4219
  C  C2022  1  0.430800  0.964700  0.767700  1.0  0.2297
  C  C2023  1  0.445800  0.957400  0.745400  1.0  -0.1988
  C  C2024  1  0.478500  0.002600  0.733900  1.0  0.2377
  C  C2025  1  0.504400  0.015600  0.709000  1.0  -0.4449
  C  C2026  1  0.978400  0.754600  0.908000  1.0  -0.385
  C  C2027  1  0.930760  0.701760  0.882520  1.0  0.1855
  C  C2028  1  0.928200  0.674600  0.862600  1.0  -0.1662
  C  C2029  1  0.874200  0.628100  0.843500  1.0  0.2061
  C  C2030  1  0.846700  0.583800  0.817900  1.0  -0.3953
  C  C2031  1  0.976100  0.707000  0.804900  1.0  -0.3857
  C  C2032  1  0.992100  0.705100  0.833400  1.0  0.1843
  C  C2033  1  0.972600  0.692300  0.859300  1.0  -0.0909
  C  C2034  1  0.004600  0.700450  0.880250  1.0  0.2083
  C  C2035  1  0.002100  0.692800  0.910900  1.0  -0.3944
  C  C2036  1  0.732900  0.687800  0.899700  1.0  -0.424
  C  C2037  1  0.784800  0.714700  0.904100  1.0  0.1306
  C  C2038  1  0.838800  0.766700  0.921300  1.0  -0.192
  C  C2039  1  0.867500  0.764900  0.918600  1.0  0.2049
  C  C2040  1  0.927400  0.809800  0.933400  1.0  -0.3745
  C  C2041  1  0.915600  0.278100  0.387900  1.0  -0.4034
  C  C2042  1  0.878600  0.244700  0.407900  1.0  0.1142
  C  C2043  1  0.869200  0.256100  0.431700  1.0  -0.1438
  C  C2044  1  0.831300  0.210400  0.442900  1.0  0.1958
  C  C2045  1  0.806400  0.198700  0.468100  1.0  -0.387
  C  C2046  1  0.767100  0.089400  0.508900  1.0  -0.3923
  C  C2047  1  0.779500  0.070500  0.493200  1.0  0.2354
  C  C2048  1  0.790800  0.053500  0.506100  1.0  -0.1902
  C  C2049  1  0.800820  0.042790  0.482210  1.0  0.1667
  C  C2050  1  0.816500  0.024400  0.482100  1.0  -0.4077
  C  C2051  1  0.869900  0.051400  0.379100  1.0  -0.4138
  C  C2052  1  0.877700  0.088000  0.370700  1.0  0.1923
  C  C2053  1  0.907460  0.123320  0.351380  1.0  -0.1173
  C  C2054  1  0.897800  0.144700  0.351700  1.0  0.2177
  C  C2055  1  0.919600  0.185800  0.336200  1.0  -0.3991
  C  C2056  1  0.457400  0.793900  0.023900  1.0  -0.3921
  C  C2057  1  0.452900  0.763200  0.002500  1.0  0.1748
  C  C2058  1  0.484400  0.764000  0.005200  1.0  -0.1075
  C  C2059  1  0.462100  0.727900  0.978000  1.0  0.2143
  C  C2060  1  0.477100  0.709900  0.968200  1.0  -0.3876
  C  C2061  1  0.331600  0.538000  0.906000  1.0  -0.3917
  C  C2062  1  0.281110  0.515250  0.897160  1.0  0.2054
  C  C2063  1  0.227400  0.462800  0.883800  1.0  -0.1872
  C  C2064  1  0.200500  0.467500  0.881600  1.0  0.2312
  C  C2065  1  0.141500  0.424000  0.869300  1.0  -0.4056
  C  C2066  1  0.116600  0.504900  0.907500  1.0  -0.3826
  C  C2067  1  0.169800  0.559400  0.929800  1.0  0.1766
  C  C2068  1  0.181500  0.589800  0.954700  1.0  -0.1683
  C  C2069  1  0.237500  0.636600  0.966500  1.0  0.2256
  C  C2070  1  0.274300  0.685300  0.993400  1.0  -0.3965
  C  C2071  1  0.924800  0.044000  0.760200  1.0  -0.4068
  C  C2072  1  0.960300  0.098700  0.760800  1.0  0.1627
  C  C2073  1  0.954900  0.116600  0.741300  1.0  -0.1191
  C  C2074  1  0.000600  0.173000  0.755000  1.0  0.2146
  C  C2075  1  0.015200  0.213800  0.744800  1.0  -0.3991
  C  C2076  1  0.163100  0.382200  0.815300  1.0  -0.391
  C  C2077  1  0.176600  0.379400  0.845000  1.0  0.2803
  C  C2078  1  0.204400  0.413840  0.873440  1.0  -0.0863
  C  C2079  1  0.204500  0.390500  0.892000  1.0  0.2122
  C  C2080  1  0.226800  0.408500  0.925700  1.0  -0.4086
  C  C2081  1  0.152800  0.248900  0.948700  1.0  -0.4103
  C  C2082  1  0.107330  0.201500  0.920630  1.0  0.2138
  C  C2083  1  0.067540  0.147230  0.916770  1.0  -0.1923
  C  C2084  1  0.038500  0.122610  0.885510  1.0  0.1261
  C  C2085  1  0.988500  0.063700  0.866200  1.0  -0.3771
  C  C2086  1  0.575900  0.893700  0.606000  1.0  -0.4155
  C  C2087  1  0.609800  0.907600  0.633800  1.0  0.1703
  C  C2088  1  0.596000  0.891800  0.661200  1.0  -0.1224
  C  C2089  1  0.642700  0.916800  0.678700  1.0  0.2053
  C  C2090  1  0.654000  0.916200  0.710000  1.0  -0.3777
  C  C2091  1  0.830300  0.025100  0.739800  1.0  -0.3981
  C  C2092  1  0.857400  0.047400  0.714200  1.0  0.2034
  C  C2093  1  0.910600  0.085200  0.714600  1.0  -0.1471
  C  C2094  1  0.913100  0.092100  0.685400  1.0  0.1902
  C  C2095  1  0.958100  0.125600  0.670700  1.0  -0.3998
  C  C2096  1  0.888600  0.112400  0.563600  1.0  -0.4202
  C  C2097  1  0.830800  0.070000  0.561000  1.0  0.2057
  C  C2098  1  0.790600  0.046600  0.537000  1.0  -0.1831
  C  C2099  1  0.745460  0.013500  0.548560  1.0  0.1492
  C  C2100  1  0.688400  0.976900  0.533900  1.0  -0.368
  C  C2101  1  0.327000  0.828100  0.713700  1.0  -0.3972
  C  C2102  1  0.382400  0.860000  0.723800  1.0  0.2019
  C  C2103  1  0.431700  0.914000  0.737700  1.0  -0.0845
  C  C2104  1  0.469200  0.922900  0.741500  1.0  0.1691
  C  C2105  1  0.529600  0.974000  0.755000  1.0  -0.3868
  C  C2106  1  0.592500  0.935900  0.715400  1.0  -0.395
  C  C2107  1  0.547800  0.881800  0.694200  1.0  0.1997
  C  C2108  1  0.547500  0.860400  0.670300  1.0  -0.1726
  C  C2109  1  0.493000  0.806600  0.657200  1.0  0.2102
  C  C2110  1  0.468400  0.764400  0.630600  1.0  -0.4296
  C  C2111  1  0.269300  0.626500  0.593400  1.0  -0.4075
  C  C2112  1  0.261800  0.644100  0.616500  1.0  0.2291
  C  C2113  1  0.221200  0.631300  0.613700  1.0  -0.1809
  C  C2114  1  0.235200  0.659600  0.641800  1.0  0.2225
  C  C2115  1  0.206000  0.660500  0.652700  1.0  -0.4006
  C  C2116  1  0.050700  0.061900  0.912200  1.0  -0.3825
  C  C2117  1  0.043200  0.078800  0.935800  1.0  0.1759
  C  C2118  1  0.053910  0.118120  0.938830  1.0  -0.1561
  C  C2119  1  0.040460  0.117100  0.964960  1.0  0.2141
  C  C2120  1  0.042200  0.149300  0.980100  1.0  -0.3798
  C  C2121  1  0.926600  0.056100  0.050100  1.0  -0.3869
  C  C2122  1  0.903100  0.006200  0.047900  1.0  0.1955
  C  C2123  1  0.859160  0.960240  0.058400  1.0  -0.174
  C  C2124  1  0.855000  0.926800  0.050400  1.0  0.1949
  C  C2125  1  0.814400  0.871200  0.054800  1.0  -0.4105
  C  C2126  1  0.810300  0.780100  0.980000  1.0  -0.3951
  C  C2127  1  0.849300  0.819400  0.962700  1.0  0.1874
  C  C2128  1  0.861900  0.814000  0.937900  1.0  -0.1529
  C  C2129  1  0.903650  0.864400  0.933250  1.0  0.2002
  C  C2130  1  0.933400  0.884400  0.908800  1.0  -0.3882
  C  C2131  1  0.326400  0.439800  0.997400  1.0  -0.4356
  C  C2132  1  0.363100  0.454800  0.023300  1.0  0.2371
  C  C2133  1  0.362600  0.454500  0.053100  1.0  -0.1696
  C  C2134  1  0.406900  0.473700  0.067200  1.0  0.1921
  C  C2135  1  0.426500  0.481800  0.098100  1.0  -0.4211
  C  C2136  1  0.004400  0.108400  0.523400  1.0  -0.402
  C  C2137  1  0.047100  0.123000  0.521300  1.0  0.2148
  C  C2138  1  0.103700  0.173000  0.531900  1.0  -0.2027
  C  C2139  1  0.122100  0.161300  0.522600  1.0  0.1816
  C  C2140  1  0.180000  0.198300  0.528300  1.0  -0.4169
  C  C2141  1  0.596100  0.624500  0.923000  1.0  -0.401
  C  C2142  1  0.545100  0.594600  0.927100  1.0  0.1845
  C  C2143  1  0.511500  0.587300  0.912200  1.0  -0.1636
  C  C2144  1  0.471800  0.558400  0.928000  1.0  0.1746
  C  C2145  1  0.423000  0.538100  0.922100  1.0  -0.3777
  C  C2146  1  0.320420  0.715400  0.373420  1.0  -0.4031
  C  C2147  1  0.340630  0.714570  0.399200  1.0  0.1927
  C  C2148  1  0.378410  0.752500  0.427910  1.0  -0.2067
  C  C2149  1  0.382100  0.729180  0.441680  1.0  0.1629
  C  C2150  1  0.415600  0.750200  0.473600  1.0  -0.3867
  C  C2151  1  0.345300  0.603900  0.497600  1.0  -0.3976
  C  C2152  1  0.301320  0.553700  0.471420  1.0  0.1889
  C  C2153  1  0.265400  0.500810  0.470210  1.0  -0.0937
  C  C2154  1  0.232700  0.470500  0.439400  1.0  0.1738
  C  C2155  1  0.186500  0.411500  0.423400  1.0  -0.3874
  C  C2156  1  0.245700  0.579000  0.202100  1.0  -0.3943
  C  C2157  1  0.289200  0.617200  0.186800  1.0  0.2139
  C  C2158  1  0.300990  0.608000  0.163590  1.0  -0.1369
  C  C2159  1  0.344000  0.656180  0.156780  1.0  0.2006
  C  C2160  1  0.372600  0.670200  0.133600  1.0  -0.4135
  C  C2161  1  0.981700  0.886900  0.817600  1.0  -0.3999
  C  C2162  1  0.976600  0.856600  0.795200  1.0  0.2428
  C  C2163  1  0.012600  0.864300  0.794300  1.0  -0.149
  C  C2164  1  0.987200  0.825100  0.768300  1.0  0.1661
  C  C2165  1  0.005000  0.811700  0.754900  1.0  -0.3956
  C  C2166  1  0.135000  0.958800  0.787200  1.0  -0.3943
  C  C2167  1  0.115210  0.939800  0.814610  1.0  0.2087
  C  C2168  1  0.063060  0.899900  0.817960  1.0  -0.1879
  C  C2169  1  0.068300  0.898900  0.848400  1.0  0.2197
  C  C2170  1  0.024600  0.861800  0.864000  1.0  -0.4026
  C  C2171  1  0.641700  0.608200  0.713500  1.0  -0.4238
  C  C2172  1  0.697000  0.663100  0.732300  1.0  0.2277
  C  C2173  1  0.712000  0.700400  0.754600  1.0  -0.2007
  C  C2174  1  0.768700  0.744600  0.766100  1.0  0.239
  C  C2175  1  0.806600  0.795400  0.791000  1.0  -0.4425
  C  C2176  1  0.346600  0.070400  0.592000  1.0  -0.3879
  C  C2177  1  0.319240  0.048240  0.617480  1.0  0.1841
  C  C2178  1  0.312000  0.065600  0.637400  1.0  -0.1656
  C  C2179  1  0.284600  0.030700  0.656500  1.0  0.2052
  C  C2180  1  0.265900  0.028800  0.682100  1.0  -0.3986
  C  C2181  1  0.402100  0.171200  0.695100  1.0  -0.3884
  C  C2182  1  0.371700  0.158700  0.666667  1.0  0.1854
  C  C2183  1  0.333000  0.113300  0.640700  1.0  -0.087
  C  C2184  1  0.320200  0.124350  0.619750  1.0  0.2079
  C  C2185  1  0.281900  0.091200  0.589100  1.0  -0.3911
  C  C2186  1  0.288100  0.833200  0.600300  1.0  -0.4249
  C  C2187  1  0.310600  0.880700  0.595900  1.0  0.1315
  C  C2188  1  0.345400  0.917500  0.578700  1.0  -0.1918
  C  C2189  1  0.346300  0.948900  0.581400  1.0  0.2043
  C  C2190  1  0.376400  0.994000  0.566600  1.0  -0.3745
  C  C2191  1  0.390200  0.527700  0.112100  1.0  -0.4013
  C  C2192  1  0.336800  0.470700  0.092100  1.0  0.1148
  C  C2193  1  0.324400  0.437500  0.068300  1.0  -0.1443
  C  C2194  1  0.267500  0.388400  0.057100  1.0  0.1951
  C  C2195  1  0.230600  0.338300  0.031900  1.0  -0.387
  C  C2196  1  0.080500  0.258200  0.991100  1.0  -0.3908
  C  C2197  1  0.077300  0.286300  0.006800  1.0  0.2324
  C  C2198  1  0.047400  0.284700  0.993900  1.0  -0.1892
  C  C2199  1  0.060580  0.318610  0.017790  1.0  0.1669
  C  C2200  1  0.042300  0.334400  0.017900  1.0  -0.4074
  C  C2201  1  0.172300  0.490800  0.120900  1.0  -0.4115
  C  C2202  1  0.217300  0.507000  0.129300  1.0  0.1919
  C  C2203  1  0.271940  0.556080  0.148620  1.0  -0.1179
  C  C2204  1  0.293000  0.546100  0.148300  1.0  0.218
  C  C2205  1  0.349600  0.583400  0.163800  1.0  -0.3998
  C  C2206  1  0.270000  0.433500  0.476100  1.0  -0.3936
  C  C2207  1  0.260700  0.450400  0.497500  1.0  0.175
  C  C2208  1  0.258800  0.479200  0.494800  1.0  -0.1038
  C  C2209  1  0.249900  0.484100  0.522000  1.0  0.2123
  C  C2210  1  0.241700  0.508900  0.531800  1.0  -0.3884
  C  C2211  1  0.132000  0.425600  0.594000  1.0  -0.3905
  C  C2212  1  0.118090  0.383950  0.602840  1.0  0.2043
  C  C2213  1  0.079000  0.343600  0.616200  1.0  -0.1865
  C  C2214  1  0.085900  0.318900  0.618400  1.0  0.2328
  C  C2215  1  0.054700  0.272200  0.630700  1.0  -0.4056
  C  C2216  1  0.097400  0.209100  0.592500  1.0  -0.3835
  C  C2217  1  0.129600  0.240000  0.570200  1.0  0.1788
  C  C2218  1  0.135100  0.226800  0.545300  1.0  -0.168
  C  C2219  1  0.170100  0.271000  0.533500  1.0  0.2271
  C  C2220  1  0.191900  0.280900  0.506600  1.0  -0.3965
  C  C2221  1  0.783800  0.164600  0.739800  1.0  -0.4047
  C  C2222  1  0.837900  0.199500  0.739200  1.0  0.1621
  C  C2223  1  0.875300  0.213600  0.758700  1.0  -0.1193
  C  C2224  1  0.918000  0.245600  0.745000  1.0  0.2136
  C  C2225  1  0.969000  0.270400  0.755200  1.0  -0.4
  C  C2226  1  0.066900  0.347800  0.684700  1.0  -0.3921
  C  C2227  1  0.034400  0.331600  0.655000  1.0  0.278
  C  C2228  1  0.040400  0.330960  0.626560  1.0  -0.0867
  C  C2229  1  0.998500  0.312500  0.608000  1.0  0.2122
  C  C2230  1  0.982800  0.301100  0.574300  1.0  -0.4079
  C  C2231  1  0.800200  0.204100  0.551300  1.0  -0.4152
  C  C2232  1  0.780870  0.186700  0.579370  1.0  0.2136
  C  C2233  1  0.730460  0.150770  0.583230  1.0  -0.1914
  C  C2234  1  0.737100  0.152990  0.614490  1.0  0.1241
  C  C2235  1  0.697500  0.122300  0.633800  1.0  -0.3772
  C  C2236  1  0.787700  0.969900  0.894000  1.0  -0.4172
  C  C2237  1  0.773800  0.976000  0.866200  1.0  0.1727
  C  C2238  1  0.730600  0.934800  0.838800  1.0  -0.1224
  C  C2239  1  0.738100  0.964000  0.821300  1.0  0.2039
  C  C2240  1  0.706200  0.944000  0.790000  1.0  -0.3749
  C  C2241  1  0.785300  0.090500  0.760200  1.0  -0.3973
  C  C2242  1  0.833200  0.143200  0.785800  1.0  0.2048
  C  C2243  1  0.870600  0.196000  0.785400  1.0  -0.1465
  C  C2244  1  0.906700  0.227700  0.814600  1.0  0.1908
  C  C2245  1  0.954900  0.287400  0.829300  1.0  -0.399
  C  C2246  1  0.048800  0.325000  0.936400  1.0  -0.4215
  C  C2247  1  0.009000  0.269800  0.939000  1.0  0.2042
  C  C2248  1  0.009600  0.253600  0.963000  1.0  -0.1825
  C  C2249  1  0.964940  0.196900  0.951440  1.0  0.1508
  C  C2250  1  0.943000  0.154500  0.966100  1.0  -0.367
  C  C2251  1  0.614400  0.613300  0.786300  1.0  -0.4001
  C  C2252  1  0.636200  0.658600  0.776200  1.0  0.2057
  C  C2253  1  0.676300  0.694000  0.762300  1.0  -0.086
  C  C2254  1  0.681400  0.727700  0.758500  1.0  0.1699
  C  C2255  1  0.719000  0.774600  0.745000  1.0  -0.3843
  C  C2256  1  0.720500  0.877100  0.784600  1.0  -0.3986
  C  C2257  1  0.687600  0.853600  0.805800  1.0  0.2001
  C  C2258  1  0.690100  0.877200  0.829700  1.0  -0.1733
  C  C2259  1  0.649400  0.835800  0.842800  1.0  0.2083
  C  C2260  1  0.633800  0.837800  0.869400  1.0  -0.4313
  C  C2261  1  0.533100  0.675900  0.906600  1.0  -0.4095
  C  C2262  1  0.527600  0.645300  0.883500  1.0  0.2312
  C  C2263  1  0.517600  0.607500  0.886300  1.0  -0.1815
  C  C2264  1  0.517800  0.593400  0.858200  1.0  0.2235
  C  C2265  1  0.507800  0.553300  0.847300  1.0  -0.4019
  C  C2266  1  0.649700  0.138500  0.587800  1.0  -0.3805
  C  C2267  1  0.643000  0.107400  0.564200  1.0  0.1756
  C  C2268  1  0.679290  0.115080  0.561170  1.0  -0.1572
  C  C2269  1  0.652140  0.075500  0.535040  1.0  0.2137
  C  C2270  1  0.669200  0.062100  0.519900  1.0  -0.3811
  C  C2271  1  0.506000  0.876500  0.449900  1.0  -0.3868
  C  C2272  1  0.458300  0.855200  0.452100  1.0  0.1953
  C  C2273  1  0.401840  0.800760  0.441600  1.0  -0.1746
  C  C2274  1  0.376400  0.804600  0.449600  1.0  0.1945
  C  C2275  1  0.316400  0.759600  0.445200  1.0  -0.4111
  C  C2276  1  0.300100  0.830300  0.520000  1.0  -0.3946
  C  C2277  1  0.356700  0.886600  0.537300  1.0  0.1869
  C  C2278  1  0.376100  0.924000  0.562100  1.0  -0.1536
  C  C2279  1  0.431150  0.970400  0.566750  1.0  0.2005
  C  C2280  1  0.475600  0.024600  0.591200  1.0  -0.389
  C  C2281  1  0.060200  0.557600  0.886600  1.0  -0.4367
  C  C2282  1  0.045200  0.568500  0.908300  1.0  0.2379
  C  C2283  1  0.045500  0.598600  0.908100  1.0  -0.1695
  C  C2284  1  0.026300  0.593500  0.933200  1.0  0.1899
  C  C2285  1  0.018200  0.616300  0.944700  1.0  -0.4182
  C  C2286  1  0.391600  0.415000  0.896000  1.0  -0.4066
  C  C2287  1  0.377000  0.398300  0.924100  1.0  0.2149
  C  C2288  1  0.327000  0.358900  0.930700  1.0  -0.2064
  C  C2289  1  0.338700  0.361300  0.960800  1.0  0.1814
  C  C2290  1  0.301700  0.330000  0.981700  1.0  -0.4169
  C  C2291  1  0.875500  0.298500  0.971600  1.0  -0.3987
  C  C2292  1  0.905400  0.332500  0.950500  1.0  0.183
  C  C2293  1  0.912700  0.324900  0.924200  1.0  -0.1645
  C  C2294  1  0.941600  0.369600  0.913400  1.0  0.1787
  C  C2295  1  0.961900  0.384000  0.884900  1.0  -0.3829
  C  C2296  1  0.784600  0.658020  0.605020  1.0  -0.4035
  C  C2297  1  0.785430  0.684630  0.626060  1.0  0.1942
  C  C2298  1  0.747500  0.675410  0.625910  1.0  -0.2071
  C  C2299  1  0.770820  0.712500  0.652920  1.0  0.1622
  C  C2300  1  0.749800  0.723400  0.665400  1.0  -0.3831
  C  C2301  1  0.896100  0.893700  0.741400  1.0  -0.3974
  C  C2302  1  0.946300  0.917720  0.747620  1.0  0.1876
  C  C2303  1  0.999190  0.969400  0.764590  1.0  -0.0917
  C  C2304  1  0.029500  0.968900  0.762200  1.0  0.1742
  C  C2305  1  0.088500  0.011900  0.775000  1.0  -0.3882
  C  C2306  1  0.921000  0.623100  0.666667  1.0  -0.3993
  C  C2307  1  0.882800  0.569600  0.672000  1.0  0.2126
  C  C2308  1  0.892000  0.555590  0.692990  1.0  -0.136
  C  C2309  1  0.843820  0.500600  0.687820  1.0  0.2014
  C  C2310  1  0.829800  0.463400  0.702400  1.0  -0.4114
  C  C2311  1  0.613100  0.930700  0.094800  1.0  -0.4006
  C  C2312  1  0.643400  0.938600  0.120000  1.0  0.2409
  C  C2313  1  0.635700  0.930000  0.148300  1.0  -0.147
  C  C2314  1  0.674900  0.943200  0.162100  1.0  0.1662
  C  C2315  1  0.688300  0.943200  0.193300  1.0  -0.3999
  C  C2316  1  0.541200  0.828400  0.176200  1.0  -0.3928
  C  C2317  1  0.560200  0.874810  0.175410  1.0  0.2076
  C  C2318  1  0.600100  0.918060  0.163160  1.0  -0.1856
  C  C2319  1  0.601100  0.949500  0.169400  1.0  0.22
  C  C2320  1  0.638200  0.002200  0.162800  1.0  -0.4028
  C  C2321  1  0.891800  0.105300  0.033500  1.0  -0.4216
  C  C2322  1  0.836900  0.069200  0.033900  1.0  0.228
  C  C2323  1  0.799600  0.054200  0.011600  1.0  -0.1998
  C  C2324  1  0.755400  0.021500  0.024100  1.0  0.2391
  C  C2325  1  0.704600  0.995600  0.011200  1.0  -0.4483
  C  C2326  1  0.429600  0.521600  0.276200  1.0  -0.3881
  C  C2327  1  0.451760  0.569240  0.271000  1.0  0.1861
  C  C2328  1  0.434400  0.571800  0.246400  1.0  -0.1657
  C  C2329  1  0.469300  0.625800  0.253900  1.0  0.2056
  C  C2330  1  0.471200  0.653300  0.237100  1.0  -0.3919
  C  C2331  1  0.328800  0.523900  0.230900  1.0  -0.3869
  C  C2332  1  0.341300  0.507900  0.213000  1.0  0.1834
  C  C2333  1  0.386700  0.527400  0.219700  1.0  -0.0901
  C  C2334  1  0.375650  0.495400  0.195850  1.0  0.2074
  C  C2335  1  0.408800  0.497900  0.190700  1.0  -0.3907
  C  C2336  1  0.666800  0.767100  0.454900  1.0  -0.4207
  C  C2337  1  0.619300  0.715200  0.429900  1.0  0.1312
  C  C2338  1  0.582500  0.661200  0.427900  1.0  -0.1911
  C  C2339  1  0.551100  0.632500  0.397400  1.0  0.2042
  C  C2340  1  0.506000  0.572600  0.382400  1.0  -0.376
  C  C2341  1  0.972300  0.584400  0.862500  1.0  -0.4032
  C  C2342  1  0.029300  0.621400  0.866100  1.0  0.1152
  C  C2343  1  0.062500  0.630800  0.886900  1.0  -0.1442
  C  C2344  1  0.111600  0.668700  0.879100  1.0  0.1951
  C  C2345  1  0.161700  0.693600  0.892300  1.0  -0.3865
  C  C2346  1  0.241800  0.732900  0.822300  1.0  -0.3932
  C  C2347  1  0.213700  0.720500  0.791000  1.0  0.2305
  C  C2348  1  0.215300  0.709200  0.762700  1.0  -0.1905
  C  C2349  1  0.181390  0.699180  0.741970  1.0  0.1673
  C  C2350  1  0.165600  0.683500  0.707900  1.0  -0.4087
  C  C2351  1  0.009200  0.630100  0.681500  1.0  -0.4164
  C  C2352  1  0.993000  0.622300  0.710300  1.0  0.1937
  C  C2353  1  0.943920  0.592540  0.715860  1.0  -0.1177
  C  C2354  1  0.953900  0.602200  0.746900  1.0  0.2175
  C  C2355  1  0.916600  0.580400  0.766200  1.0  -0.4013
  C  C2356  1  0.066500  0.042600  0.836500  1.0  -0.3922
  C  C2357  1  0.049600  0.047100  0.810300  1.0  0.1741
  C  C2358  1  0.020800  0.015600  0.779600  1.0  -0.1072
  C  C2359  1  0.015900  0.037900  0.765800  1.0  0.2158
  C  C2360  1  0.991100  0.022900  0.732800  1.0  -0.3935
  C  C2361  1  0.074400  0.168400  0.706400  1.0  -0.3897
  C  C2362  1  0.116050  0.218890  0.734140  1.0  0.2087
  C  C2363  1  0.156400  0.272600  0.735400  1.0  -0.1865
  C  C2364  1  0.181100  0.299500  0.767000  1.0  0.2329
  C  C2365  1  0.227800  0.358500  0.782500  1.0  -0.4038
  C  C2366  1  0.290900  0.383400  0.888300  1.0  -0.381
  C  C2367  1  0.260000  0.330200  0.889600  1.0  0.177
  C  C2368  1  0.273200  0.318500  0.908300  1.0  -0.1657
  C  C2369  1  0.229000  0.262500  0.899100  1.0  0.2274
  C  C2370  1  0.219100  0.225700  0.911000  1.0  -0.3984
  C  C2371  1  0.335400  0.575200  0.619200  1.0  -0.4078
  C  C2372  1  0.300500  0.539700  0.638400  1.0  0.1626
  C  C2373  1  0.286400  0.545100  0.661700  1.0  -0.1188
  C  C2374  1  0.254400  0.499400  0.672400  1.0  0.2145
  C  C2375  1  0.229600  0.484800  0.698600  1.0  -0.404
  C  C2376  1  0.152200  0.336900  0.719100  1.0  -0.3875
  C  C2377  1  0.168400  0.323400  0.702800  1.0  0.2807
  C  C2378  1  0.169040  0.295600  0.709440  1.0  -0.0865
  C  C2379  1  0.187500  0.295500  0.686000  1.0  0.2118
  C  C2380  1  0.198900  0.273200  0.681700  1.0  -0.4048
  C  C2381  1  0.295900  0.347200  0.596100  1.0  -0.411
  C  C2382  1  0.313300  0.392670  0.594170  1.0  0.2119
  C  C2383  1  0.349230  0.432460  0.579690  1.0  -0.1901
  C  C2384  1  0.347010  0.461500  0.584110  1.0  0.1263
  C  C2385  1  0.377700  0.511500  0.575200  1.0  -0.3769
  C  C2386  1  0.530100  0.924100  0.817800  1.0  -0.414
  C  C2387  1  0.524000  0.890200  0.797800  1.0  0.1693
  C  C2388  1  0.565200  0.904000  0.795800  1.0  -0.1251
  C  C2389  1  0.536000  0.857300  0.774100  1.0  0.203
  C  C2390  1  0.556000  0.846000  0.762200  1.0  -0.3752
  C  C2391  1  0.409500  0.669700  0.694800  1.0  -0.3964
  C  C2392  1  0.356800  0.642600  0.690000  1.0  0.2047
  C  C2393  1  0.304000  0.589400  0.674600  1.0  -0.1464
  C  C2394  1  0.272300  0.586900  0.679000  1.0  0.1925
  C  C2395  1  0.212600  0.541900  0.667500  1.0  -0.3959
  C  C2396  1  0.175000  0.611400  0.723800  1.0  -0.4217
  C  C2397  1  0.230200  0.669200  0.739200  1.0  0.2031
  C  C2398  1  0.246400  0.709400  0.756000  1.0  -0.1834
  C  C2399  1  0.303100  0.754540  0.768040  1.0  0.1484
  C  C2400  1  0.345500  0.811600  0.788500  1.0  -0.3655
  C  C2401  1  0.886700  0.173000  0.001100  1.0  -0.3987
  C  C2402  1  0.841400  0.117600  0.977600  1.0  0.2039
  C  C2403  1  0.806000  0.068300  0.982300  1.0  -0.0864
  C  C2404  1  0.772300  0.030800  0.953700  1.0  0.1714
  C  C2405  1  0.725400  0.970400  0.944400  1.0  -0.3881
  C  C2406  1  0.622900  0.907500  0.843400  1.0  -0.3985
  C  C2407  1  0.646400  0.952200  0.834000  1.0  0.2012
  C  C2408  1  0.622800  0.952500  0.812900  1.0  -0.175
  C  C2409  1  0.664200  0.007000  0.813600  1.0  0.2081
  C  C2410  1  0.662200  0.031600  0.796000  1.0  -0.4288
  C  C2411  1  0.824100  0.230700  0.857200  1.0  -0.4067
  C  C2412  1  0.854700  0.238200  0.882300  1.0  0.2263
  C  C2413  1  0.892500  0.278800  0.910100  1.0  -0.1818
  C  C2414  1  0.906600  0.264800  0.924400  1.0  0.2251
  C  C2415  1  0.946700  0.294000  0.954500  1.0  -0.4016
  C  C2416  1  0.361500  0.449300  0.511200  1.0  -0.3815
  C  C2417  1  0.392600  0.456800  0.535600  1.0  0.175
  C  C2418  1  0.384920  0.446090  0.564210  1.0  -0.1562
  C  C2419  1  0.424500  0.459540  0.576640  1.0  0.2154
  C  C2420  1  0.437900  0.457800  0.607100  1.0  -0.3863
  C  C2421  1  0.623500  0.573400  0.629500  1.0  -0.3902
  C  C2422  1  0.644800  0.596900  0.603100  1.0  0.1974
  C  C2423  1  0.699240  0.640840  0.601080  1.0  -0.1737
  C  C2424  1  0.695400  0.645000  0.571800  1.0  0.1936
  C  C2425  1  0.740400  0.685600  0.556800  1.0  -0.4097
  C  C2426  1  0.669700  0.689700  0.469800  1.0  -0.3906
  C  C2427  1  0.613400  0.650700  0.470100  1.0  0.1906
  C  C2428  1  0.576000  0.638100  0.452100  1.0  -0.1551
  C  C2429  1  0.529600  0.596350  0.460750  1.0  0.2021
  C  C2430  1  0.475400  0.566600  0.451000  1.0  -0.3886
  C  C2431  1  0.171000  0.173600  0.613400  1.0  -0.436
  C  C2432  1  0.160200  0.136900  0.591700  1.0  0.2365
  C  C2433  1  0.190500  0.137400  0.591900  1.0  -0.1689
  C  C2434  1  0.160300  0.093100  0.566800  1.0  0.1937
  C  C2435  1  0.171600  0.073500  0.555300  1.0  -0.4196
  C  C2436  1  0.019000  0.495600  0.604000  1.0  -0.401
  C  C2437  1  0.974200  0.452900  0.575900  1.0  0.2159
  C  C2438  1  0.928200  0.396300  0.569300  1.0  -0.2065
  C  C2439  1  0.900500  0.377900  0.539200  1.0  0.1829
  C  C2440  1  0.848300  0.320000  0.518300  1.0  -0.4173
  C  C2441  1  0.826900  0.903900  0.528400  1.0  -0.402
  C  C2442  1  0.882000  0.954900  0.549500  1.0  0.1823
  C  C2443  1  0.900700  0.988500  0.575800  1.0  -0.1645
  C  C2444  1  0.956200  0.028200  0.586600  1.0  0.1779
  C  C2445  1  0.999100  0.077000  0.615100  1.0  -0.3804
  C  C2446  1  0.553000  0.179580  0.894980  1.0  -0.4044
  C  C2447  1  0.558570  0.159370  0.873940  1.0  0.1941
  C  C2448  1  0.549500  0.121590  0.874090  1.0  -0.2075
  C  C2449  1  0.559580  0.117900  0.847080  1.0  0.1641
  C  C2450  1  0.558000  0.084400  0.834600  1.0  -0.3871
  C  C2451  1  0.652300  0.154700  0.758600  1.0  -0.4006
  C  C2452  1  0.670100  0.198680  0.752380  1.0  0.1868
  C  C2453  1  0.704810  0.234600  0.735410  1.0  -0.0923
  C  C2454  1  0.706700  0.267300  0.737800  1.0  0.1755
  C  C2455  1  0.736900  0.313500  0.725000  1.0  -0.3892
  C  C2456  1  0.456400  0.254300  0.833300  1.0  -0.3939
  C  C2457  1  0.397600  0.210800  0.828000  1.0  0.2142
  C  C2458  1  0.362600  0.199010  0.807010  1.0  -0.1364
  C  C2459  1  0.312780  0.156000  0.812180  1.0  0.2003
  C  C2460  1  0.261000  0.127400  0.797600  1.0  -0.4114
  C  C2461  1  0.335900  0.518300  0.405200  1.0  -0.4006
  C  C2462  1  0.318600  0.523400  0.380000  1.0  0.2421
  C  C2463  1  0.281700  0.487400  0.351700  1.0  -0.1469
  C  C2464  1  0.281100  0.512800  0.337900  1.0  0.1674
  C  C2465  1  0.249900  0.495000  0.306700  1.0  -0.3992
  C  C2466  1  0.152200  0.365000  0.323800  1.0  -0.3883
  C  C2467  1  0.199400  0.384790  0.324590  1.0  0.206
  C  C2468  1  0.254900  0.436940  0.336840  1.0  -0.1852
  C  C2469  1  0.280100  0.431700  0.330600  1.0  0.2194
  C  C2470  1  0.339400  0.475400  0.337200  1.0  -0.402
  C  C2471  1  0.571800  0.858300  0.466500  1.0  -0.4218
  C  C2472  1  0.535300  0.803000  0.466100  1.0  0.23
  C  C2473  1  0.542600  0.788000  0.488400  1.0  -0.1996
  C  C2474  1  0.497400  0.731300  0.475900  1.0  0.2427
  C  C2475  1  0.484400  0.693400  0.488800  1.0  -0.445
  C  C2476  1  0.745400  0.153400  0.223800  1.0  -0.3861
  C  C2477  1  0.798240  0.180760  0.229000  1.0  0.1851
  C  C2478  1  0.825400  0.188000  0.253600  1.0  -0.1666
  C  C2479  1  0.871900  0.215400  0.246100  1.0  0.2053
  C  C2480  1  0.916200  0.234100  0.262900  1.0  -0.3944
  C  C2481  1  0.793000  0.097900  0.269100  1.0  -0.3889
  C  C2482  1  0.794900  0.128300  0.287000  1.0  0.1858
  C  C2483  1  0.807700  0.167000  0.280300  1.0  -0.0901
  C  C2484  1  0.799550  0.179800  0.304150  1.0  0.207
  C  C2485  1  0.807200  0.218100  0.309300  1.0  -0.3894
  C  C2486  1  0.812200  0.211900  0.045100  1.0  -0.4238
  C  C2487  1  0.785300  0.189400  0.070100  1.0  0.1292
  C  C2488  1  0.733300  0.154600  0.072100  1.0  -0.1893
  C  C2489  1  0.735100  0.153700  0.102600  1.0  0.2028
  C  C2490  1  0.690200  0.123600  0.117600  1.0  -0.3736
  C  C2491  1  0.221900  0.109800  0.637500  1.0  -0.4022
  C  C2492  1  0.255300  0.163200  0.633900  1.0  0.116
  C  C2493  1  0.243900  0.175600  0.613100  1.0  -0.1426
  C  C2494  1  0.289600  0.232500  0.620900  1.0  0.1961
  C  C2495  1  0.301300  0.269400  0.607700  1.0  -0.3864
  C  C2496  1  0.410600  0.419500  0.677700  1.0  -0.3938
  C  C2497  1  0.429500  0.422700  0.709000  1.0  0.2309
  C  C2498  1  0.446500  0.452600  0.737300  1.0  -0.1911
  C  C2499  1  0.457210  0.439420  0.758030  1.0  0.1674
  C  C2500  1  0.475600  0.457700  0.792100  1.0  -0.4076
  C  C2501  1  0.448600  0.327700  0.818500  1.0  -0.412
  C  C2502  1  0.412000  0.282700  0.789700  1.0  0.1944
  C  C2503  1  0.376680  0.228060  0.784140  1.0  -0.119
  C  C2504  1  0.355300  0.207000  0.753100  1.0  0.2162
  C  C2505  1  0.314200  0.150400  0.733800  1.0  -0.4002
  C  C2506  1  0.706100  0.230000  0.663500  1.0  -0.3955
  C  C2507  1  0.736800  0.239300  0.689700  1.0  0.1731
  C  C2508  1  0.736000  0.241200  0.720400  1.0  -0.1047
  C  C2509  1  0.772100  0.250100  0.734200  1.0  0.2141
  C  C2510  1  0.790100  0.258300  0.767200  1.0  -0.3933
  C  C2511  1  0.962000  0.368000  0.793600  1.0  -0.392
  C  C2512  1  0.984750  0.381910  0.765860  1.0  0.2073
  C  C2513  1  0.037200  0.421000  0.764600  1.0  -0.1859
  C  C2514  1  0.032500  0.414100  0.733000  1.0  0.2314
  C  C2515  1  0.076000  0.445300  0.717500  1.0  -0.4049
  C  C2516  1  0.995100  0.402600  0.611700  1.0  -0.3798
  C  C2517  1  0.940600  0.370400  0.610400  1.0  0.1781
  C  C2518  1  0.910200  0.364900  0.591700  1.0  -0.1683
  C  C2519  1  0.863400  0.329900  0.600900  1.0  0.224
  C  C2520  1  0.814700  0.308100  0.589000  1.0  -0.3942
  C  C2521  1  0.456000  0.716200  0.880800  1.0  -0.406
  C  C2522  1  0.401300  0.662100  0.861600  1.0  0.1612
  C  C2523  1  0.383400  0.624700  0.838300  1.0  -0.1193
  C  C2524  1  0.327000  0.582000  0.827600  1.0  0.2149
  C  C2525  1  0.286200  0.531000  0.801400  1.0  -0.3975
  C  C2526  1  0.117800  0.433100  0.780900  1.0  -0.3908
  C  C2527  1  0.120600  0.465600  0.797200  1.0  0.2806
  C  C2528  1  0.086160  0.459600  0.790560  1.0  -0.0874
  C  C2529  1  0.109500  0.501500  0.814000  1.0  0.2098
  C  C2530  1  0.091500  0.517200  0.818300  1.0  -0.4016
  C  C2531  1  0.251100  0.699800  0.903900  1.0  -0.412
  C  C2532  1  0.298500  0.719130  0.905830  1.0  0.2094
  C  C2533  1  0.352770  0.769540  0.920310  1.0  -0.1884
  C  C2534  1  0.377390  0.762900  0.915890  1.0  0.1273
  C  C2535  1  0.436300  0.802500  0.924800  1.0  -0.377
  C  C2536  1  0.606300  0.712300  0.682200  1.0  -0.4152
  C  C2537  1  0.592400  0.726200  0.702200  1.0  0.1719
  C  C2538  1  0.608200  0.769400  0.704200  1.0  -0.1237
  C  C2539  1  0.583200  0.761900  0.725900  1.0  0.206
  C  C2540  1  0.583800  0.793800  0.737800  1.0  -0.3749
  C  C2541  1  0.474900  0.714700  0.805200  1.0  -0.3973
  C  C2542  1  0.452600  0.666800  0.810000  1.0  0.2036
  C  C2543  1  0.414800  0.629400  0.825400  1.0  -0.1461
  C  C2544  1  0.407900  0.593300  0.821000  1.0  0.1916
  C  C2545  1  0.374400  0.545100  0.832500  1.0  -0.3955
  C  C2546  1  0.387600  0.451200  0.776200  1.0  -0.418
  C  C2547  1  0.430000  0.491000  0.760800  1.0  0.2025
  C  C2548  1  0.453400  0.490400  0.744000  1.0  -0.1852
  C  C2549  1  0.486500  0.535060  0.731960  1.0  0.1471
  C  C2550  1  0.523100  0.557000  0.711500  1.0  -0.3647
  C  C2551  1  0.671900  0.885600  0.498900  1.0  -0.3995
  C  C2552  1  0.640000  0.863800  0.522400  1.0  0.2035
  C  C2553  1  0.586000  0.823700  0.517700  1.0  -0.0856
  C  C2554  1  0.577100  0.818600  0.546300  1.0  0.1698
  C  C2555  1  0.526000  0.781000  0.555600  1.0  -0.3883
  C  C2556  1  0.564100  0.779500  0.656600  1.0  -0.3992
  C  C2557  1  0.618200  0.812400  0.666000  1.0  0.2005
  C  C2558  1  0.639600  0.809900  0.687100  1.0  -0.1759
  C  C2559  1  0.693400  0.850600  0.686400  1.0  0.2089
  C  C2560  1  0.735600  0.866200  0.704000  1.0  -0.431
  C  C2561  1  0.873500  0.966900  0.642800  1.0  -0.4069
  C  C2562  1  0.855900  0.972400  0.617700  1.0  0.2283
  C  C2563  1  0.868700  0.982400  0.589900  1.0  -0.1814
  C  C2564  1  0.840400  0.982200  0.575600  1.0  0.2234
  C  C2565  1  0.839500  0.992200  0.545500  1.0  -0.4039
  C  C2566  1  0.438100  0.850300  0.988800  1.0  -0.3822
  C  C2567  1  0.421200  0.857000  0.964400  1.0  0.1756
  C  C2568  1  0.381880  0.820710  0.935790  1.0  -0.1559
  C  C2569  1  0.382900  0.847860  0.923360  1.0  0.2146
  C  C2570  1  0.350700  0.830800  0.892900  1.0  -0.3836
  C  C2571  1  0.443900  0.994000  0.870500  1.0  -0.3894
  C  C2572  1  0.493800  0.041700  0.896900  1.0  0.1975
  C  C2573  1  0.539760  0.098160  0.898920  1.0  -0.1735
  C  C2574  1  0.573200  0.123600  0.928200  1.0  0.1951
  C  C2575  1  0.628800  0.183600  0.943200  1.0  -0.4104
  C  C2576  1  0.719900  0.199900  0.030200  1.0  -0.3922
  C  C2577  1  0.680600  0.143300  0.029900  1.0  0.1881
  C  C2578  1  0.686000  0.123900  0.047900  1.0  -0.1553
  C  C2579  1  0.635600  0.068850  0.039250  1.0  0.2027
  C  C2580  1  0.615600  0.024400  0.049000  1.0  -0.389
  C  C2581  1  0.057600  0.671000  0.497400  1.0  -0.4388
  C  C2582  1  0.068500  0.660200  0.523300  1.0  0.2362
  C  C2583  1  0.098600  0.690500  0.553100  1.0  -0.1694
  C  C2584  1  0.093500  0.660300  0.567200  1.0  0.1928
  C  C2585  1  0.116300  0.671600  0.598100  1.0  -0.4206
  C  C2586  1  0.915000  0.519000  0.023400  1.0  -0.4043
  C  C2587  1  0.898300  0.474200  0.021300  1.0  0.213
  C  C2588  1  0.858900  0.428200  0.031900  1.0  -0.2062
  C  C2589  1  0.861300  0.400500  0.022600  1.0  0.1826
  C  C2590  1  0.830000  0.348300  0.028300  1.0  -0.4162
  C  C2591  1  0.798500  0.326900  0.423000  1.0  -0.402
  C  C2592  1  0.832500  0.382000  0.427100  1.0  0.1843
  C  C2593  1  0.824900  0.400700  0.412200  1.0  -0.1631
  C  C2594  1  0.869600  0.456200  0.428000  1.0  0.1768
  C  C2595  1  0.884000  0.499100  0.422100  1.0  -0.3797
  C  C2596  1  0.158020  0.053000  0.873420  1.0  -0.4042
  C  C2597  1  0.184630  0.058570  0.899200  1.0  0.1943
  C  C2598  1  0.175410  0.049500  0.927910  1.0  -0.2071
  C  C2599  1  0.212500  0.059580  0.941680  1.0  0.1663
  C  C2600  1  0.223400  0.058000  0.973600  1.0  -0.3893
  C  C2601  1  0.393700  0.152300  0.997600  1.0  -0.4036
  C  C2602  1  0.417720  0.170100  0.971420  1.0  0.1882
  C  C2603  1  0.469400  0.204810  0.970210  1.0  -0.0932
  C  C2604  1  0.468900  0.206700  0.939400  1.0  0.1753
  C  C2605  1  0.511900  0.236900  0.923400  1.0  -0.3873
  C  C2606  1  0.123100  0.956400  0.702100  1.0  -0.3931
  C  C2607  1  0.069600  0.897600  0.686800  1.0  0.2146
  C  C2608  1  0.055590  0.862600  0.663590  1.0  -0.1372
  C  C2609  1  0.000600  0.812780  0.656780  1.0  0.2
  C  C2610  1  0.963400  0.761000  0.633600  1.0  -0.4124
  C  C2611  1  0.430700  0.835900  0.317600  1.0  -0.3991
  C  C2612  1  0.438600  0.818600  0.295200  1.0  0.2437
  C  C2613  1  0.430000  0.781700  0.294300  1.0  -0.1471
  C  C2614  1  0.443200  0.781100  0.268300  1.0  0.1658
  C  C2615  1  0.443200  0.749900  0.254900  1.0  -0.3979
  C  C2616  1  0.328400  0.652200  0.287200  1.0  -0.391
  C  C2617  1  0.374810  0.699400  0.314610  1.0  0.2087
  C  C2618  1  0.418060  0.754900  0.317960  1.0  -0.1876
  C  C2619  1  0.449500  0.780100  0.348400  1.0  0.2195
  C  C2620  1  0.502200  0.839400  0.364000  1.0  -0.403
  C  C2621  1  0.605300  0.071800  0.213500  1.0  -0.4212
  C  C2622  1  0.569200  0.035300  0.232300  1.0  0.2292
  C  C2623  1  0.554200  0.042600  0.254600  1.0  -0.1998
  C  C2624  1  0.521500  0.997400  0.266100  1.0  0.2378
  C  C2625  1  0.495600  0.984400  0.291000  1.0  -0.4464
  C  C2626  1  0.021600  0.245400  0.092000  1.0  -0.385
  C  C2627  1  0.069240  0.298240  0.117480  1.0  0.185
  C  C2628  1  0.071800  0.325400  0.137400  1.0  -0.1656
  C  C2629  1  0.125800  0.371900  0.156500  1.0  0.2055
  C  C2630  1  0.153300  0.416200  0.182100  1.0  -0.3964
  C  C2631  1  0.023900  0.293000  0.195100  1.0  -0.3885
  C  C2632  1  0.007900  0.294900  0.166600  1.0  0.1845
  C  C2633  1  0.027400  0.307700  0.140700  1.0  -0.0911
  C  C2634  1  0.995400  0.299550  0.119750  1.0  0.207
  C  C2635  1  0.997900  0.307200  0.089100  1.0  -0.3939
  C  C2636  1  0.267100  0.312200  0.100300  1.0  -0.4235
  C  C2637  1  0.215200  0.285300  0.095900  1.0  0.1335
  C  C2638  1  0.161200  0.233300  0.078700  1.0  -0.1916
  C  C2639  1  0.132500  0.235100  0.081400  1.0  0.2055
  C  C2640  1  0.072600  0.190200  0.066600  1.0  -0.3737
  C  C2641  1  0.084400  0.721900  0.612100  1.0  -0.402
  C  C2642  1  0.121400  0.755300  0.592100  1.0  0.115
  C  C2643  1  0.130800  0.743900  0.568300  1.0  -0.1449
  C  C2644  1  0.168700  0.789600  0.557100  1.0  0.1956
  C  C2645  1  0.193600  0.801300  0.531900  1.0  -0.3878
  C  C2646  1  0.232900  0.910600  0.491100  1.0  -0.394
  C  C2647  1  0.220500  0.929500  0.506800  1.0  0.2325
  C  C2648  1  0.209200  0.946500  0.493900  1.0  -0.1892
  C  C2649  1  0.199180  0.957210  0.517790  1.0  0.1663
  C  C2650  1  0.183500  0.975600  0.517900  1.0  -0.4064
  C  C2651  1  0.130100  0.948600  0.620900  1.0  -0.4138
  C  C2652  1  0.122300  0.912000  0.629300  1.0  0.1917
  C  C2653  1  0.092540  0.876680  0.648620  1.0  -0.1175
  C  C2654  1  0.102200  0.855300  0.648300  1.0  0.2184
  C  C2655  1  0.080400  0.814200  0.663800  1.0  -0.3993
  C  C2656  1  0.542600  0.206100  0.976100  1.0  -0.3931
  C  C2657  1  0.547100  0.236800  0.997500  1.0  0.1742
  C  C2658  1  0.515600  0.236000  0.994800  1.0  -0.1079
  C  C2659  1  0.537900  0.272100  0.022000  1.0  0.2118
  C  C2660  1  0.522900  0.290100  0.031800  1.0  -0.3857
  C  C2661  1  0.668400  0.462000  0.094000  1.0  -0.3884
  C  C2662  1  0.718890  0.484750  0.102840  1.0  0.2049
  C  C2663  1  0.772600  0.537200  0.116200  1.0  -0.1861
  C  C2664  1  0.799500  0.532500  0.118400  1.0  0.2297
  C  C2665  1  0.858500  0.576000  0.130700  1.0  -0.4069
  C  C2666  1  0.883400  0.495100  0.092500  1.0  -0.3811
  C  C2667  1  0.830200  0.440600  0.070200  1.0  0.1763
  C  C2668  1  0.818500  0.410200  0.045300  1.0  -0.1681
  C  C2669  1  0.762500  0.363400  0.033500  1.0  0.2268
  C  C2670  1  0.725700  0.314700  0.006600  1.0  -0.3961
  C  C2671  1  0.075200  0.956000  0.239800  1.0  -0.4051
  C  C2672  1  0.039700  0.901300  0.239200  1.0  0.1612
  C  C2673  1  0.045100  0.883400  0.258700  1.0  -0.1187
  C  C2674  1  0.999400  0.827000  0.245000  1.0  0.2137
  C  C2675  1  0.984800  0.786200  0.255200  1.0  -0.3986
  C  C2676  1  0.836900  0.617800  0.184700  1.0  -0.3926
  C  C2677  1  0.823400  0.620600  0.155000  1.0  0.2803
  C  C2678  1  0.795600  0.586160  0.126560  1.0  -0.0869
  C  C2679  1  0.795500  0.609500  0.108000  1.0  0.213
  C  C2680  1  0.773200  0.591500  0.074300  1.0  -0.4084
  C  C2681  1  0.847200  0.751100  0.051300  1.0  -0.4107
  C  C2682  1  0.892670  0.798500  0.079370  1.0  0.2141
  C  C2683  1  0.932460  0.852770  0.083230  1.0  -0.1896
  C  C2684  1  0.961500  0.877390  0.114490  1.0  0.1244
  C  C2685  1  0.011500  0.936300  0.133800  1.0  -0.3772
  C  C2686  1  0.424100  0.106300  0.394000  1.0  -0.415
  C  C2687  1  0.390200  0.092400  0.366200  1.0  0.1702
  C  C2688  1  0.404000  0.108200  0.338800  1.0  -0.1234
  C  C2689  1  0.357300  0.083200  0.321300  1.0  0.2051
  C  C2690  1  0.346000  0.083800  0.290000  1.0  -0.3784
  C  C2691  1  0.169700  0.974900  0.260200  1.0  -0.3984
  C  C2692  1  0.142600  0.952600  0.285800  1.0  0.2027
  C  C2693  1  0.089400  0.914800  0.285400  1.0  -0.1472
  C  C2694  1  0.086900  0.907900  0.314600  1.0  0.1897
  C  C2695  1  0.041900  0.874400  0.329300  1.0  -0.3979
  C  C2696  1  0.111400  0.887600  0.436400  1.0  -0.4188
  C  C2697  1  0.169200  0.930000  0.439000  1.0  0.2053
  C  C2698  1  0.209400  0.953400  0.463000  1.0  -0.1851
  C  C2699  1  0.254540  0.986500  0.451440  1.0  0.1487
  C  C2700  1  0.311600  0.023100  0.466100  1.0  -0.3668
  C  C2701  1  0.673000  0.171900  0.286300  1.0  -0.3969
  C  C2702  1  0.617600  0.140000  0.276200  1.0  0.2062
  C  C2703  1  0.568300  0.086000  0.262300  1.0  -0.0853
  C  C2704  1  0.530800  0.077100  0.258500  1.0  0.1695
  C  C2705  1  0.470400  0.026000  0.245000  1.0  -0.3879
  C  C2706  1  0.407500  0.064100  0.284600  1.0  -0.397
  C  C2707  1  0.452200  0.118200  0.305800  1.0  0.1995
  C  C2708  1  0.452500  0.139600  0.329700  1.0  -0.1733
  C  C2709  1  0.507000  0.193400  0.342800  1.0  0.2094
  C  C2710  1  0.531600  0.235600  0.369400  1.0  -0.4295
  C  C2711  1  0.730700  0.373500  0.406600  1.0  -0.4074
  C  C2712  1  0.738200  0.355900  0.383500  1.0  0.2282
  C  C2713  1  0.778800  0.368700  0.386300  1.0  -0.1817
  C  C2714  1  0.764800  0.340400  0.358200  1.0  0.2221
  C  C2715  1  0.794000  0.339500  0.347300  1.0  -0.4015
  C  C2716  1  0.949300  0.938100  0.087800  1.0  -0.3824
  C  C2717  1  0.956800  0.921200  0.064200  1.0  0.1767
  C  C2718  1  0.946090  0.881880  0.061170  1.0  -0.157
  C  C2719  1  0.959540  0.882900  0.035040  1.0  0.2146
  C  C2720  1  0.957800  0.850700  0.019900  1.0  -0.3821
  C  C2721  1  0.073400  0.943900  0.949900  1.0  -0.3876
  C  C2722  1  0.096900  0.993800  0.952100  1.0  0.1955
  C  C2723  1  0.140840  0.039760  0.941600  1.0  -0.1739
  C  C2724  1  0.145000  0.073200  0.949600  1.0  0.195
  C  C2725  1  0.185600  0.128800  0.945200  1.0  -0.4096
  C  C2726  1  0.189700  0.219900  0.020000  1.0  -0.392
  C  C2727  1  0.150700  0.180600  0.037300  1.0  0.1877
  C  C2728  1  0.138100  0.186000  0.062100  1.0  -0.1522
  C  C2729  1  0.096350  0.135600  0.066750  1.0  0.2004
  C  C2730  1  0.066600  0.115600  0.091200  1.0  -0.3903
  C  C2731  1  0.673600  0.560200  0.002600  1.0  -0.4371
  C  C2732  1  0.636900  0.545200  0.976700  1.0  0.237
  C  C2733  1  0.637400  0.545500  0.946900  1.0  -0.1704
  C  C2734  1  0.593100  0.526300  0.932800  1.0  0.1921
  C  C2735  1  0.573500  0.518200  0.901900  1.0  -0.4189
  C  C2736  1  0.995600  0.891600  0.476600  1.0  -0.4043
  C  C2737  1  0.952900  0.877000  0.478700  1.0  0.2159
  C  C2738  1  0.896300  0.827000  0.468100  1.0  -0.2031
  C  C2739  1  0.877900  0.838700  0.477400  1.0  0.1826
  C  C2740  1  0.820000  0.801700  0.471700  1.0  -0.4163
  C  C2741  1  0.403900  0.375500  0.077000  1.0  -0.4001
  C  C2742  1  0.454900  0.405400  0.072900  1.0  0.1827
  C  C2743  1  0.488500  0.412700  0.087800  1.0  -0.1637
  C  C2744  1  0.528200  0.441600  0.072000  1.0  0.1774
  C  C2745  1  0.577000  0.461900  0.077900  1.0  -0.3813
  C  C2746  1  0.679580  0.284600  0.626580  1.0  -0.4035
  C  C2747  1  0.659370  0.285430  0.600800  1.0  0.194
  C  C2748  1  0.621590  0.247500  0.572090  1.0  -0.2072
  C  C2749  1  0.617900  0.270820  0.558320  1.0  0.1651
  C  C2750  1  0.584400  0.249800  0.526400  1.0  -0.387
  C  C2751  1  0.654700  0.396100  0.502400  1.0  -0.3992
  C  C2752  1  0.698680  0.446300  0.528580  1.0  0.1892
  C  C2753  1  0.734600  0.499190  0.529790  1.0  -0.0933
  C  C2754  1  0.767300  0.529500  0.560600  1.0  0.1735
  C  C2755  1  0.813500  0.588500  0.576600  1.0  -0.3883
  C  C2756  1  0.754300  0.421000  0.797900  1.0  -0.3956
  C  C2757  1  0.710800  0.382800  0.813200  1.0  0.2122
  C  C2758  1  0.699010  0.392000  0.836410  1.0  -0.1373
  C  C2759  1  0.656000  0.343820  0.843220  1.0  0.2001
  C  C2760  1  0.627400  0.329800  0.866400  1.0  -0.4135
  C  C2761  1  0.018300  0.113100  0.182400  1.0  -0.4007
  C  C2762  1  0.023400  0.143400  0.204800  1.0  0.2433
  C  C2763  1  0.987400  0.135700  0.205700  1.0  -0.1471
  C  C2764  1  0.012800  0.174900  0.231700  1.0  0.167
  C  C2765  1  0.995000  0.188300  0.245100  1.0  -0.393
  C  C2766  1  0.865000  0.041200  0.212800  1.0  -0.3929
  C  C2767  1  0.884790  0.060200  0.185390  1.0  0.2098
  C  C2768  1  0.936940  0.100100  0.182040  1.0  -0.1881
  C  C2769  1  0.931700  0.101100  0.151600  1.0  0.2197
  C  C2770  1  0.975400  0.138200  0.136000  1.0  -0.4013
  C  C2771  1  0.358300  0.391800  0.286500  1.0  -0.4232
  C  C2772  1  0.303000  0.336900  0.267700  1.0  0.2284
  C  C2773  1  0.288000  0.299600  0.245400  1.0  -0.1989
  C  C2774  1  0.231300  0.255400  0.233900  1.0  0.2407
  C  C2775  1  0.193400  0.204600  0.209000  1.0  -0.4424
  C  C2776  1  0.653400  0.929600  0.408000  1.0  -0.3858
  C  C2777  1  0.680760  0.951760  0.382520  1.0  0.1851
  C  C2778  1  0.688000  0.934400  0.362600  1.0  -0.1663
  C  C2779  1  0.715400  0.969300  0.343500  1.0  0.2066
  C  C2780  1  0.734100  0.971200  0.317900  1.0  -0.397
  C  C2781  1  0.597900  0.828800  0.304900  1.0  -0.3861
  C  C2782  1  0.628300  0.841300  0.333400  1.0  0.1819
  C  C2783  1  0.667000  0.886700  0.359300  1.0  -0.0894
  C  C2784  1  0.679800  0.875650  0.380250  1.0  0.2069
  C  C2785  1  0.718100  0.908800  0.410900  1.0  -0.3914
  C  C2786  1  0.711900  0.166800  0.399700  1.0  -0.4231
  C  C2787  1  0.689400  0.119300  0.404100  1.0  0.1292
  C  C2788  1  0.654600  0.082500  0.421300  1.0  -0.1923
  C  C2789  1  0.653700  0.051100  0.418600  1.0  0.2055
  C  C2790  1  0.623600  0.006000  0.433400  1.0  -0.3742
  C  C2791  1  0.609800  0.472300  0.887900  1.0  -0.4026
  C  C2792  1  0.663200  0.529300  0.907900  1.0  0.1121
  C  C2793  1  0.675600  0.562500  0.931700  1.0  -0.1436
  C  C2794  1  0.732500  0.611600  0.942900  1.0  0.1955
  C  C2795  1  0.769400  0.661700  0.968100  1.0  -0.3861
  C  C2796  1  0.919500  0.741800  0.008900  1.0  -0.391
  C  C2797  1  0.922700  0.713700  0.993200  1.0  0.2305
  C  C2798  1  0.952600  0.715300  0.006100  1.0  -0.1916
  C  C2799  1  0.939420  0.681390  0.982210  1.0  0.1664
  C  C2800  1  0.957700  0.665600  0.982100  1.0  -0.4078
  C  C2801  1  0.827700  0.509200  0.879100  1.0  -0.4131
  C  C2802  1  0.782700  0.493000  0.870700  1.0  0.1936
  C  C2803  1  0.728060  0.443920  0.851380  1.0  -0.1192
  C  C2804  1  0.707000  0.453900  0.851700  1.0  0.218
  C  C2805  1  0.650400  0.416600  0.836200  1.0  -0.3991
  C  C2806  1  0.730000  0.566500  0.523900  1.0  -0.3936
  C  C2807  1  0.739300  0.549600  0.502500  1.0  0.1753
  C  C2808  1  0.741200  0.520800  0.505200  1.0  -0.1045
  C  C2809  1  0.750100  0.515900  0.478000  1.0  0.214
  C  C2810  1  0.758300  0.491100  0.468200  1.0  -0.3899
  C  C2811  1  0.868000  0.574400  0.406000  1.0  -0.3908
  C  C2812  1  0.881910  0.616050  0.397160  1.0  0.2042
  C  C2813  1  0.921000  0.656400  0.383800  1.0  -0.1868
  C  C2814  1  0.914100  0.681100  0.381600  1.0  0.2328
  C  C2815  1  0.945300  0.727800  0.369300  1.0  -0.4062
  C  C2816  1  0.902600  0.790900  0.407500  1.0  -0.3825
  C  C2817  1  0.870400  0.760000  0.429800  1.0  0.1783
  C  C2818  1  0.864900  0.773200  0.454700  1.0  -0.1682
  C  C2819  1  0.829900  0.729000  0.466500  1.0  0.2257
  C  C2820  1  0.808100  0.719100  0.493400  1.0  -0.3984
  C  C2821  1  0.216200  0.835400  0.260200  1.0  -0.4068
  C  C2822  1  0.162100  0.800500  0.260800  1.0  0.1621
  C  C2823  1  0.124700  0.786400  0.241300  1.0  -0.1198
  C  C2824  1  0.082000  0.754400  0.255000  1.0  0.214
  C  C2825  1  0.031000  0.729600  0.244800  1.0  -0.3964
  C  C2826  1  0.933100  0.652200  0.315300  1.0  -0.391
  C  C2827  1  0.965600  0.668400  0.345000  1.0  0.2778
  C  C2828  1  0.959600  0.669040  0.373440  1.0  -0.0862
  C  C2829  1  0.001500  0.687500  0.392000  1.0  0.2125
  C  C2830  1  0.017200  0.698900  0.425700  1.0  -0.4079
  C  C2831  1  0.199800  0.795900  0.448700  1.0  -0.4135
  C  C2832  1  0.219130  0.813300  0.420630  1.0  0.2133
  C  C2833  1  0.269540  0.849230  0.416770  1.0  -0.1911
  C  C2834  1  0.262900  0.847010  0.385510  1.0  0.1268
  C  C2835  1  0.302500  0.877700  0.366200  1.0  -0.3764
  C  C2836  1  0.212300  0.030100  0.106000  1.0  -0.4177
  C  C2837  1  0.226200  0.024000  0.133800  1.0  0.1706
  C  C2838  1  0.269400  0.065200  0.161200  1.0  -0.1228
  C  C2839  1  0.261900  0.036000  0.178700  1.0  0.2051
  C  C2840  1  0.293800  0.056000  0.210000  1.0  -0.3767
  C  C2841  1  0.214700  0.909500  0.239800  1.0  -0.3955
  C  C2842  1  0.166800  0.856800  0.214200  1.0  0.2046
  C  C2843  1  0.129400  0.804000  0.214600  1.0  -0.1461
  C  C2844  1  0.093300  0.772300  0.185400  1.0  0.1923
  C  C2845  1  0.045100  0.712600  0.170700  1.0  -0.3977
  C  C2846  1  0.951200  0.675000  0.063600  1.0  -0.4212
  C  C2847  1  0.991000  0.730200  0.061000  1.0  0.2051
  C  C2848  1  0.990400  0.746400  0.037000  1.0  -0.1829
  C  C2849  1  0.035060  0.803100  0.048560  1.0  0.1509
  C  C2850  1  0.057000  0.845500  0.033900  1.0  -0.363
  C  C2851  1  0.385600  0.386700  0.213700  1.0  -0.3993
  C  C2852  1  0.363800  0.341400  0.223800  1.0  0.2035
  C  C2853  1  0.323700  0.306000  0.237700  1.0  -0.0861
  C  C2854  1  0.318600  0.272300  0.241500  1.0  0.1699
  C  C2855  1  0.281000  0.225400  0.255000  1.0  -0.387
  C  C2856  1  0.279500  0.122900  0.215400  1.0  -0.3977
  C  C2857  1  0.312400  0.146400  0.194200  1.0  0.2012
  C  C2858  1  0.309900  0.122800  0.170300  1.0  -0.1721
  C  C2859  1  0.350600  0.164200  0.157200  1.0  0.2082
  C  C2860  1  0.366200  0.162200  0.130600  1.0  -0.431
  C  C2861  1  0.466900  0.324100  0.093400  1.0  -0.4076
  C  C2862  1  0.472400  0.354700  0.116500  1.0  0.2317
  C  C2863  1  0.482400  0.392500  0.113700  1.0  -0.1809
  C  C2864  1  0.482200  0.406600  0.141800  1.0  0.2226
  C  C2865  1  0.492200  0.446700  0.152700  1.0  -0.4019
  C  C2866  1  0.350300  0.861500  0.412200  1.0  -0.3836
  C  C2867  1  0.357000  0.892600  0.435800  1.0  0.1763
  C  C2868  1  0.320710  0.884920  0.438830  1.0  -0.156
  C  C2869  1  0.347860  0.924500  0.464960  1.0  0.212
  C  C2870  1  0.330800  0.937900  0.480100  1.0  -0.381
  C  C2871  1  0.494000  0.123500  0.550100  1.0  -0.3861
  C  C2872  1  0.541700  0.144800  0.547900  1.0  0.1961
  C  C2873  1  0.598160  0.199240  0.558400  1.0  -0.1733
  C  C2874  1  0.623600  0.195400  0.550400  1.0  0.194
  C  C2875  1  0.683600  0.240400  0.554800  1.0  -0.4099
  C  C2876  1  0.699900  0.169700  0.480000  1.0  -0.3889
  C  C2877  1  0.643300  0.113400  0.462700  1.0  0.1873
  C  C2878  1  0.623900  0.076000  0.437900  1.0  -0.1546
  C  C2879  1  0.568850  0.029600  0.433250  1.0  0.1992
  C  C2880  1  0.524400  0.975400  0.408800  1.0  -0.3888
  N  N2881  1  0.975480  0.457000  0.070280  1.0  -0.2282
  N  N2882  1  0.987800  0.442500  0.054300  1.0  -0.2869
  N  N2883  1  0.584300  0.577700  0.051600  1.0  -0.2883
  N  N2884  1  0.608370  0.600380  0.028350  1.0  -0.26
  N  N2885  1  0.070760  0.620100  0.044060  1.0  -0.2647
  N  N2886  1  0.047720  0.597200  0.067520  1.0  -0.2755
  N  N2887  1  0.172000  0.275380  0.348380  1.0  -0.2427
  N  N2888  1  0.181760  0.259050  0.331410  1.0  -0.2638
  N  N2889  1  0.054710  0.111560  0.264670  1.0  -0.2286
  N  N2890  1  0.003880  0.080240  0.255720  1.0  -0.2636
  N  N2891  1  0.169320  0.476490  0.345010  1.0  -0.2038
  N  N2892  1  0.195290  0.520250  0.335340  1.0  -0.2611
  N  N2893  1  0.317290  0.045950  0.883840  1.0  -0.1989
  N  N2894  1  0.296030  0.041970  0.857600  1.0  -0.2914
  N  N2895  1  0.459590  0.118750  0.811740  1.0  -0.2049
  N  N2896  1  0.434500  0.072530  0.815230  1.0  -0.2615
  N  N2897  1  0.183600  0.952170  0.943170  1.0  -0.2331
  N  N2898  1  0.233600  0.981200  0.949000  1.0  -0.2317
  N  N2899  1  0.506450  0.382680  0.707930  1.0  -0.26
  N  N2900  1  0.495980  0.347750  0.718530  1.0  -0.2351
  N  N2901  1  0.695460  0.534170  0.813030  1.0  -0.2181
  N  N2902  1  0.674330  0.541760  0.823690  1.0  -0.236
  N  N2903  1  0.393470  0.284450  0.598120  1.0  -0.2273
  N  N2904  1  0.434550  0.334500  0.617650  1.0  -0.181
  N  N2905  1  0.941280  0.346760  0.152840  1.0  -0.1713
  N  N2906  1  0.891800  0.318610  0.145010  1.0  -0.2239
  N  N2907  1  0.816280  0.280760  0.210840  1.0  -0.2426
  N  N2908  1  0.836760  0.293590  0.241750  1.0  -0.2242
  N  N2909  1  0.971770  0.353070  0.262640  1.0  -0.2471
  N  N2910  1  0.996090  0.365510  0.239400  1.0  -0.273
  N  N2911  1  0.937220  0.912360  0.186180  1.0  -0.224
  N  N2912  1  0.958610  0.918890  0.213700  1.0  -0.1873
  N  N2913  1  0.885520  0.787780  0.238500  1.0  -0.1738
  N  N2914  1  0.845400  0.738000  0.217600  1.0  -0.1828
  N  N2915  1  0.789940  0.716950  0.129490  1.0  -0.1853
  N  N2916  1  0.808800  0.759480  0.123480  1.0  -0.2697
  N  N2917  1  0.720740  0.505940  0.363280  1.0  -0.2125
  N  N2918  1  0.750200  0.531020  0.342020  1.0  -0.2904
  N  N2919  1  0.816110  0.660550  0.322060  1.0  -0.3022
  N  N2920  1  0.803980  0.678390  0.332570  1.0  -0.2211
  N  N2921  1  0.708160  0.602740  0.392300  1.0  -0.2821
  N  N2922  1  0.688510  0.560570  0.399480  1.0  -0.2328
  N  N2923  1  0.524000  0.159600  0.220800  1.0  -0.2011
  N  N2924  1  0.517000  0.179970  0.235170  1.0  -0.2018
  N  N2925  1  0.643470  0.330230  0.297300  1.0  -0.1949
  N  N2926  1  0.696400  0.364980  0.304180  1.0  -0.2594
  N  N2927  1  0.725610  0.311100  0.259110  1.0  -0.3
  N  N2928  1  0.680970  0.258530  0.241500  1.0  -0.2112
  N  N2929  1  0.169460  0.888370  0.052430  1.0  -0.25
  N  N2930  1  0.211200  0.941900  0.067500  1.0  -0.2487
  N  N2931  1  0.300050  0.995130  0.152580  1.0  -0.2841
  N  N2932  1  0.291020  0.963180  0.166000  1.0  -0.203
  N  N2933  1  0.155080  0.798250  0.119330  1.0  -0.1728
  N  N2934  1  0.122200  0.781700  0.093500  1.0  -0.1729
  N  N2935  1  0.565690  0.525070  0.468560  1.0  -0.2254
  N  N2936  1  0.545240  0.522660  0.442300  1.0  -0.2931
  N  N2937  1  0.387290  0.422520  0.423810  1.0  -0.2071
  N  N2938  1  0.355700  0.392270  0.442570  1.0  -0.1449
  N  N2939  1  0.411050  0.382820  0.511670  1.0  -0.2379
  N  N2940  1  0.462560  0.415770  0.517330  1.0  -0.2261
  N  N2941  1  0.886720  0.905200  0.429720  1.0  -0.2317
  N  N2942  1  0.888200  0.933500  0.445700  1.0  -0.2802
  N  N2943  1  0.026100  0.532700  0.448400  1.0  -0.2874
  N  N2944  1  0.072030  0.580020  0.471650  1.0  -0.2564
  N  N2945  1  0.076040  0.026700  0.455940  1.0  -0.2625
  N  N2946  1  0.029680  0.980200  0.432480  1.0  -0.2755
  N  N2947  1  0.427000  0.823620  0.151620  1.0  -0.2411
  N  N2948  1  0.427640  0.850350  0.168590  1.0  -0.2675
  N  N2949  1  0.346890  0.790040  0.235330  1.0  -0.2307
  N  N2950  1  0.324520  0.748160  0.244280  1.0  -0.2647
  N  N2951  1  0.631480  0.824310  0.154990  1.0  -0.2033
  N  N2952  1  0.684910  0.859950  0.164660  1.0  -0.2616
  N  N2953  1  0.662110  0.433450  0.616160  1.0  -0.197
  N  N2954  1  0.684370  0.438430  0.642400  1.0  -0.2853
  N  N2955  1  0.807010  0.647850  0.688260  1.0  -0.2051
  N  N2956  1  0.757300  0.619270  0.684770  1.0  -0.2632
  N  N2957  1  0.509000  0.240430  0.556830  1.0  -0.2334
  N  N2958  1  0.532200  0.284600  0.551000  1.0  -0.227
  N  N2959  1  0.174750  0.798520  0.792070  1.0  -0.26
  N  N2960  1  0.129220  0.777450  0.781470  1.0  -0.2371
  N  N2961  1  0.221140  0.882430  0.686970  1.0  -0.2177
  N  N2962  1  0.218070  0.850640  0.676310  1.0  -0.237
  N  N2963  1  0.186330  0.795350  0.901880  1.0  -0.2247
  N  N2964  1  0.216850  0.816900  0.882350  1.0  -0.1792
  N  N2965  1  0.693920  0.788440  0.347160  1.0  -0.1724
  N  N2966  1  0.673600  0.746790  0.354990  1.0  -0.2207
  N  N2967  1  0.569920  0.605440  0.289160  1.0  -0.2379
  N  N2968  1  0.551840  0.595010  0.258250  1.0  -0.2231
  N  N2969  1  0.590430  0.709130  0.237360  1.0  -0.2491
  N  N2970  1  0.626110  0.756690  0.260600  1.0  -0.2736
  N  N2971  1  0.226180  0.751040  0.313820  1.0  -0.2261
  N  N2972  1  0.205190  0.744910  0.286300  1.0  -0.1894
  N  N2973  1  0.049280  0.647020  0.261500  1.0  -0.1731
  N  N2974  1  0.020400  0.627800  0.282400  1.0  -0.1858
  N  N2975  1  0.087460  0.660450  0.370510  1.0  -0.1861
  N  N2976  1  0.136000  0.685320  0.376520  1.0  -0.2704
  N  N2977  1  0.642660  0.357460  0.136720  1.0  -0.2156
  N  N2978  1  0.689000  0.408180  0.157980  1.0  -0.2888
  N  N2979  1  0.838490  0.494050  0.177940  1.0  -0.3032
  N  N2980  1  0.845820  0.471410  0.167430  1.0  -0.218
  N  N2981  1  0.710440  0.315860  0.107700  1.0  -0.2787
  N  N2982  1  0.661090  0.289030  0.100520  1.0  -0.2295
  N  N2983  1  0.438800  0.303200  0.279200  1.0  -0.1974
  N  N2984  1  0.444800  0.281830  0.264830  1.0  -0.2022
  N  N2985  1  0.532930  0.346170  0.202700  1.0  -0.1947
  N  N2986  1  0.560800  0.392220  0.195820  1.0  -0.261
  N  N2987  1  0.551990  0.466500  0.240890  1.0  -0.3035
  N  N2988  1  0.517030  0.439470  0.258500  1.0  -0.2094
  N  N2989  1  0.335940  0.117030  0.447570  1.0  -0.2453
  N  N2990  1  0.374400  0.143700  0.432500  1.0  -0.247
  N  N2991  1  0.342550  0.147470  0.347420  1.0  -0.2839
  N  N2992  1  0.297180  0.125020  0.334000  1.0  -0.1947
  N  N2993  1  0.178920  0.035750  0.380670  1.0  -0.1799
  N  N2994  1  0.188200  0.028700  0.406500  1.0  -0.1755
  N  N2995  1  0.556510  0.097130  0.031440  1.0  -0.2236
  N  N2996  1  0.580360  0.102940  0.057700  1.0  -0.2913
  N  N2997  1  0.498710  0.963480  0.076190  1.0  -0.2059
  N  N2998  1  0.449700  0.913130  0.057430  1.0  -0.1444
  N  N2999  1  0.371150  0.899380  0.988330  1.0  -0.2361
  N  N3000  1  0.398440  0.945230  0.982670  1.0  -0.226
  N  N3001  1  0.957000  0.386720  0.481520  1.0  -0.2279
  N  N3002  1  0.942500  0.388200  0.454700  1.0  -0.2809
  N  N3003  1  0.077700  0.526100  0.993400  1.0  -0.2866
  N  N3004  1  0.100380  0.572030  0.992010  1.0  -0.2558
  N  N3005  1  0.120100  0.576040  0.549340  1.0  -0.2648
  N  N3006  1  0.097200  0.529680  0.549480  1.0  -0.2714
  N  N3007  1  0.775380  0.927000  0.103380  1.0  -0.244
  N  N3008  1  0.759050  0.927640  0.077290  1.0  -0.2675
  N  N3009  1  0.611560  0.846890  0.056850  1.0  -0.2345
  N  N3010  1  0.580240  0.824520  0.076360  1.0  -0.2712
  N  N3011  1  0.976490  0.131480  0.307170  1.0  -0.2059
  N  N3012  1  0.020250  0.184910  0.324960  1.0  -0.2657
  N  N3013  1  0.545950  0.162110  0.728660  1.0  -0.1946
  N  N3014  1  0.541970  0.184370  0.745940  1.0  -0.291
  N  N3015  1  0.618750  0.307010  0.659160  1.0  -0.2062
  N  N3016  1  0.572530  0.257300  0.638030  1.0  -0.2623
  N  N3017  1  0.452170  0.009000  0.768570  1.0  -0.23
  N  N3018  1  0.481200  0.032200  0.747600  1.0  -0.2262
  N  N3019  1  0.882680  0.674750  0.876230  1.0  -0.2575
  N  N3020  1  0.847750  0.629220  0.851770  1.0  -0.2358
  N  N3021  1  0.034170  0.721140  0.838710  1.0  -0.2234
  N  N3022  1  0.041760  0.718070  0.867430  1.0  -0.2387
  N  N3023  1  0.784450  0.686330  0.890980  1.0  -0.2225
  N  N3024  1  0.834500  0.716850  0.899950  1.0  -0.1787
  N  N3025  1  0.846760  0.193920  0.405480  1.0  -0.1719
  N  N3026  1  0.818610  0.173600  0.426810  1.0  -0.2246
  N  N3027  1  0.780760  0.069920  0.464480  1.0  -0.2446
  N  N3028  1  0.793590  0.051840  0.456830  1.0  -0.2248
  N  N3029  1  0.853070  0.090430  0.381300  1.0  -0.249
  N  N3030  1  0.865510  0.126110  0.369420  1.0  -0.2776
  N  N3031  1  0.412360  0.726180  0.975140  1.0  -0.2262
  N  N3032  1  0.418890  0.705190  0.960280  1.0  -0.1886
  N  N3033  1  0.287780  0.549280  0.902260  1.0  -0.1747
  N  N3034  1  0.238000  0.520400  0.892600  1.0  -0.1834
  N  N3035  1  0.216950  0.587460  0.927010  1.0  -0.1879
  N  N3036  1  0.259480  0.636000  0.950680  1.0  -0.2657
  N  N3037  1  0.005940  0.142660  0.785200  1.0  -0.2152
  N  N3038  1  0.031020  0.189000  0.780820  1.0  -0.2926
  N  N3039  1  0.160550  0.338490  0.844440  1.0  -0.2994
  N  N3040  1  0.178390  0.345820  0.874410  1.0  -0.2166
  N  N3041  1  0.102740  0.210440  0.894580  1.0  -0.2811
  N  N3042  1  0.060570  0.161090  0.872060  1.0  -0.2338
  N  N3043  1  0.659600  0.938800  0.635600  1.0  -0.2014
  N  N3044  1  0.679970  0.944800  0.662970  1.0  -0.1991
  N  N3045  1  0.830230  0.032930  0.686760  1.0  -0.1947
  N  N3046  1  0.864980  0.060800  0.668580  1.0  -0.261
  N  N3047  1  0.811100  0.051990  0.585490  1.0  -0.3047
  N  N3048  1  0.758530  0.017030  0.577560  1.0  -0.2102
  N  N3049  1  0.388370  0.835940  0.718910  1.0  -0.2466
  N  N3050  1  0.441900  0.874400  0.730700  1.0  -0.2469
  N  N3051  1  0.495130  0.842550  0.695080  1.0  -0.2824
  N  N3052  1  0.463180  0.797180  0.672160  1.0  -0.1968
  N  N3053  1  0.298250  0.678920  0.643170  1.0  -0.1764
  N  N3054  1  0.281700  0.688200  0.659500  1.0  -0.1752
  N  N3055  1  0.025070  0.056510  0.959380  1.0  -0.223
  N  N3056  1  0.022660  0.080360  0.977420  1.0  -0.2957
  N  N3057  1  0.922520  0.998710  0.035230  1.0  -0.2068
  N  N3058  1  0.892270  0.949700  0.036570  1.0  -0.14
  N  N3059  1  0.882820  0.871150  0.971770  1.0  -0.2413
  N  N3060  1  0.915770  0.898440  0.953210  1.0  -0.2302
  N  N3061  1  0.405200  0.475480  0.018480  1.0  -0.2318
  N  N3062  1  0.433500  0.487800  0.045300  1.0  -0.2856
  N  N3063  1  0.032700  0.084300  0.506600  1.0  -0.2878
  N  N3064  1  0.080020  0.108370  0.507990  1.0  -0.2561
  N  N3065  1  0.526700  0.570760  0.950660  1.0  -0.2645
  N  N3066  1  0.480200  0.547720  0.950520  1.0  -0.2775
  N  N3067  1  0.323620  0.672000  0.396620  1.0  -0.241
  N  N3068  1  0.350350  0.681760  0.422710  1.0  -0.2632
  N  N3069  1  0.290040  0.554710  0.443150  1.0  -0.231
  N  N3070  1  0.248160  0.503880  0.423640  1.0  -0.2683
  N  N3071  1  0.324310  0.669320  0.192830  1.0  -0.2019
  N  N3072  1  0.359950  0.695290  0.175040  1.0  -0.2648
  N  N3073  1  0.933450  0.817290  0.771340  1.0  -0.1956
  N  N3074  1  0.938430  0.796030  0.754060  1.0  -0.2856
  N  N3075  1  0.147850  0.959590  0.840840  1.0  -0.2076
  N  N3076  1  0.119270  0.934500  0.861970  1.0  -0.2606
  N  N3077  1  0.740430  0.683600  0.731430  1.0  -0.2313
  N  N3078  1  0.784600  0.733600  0.752400  1.0  -0.2302
  N  N3079  1  0.298520  0.006450  0.623770  1.0  -0.2585
  N  N3080  1  0.277450  0.995980  0.648230  1.0  -0.2365
  N  N3081  1  0.382430  0.195460  0.661290  1.0  -0.2158
  N  N3082  1  0.350640  0.174330  0.632570  1.0  -0.2343
  N  N3083  1  0.295350  0.893470  0.609020  1.0  -0.2249
  N  N3084  1  0.316900  0.934550  0.600050  1.0  -0.1761
  N  N3085  1  0.288440  0.441280  0.094520  1.0  -0.1721
  N  N3086  1  0.246790  0.391800  0.073190  1.0  -0.2208
  N  N3087  1  0.105440  0.316280  0.035520  1.0  -0.2413
  N  N3088  1  0.095010  0.336760  0.043170  1.0  -0.2244
  N  N3089  1  0.209130  0.471770  0.118700  1.0  -0.2498
  N  N3090  1  0.256690  0.496090  0.130580  1.0  -0.2758
  N  N3091  1  0.251040  0.437220  0.524860  1.0  -0.2243
  N  N3092  1  0.244910  0.458610  0.539720  1.0  -0.19
  N  N3093  1  0.147020  0.385520  0.597740  1.0  -0.1755
  N  N3094  1  0.127800  0.345400  0.607400  1.0  -0.1835
  N  N3095  1  0.160450  0.289940  0.572990  1.0  -0.1865
  N  N3096  1  0.185320  0.308800  0.549320  1.0  -0.2684
  N  N3097  1  0.857460  0.220740  0.714800  1.0  -0.2193
  N  N3098  1  0.908180  0.250200  0.719180  1.0  -0.297
  N  N3099  1  0.994050  0.316110  0.655560  1.0  -0.3022
  N  N3100  1  0.971410  0.303980  0.625590  1.0  -0.2202
  N  N3101  1  0.815860  0.208160  0.605420  1.0  -0.2821
  N  N3102  1  0.789030  0.188510  0.627940  1.0  -0.2312
  N  N3103  1  0.803200  0.024000  0.864400  1.0  -0.2003
  N  N3104  1  0.781830  0.017000  0.837030  1.0  -0.2
  N  N3105  1  0.846170  0.143470  0.813240  1.0  -0.1933
  N  N3106  1  0.892220  0.196400  0.831420  1.0  -0.2602
  N  N3107  1  0.966500  0.225610  0.914510  1.0  -0.3037
  N  N3108  1  0.939470  0.180970  0.922440  1.0  -0.2064
  N  N3109  1  0.617030  0.669460  0.781090  1.0  -0.2495
  N  N3110  1  0.643700  0.711200  0.769300  1.0  -0.2446
  N  N3111  1  0.647470  0.800050  0.804920  1.0  -0.2784
  N  N3112  1  0.625020  0.791020  0.827840  1.0  -0.2009
  N  N3113  1  0.535750  0.655080  0.856830  1.0  -0.1747
  N  N3114  1  0.528700  0.622200  0.840500  1.0  -0.1717
  N  N3115  1  0.597130  0.065690  0.540620  1.0  -0.2238
  N  N3116  1  0.602940  0.045240  0.522580  1.0  -0.2898
  N  N3117  1  0.463480  0.887290  0.464770  1.0  -0.2087
  N  N3118  1  0.413130  0.855700  0.463430  1.0  -0.1424
  N  N3119  1  0.399380  0.911050  0.528230  1.0  -0.238
  N  N3120  1  0.445230  0.962560  0.546790  1.0  -0.2283
  N  N3121  1  0.024520  0.543000  0.929720  1.0  -0.2291
  N  N3122  1  0.012200  0.557500  0.945700  1.0  -0.2857
  N  N3123  1  0.415700  0.422300  0.948400  1.0  -0.2908
  N  N3124  1  0.391630  0.399620  0.971650  1.0  -0.2589
  N  N3125  1  0.929240  0.379900  0.955940  1.0  -0.2636
  N  N3126  1  0.952280  0.402800  0.932480  1.0  -0.2762
  N  N3127  1  0.828000  0.724620  0.651620  1.0  -0.2425
  N  N3128  1  0.818240  0.740950  0.668590  1.0  -0.2616
  N  N3129  1  0.945290  0.888440  0.735330  1.0  -0.229
  N  N3130  1  0.996120  0.919760  0.744280  1.0  -0.2649
  N  N3131  1  0.830680  0.523510  0.654990  1.0  -0.2036
  N  N3132  1  0.804710  0.479750  0.664660  1.0  -0.2623
  N  N3133  1  0.682710  0.954050  0.116160  1.0  -0.199
  N  N3134  1  0.703970  0.958030  0.142400  1.0  -0.2895
  N  N3135  1  0.540410  0.881250  0.188260  1.0  -0.2057
  N  N3136  1  0.565500  0.927470  0.184770  1.0  -0.2624
  N  N3137  1  0.816400  0.047830  0.056830  1.0  -0.233
  N  N3138  1  0.766400  0.018800  0.051000  1.0  -0.23
  N  N3139  1  0.493550  0.617320  0.292070  1.0  -0.2606
  N  N3140  1  0.504020  0.652250  0.281470  1.0  -0.2353
  N  N3141  1  0.304540  0.465830  0.186970  1.0  -0.2192
  N  N3142  1  0.325670  0.458240  0.176310  1.0  -0.235
  N  N3143  1  0.606530  0.715550  0.401880  1.0  -0.226
  N  N3144  1  0.565450  0.665500  0.382350  1.0  -0.1799
  N  N3145  1  0.058720  0.653240  0.847160  1.0  -0.1726
  N  N3146  1  0.108200  0.681390  0.854990  1.0  -0.2215
  N  N3147  1  0.183720  0.719240  0.789160  1.0  -0.241
  N  N3148  1  0.163240  0.706410  0.758250  1.0  -0.2229
  N  N3149  1  0.028230  0.646930  0.737360  1.0  -0.2497
  N  N3150  1  0.003910  0.634490  0.760600  1.0  -0.2746
  N  N3151  1  0.062780  0.087640  0.813820  1.0  -0.2224
  N  N3152  1  0.041390  0.081110  0.786300  1.0  -0.1852
  N  N3153  1  0.114480  0.212220  0.761500  1.0  -0.1735
  N  N3154  1  0.154600  0.262000  0.782400  1.0  -0.183
  N  N3155  1  0.210060  0.283050  0.870510  1.0  -0.1864
  N  N3156  1  0.191200  0.240520  0.876520  1.0  -0.2688
  N  N3157  1  0.279260  0.494060  0.636720  1.0  -0.2151
  N  N3158  1  0.249800  0.468980  0.657980  1.0  -0.29
  N  N3159  1  0.183890  0.339450  0.677940  1.0  -0.3021
  N  N3160  1  0.196020  0.321610  0.667430  1.0  -0.2182
  N  N3161  1  0.291840  0.397260  0.607700  1.0  -0.2834
  N  N3162  1  0.311490  0.439430  0.600520  1.0  -0.229
  N  N3163  1  0.476000  0.840400  0.779200  1.0  -0.2016
  N  N3164  1  0.483000  0.820030  0.764830  1.0  -0.2034
  N  N3165  1  0.356530  0.669770  0.702700  1.0  -0.1944
  N  N3166  1  0.303600  0.635020  0.695820  1.0  -0.2602
  N  N3167  1  0.274390  0.688900  0.740890  1.0  -0.3035
  N  N3168  1  0.319030  0.741470  0.758500  1.0  -0.2138
  N  N3169  1  0.830540  0.111630  0.947570  1.0  -0.2458
  N  N3170  1  0.788800  0.058100  0.932500  1.0  -0.2459
  N  N3171  1  0.699950  0.004870  0.847420  1.0  -0.2849
  N  N3172  1  0.708980  0.036820  0.834000  1.0  -0.1999
  N  N3173  1  0.844920  0.201750  0.880670  1.0  -0.1716
  N  N3174  1  0.877800  0.218300  0.906500  1.0  -0.1729
  N  N3175  1  0.434310  0.474930  0.531440  1.0  -0.2253
  N  N3176  1  0.454760  0.477340  0.557700  1.0  -0.2918
  N  N3177  1  0.612710  0.577480  0.576190  1.0  -0.2049
  N  N3178  1  0.644300  0.607730  0.557430  1.0  -0.1429
  N  N3179  1  0.588950  0.617180  0.488330  1.0  -0.2359
  N  N3180  1  0.537440  0.584230  0.482670  1.0  -0.2281
  N  N3181  1  0.113280  0.094800  0.570280  1.0  -0.2295
  N  N3182  1  0.111800  0.066500  0.554300  1.0  -0.2796
  N  N3183  1  0.973900  0.467300  0.551600  1.0  -0.2879
  N  N3184  1  0.927970  0.419980  0.528350  1.0  -0.2592
  N  N3185  1  0.923960  0.973300  0.544060  1.0  -0.2629
  N  N3186  1  0.970320  0.019800  0.567520  1.0  -0.2741
  N  N3187  1  0.573000  0.176380  0.848380  1.0  -0.2422
  N  N3188  1  0.572360  0.149650  0.831410  1.0  -0.2649
  N  N3189  1  0.653110  0.209960  0.764670  1.0  -0.2307
  N  N3190  1  0.675480  0.251840  0.755720  1.0  -0.2645
  N  N3191  1  0.368520  0.175690  0.845010  1.0  -0.2051
  N  N3192  1  0.315090  0.140050  0.835340  1.0  -0.2624
  N  N3193  1  0.337890  0.566550  0.383840  1.0  -0.1958
  N  N3194  1  0.315630  0.561570  0.357600  1.0  -0.2847
  N  N3195  1  0.192990  0.352150  0.311740  1.0  -0.2055
  N  N3196  1  0.242700  0.380730  0.315230  1.0  -0.2612
  N  N3197  1  0.491000  0.759570  0.443170  1.0  -0.2327
  N  N3198  1  0.467800  0.715400  0.449000  1.0  -0.2284
  N  N3199  1  0.825250  0.201480  0.207930  1.0  -0.2604
  N  N3200  1  0.870780  0.222550  0.218530  1.0  -0.2374
  N  N3201  1  0.778860  0.117570  0.313030  1.0  -0.22
  N  N3202  1  0.781930  0.149360  0.323690  1.0  -0.2402
  N  N3203  1  0.813670  0.204650  0.098120  1.0  -0.2264
  N  N3204  1  0.783150  0.183100  0.117650  1.0  -0.1815
  N  N3205  1  0.306080  0.211560  0.652840  1.0  -0.1693
  N  N3206  1  0.326400  0.253210  0.645010  1.0  -0.2214
  N  N3207  1  0.430080  0.394560  0.710840  1.0  -0.2381
  N  N3208  1  0.448160  0.404990  0.741750  1.0  -0.2203
  N  N3209  1  0.409570  0.290870  0.762640  1.0  -0.2487
  N  N3210  1  0.373890  0.243310  0.739400  1.0  -0.2739
  N  N3211  1  0.773820  0.248960  0.686180  1.0  -0.2268
  N  N3212  1  0.794810  0.255090  0.713700  1.0  -0.1867
  N  N3213  1  0.950720  0.352980  0.738500  1.0  -0.1711
  N  N3214  1  0.979600  0.372200  0.717600  1.0  -0.185
  N  N3215  1  0.912540  0.339550  0.629490  1.0  -0.1857
  N  N3216  1  0.864000  0.314680  0.623480  1.0  -0.2714
  N  N3217  1  0.357340  0.642540  0.863280  1.0  -0.2114
  N  N3218  1  0.311000  0.591820  0.842020  1.0  -0.2901
  N  N3219  1  0.161510  0.505950  0.822060  1.0  -0.303
  N  N3220  1  0.154180  0.528590  0.832570  1.0  -0.2177
  N  N3221  1  0.289560  0.684140  0.892300  1.0  -0.2788
  N  N3222  1  0.338910  0.710970  0.899480  1.0  -0.2324
  N  N3223  1  0.561200  0.696800  0.720800  1.0  -0.1959
  N  N3224  1  0.555200  0.718170  0.735170  1.0  -0.2052
  N  N3225  1  0.467070  0.653830  0.797300  1.0  -0.1959
  N  N3226  1  0.439200  0.607780  0.804180  1.0  -0.2593
  N  N3227  1  0.448010  0.533500  0.759110  1.0  -0.3009
  N  N3228  1  0.482970  0.560530  0.741500  1.0  -0.2091
  N  N3229  1  0.664060  0.882970  0.552430  1.0  -0.2485
  N  N3230  1  0.625600  0.856300  0.567500  1.0  -0.2493
  N  N3231  1  0.657450  0.852530  0.652580  1.0  -0.283
  N  N3232  1  0.702820  0.874980  0.666000  1.0  -0.1968
  N  N3233  1  0.821080  0.964250  0.619330  1.0  -0.1766
  N  N3234  1  0.811800  0.971300  0.593500  1.0  -0.1753
  N  N3235  1  0.443490  0.902870  0.968560  1.0  -0.221
  N  N3236  1  0.419640  0.897060  0.942300  1.0  -0.2889
  N  N3237  1  0.501290  0.036520  0.923810  1.0  -0.2061
  N  N3238  1  0.550300  0.086870  0.942570  1.0  -0.1459
  N  N3239  1  0.628850  0.100620  0.011670  1.0  -0.2375
  N  N3240  1  0.601560  0.054770  0.017330  1.0  -0.2229
  N  N3241  1  0.043000  0.613280  0.518480  1.0  -0.23
  N  N3242  1  0.057500  0.611800  0.545300  1.0  -0.2777
  N  N3243  1  0.922300  0.473900  0.006600  1.0  -0.2876
  N  N3244  1  0.899620  0.427970  0.007990  1.0  -0.2569
  N  N3245  1  0.879900  0.423960  0.450660  1.0  -0.2631
  N  N3246  1  0.902800  0.470320  0.450520  1.0  -0.2747
  N  N3247  1  0.224620  0.073000  0.896620  1.0  -0.2462
  N  N3248  1  0.240950  0.072360  0.922710  1.0  -0.2665
  N  N3249  1  0.388440  0.153110  0.943150  1.0  -0.2298
  N  N3250  1  0.419760  0.175480  0.923640  1.0  -0.2667
  N  N3251  1  0.023510  0.868520  0.692830  1.0  -0.2025
  N  N3252  1  0.979750  0.815090  0.675040  1.0  -0.2643
  N  N3253  1  0.454050  0.837890  0.271340  1.0  -0.1943
  N  N3254  1  0.458030  0.815630  0.254060  1.0  -0.2902
  N  N3255  1  0.381250  0.692990  0.340840  1.0  -0.2046
  N  N3256  1  0.427470  0.742700  0.361970  1.0  -0.2633
  N  N3257  1  0.547830  0.991000  0.231430  1.0  -0.2306
  N  N3258  1  0.518800  0.967800  0.252400  1.0  -0.2268
  N  N3259  1  0.117320  0.325250  0.123770  1.0  -0.2575
  N  N3260  1  0.152250  0.370780  0.148230  1.0  -0.2374
  N  N3261  1  0.965830  0.278860  0.161290  1.0  -0.22
  N  N3262  1  0.958240  0.281930  0.132570  1.0  -0.2398
  N  N3263  1  0.215550  0.313670  0.109020  1.0  -0.2214
  N  N3264  1  0.165500  0.283150  0.100050  1.0  -0.1759
  N  N3265  1  0.153240  0.806080  0.594520  1.0  -0.1731
  N  N3266  1  0.181390  0.826400  0.573190  1.0  -0.2235
  N  N3267  1  0.219240  0.930080  0.535520  1.0  -0.242
  N  N3268  1  0.206410  0.948160  0.543170  1.0  -0.2266
  N  N3269  1  0.146930  0.909570  0.618700  1.0  -0.2505
  N  N3270  1  0.134490  0.873890  0.630580  1.0  -0.2763
  N  N3271  1  0.587640  0.273820  0.024860  1.0  -0.2252
  N  N3272  1  0.581110  0.294810  0.039720  1.0  -0.1872
  N  N3273  1  0.712220  0.450720  0.097740  1.0  -0.1747
  N  N3274  1  0.762000  0.479600  0.107400  1.0  -0.1818
  N  N3275  1  0.783050  0.412540  0.072990  1.0  -0.1855
  N  N3276  1  0.740520  0.364000  0.049320  1.0  -0.2674
  N  N3277  1  0.994060  0.857340  0.214800  1.0  -0.218
  N  N3278  1  0.968980  0.811000  0.219180  1.0  -0.2905
  N  N3279  1  0.839450  0.661510  0.155560  1.0  -0.2994
  N  N3280  1  0.821610  0.654180  0.125590  1.0  -0.2159
  N  N3281  1  0.897260  0.789560  0.105420  1.0  -0.2815
  N  N3282  1  0.939430  0.838910  0.127940  1.0  -0.2329
  N  N3283  1  0.340400  0.061200  0.364400  1.0  -0.1999
  N  N3284  1  0.320030  0.055200  0.337030  1.0  -0.2025
  N  N3285  1  0.169770  0.967070  0.313240  1.0  -0.1962
  N  N3286  1  0.135020  0.939200  0.331420  1.0  -0.2603
  N  N3287  1  0.188900  0.948010  0.414510  1.0  -0.3078
  N  N3288  1  0.241470  0.982970  0.422440  1.0  -0.2108
  N  N3289  1  0.611630  0.164060  0.281090  1.0  -0.2475
  N  N3290  1  0.558100  0.125600  0.269300  1.0  -0.246
  N  N3291  1  0.504870  0.157450  0.304920  1.0  -0.2837
  N  N3292  1  0.536820  0.202820  0.327840  1.0  -0.1967
  N  N3293  1  0.701750  0.321080  0.356830  1.0  -0.1752
  N  N3294  1  0.718300  0.311800  0.340500  1.0  -0.1744
  N  N3295  1  0.974930  0.943490  0.040620  1.0  -0.2228
  N  N3296  1  0.977340  0.919640  0.022580  1.0  -0.2933
  N  N3297  1  0.077480  0.001290  0.964770  1.0  -0.2063
  N  N3298  1  0.107730  0.050300  0.963430  1.0  -0.1441
  N  N3299  1  0.117180  0.128850  0.028230  1.0  -0.2383
  N  N3300  1  0.084230  0.101560  0.046790  1.0  -0.229
  N  N3301  1  0.594800  0.524520  0.981520  1.0  -0.2351
  N  N3302  1  0.566500  0.512200  0.954700  1.0  -0.2827
  N  N3303  1  0.967300  0.915700  0.493400  1.0  -0.2866
  N  N3304  1  0.919980  0.891630  0.492010  1.0  -0.2556
  N  N3305  1  0.473300  0.429240  0.049340  1.0  -0.2643
  N  N3306  1  0.519800  0.452280  0.049480  1.0  -0.2762
  N  N3307  1  0.676380  0.328000  0.603380  1.0  -0.2395
  N  N3308  1  0.649650  0.318240  0.577290  1.0  -0.2629
  N  N3309  1  0.709960  0.445290  0.556850  1.0  -0.2342
  N  N3310  1  0.751840  0.496120  0.576360  1.0  -0.2715
  N  N3311  1  0.675690  0.330680  0.807170  1.0  -0.2036
  N  N3312  1  0.640050  0.304710  0.824960  1.0  -0.2677
  N  N3313  1  0.066550  0.182710  0.228660  1.0  -0.1985
  N  N3314  1  0.061570  0.203970  0.245940  1.0  -0.2838
  N  N3315  1  0.852150  0.040410  0.159160  1.0  -0.205
  N  N3316  1  0.880730  0.065500  0.138030  1.0  -0.2603
  N  N3317  1  0.259570  0.316400  0.268570  1.0  -0.231
  N  N3318  1  0.215400  0.266400  0.247600  1.0  -0.2287
  N  N3319  1  0.701480  0.993550  0.376230  1.0  -0.2585
  N  N3320  1  0.722550  0.004020  0.351770  1.0  -0.2358
  N  N3321  1  0.617570  0.804540  0.338710  1.0  -0.2168
  N  N3322  1  0.649360  0.825670  0.367430  1.0  -0.2342
  N  N3323  1  0.704650  0.106530  0.390980  1.0  -0.2248
  N  N3324  1  0.683100  0.065450  0.399950  1.0  -0.1787
  N  N3325  1  0.711560  0.558720  0.905480  1.0  -0.1725
  N  N3326  1  0.753210  0.608200  0.926810  1.0  -0.223
  N  N3327  1  0.894560  0.683720  0.964480  1.0  -0.2405
  N  N3328  1  0.904990  0.663240  0.956830  1.0  -0.2237
  N  N3329  1  0.790870  0.528230  0.881300  1.0  -0.2493
  N  N3330  1  0.743310  0.503910  0.869420  1.0  -0.2761
  N  N3331  1  0.748960  0.562780  0.475140  1.0  -0.2249
  N  N3332  1  0.755090  0.541390  0.460280  1.0  -0.1858
  N  N3333  1  0.852980  0.614480  0.402260  1.0  -0.1755
  N  N3334  1  0.872200  0.654600  0.392600  1.0  -0.1828
  N  N3335  1  0.839550  0.710060  0.427010  1.0  -0.1864
  N  N3336  1  0.814680  0.691200  0.450680  1.0  -0.2684
  N  N3337  1  0.142540  0.779260  0.285200  1.0  -0.2172
  N  N3338  1  0.091820  0.749800  0.280820  1.0  -0.2961
  N  N3339  1  0.005950  0.683890  0.344440  1.0  -0.3054
  N  N3340  1  0.028590  0.696020  0.374410  1.0  -0.2199
  N  N3341  1  0.184140  0.791840  0.394580  1.0  -0.2796
  N  N3342  1  0.210970  0.811490  0.372060  1.0  -0.2324
  N  N3343  1  0.196800  0.976000  0.135600  1.0  -0.1974
  N  N3344  1  0.218170  0.983000  0.162970  1.0  -0.2017
  N  N3345  1  0.153830  0.856530  0.186760  1.0  -0.1934
  N  N3346  1  0.107780  0.803600  0.168580  1.0  -0.261
  N  N3347  1  0.033500  0.774390  0.085490  1.0  -0.3036
  N  N3348  1  0.060530  0.819030  0.077560  1.0  -0.2057
  N  N3349  1  0.382970  0.330540  0.218910  1.0  -0.2513
  N  N3350  1  0.356300  0.288800  0.230700  1.0  -0.2465
  N  N3351  1  0.352530  0.199950  0.195080  1.0  -0.281
  N  N3352  1  0.374980  0.208980  0.172160  1.0  -0.1979
  N  N3353  1  0.464250  0.344920  0.143170  1.0  -0.1782
  N  N3354  1  0.471300  0.377800  0.159500  1.0  -0.1741
  N  N3355  1  0.402870  0.934310  0.459380  1.0  -0.2241
  N  N3356  1  0.397060  0.954760  0.477420  1.0  -0.2908
  N  N3357  1  0.536520  0.112710  0.535230  1.0  -0.2095
  N  N3358  1  0.586870  0.144300  0.536570  1.0  -0.1412
  N  N3359  1  0.600620  0.088950  0.471770  1.0  -0.2394
  N  N3360  1  0.554770  0.037440  0.453210  1.0  -0.2285
