# generated using pymatgen
data_AgH6C5N2
_symmetry_space_group_name_H-M   'P 1'
_cell_length_a   45.83210000
_cell_length_b   45.83210000
_cell_length_c   45.83210000
_cell_angle_alpha   94.82590000
_cell_angle_beta   94.82590000
_cell_angle_gamma   146.27800000
_symmetry_Int_Tables_number   1
_chemical_formula_structural   AgH6C5N2
_chemical_formula_sum   'Ag240 H1440 C1200 N480'
_cell_volume   51150.28339219
_cell_formula_units_Z   240
loop_
 _symmetry_equiv_pos_site_id
 _symmetry_equiv_pos_as_xyz
  1  'x, y, z'
loop_
 _atom_site_type_symbol
 _atom_site_label
 _atom_site_symmetry_multiplicity
 _atom_site_fract_x
 _atom_site_fract_y
 _atom_site_fract_z
 _atom_site_occupancy
 _atom_site_charge
  Ag  Ag1  1  0.022930  0.482650  0.505320  1.0  0.2902
  Ag  Ag2  1  0.033750  0.538350  0.566790  1.0  0.329
  Ag  Ag3  1  0.906440  0.414960  0.517640  1.0  0.3614
  Ag  Ag4  1  0.067780  0.257110  0.933230  1.0  0.2761
  Ag  Ag5  1  0.134350  0.347130  0.893280  1.0  0.2935
  Ag  Ag6  1  0.066410  0.226090  0.860680  1.0  0.3092
  Ag  Ag7  1  0.360040  0.462950  0.770670  1.0  0.3644
  Ag  Ag8  1  0.307440  0.478950  0.737310  1.0  0.278
  Ag  Ag9  1  0.420650  0.544310  0.720200  1.0  0.3085
  Ag  Ag10  1  0.325780  0.648690  0.620210  1.0  0.3117
  Ag  Ag11  1  0.453280  0.760590  0.666770  1.0  0.3964
  Ag  Ag12  1  0.398240  0.775880  0.635820  1.0  0.3398
  Ag  Ag13  1  0.706720  0.131870  0.775130  1.0  0.2939
  Ag  Ag14  1  0.651050  0.056450  0.824420  1.0  0.2719
  Ag  Ag15  1  0.725790  0.183590  0.845460  1.0  0.3251
  Ag  Ag16  1  0.767040  0.651680  0.802800  1.0  0.3032
  Ag  Ag17  1  0.670010  0.610640  0.820270  1.0  0.3062
  Ag  Ag18  1  0.643700  0.560340  0.746980  1.0  0.2945
  Ag  Ag19  1  0.809590  0.198770  0.335640  1.0  0.3433
  Ag  Ag20  1  0.754760  0.088270  0.310390  1.0  0.367
  Ag  Ag21  1  0.757020  0.116960  0.384240  1.0  0.2674
  Ag  Ag22  1  0.386710  0.665730  0.149640  1.0  0.3056
  Ag  Ag23  1  0.264330  0.557600  0.096310  1.0  0.307
  Ag  Ag24  1  0.370580  0.607590  0.083430  1.0  0.3086
  Ag  Ag25  1  0.758910  0.392370  0.664040  1.0  0.3637
  Ag  Ag26  1  0.820680  0.387960  0.702460  1.0  0.2805
  Ag  Ag27  1  0.708310  0.323490  0.720160  1.0  0.3
  Ag  Ag28  1  0.065050  0.070620  0.986850  1.0  0.3321
  Ag  Ag29  1  0.943800  0.954490  0.936090  1.0  0.2805
  Ag  Ag30  1  0.451060  0.970850  0.945890  1.0  0.3396
  Ag  Ag31  1  0.477330  0.517610  0.994680  1.0  0.2898
  Ag  Ag32  1  0.471570  0.466960  0.933210  1.0  0.3318
  Ag  Ag33  1  0.397320  0.388800  0.982360  1.0  0.363
  Ag  Ag34  1  0.823880  0.134550  0.566770  1.0  0.2765
  Ag  Ag35  1  0.953850  0.241070  0.606720  1.0  0.2954
  Ag  Ag36  1  0.865410  0.205730  0.639320  1.0  0.3068
  Ag  Ag37  1  0.192280  0.589370  0.729330  1.0  0.3542
  Ag  Ag38  1  0.241640  0.570130  0.762690  1.0  0.2753
  Ag  Ag39  1  0.324110  0.700450  0.779800  1.0  0.3055
  Ag  Ag40  1  0.528480  0.705570  0.879790  1.0  0.3086
  Ag  Ag41  1  0.593820  0.786510  0.833230  1.0  0.3969
  Ag  Ag42  1  0.640060  0.762420  0.864180  1.0  0.3418
  Ag  Ag43  1  0.856740  0.931590  0.724870  1.0  0.2954
  Ag  Ag44  1  0.732030  0.826630  0.675580  1.0  0.273
  Ag  Ag45  1  0.838130  0.880330  0.654540  1.0  0.3195
  Ag  Ag46  1  0.348880  0.964240  0.697200  1.0  0.3016
  Ag  Ag47  1  0.290370  0.849740  0.679730  1.0  0.3116
  Ag  Ag48  1  0.313360  0.896720  0.753020  1.0  0.2975
  Ag  Ag49  1  0.363130  0.473950  0.164360  1.0  0.343
  Ag  Ag50  1  0.277880  0.444370  0.189610  1.0  0.3667
  Ag  Ag51  1  0.232720  0.372780  0.115760  1.0  0.2646
  Ag  Ag52  1  0.016090  0.237070  0.350360  1.0  0.3061
  Ag  Ag53  1  0.961290  0.168020  0.403690  1.0  0.3067
  Ag  Ag54  1  0.024160  0.287150  0.416570  1.0  0.3141
  Ag  Ag55  1  0.228330  0.094870  0.835960  1.0  0.3632
  Ag  Ag56  1  0.185500  0.118220  0.797540  1.0  0.2769
  Ag  Ag57  1  0.103330  0.988150  0.779840  1.0  0.2974
  Ag  Ag58  1  0.583770  0.078200  0.513150  1.0  0.3338
  Ag  Ag59  1  0.518400  0.007710  0.563910  1.0  0.2814
  Ag  Ag60  1  0.524960  0.505170  0.554110  1.0  0.3406
  Ag  Ag61  1  0.982650  0.977330  0.459720  1.0  0.2899
  Ag  Ag62  1  0.038360  0.971570  0.504600  1.0  0.3292
  Ag  Ag63  1  0.914960  0.897320  0.508520  1.0  0.3567
  Ag  Ag64  1  0.757110  0.323880  0.189330  1.0  0.2747
  Ag  Ag65  1  0.847130  0.453850  0.212780  1.0  0.2897
  Ag  Ag66  1  0.726090  0.365410  0.159680  1.0  0.3093
  Ag  Ag67  1  0.962950  0.692280  0.102910  1.0  0.3632
  Ag  Ag68  1  0.978950  0.741640  0.171510  1.0  0.2776
  Ag  Ag69  1  0.044310  0.824110  0.123660  1.0  0.3097
  Ag  Ag70  1  0.148690  0.028480  0.322910  1.0  0.3133
  Ag  Ag71  1  0.260590  0.093820  0.307310  1.0  0.3929
  Ag  Ag72  1  0.275880  0.140060  0.377640  1.0  0.3433
  Ag  Ag73  1  0.631870  0.356740  0.425150  1.0  0.2932
  Ag  Ag74  1  0.556450  0.232030  0.405400  1.0  0.2724
  Ag  Ag75  1  0.683590  0.338130  0.457800  1.0  0.327
  Ag  Ag76  1  0.151680  0.848880  0.884640  1.0  0.3029
  Ag  Ag77  1  0.110640  0.790370  0.940630  1.0  0.3115
  Ag  Ag78  1  0.060340  0.813360  0.916640  1.0  0.2939
  Ag  Ag79  1  0.698770  0.863130  0.389180  1.0  0.3396
  Ag  Ag80  1  0.588270  0.777880  0.333510  1.0  0.3685
  Ag  Ag81  1  0.616960  0.732720  0.359940  1.0  0.2638
  Ag  Ag82  1  0.165730  0.516090  0.279020  1.0  0.3062
  Ag  Ag83  1  0.057600  0.461290  0.293270  1.0  0.304
  Ag  Ag84  1  0.107590  0.524160  0.237010  1.0  0.3143
  Ag  Ag85  1  0.892370  0.728330  0.633460  1.0  0.3645
  Ag  Ag86  1  0.887960  0.685500  0.567280  1.0  0.2771
  Ag  Ag87  1  0.823490  0.603330  0.615180  1.0  0.3001
  Ag  Ag88  1  0.570620  0.083770  0.005570  1.0  0.3361
  Ag  Ag89  1  0.454490  0.018400  0.010690  1.0  0.2771
  Ag  Ag90  1  0.470850  0.024960  0.519790  1.0  0.3418
  Ag  Ag91  1  0.017610  0.522930  0.040280  1.0  0.2902
  Ag  Ag92  1  0.966960  0.533750  0.995400  1.0  0.3271
  Ag  Ag93  1  0.888800  0.406440  0.991480  1.0  0.3576
  Ag  Ag94  1  0.634550  0.567780  0.310670  1.0  0.2781
  Ag  Ag95  1  0.741070  0.634350  0.287220  1.0  0.2882
  Ag  Ag96  1  0.705730  0.566410  0.340320  1.0  0.3082
  Ag  Ag97  1  0.089370  0.860040  0.397090  1.0  0.356
  Ag  Ag98  1  0.070130  0.807440  0.328490  1.0  0.2796
  Ag  Ag99  1  0.200450  0.920650  0.376340  1.0  0.3129
  Ag  Ag100  1  0.205570  0.825780  0.177090  1.0  0.3129
  Ag  Ag101  1  0.286510  0.953280  0.192690  1.0  0.3973
  Ag  Ag102  1  0.262420  0.898240  0.122360  1.0  0.3436
  Ag  Ag103  1  0.431590  0.206720  0.074850  1.0  0.2948
  Ag  Ag104  1  0.326630  0.151050  0.094600  1.0  0.2728
  Ag  Ag105  1  0.380330  0.225790  0.042200  1.0  0.3269
  Ag  Ag106  1  0.464240  0.267040  0.615360  1.0  0.2974
  Ag  Ag107  1  0.349740  0.170010  0.559370  1.0  0.3117
  Ag  Ag108  1  0.396720  0.143700  0.583360  1.0  0.294
  Ag  Ag109  1  0.973950  0.309590  0.110820  1.0  0.3404
  Ag  Ag110  1  0.944370  0.254760  0.166490  1.0  0.3691
  Ag  Ag111  1  0.872780  0.257020  0.140060  1.0  0.2651
  Ag  Ag112  1  0.737070  0.886710  0.220980  1.0  0.3047
  Ag  Ag113  1  0.668020  0.764330  0.206730  1.0  0.3045
  Ag  Ag114  1  0.787150  0.870580  0.262990  1.0  0.3113
  Ag  Ag115  1  0.594870  0.258910  0.866540  1.0  0.361
  Ag  Ag116  1  0.618220  0.320680  0.932720  1.0  0.281
  Ag  Ag117  1  0.488150  0.208310  0.884820  1.0  0.3001
  Ag  Ag118  1  0.578200  0.565050  0.494430  1.0  0.3338
  Ag  Ag119  1  0.507710  0.443800  0.489310  1.0  0.2793
  Ag  Ag120  1  0.005170  0.951060  0.980210  1.0  0.3375
  Ag  Ag121  1  0.977070  0.517350  0.494680  1.0  0.2933
  Ag  Ag122  1  0.966250  0.461650  0.433210  1.0  0.3285
  Ag  Ag123  1  0.093560  0.585040  0.482360  1.0  0.3599
  Ag  Ag124  1  0.932220  0.742890  0.066770  1.0  0.2768
  Ag  Ag125  1  0.865650  0.652870  0.106720  1.0  0.2934
  Ag  Ag126  1  0.933590  0.773910  0.139320  1.0  0.3081
  Ag  Ag127  1  0.639960  0.537050  0.229330  1.0  0.3691
  Ag  Ag128  1  0.692560  0.521050  0.262690  1.0  0.2798
  Ag  Ag129  1  0.579350  0.455690  0.279800  1.0  0.3072
  Ag  Ag130  1  0.674220  0.351310  0.379790  1.0  0.3097
  Ag  Ag131  1  0.546720  0.239410  0.333230  1.0  0.3967
  Ag  Ag132  1  0.601760  0.224120  0.364180  1.0  0.3374
  Ag  Ag133  1  0.293280  0.868130  0.224870  1.0  0.2925
  Ag  Ag134  1  0.348950  0.943550  0.175580  1.0  0.2733
  Ag  Ag135  1  0.274210  0.816410  0.154540  1.0  0.3252
  Ag  Ag136  1  0.232960  0.348320  0.197200  1.0  0.304
  Ag  Ag137  1  0.329990  0.389360  0.179730  1.0  0.3084
  Ag  Ag138  1  0.356300  0.439660  0.253020  1.0  0.2961
  Ag  Ag139  1  0.190410  0.801230  0.664360  1.0  0.3419
  Ag  Ag140  1  0.245240  0.911730  0.689610  1.0  0.3712
  Ag  Ag141  1  0.242980  0.883040  0.615760  1.0  0.2661
  Ag  Ag142  1  0.613290  0.334270  0.850360  1.0  0.3041
  Ag  Ag143  1  0.735670  0.442400  0.903690  1.0  0.3071
  Ag  Ag144  1  0.629420  0.392410  0.916570  1.0  0.3124
  Ag  Ag145  1  0.241090  0.607630  0.335960  1.0  0.3643
  Ag  Ag146  1  0.179320  0.612040  0.297540  1.0  0.2802
  Ag  Ag147  1  0.291690  0.676510  0.279840  1.0  0.299
  Ag  Ag148  1  0.934950  0.929380  0.013150  1.0  0.333
  Ag  Ag149  1  0.056200  0.045510  0.063910  1.0  0.2807
  Ag  Ag150  1  0.548940  0.029150  0.054110  1.0  0.3417
  Ag  Ag151  1  0.522670  0.482390  0.005320  1.0  0.2898
  Ag  Ag152  1  0.528430  0.533040  0.066790  1.0  0.3299
  Ag  Ag153  1  0.602680  0.611200  0.017640  1.0  0.3625
  Ag  Ag154  1  0.176120  0.865450  0.433230  1.0  0.2792
  Ag  Ag155  1  0.046150  0.758930  0.393280  1.0  0.2943
  Ag  Ag156  1  0.134590  0.794270  0.360680  1.0  0.3071
  Ag  Ag157  1  0.807720  0.410630  0.270670  1.0  0.3551
  Ag  Ag158  1  0.758360  0.429870  0.237310  1.0  0.2779
  Ag  Ag159  1  0.675890  0.299550  0.220200  1.0  0.3069
  Ag  Ag160  1  0.471520  0.294430  0.120210  1.0  0.3111
  Ag  Ag161  1  0.406180  0.213490  0.166770  1.0  0.3977
  Ag  Ag162  1  0.359940  0.237580  0.135820  1.0  0.3428
  Ag  Ag163  1  0.143260  0.068410  0.275130  1.0  0.2933
  Ag  Ag164  1  0.267970  0.173370  0.324420  1.0  0.2732
  Ag  Ag165  1  0.161870  0.119670  0.345460  1.0  0.319
  Ag  Ag166  1  0.651120  0.035760  0.302800  1.0  0.3019
  Ag  Ag167  1  0.709630  0.150260  0.320270  1.0  0.3116
  Ag  Ag168  1  0.686640  0.103280  0.246980  1.0  0.2975
  Ag  Ag169  1  0.636870  0.526050  0.835640  1.0  0.3438
  Ag  Ag170  1  0.722120  0.555630  0.810390  1.0  0.3642
  Ag  Ag171  1  0.767280  0.627220  0.884240  1.0  0.2662
  Ag  Ag172  1  0.983910  0.762930  0.649640  1.0  0.3049
  Ag  Ag173  1  0.038710  0.831980  0.596310  1.0  0.3068
  Ag  Ag174  1  0.975840  0.712850  0.583430  1.0  0.3108
  Ag  Ag175  1  0.771670  0.905130  0.164040  1.0  0.3627
  Ag  Ag176  1  0.814500  0.881780  0.202460  1.0  0.2738
  Ag  Ag177  1  0.896670  0.011850  0.220160  1.0  0.2994
  Ag  Ag178  1  0.416230  0.921800  0.486850  1.0  0.3332
  Ag  Ag179  1  0.481600  0.992290  0.436090  1.0  0.2831
  Ag  Ag180  1  0.475040  0.494830  0.445890  1.0  0.3398
  Ag  Ag181  1  0.017350  0.022670  0.540280  1.0  0.2904
  Ag  Ag182  1  0.961650  0.028430  0.495400  1.0  0.3266
  Ag  Ag183  1  0.085040  0.102680  0.491480  1.0  0.3604
  Ag  Ag184  1  0.242890  0.676120  0.810670  1.0  0.2754
  Ag  Ag185  1  0.152870  0.546150  0.787220  1.0  0.2885
  Ag  Ag186  1  0.273910  0.634590  0.840320  1.0  0.3092
  Ag  Ag187  1  0.037050  0.307720  0.897090  1.0  0.3645
  Ag  Ag188  1  0.021050  0.258360  0.828490  1.0  0.2749
  Ag  Ag189  1  0.955690  0.175890  0.876340  1.0  0.3122
  Ag  Ag190  1  0.851310  0.971520  0.677090  1.0  0.3143
  Ag  Ag191  1  0.739410  0.906180  0.692690  1.0  0.3913
  Ag  Ag192  1  0.724120  0.859940  0.622360  1.0  0.341
  Ag  Ag193  1  0.368130  0.643260  0.574850  1.0  0.2938
  Ag  Ag194  1  0.443550  0.767970  0.594600  1.0  0.2719
  Ag  Ag195  1  0.316410  0.661870  0.542200  1.0  0.3267
  Ag  Ag196  1  0.848320  0.151120  0.115360  1.0  0.3018
  Ag  Ag197  1  0.889360  0.209630  0.059370  1.0  0.3126
  Ag  Ag198  1  0.939660  0.186640  0.083360  1.0  0.2971
  Ag  Ag199  1  0.301230  0.136870  0.610820  1.0  0.34
  Ag  Ag200  1  0.411730  0.222120  0.666490  1.0  0.369
  Ag  Ag201  1  0.383040  0.267280  0.640060  1.0  0.2651
  Ag  Ag202  1  0.834270  0.483910  0.720980  1.0  0.3045
  Ag  Ag203  1  0.942400  0.538710  0.706730  1.0  0.3051
  Ag  Ag204  1  0.892410  0.475840  0.762990  1.0  0.3126
  Ag  Ag205  1  0.107630  0.271670  0.366540  1.0  0.3633
  Ag  Ag206  1  0.112040  0.314500  0.432720  1.0  0.2763
  Ag  Ag207  1  0.176510  0.396670  0.384820  1.0  0.3006
  Ag  Ag208  1  0.429380  0.916230  0.994430  1.0  0.335
  Ag  Ag209  1  0.545510  0.981600  0.989310  1.0  0.2754
  Ag  Ag210  1  0.529150  0.975040  0.480210  1.0  0.3407
  Ag  Ag211  1  0.982390  0.477070  0.959720  1.0  0.289
  Ag  Ag212  1  0.033040  0.466250  0.004600  1.0  0.325
  Ag  Ag213  1  0.111200  0.593560  0.008520  1.0  0.3542
  Ag  Ag214  1  0.365450  0.432220  0.689330  1.0  0.2785
  Ag  Ag215  1  0.258930  0.365650  0.712780  1.0  0.2882
  Ag  Ag216  1  0.294270  0.433590  0.659680  1.0  0.3088
  Ag  Ag217  1  0.910630  0.139960  0.602910  1.0  0.355
  Ag  Ag218  1  0.929870  0.192560  0.671510  1.0  0.2817
  Ag  Ag219  1  0.799550  0.079350  0.623660  1.0  0.3115
  Ag  Ag220  1  0.794430  0.174220  0.822910  1.0  0.3113
  Ag  Ag221  1  0.713490  0.046720  0.807310  1.0  0.396
  Ag  Ag222  1  0.737580  0.101760  0.877640  1.0  0.3418
  Ag  Ag223  1  0.568410  0.793280  0.925150  1.0  0.2946
  Ag  Ag224  1  0.673370  0.848950  0.905400  1.0  0.2731
  Ag  Ag225  1  0.619670  0.774210  0.957800  1.0  0.3236
  Ag  Ag226  1  0.535760  0.732960  0.384640  1.0  0.2982
  Ag  Ag227  1  0.650260  0.829990  0.440630  1.0  0.3108
  Ag  Ag228  1  0.603280  0.856300  0.416640  1.0  0.2934
  Ag  Ag229  1  0.026050  0.690410  0.889180  1.0  0.3401
  Ag  Ag230  1  0.055630  0.745240  0.833510  1.0  0.3712
  Ag  Ag231  1  0.127220  0.742980  0.859940  1.0  0.2641
  Ag  Ag232  1  0.262930  0.113290  0.779020  1.0  0.3021
  Ag  Ag233  1  0.331980  0.235670  0.793270  1.0  0.3035
  Ag  Ag234  1  0.212850  0.129420  0.737010  1.0  0.3111
  Ag  Ag235  1  0.405130  0.741090  0.133460  1.0  0.3622
  Ag  Ag236  1  0.381780  0.679320  0.067280  1.0  0.2801
  Ag  Ag237  1  0.511850  0.791690  0.115180  1.0  0.2996
  Ag  Ag238  1  0.421800  0.434950  0.505570  1.0  0.3331
  Ag  Ag239  1  0.492290  0.556200  0.510690  1.0  0.283
  Ag  Ag240  1  0.994830  0.048940  0.019790  1.0  0.3379
  H  H241  1  0.120800  0.535600  0.496800  1.0  0.1319
  H  H242  1  0.159400  0.548500  0.520100  1.0  0.1031
  H  H243  1  0.183800  0.594800  0.507400  1.0  0.1236
  H  H244  1  0.203600  0.662400  0.623800  1.0  0.1022
  H  H245  1  0.141700  0.613100  0.623200  1.0  0.1325
  H  H246  1  0.169900  0.661400  0.610900  1.0  0.0977
  H  H247  1  0.036300  0.571400  0.626300  1.0  0.111
  H  H248  1  0.998500  0.533000  0.646700  1.0  0.1034
  H  H249  1  0.000700  0.566500  0.636400  1.0  0.1055
  H  H250  1  0.810500  0.361500  0.532600  1.0  0.1249
  H  H251  1  0.797800  0.376900  0.553900  1.0  0.1281
  H  H252  1  0.798400  0.345200  0.563200  1.0  0.1334
  H  H253  1  0.775500  0.249000  0.451700  1.0  0.1194
  H  H254  1  0.793700  0.297100  0.460600  1.0  0.1188
  H  H255  1  0.797900  0.279400  0.486100  1.0  0.13
  H  H256  1  0.012900  0.427700  0.458200  1.0  0.1336
  H  H257  1  0.971000  0.382900  0.426700  1.0  0.1132
  H  H258  1  0.977000  0.369300  0.454500  1.0  0.142
  H  H259  1  0.096500  0.297800  0.001300  1.0  0.126
  H  H260  1  0.113900  0.342000  0.021300  1.0  0.1117
  H  H261  1  0.156600  0.352800  0.022200  1.0  0.1293
  H  H262  1  0.206500  0.457200  0.922900  1.0  0.1286
  H  H263  1  0.255300  0.496200  0.952500  1.0  0.1195
  H  H264  1  0.212100  0.485000  0.950900  1.0  0.1198
  H  H265  1  0.202100  0.429300  0.864200  1.0  0.1272
  H  H266  1  0.208200  0.435200  0.831200  1.0  0.1165
  H  H267  1  0.252200  0.456300  0.855700  1.0  0.1318
  H  H268  1  0.092900  0.220900  0.803800  1.0  0.1304
  H  H269  1  0.153400  0.266200  0.802800  1.0  0.1241
  H  H270  1  0.113300  0.249500  0.777600  1.0  0.1281
  H  H271  1  0.019600  0.095400  0.863600  1.0  0.1196
  H  H272  1  0.059500  0.150900  0.856000  1.0  0.1374
  H  H273  1  0.996100  0.101200  0.843300  1.0  0.1288
  H  H274  1  0.019200  0.184800  0.969000  1.0  0.1187
  H  H275  1  0.043500  0.174700  0.979000  1.0  0.119
  H  H276  1  0.980100  0.124900  0.965400  1.0  0.1174
  H  H277  1  0.306700  0.396200  0.816700  1.0  0.1225
  H  H278  1  0.285300  0.395900  0.841800  1.0  0.1337
  H  H279  1  0.245000  0.342000  0.816000  1.0  0.1154
  H  H280  1  0.219300  0.433500  0.753800  1.0  0.1158
  H  H281  1  0.165000  0.375300  0.757700  1.0  0.1022
  H  H282  1  0.204500  0.427400  0.784700  1.0  0.1057
  H  H283  1  0.266500  0.498900  0.711400  1.0  0.1368
  H  H284  1  0.301700  0.556100  0.711000  1.0  0.1287
  H  H285  1  0.262400  0.509000  0.680600  1.0  0.1244
  H  H286  1  0.462900  0.608300  0.676600  1.0  0.1297
  H  H287  1  0.439600  0.608100  0.649300  1.0  0.1212
  H  H288  1  0.478600  0.654800  0.680000  1.0  0.1193
  H  H289  1  0.520100  0.601700  0.712400  1.0  0.1377
  H  H290  1  0.569900  0.630400  0.736100  1.0  0.1424
  H  H291  1  0.537600  0.583800  0.707000  1.0  0.1277
  H  H292  1  0.401700  0.445600  0.793100  1.0  0.1235
  H  H293  1  0.423300  0.435700  0.778400  1.0  0.116
  H  H294  1  0.461300  0.484800  0.807300  1.0  0.1416
  H  H295  1  0.268300  0.542100  0.610600  1.0  0.1329
  H  H296  1  0.286600  0.524600  0.612600  1.0  0.1304
  H  H297  1  0.259800  0.517300  0.636900  1.0  0.1164
  H  H298  1  0.494700  0.747000  0.703500  1.0  0.1303
  H  H299  1  0.463800  0.701800  0.720200  1.0  0.1194
  H  H300  1  0.490900  0.709700  0.696000  1.0  0.1245
  H  H301  1  0.599200  0.914500  0.739500  1.0  0.1078
  H  H302  1  0.546900  0.850400  0.729500  1.0  0.1282
  H  H303  1  0.587900  0.884000  0.709500  1.0  0.1198
  H  H304  1  0.459300  0.884300  0.659000  1.0  0.1299
  H  H305  1  0.479500  0.911000  0.694100  1.0  0.1375
  H  H306  1  0.520700  0.944800  0.674100  1.0  0.1246
  H  H307  1  0.339700  0.776600  0.612100  1.0  0.1193
  H  H308  1  0.298600  0.747800  0.580600  1.0  0.1219
  H  H309  1  0.280700  0.738300  0.610600  1.0  0.1117
  H  H310  1  0.162600  0.536600  0.566000  1.0  0.1097
  H  H311  1  0.210200  0.555000  0.564400  1.0  0.139
  H  H312  1  0.194000  0.547400  0.595000  1.0  0.1295
  H  H313  1  0.669800  0.078300  0.709500  1.0  0.135
  H  H314  1  0.608100  0.022800  0.690900  1.0  0.1201
  H  H315  1  0.648000  0.029800  0.691800  1.0  0.1089
  H  H316  1  0.571800  0.942400  0.802000  1.0  0.134
  H  H317  1  0.558600  0.906200  0.775600  1.0  0.1106
  H  H318  1  0.519700  0.900400  0.774300  1.0  0.1402
  H  H319  1  0.597800  0.990800  0.865600  1.0  0.1299
  H  H320  1  0.554500  0.973100  0.877200  1.0  0.1087
  H  H321  1  0.603200  0.999700  0.900500  1.0  0.1189
  H  H322  1  0.675600  0.174800  0.927200  1.0  0.1057
  H  H323  1  0.682600  0.187800  0.895600  1.0  0.1328
  H  H324  1  0.730100  0.212700  0.919000  1.0  0.1205
  H  H325  1  0.764900  0.278100  0.852400  1.0  0.125
  H  H326  1  0.737300  0.277800  0.829300  1.0  0.1177
  H  H327  1  0.801000  0.327300  0.838300  1.0  0.1271
  H  H328  1  0.744100  0.189800  0.730700  1.0  0.1315
  H  H329  1  0.780000  0.246700  0.728300  1.0  0.141
  H  H330  1  0.716300  0.196200  0.721100  1.0  0.1307
  H  H331  1  0.880500  0.751500  0.845400  1.0  0.1272
  H  H332  1  0.904900  0.777600  0.880900  1.0  0.1257
  H  H333  1  0.910300  0.806300  0.859600  1.0  0.1319
  H  H334  1  0.692100  0.661200  0.878500  1.0  0.1204
  H  H335  1  0.739100  0.724100  0.890600  1.0  0.1192
  H  H336  1  0.733100  0.694100  0.911000  1.0  0.1064
  H  H337  1  0.596800  0.587800  0.837000  1.0  0.117
  H  H338  1  0.536700  0.548400  0.824900  1.0  0.1266
  H  H339  1  0.585800  0.608700  0.822500  1.0  0.1216
  H  H340  1  0.554400  0.515300  0.701100  1.0  0.1289
  H  H341  1  0.545600  0.541900  0.700700  1.0  0.1261
  H  H342  1  0.497300  0.480700  0.701200  1.0  0.1111
  H  H343  1  0.634300  0.526300  0.685000  1.0  0.1294
  H  H344  1  0.658100  0.518800  0.670500  1.0  0.1294
  H  H345  1  0.678100  0.567100  0.667400  1.0  0.1322
  H  H346  1  0.848200  0.688000  0.784200  1.0  0.1299
  H  H347  1  0.870800  0.712900  0.756700  1.0  0.1103
  H  H348  1  0.851300  0.665000  0.759900  1.0  0.1324
  H  H349  1  0.850100  0.268100  0.294400  1.0  0.1317
  H  H350  1  0.889800  0.290200  0.275200  1.0  0.1201
  H  H351  1  0.833600  0.256700  0.259100  1.0  0.1165
  H  H352  1  0.752700  0.062900  0.248600  1.0  0.1259
  H  H353  1  0.744600  0.069600  0.217400  1.0  0.1307
  H  H354  1  0.800700  0.102800  0.233300  1.0  0.1117
  H  H355  1  0.931200  0.223600  0.220000  1.0  0.1269
  H  H356  1  0.927600  0.238700  0.249900  1.0  0.1199
  H  H357  1  0.880700  0.177100  0.232600  1.0  0.1044
  H  H358  1  0.790100  0.208800  0.171500  1.0  0.1189
  H  H359  1  0.752100  0.162000  0.187700  1.0  0.1264
  H  H360  1  0.799300  0.222900  0.206600  1.0  0.1141
  H  H361  1  0.776800  0.161900  0.448100  1.0  0.1237
  H  H362  1  0.833000  0.221000  0.469600  1.0  0.1311
  H  H363  1  0.781900  0.198700  0.462600  1.0  0.125
  H  H364  1  0.867900  0.299400  0.357300  1.0  0.1167
  H  H365  1  0.861400  0.320200  0.380200  1.0  0.1167
  H  H366  1  0.914300  0.345500  0.387600  1.0  0.1128
  H  H367  1  0.393400  0.707600  0.208200  1.0  0.1247
  H  H368  1  0.358400  0.703000  0.219200  1.0  0.1275
  H  H369  1  0.355600  0.668700  0.228500  1.0  0.108
  H  H370  1  0.169400  0.500100  0.113700  1.0  0.1221
  H  H371  1  0.154900  0.483800  0.144300  1.0  0.1376
  H  H372  1  0.157700  0.517700  0.133800  1.0  0.1163
  H  H373  1  0.155300  0.456300  0.051800  1.0  0.1035
  H  H374  1  0.136400  0.434800  0.016200  1.0  0.1006
  H  H375  1  0.128200  0.403500  0.036500  1.0  0.1063
  H  H376  1  0.351400  0.554100  0.028500  1.0  0.1278
  H  H377  1  0.304500  0.491200  0.016300  1.0  0.1301
  H  H378  1  0.313600  0.522100  0.994900  1.0  0.1146
  H  H379  1  0.147500  0.568600  0.187500  1.0  0.1165
  H  H380  1  0.205300  0.616700  0.181600  1.0  0.1203
  H  H381  1  0.158600  0.556700  0.161300  1.0  0.1071
  H  H382  1  0.252700  0.558000  0.261900  1.0  0.127
  H  H383  1  0.250000  0.542000  0.229000  1.0  0.1277
  H  H384  1  0.299100  0.603800  0.246900  1.0  0.1217
  H  H385  1  0.793000  0.435100  0.609500  1.0  0.1245
  H  H386  1  0.800300  0.419400  0.582700  1.0  0.1101
  H  H387  1  0.849100  0.480800  0.601500  1.0  0.1259
  H  H388  1  0.900400  0.422000  0.680200  1.0  0.1289
  H  H389  1  0.946000  0.468500  0.665300  1.0  0.1204
  H  H390  1  0.897200  0.407000  0.646800  1.0  0.1312
  H  H391  1  0.868500  0.377800  0.731100  1.0  0.1311
  H  H392  1  0.835600  0.321800  0.732200  1.0  0.1338
  H  H393  1  0.874900  0.369700  0.762200  1.0  0.128
  H  H394  1  0.667900  0.262900  0.766400  1.0  0.1216
  H  H395  1  0.694100  0.267600  0.794900  1.0  0.1228
  H  H396  1  0.654500  0.218200  0.765700  1.0  0.1294
  H  H397  1  0.719600  0.524500  0.679700  1.0  0.1164
  H  H398  1  0.757400  0.533500  0.668100  1.0  0.1046
  H  H399  1  0.716600  0.518000  0.645000  1.0  0.1346
  H  H400  1  0.894100  0.760500  0.691200  1.0  0.1253
  H  H401  1  0.881200  0.743200  0.721600  1.0  0.1205
  H  H402  1  0.839700  0.726200  0.697700  1.0  0.1317
  H  H403  1  0.115300  0.168400  0.989100  1.0  0.1263
  H  H404  1  0.097700  0.185900  0.983000  1.0  0.1216
  H  H405  1  0.128000  0.193400  0.962000  1.0  0.129
  H  H406  1  0.903200  0.963600  0.888400  1.0  0.1281
  H  H407  1  0.935500  0.009900  0.872400  1.0  0.1216
  H  H408  1  0.901000  0.995900  0.892900  1.0  0.1282
  H  H409  1  0.845700  0.860400  0.893700  1.0  0.1218
  H  H410  1  0.795000  0.796600  0.886200  1.0  0.1303
  H  H411  1  0.837100  0.828600  0.866900  1.0  0.1272
  H  H412  1  0.953300  0.848500  0.963200  1.0  0.1264
  H  H413  1  0.931600  0.814200  0.930600  1.0  0.1213
  H  H414  1  0.892600  0.786100  0.951700  1.0  0.1322
  H  H415  1  0.463500  0.952100  0.891400  1.0  0.1248
  H  H416  1  0.500000  0.957900  0.881900  1.0  0.1109
  H  H417  1  0.505500  0.994700  0.873600  1.0  0.132
  H  H418  1  0.670700  0.144600  0.997700  1.0  0.1267
  H  H419  1  0.693300  0.169500  0.970200  1.0  0.1147
  H  H420  1  0.688700  0.133500  0.978600  1.0  0.1348
  H  H421  1  0.538800  0.624000  0.003200  1.0  0.13
  H  H422  1  0.528400  0.639300  0.979900  1.0  0.1061
  H  H423  1  0.587400  0.676400  0.992600  1.0  0.1257
  H  H424  1  0.538600  0.579800  0.876200  1.0  0.1009
  H  H425  1  0.489900  0.518500  0.876800  1.0  0.1343
  H  H426  1  0.550500  0.559000  0.889100  1.0  0.0998
  H  H427  1  0.445100  0.410000  0.873700  1.0  0.111
  H  H428  1  0.386300  0.351800  0.853300  1.0  0.1028
  H  H429  1  0.430100  0.364300  0.863600  1.0  0.1079
  H  H430  1  0.328900  0.277900  0.967400  1.0  0.1246
  H  H431  1  0.323000  0.243900  0.946100  1.0  0.1281
  H  H432  1  0.282000  0.235200  0.936800  1.0  0.133
  H  H433  1  0.297300  0.323800  0.048300  1.0  0.1178
  H  H434  1  0.336500  0.333100  0.039400  1.0  0.1177
  H  H435  1  0.293300  0.311800  0.013900  1.0  0.1302
  H  H436  1  0.469500  0.554700  0.041800  1.0  0.1343
  H  H437  1  0.456200  0.544300  0.073300  1.0  0.1122
  H  H438  1  0.414800  0.522500  0.045500  1.0  0.1413
  H  H439  1  0.796500  0.095200  0.498700  1.0  0.1244
  H  H440  1  0.820700  0.092600  0.478700  1.0  0.1128
  H  H441  1  0.830600  0.134400  0.477800  1.0  0.1291
  H  H442  1  0.034300  0.283600  0.577100  1.0  0.1293
  H  H443  1  0.043700  0.302800  0.547500  1.0  0.1193
  H  H444  1  0.034100  0.261200  0.549100  1.0  0.1232
  H  H445  1  0.065100  0.337900  0.635800  1.0  0.1266
  H  H446  1  0.104000  0.377000  0.668800  1.0  0.1153
  H  H447  1  0.100600  0.396500  0.644300  1.0  0.133
  H  H448  1  0.917100  0.289100  0.696200  1.0  0.1288
  H  H449  1  0.963400  0.350600  0.697200  1.0  0.1247
  H  H450  1  0.971900  0.335700  0.722400  1.0  0.1278
  H  H451  1  0.731800  0.156000  0.636400  1.0  0.1186
  H  H452  1  0.794900  0.203500  0.644000  1.0  0.1357
  H  H453  1  0.757900  0.152800  0.656700  1.0  0.125
  H  H454  1  0.715800  0.050200  0.531000  1.0  0.1193
  H  H455  1  0.695700  0.064500  0.521000  1.0  0.1196
  H  H456  1  0.659500  0.014700  0.534600  1.0  0.1168
  H  H457  1  0.079500  0.490000  0.683300  1.0  0.1287
  H  H458  1  0.054100  0.443500  0.658200  1.0  0.1339
  H  H459  1  0.026000  0.429000  0.684000  1.0  0.1137
  H  H460  1  0.179700  0.465500  0.746200  1.0  0.1165
  H  H461  1  0.117600  0.407300  0.742300  1.0  0.1005
  H  H462  1  0.142700  0.419800  0.715300  1.0  0.1059
  H  H463  1  0.287500  0.555100  0.788600  1.0  0.139
  H  H464  1  0.345100  0.590700  0.789000  1.0  0.1286
  H  H465  1  0.328400  0.581800  0.819400  1.0  0.1245
  H  H466  1  0.431700  0.786300  0.823400  1.0  0.1296
  H  H467  1  0.458800  0.790300  0.850700  1.0  0.1205
  H  H468  1  0.474800  0.798600  0.820000  1.0  0.1165
  H  H469  1  0.389300  0.807700  0.787600  1.0  0.1375
  H  H470  1  0.394300  0.833800  0.763900  1.0  0.1424
  H  H471  1  0.376800  0.830600  0.793000  1.0  0.129
  H  H472  1  0.152500  0.608600  0.706900  1.0  0.1203
  H  H473  1  0.157300  0.644900  0.721600  1.0  0.114
  H  H474  1  0.177500  0.654000  0.692700  1.0  0.1394
  H  H475  1  0.431500  0.657700  0.889400  1.0  0.1334
  H  H476  1  0.412000  0.674000  0.887400  1.0  0.1295
  H  H477  1  0.380400  0.622900  0.863100  1.0  0.1171
  H  H478  1  0.543500  0.791200  0.796500  1.0  0.1287
  H  H479  1  0.481600  0.743600  0.779800  1.0  0.1183
  H  H480  1  0.513700  0.794900  0.804000  1.0  0.1232
  H  H481  1  0.675000  0.859700  0.760500  1.0  0.108
  H  H482  1  0.620900  0.817400  0.770500  1.0  0.1282
  H  H483  1  0.674500  0.878400  0.790500  1.0  0.1215
  H  H484  1  0.725300  0.800300  0.841000  1.0  0.1311
  H  H485  1  0.716900  0.785400  0.805900  1.0  0.1365
  H  H486  1  0.770700  0.846600  0.825900  1.0  0.1224
  H  H487  1  0.664500  0.727600  0.887900  1.0  0.1183
  H  H488  1  0.667200  0.718000  0.919400  1.0  0.1233
  H  H489  1  0.627700  0.670100  0.889400  1.0  0.1126
  H  H490  1  0.470600  0.596600  0.934000  1.0  0.1097
  H  H491  1  0.490600  0.645800  0.935600  1.0  0.1384
  H  H492  1  0.452400  0.599000  0.905000  1.0  0.1287
  H  H493  1  0.868800  0.960300  0.790500  1.0  0.135
  H  H494  1  0.831900  0.917200  0.809100  1.0  0.1189
  H  H495  1  0.838000  0.956200  0.808200  1.0  0.1078
  H  H496  1  0.640400  0.769800  0.698000  1.0  0.1323
  H  H497  1  0.630600  0.783000  0.724400  1.0  0.11
  H  H498  1  0.626100  0.745400  0.725700  1.0  0.1382
  H  H499  1  0.625200  0.732200  0.634400  1.0  0.1294
  H  H500  1  0.595900  0.677300  0.622800  1.0  0.1089
  H  H501  1  0.599200  0.702700  0.599500  1.0  0.1189
  H  H502  1  0.747600  0.748400  0.572800  1.0  0.1054
  H  H503  1  0.792200  0.787000  0.604400  1.0  0.1315
  H  H504  1  0.793700  0.811100  0.581000  1.0  0.1188
  H  H505  1  0.925700  0.912500  0.647600  1.0  0.1246
  H  H506  1  0.948500  0.908000  0.670700  1.0  0.1169
  H  H507  1  0.989000  0.962700  0.661700  1.0  0.1283
  H  H508  1  0.959100  0.013400  0.769300  1.0  0.128
  H  H509  1  0.018400  0.051700  0.771700  1.0  0.1399
  H  H510  1  0.975100  0.995200  0.778900  1.0  0.1335
  H  H511  1  0.406100  0.035100  0.654600  1.0  0.1299
  H  H512  1  0.396700  0.024000  0.619100  1.0  0.1246
  H  H513  1  0.446700  0.050700  0.640400  1.0  0.1293
  H  H514  1  0.282700  0.813600  0.621500  1.0  0.1186
  H  H515  1  0.333500  0.848500  0.609400  1.0  0.1222
  H  H516  1  0.283100  0.822100  0.589000  1.0  0.1056
  H  H517  1  0.250800  0.759800  0.663000  1.0  0.1161
  H  H518  1  0.223500  0.711800  0.675100  1.0  0.1276
  H  H519  1  0.286200  0.763300  0.677500  1.0  0.1233
  H  H520  1  0.314200  0.853300  0.798900  1.0  0.1295
  H  H521  1  0.341200  0.844900  0.799300  1.0  0.1246
  H  H522  1  0.279500  0.796100  0.798800  1.0  0.1085
  H  H523  1  0.341300  0.949300  0.815000  1.0  0.1302
  H  H524  1  0.348300  0.987600  0.829500  1.0  0.1282
  H  H525  1  0.399700  0.010700  0.832600  1.0  0.1326
  H  H526  1  0.403800  0.064000  0.715800  1.0  0.1299
  H  H527  1  0.456200  0.114100  0.743300  1.0  0.1105
  H  H528  1  0.405100  0.091400  0.740100  1.0  0.1331
  H  H529  1  0.473700  0.555700  0.205600  1.0  0.1316
  H  H530  1  0.515000  0.614600  0.224800  1.0  0.1205
  H  H531  1  0.497600  0.574500  0.240900  1.0  0.1169
  H  H532  1  0.314300  0.504100  0.251400  1.0  0.1256
  H  H533  1  0.352200  0.527200  0.282600  1.0  0.1315
  H  H534  1  0.369500  0.567400  0.266700  1.0  0.112
  H  H535  1  0.503600  0.711200  0.280000  1.0  0.1267
  H  H536  1  0.488800  0.677700  0.250100  1.0  0.1171
  H  H537  1  0.444500  0.648100  0.267400  1.0  0.1048
  H  H538  1  0.537300  0.618600  0.328500  1.0  0.1196
  H  H539  1  0.474300  0.564400  0.312300  1.0  0.126
  H  H540  1  0.516300  0.592700  0.293400  1.0  0.1159
  H  H541  1  0.213800  0.328700  0.051900  1.0  0.1237
  H  H542  1  0.251400  0.363400  0.030400  1.0  0.1311
  H  H543  1  0.236100  0.319300  0.037400  1.0  0.1254
  H  H544  1  0.442100  0.510600  0.142700  1.0  0.116
  H  H545  1  0.440000  0.481200  0.119800  1.0  0.1181
  H  H546  1  0.457900  0.526700  0.112400  1.0  0.1115
  H  H547  1  0.999400  0.185200  0.291800  1.0  0.1246
  H  H548  1  0.983800  0.139200  0.280800  1.0  0.1305
  H  H549  1  0.940200  0.127100  0.271500  1.0  0.1081
  H  H550  1  0.886400  0.055700  0.386300  1.0  0.1227
  H  H551  1  0.839500  0.010600  0.355700  1.0  0.137
  H  H552  1  0.883900  0.023900  0.366200  1.0  0.1209
  H  H553  1  0.904500  0.103500  0.448200  1.0  0.1035
  H  H554  1  0.918600  0.120200  0.483800  1.0  0.1009
  H  H555  1  0.867000  0.091700  0.463500  1.0  0.1051
  H  H556  1  0.025600  0.322900  0.471500  1.0  0.1295
  H  H557  1  0.974900  0.288200  0.483700  1.0  0.1308
  H  H558  1  0.027200  0.318700  0.505100  1.0  0.1173
  H  H559  1  0.881100  0.960000  0.312500  1.0  0.1189
  H  H560  1  0.935100  0.023700  0.318400  1.0  0.1209
  H  H561  1  0.895400  0.997300  0.338700  1.0  0.1039
  H  H562  1  0.796100  0.990800  0.238100  1.0  0.1277
  H  H563  1  0.813000  0.021000  0.271000  1.0  0.1273
  H  H564  1  0.856900  0.052200  0.253100  1.0  0.1229
  H  H565  1  0.325600  0.183500  0.890500  1.0  0.1282
  H  H566  1  0.336700  0.217600  0.917300  1.0  0.1095
  H  H567  1  0.379300  0.247600  0.898500  1.0  0.128
  H  H568  1  0.241800  0.220200  0.819800  1.0  0.1277
  H  H569  1  0.303200  0.280700  0.834700  1.0  0.1218
  H  H570  1  0.260200  0.250400  0.853200  1.0  0.1312
  H  H571  1  0.146700  0.137400  0.768900  1.0  0.1313
  H  H572  1  0.089600  0.103400  0.767800  1.0  0.1313
  H  H573  1  0.107500  0.112700  0.737800  1.0  0.1274
  H  H574  1  0.996500  0.901500  0.733600  1.0  0.1234
  H  H575  1  0.972700  0.899200  0.705100  1.0  0.1249
  H  H576  1  0.952500  0.888800  0.734300  1.0  0.1293
  H  H577  1  0.344800  0.039900  0.820300  1.0  0.1166
  H  H578  1  0.365400  0.089300  0.831900  1.0  0.1063
  H  H579  1  0.373000  0.071600  0.855000  1.0  0.1367
  H  H580  1  0.569300  0.202900  0.808800  1.0  0.1251
  H  H581  1  0.521600  0.159600  0.778400  1.0  0.1202
  H  H582  1  0.528500  0.142000  0.802300  1.0  0.1297
  H  H583  1  0.679300  0.126200  0.510900  1.0  0.1278
  H  H584  1  0.702900  0.114700  0.517000  1.0  0.1223
  H  H585  1  0.731400  0.166000  0.538000  1.0  0.129
  H  H586  1  0.575200  0.014800  0.611600  1.0  0.1302
  H  H587  1  0.637500  0.063100  0.627600  1.0  0.1213
  H  H588  1  0.603000  0.008100  0.607100  1.0  0.1276
  H  H589  1  0.466700  0.952000  0.606300  1.0  0.12
  H  H590  1  0.410400  0.908800  0.613800  1.0  0.1297
  H  H591  1  0.461700  0.970200  0.633100  1.0  0.1271
  H  H592  1  0.385300  0.990100  0.536800  1.0  0.1265
  H  H593  1  0.383600  0.001000  0.569400  1.0  0.1225
  H  H594  1  0.334400  0.940900  0.548300  1.0  0.1315
  H  H595  1  0.560700  0.572100  0.608600  1.0  0.1218
  H  H596  1  0.576000  0.618100  0.618100  1.0  0.1122
  H  H597  1  0.621100  0.631900  0.626400  1.0  0.1326
  H  H598  1  0.646900  0.673000  0.502300  1.0  0.1271
  H  H599  1  0.699300  0.723100  0.529800  1.0  0.1123
  H  H600  1  0.654900  0.710100  0.521400  1.0  0.1342
  H  H601  1  0.035600  0.038800  0.414800  1.0  0.1294
  H  H602  1  0.048500  0.028400  0.389100  1.0  0.1017
  H  H603  1  0.094800  0.087400  0.411000  1.0  0.1227
  H  H604  1  0.162400  0.038600  0.458800  1.0  0.1014
  H  H605  1  0.113100  0.989900  0.471400  1.0  0.1333
  H  H606  1  0.161400  0.050500  0.491500  1.0  0.0983
  H  H607  1  0.071400  0.945100  0.535100  1.0  0.1077
  H  H608  1  0.033000  0.886300  0.534500  1.0  0.1029
  H  H609  1  0.066500  0.930100  0.565800  1.0  0.1072
  H  H610  1  0.861500  0.828900  0.551000  1.0  0.1241
  H  H611  1  0.876900  0.823000  0.579100  1.0  0.1278
  H  H612  1  0.845200  0.782000  0.546800  1.0  0.132
  H  H613  1  0.749000  0.797300  0.473500  1.0  0.1186
  H  H614  1  0.797100  0.836500  0.503400  1.0  0.1188
  H  H615  1  0.779400  0.793300  0.481500  1.0  0.131
  H  H616  1  0.927700  0.969500  0.414800  1.0  0.1326
  H  H617  1  0.882900  0.956200  0.411900  1.0  0.1129
  H  H618  1  0.869300  0.914800  0.392300  1.0  0.1428
  H  H619  1  0.797800  0.296500  0.201300  1.0  0.1234
  H  H620  1  0.842000  0.320700  0.228100  1.0  0.1142
  H  H621  1  0.852800  0.330600  0.196200  1.0  0.1303
  H  H622  1  0.957200  0.534300  0.250700  1.0  0.1293
  H  H623  1  0.996200  0.543700  0.240900  1.0  0.1191
  H  H624  1  0.985000  0.534100  0.272900  1.0  0.1171
  H  H625  1  0.929300  0.565100  0.227200  1.0  0.1228
  H  H626  1  0.935200  0.604000  0.227000  1.0  0.1161
  H  H627  1  0.956300  0.600600  0.204100  1.0  0.1309
  H  H628  1  0.720900  0.417100  0.128000  1.0  0.1265
  H  H629  1  0.766200  0.463400  0.112800  1.0  0.1222
  H  H630  1  0.749500  0.471900  0.136200  1.0  0.1285
  H  H631  1  0.595400  0.231800  0.075800  1.0  0.1176
  H  H632  1  0.650900  0.294900  0.091400  1.0  0.1387
  H  H633  1  0.601200  0.257900  0.105100  1.0  0.1236
  H  H634  1  0.684800  0.215800  0.165600  1.0  0.1189
  H  H635  1  0.674700  0.195700  0.131200  1.0  0.1202
  H  H636  1  0.624900  0.159500  0.144800  1.0  0.1165
  H  H637  1  0.896200  0.579500  0.089500  1.0  0.1267
  H  H638  1  0.895900  0.554100  0.110600  1.0  0.1317
  H  H639  1  0.842000  0.526000  0.097000  1.0  0.116
  H  H640  1  0.933500  0.679700  0.214200  1.0  0.1166
  H  H641  1  0.875300  0.617600  0.210300  1.0  0.1009
  H  H642  1  0.927400  0.642700  0.222900  1.0  0.1062
  H  H643  1  0.998900  0.787500  0.232400  1.0  0.1352
  H  H644  1  0.056100  0.845100  0.254400  1.0  0.128
  H  H645  1  0.009000  0.828400  0.246600  1.0  0.1235
  H  H646  1  0.108300  0.931700  0.145400  1.0  0.1287
  H  H647  1  0.108100  0.958800  0.168500  1.0  0.1208
  H  H648  1  0.154800  0.974800  0.176200  1.0  0.1177
  H  H649  1  0.101700  0.889300  0.081600  1.0  0.1393
  H  H650  1  0.130400  0.894300  0.060500  1.0  0.1426
  H  H651  1  0.083800  0.876800  0.046200  1.0  0.128
  H  H652  1  0.945600  0.652500  0.043900  1.0  0.1238
  H  H653  1  0.935700  0.657300  0.012400  1.0  0.1137
  H  H654  1  0.984800  0.677500  0.023500  1.0  0.1427
  H  H655  1  0.042100  0.931500  0.273800  1.0  0.1331
  H  H656  1  0.024600  0.912000  0.238000  1.0  0.1315
  H  H657  1  0.017300  0.880400  0.257500  1.0  0.1166
  H  H658  1  0.247000  0.043500  0.252300  1.0  0.1291
  H  H659  1  0.201800  0.981600  0.238000  1.0  0.1199
  H  H660  1  0.209700  0.013700  0.218800  1.0  0.1236
  H  H661  1  0.414500  0.175000  0.315300  1.0  0.1091
  H  H662  1  0.350400  0.120900  0.303500  1.0  0.1281
  H  H663  1  0.384000  0.174500  0.296100  1.0  0.1208
  H  H664  1  0.384300  0.225300  0.425000  1.0  0.1308
  H  H665  1  0.411000  0.216900  0.431500  1.0  0.138
  H  H666  1  0.444800  0.270700  0.424100  1.0  0.1215
  H  H667  1  0.276600  0.164500  0.436900  1.0  0.1204
  H  H668  1  0.247800  0.167200  0.449200  1.0  0.1231
  H  H669  1  0.238300  0.127700  0.457600  1.0  0.1147
  H  H670  1  0.036600  0.970600  0.374000  1.0  0.1106
  H  H671  1  0.055000  0.990600  0.344800  1.0  0.1387
  H  H672  1  0.047400  0.952400  0.353400  1.0  0.1293
  H  H673  1  0.578300  0.368800  0.408500  1.0  0.136
  H  H674  1  0.522800  0.331900  0.414700  1.0  0.1211
  H  H675  1  0.529800  0.338000  0.381800  1.0  0.1104
  H  H676  1  0.442400  0.140400  0.370600  1.0  0.1323
  H  H677  1  0.406200  0.130600  0.347600  1.0  0.1118
  H  H678  1  0.400400  0.126100  0.380700  1.0  0.1393
  H  H679  1  0.490800  0.125200  0.393000  1.0  0.1287
  H  H680  1  0.473100  0.095900  0.418600  1.0  0.1087
  H  H681  1  0.499700  0.099200  0.396500  1.0  0.119
  H  H682  1  0.674800  0.247600  0.499200  1.0  0.1064
  H  H683  1  0.687800  0.292200  0.505200  1.0  0.1338
  H  H684  1  0.712700  0.293700  0.482600  1.0  0.1166
  H  H685  1  0.778100  0.425700  0.513200  1.0  0.1258
  H  H686  1  0.777800  0.448500  0.540500  1.0  0.1194
  H  H687  1  0.827300  0.489000  0.526300  1.0  0.1272
  H  H688  1  0.689800  0.459100  0.445700  1.0  0.1305
  H  H689  1  0.746700  0.518400  0.466700  1.0  0.1382
  H  H690  1  0.696200  0.475100  0.479900  1.0  0.1341
  H  H691  1  0.251500  0.906100  0.871000  1.0  0.1274
  H  H692  1  0.277600  0.896700  0.872700  1.0  0.1236
  H  H693  1  0.306300  0.946700  0.896000  1.0  0.1294
  H  H694  1  0.161200  0.782700  0.969100  1.0  0.1183
  H  H695  1  0.224100  0.833500  0.985000  1.0  0.1182
  H  H696  1  0.194100  0.783100  0.961000  1.0  0.1062
  H  H697  1  0.087800  0.750800  0.991000  1.0  0.1149
  H  H698  1  0.048400  0.723500  0.011700  1.0  0.1263
  H  H699  1  0.108700  0.786200  0.022900  1.0  0.1203
  H  H700  1  0.015300  0.814200  0.960900  1.0  0.1275
  H  H701  1  0.041900  0.841200  0.996300  1.0  0.124
  H  H702  1  0.980700  0.779500  0.983400  1.0  0.1088
  H  H703  1  0.026300  0.841300  0.892000  1.0  0.1298
  H  H704  1  0.018800  0.848300  0.860700  1.0  0.1302
  H  H705  1  0.067100  0.899700  0.889000  1.0  0.1308
  H  H706  1  0.188000  0.903800  0.839800  1.0  0.1282
  H  H707  1  0.212900  0.956200  0.842100  1.0  0.1094
  H  H708  1  0.165000  0.905100  0.813700  1.0  0.1318
  H  H709  1  0.768100  0.973700  0.418000  1.0  0.1321
  H  H710  1  0.790200  0.015000  0.400400  1.0  0.1195
  H  H711  1  0.756700  0.997600  0.423100  1.0  0.116
  H  H712  1  0.562900  0.814300  0.310200  1.0  0.124
  H  H713  1  0.569600  0.852200  0.325000  1.0  0.1317
  H  H714  1  0.602800  0.869500  0.302100  1.0  0.1096
  H  H715  1  0.723600  0.003600  0.292400  1.0  0.1293
  H  H716  1  0.738700  0.988800  0.311100  1.0  0.1194
  H  H717  1  0.677100  0.944500  0.296400  1.0  0.104
  H  H718  1  0.708800  0.037300  0.418700  1.0  0.1206
  H  H719  1  0.662000  0.974300  0.409900  1.0  0.1265
  H  H720  1  0.722900  0.016300  0.423600  1.0  0.1162
  H  H721  1  0.661900  0.713800  0.385100  1.0  0.1253
  H  H722  1  0.721000  0.751400  0.388000  1.0  0.1296
  H  H723  1  0.698700  0.736100  0.416800  1.0  0.1265
  H  H724  1  0.799400  0.942100  0.431500  1.0  0.1195
  H  H725  1  0.820200  0.940000  0.458800  1.0  0.1157
  H  H726  1  0.845500  0.957900  0.431200  1.0  0.1105
  H  H727  1  0.207600  0.499400  0.314200  1.0  0.1243
  H  H728  1  0.203000  0.483800  0.344600  1.0  0.129
  H  H729  1  0.168700  0.440200  0.313100  1.0  0.109
  H  H730  1  0.000100  0.386400  0.330700  1.0  0.1216
  H  H731  1  0.983800  0.339500  0.328900  1.0  0.1359
  H  H732  1  0.017700  0.383900  0.360000  1.0  0.1167
  H  H733  1  0.956300  0.404500  0.301000  1.0  0.1059
  H  H734  1  0.934800  0.418600  0.298400  1.0  0.1005
  H  H735  1  0.903500  0.367000  0.275300  1.0  0.1071
  H  H736  1  0.054100  0.525600  0.202700  1.0  0.1279
  H  H737  1  0.991200  0.474900  0.186700  1.0  0.129
  H  H738  1  0.022100  0.527200  0.208500  1.0  0.1139
  H  H739  1  0.068600  0.381100  0.421100  1.0  0.1151
  H  H740  1  0.116700  0.435100  0.411400  1.0  0.1207
  H  H741  1  0.056700  0.395400  0.398100  1.0  0.1061
  H  H742  1  0.058000  0.296100  0.305300  1.0  0.1299
  H  H743  1  0.042000  0.313000  0.292000  1.0  0.1266
  H  H744  1  0.103800  0.356900  0.304700  1.0  0.1225
  H  H745  1  0.935100  0.825600  0.642100  1.0  0.1254
  H  H746  1  0.919400  0.836700  0.619100  1.0  0.1113
  H  H747  1  0.980800  0.879300  0.631700  1.0  0.1272
  H  H748  1  0.922000  0.741800  0.521600  1.0  0.1304
  H  H749  1  0.968500  0.803200  0.522500  1.0  0.1188
  H  H750  1  0.907000  0.760200  0.509800  1.0  0.1282
  H  H751  1  0.877800  0.646700  0.509300  1.0  0.1327
  H  H752  1  0.821800  0.589600  0.486200  1.0  0.1339
  H  H753  1  0.869700  0.607500  0.494800  1.0  0.1286
  H  H754  1  0.762900  0.496500  0.595000  1.0  0.1214
  H  H755  1  0.767600  0.472700  0.573500  1.0  0.1245
  H  H756  1  0.718200  0.452500  0.563700  1.0  0.1285
  H  H757  1  0.024500  0.844800  0.804900  1.0  0.1172
  H  H758  1  0.033500  0.865400  0.776100  1.0  0.106
  H  H759  1  0.018000  0.873000  0.801400  1.0  0.1358
  H  H760  1  0.260500  0.069300  0.866400  1.0  0.1247
  H  H761  1  0.243200  0.021600  0.862000  1.0  0.121
  H  H762  1  0.226200  0.028500  0.886500  1.0  0.1304
  H  H763  1  0.668400  0.179300  0.053100  1.0  0.1276
  H  H764  1  0.685900  0.202900  0.088200  1.0  0.1209
  H  H765  1  0.693400  0.231400  0.065400  1.0  0.1296
  H  H766  1  0.463600  0.075200  0.060400  1.0  0.1293
  H  H767  1  0.509900  0.137500  0.074400  1.0  0.1214
  H  H768  1  0.495900  0.103000  0.094900  1.0  0.1242
  H  H769  1  0.360400  0.966700  0.014700  1.0  0.1214
  H  H770  1  0.296600  0.910400  0.001600  1.0  0.1285
  H  H771  1  0.328600  0.961700  0.991500  1.0  0.1278
  H  H772  1  0.348500  0.885300  0.895200  1.0  0.1269
  H  H773  1  0.314200  0.883600  0.882600  1.0  0.122
  H  H774  1  0.286100  0.834400  0.893500  1.0  0.1305
  H  H775  1  0.452100  0.060700  0.488600  1.0  0.1262
  H  H776  1  0.457900  0.076000  0.457900  1.0  0.1128
  H  H777  1  0.494700  0.121100  0.489200  1.0  0.1329
  H  H778  1  0.644600  0.146900  0.473900  1.0  0.1261
  H  H779  1  0.669500  0.199300  0.476200  1.0  0.1143
  H  H780  1  0.633500  0.154900  0.444800  1.0  0.1327
  H  H781  1  0.124000  0.620800  0.085200  1.0  0.133
  H  H782  1  0.139300  0.659400  0.110900  1.0  0.1003
  H  H783  1  0.176400  0.683800  0.089000  1.0  0.1238
  H  H784  1  0.079800  0.703600  0.041200  1.0  0.1043
  H  H785  1  0.018500  0.641700  0.028600  1.0  0.1322
  H  H786  1  0.059000  0.669900  0.008500  1.0  0.098
  H  H787  1  0.910000  0.536300  0.964900  1.0  0.1117
  H  H788  1  0.851800  0.498500  0.965500  1.0  0.1027
  H  H789  1  0.864300  0.500700  0.934200  1.0  0.1066
  H  H790  1  0.777900  0.310500  0.949000  1.0  0.123
  H  H791  1  0.743900  0.297800  0.920900  1.0  0.1296
  H  H792  1  0.735200  0.298400  0.953200  1.0  0.1339
  H  H793  1  0.823800  0.275500  0.026500  1.0  0.1196
  H  H794  1  0.833100  0.293700  0.996600  1.0  0.1191
  H  H795  1  0.811800  0.297900  0.018500  1.0  0.1294
  H  H796  1  0.054700  0.512900  0.085200  1.0  0.1329
  H  H797  1  0.044300  0.471000  0.088100  1.0  0.1124
  H  H798  1  0.022500  0.477000  0.107700  1.0  0.144
  H  H799  1  0.595200  0.596500  0.298700  1.0  0.123
  H  H800  1  0.592600  0.613900  0.271900  1.0  0.113
  H  H801  1  0.634400  0.656600  0.303800  1.0  0.1299
  H  H802  1  0.783600  0.706500  0.249300  1.0  0.1298
  H  H803  1  0.802800  0.755300  0.259100  1.0  0.1187
  H  H804  1  0.761200  0.712100  0.227100  1.0  0.1159
  H  H805  1  0.837900  0.702100  0.272800  1.0  0.1226
  H  H806  1  0.877000  0.708200  0.273000  1.0  0.1148
  H  H807  1  0.896500  0.752200  0.295900  1.0  0.1324
  H  H808  1  0.789100  0.592900  0.372000  1.0  0.1306
  H  H809  1  0.850600  0.653400  0.387200  1.0  0.1257
  H  H810  1  0.835700  0.613300  0.363800  1.0  0.1309
  H  H811  1  0.656000  0.519600  0.424200  1.0  0.1182
  H  H812  1  0.703500  0.559500  0.408600  1.0  0.1385
  H  H813  1  0.652800  0.496100  0.394900  1.0  0.1267
  H  H814  1  0.550200  0.519200  0.334400  1.0  0.12
  H  H815  1  0.564500  0.543500  0.368800  1.0  0.1199
  H  H816  1  0.514700  0.480100  0.355200  1.0  0.1175
  H  H817  1  0.990000  0.806700  0.410500  1.0  0.1277
  H  H818  1  0.943500  0.785300  0.389400  1.0  0.1352
  H  H819  1  0.929000  0.745000  0.403000  1.0  0.1136
  H  H820  1  0.965500  0.719300  0.285800  1.0  0.1161
  H  H821  1  0.907300  0.665000  0.289700  1.0  0.1007
  H  H822  1  0.919800  0.704500  0.277100  1.0  0.1057
  H  H823  1  0.055100  0.766500  0.267600  1.0  0.1372
  H  H824  1  0.090700  0.801700  0.245600  1.0  0.1292
  H  H825  1  0.081800  0.762400  0.253400  1.0  0.1246
  H  H826  1  0.286300  0.962900  0.354600  1.0  0.1278
  H  H827  1  0.290300  0.939600  0.331500  1.0  0.1242
  H  H828  1  0.298600  0.978600  0.323800  1.0  0.1188
  H  H829  1  0.307700  0.020100  0.418400  1.0  0.1361
  H  H830  1  0.333800  0.069900  0.439500  1.0  0.1431
  H  H831  1  0.330600  0.037600  0.453800  1.0  0.1272
  H  H832  1  0.108600  0.901700  0.456100  1.0  0.1232
  H  H833  1  0.144900  0.923300  0.487600  1.0  0.1174
  H  H834  1  0.154000  0.961300  0.476500  1.0  0.143
  H  H835  1  0.157700  0.768300  0.226200  1.0  0.1349
  H  H836  1  0.174000  0.786600  0.262000  1.0  0.1296
  H  H837  1  0.122900  0.759800  0.242500  1.0  0.1154
  H  H838  1  0.291200  0.994700  0.247700  1.0  0.1289
  H  H839  1  0.243600  0.963800  0.262000  1.0  0.1215
  H  H840  1  0.294900  0.990900  0.281200  1.0  0.1246
  H  H841  1  0.359700  0.099200  0.184700  1.0  0.1086
  H  H842  1  0.317400  0.046900  0.196500  1.0  0.1269
  H  H843  1  0.378400  0.087900  0.203900  1.0  0.1223
  H  H844  1  0.300300  0.959300  0.075000  1.0  0.133
  H  H845  1  0.285400  0.979500  0.068500  1.0  0.1365
  H  H846  1  0.346600  0.020700  0.075900  1.0  0.1228
  H  H847  1  0.227600  0.839700  0.063100  1.0  0.1169
  H  H848  1  0.218000  0.798600  0.050800  1.0  0.1227
  H  H849  1  0.170100  0.780700  0.042400  1.0  0.1137
  H  H850  1  0.096600  0.662600  0.126000  1.0  0.1063
  H  H851  1  0.145800  0.710200  0.155200  1.0  0.137
  H  H852  1  0.099000  0.694000  0.146600  1.0  0.1299
  H  H853  1  0.460300  0.169800  0.091500  1.0  0.136
  H  H854  1  0.417200  0.108100  0.085300  1.0  0.1213
  H  H855  1  0.456200  0.148000  0.118200  1.0  0.1073
  H  H856  1  0.269800  0.071800  0.129400  1.0  0.1322
  H  H857  1  0.283000  0.058600  0.152400  1.0  0.1115
  H  H858  1  0.245400  0.019700  0.119300  1.0  0.1385
  H  H859  1  0.232200  0.097800  0.107000  1.0  0.1298
  H  H860  1  0.177300  0.054500  0.081400  1.0  0.1114
  H  H861  1  0.202700  0.103200  0.103500  1.0  0.1169
  H  H862  1  0.248400  0.175600  0.000800  1.0  0.1069
  H  H863  1  0.287000  0.182600  0.994800  1.0  0.1312
  H  H864  1  0.311100  0.230100  0.017400  1.0  0.1184
  H  H865  1  0.412500  0.264900  0.986800  1.0  0.1259
  H  H866  1  0.408000  0.237300  0.959500  1.0  0.1179
  H  H867  1  0.462700  0.301000  0.973700  1.0  0.1265
  H  H868  1  0.513400  0.244100  0.054300  1.0  0.1315
  H  H869  1  0.551700  0.280000  0.033300  1.0  0.1415
  H  H870  1  0.495200  0.216300  0.020100  1.0  0.1327
  H  H871  1  0.535100  0.380500  0.629000  1.0  0.1271
  H  H872  1  0.524000  0.404900  0.627300  1.0  0.1246
  H  H873  1  0.550700  0.410300  0.604000  1.0  0.1309
  H  H874  1  0.313600  0.192100  0.530900  1.0  0.1195
  H  H875  1  0.348500  0.239100  0.515000  1.0  0.1194
  H  H876  1  0.322100  0.233100  0.539000  1.0  0.1081
  H  H877  1  0.259800  0.096800  0.509000  1.0  0.1159
  H  H878  1  0.211800  0.036700  0.488300  1.0  0.1276
  H  H879  1  0.263300  0.085800  0.477100  1.0  0.1214
  H  H880  1  0.353300  0.054400  0.539100  1.0  0.1295
  H  H881  1  0.344900  0.045600  0.503700  1.0  0.126
  H  H882  1  0.296100  0.997300  0.516600  1.0  0.1088
  H  H883  1  0.449300  0.134300  0.608000  1.0  0.131
  H  H884  1  0.487600  0.158100  0.639300  1.0  0.1314
  H  H885  1  0.510700  0.178100  0.611000  1.0  0.1331
  H  H886  1  0.564000  0.348200  0.660200  1.0  0.1304
  H  H887  1  0.614100  0.370800  0.657900  1.0  0.1088
  H  H888  1  0.591400  0.351300  0.686300  1.0  0.1325
  H  H889  1  0.055700  0.350100  0.082000  1.0  0.1331
  H  H890  1  0.114600  0.389800  0.099600  1.0  0.1207
  H  H891  1  0.074500  0.333600  0.076900  1.0  0.1168
  H  H892  1  0.004100  0.252700  0.189800  1.0  0.1253
  H  H893  1  0.027200  0.244600  0.175000  1.0  0.1333
  H  H894  1  0.067400  0.300700  0.197900  1.0  0.1105
  H  H895  1  0.211200  0.431200  0.207600  1.0  0.127
  H  H896  1  0.177700  0.427600  0.188900  1.0  0.1184
  H  H897  1  0.148100  0.380700  0.203600  1.0  0.1032
  H  H898  1  0.118600  0.290100  0.081300  1.0  0.1211
  H  H899  1  0.064400  0.252100  0.090100  1.0  0.1261
  H  H900  1  0.092700  0.299300  0.076400  1.0  0.1151
  H  H901  1  0.828700  0.276800  0.114900  1.0  0.1249
  H  H902  1  0.863400  0.333000  0.112000  1.0  0.1313
  H  H903  1  0.819300  0.281900  0.083200  1.0  0.1259
  H  H904  1  0.010600  0.367900  0.068500  1.0  0.1186
  H  H905  1  0.981200  0.361400  0.041200  1.0  0.1148
  H  H906  1  0.026700  0.414300  0.068800  1.0  0.1122
  H  H907  1  0.685200  0.893400  0.185800  1.0  0.1242
  H  H908  1  0.639200  0.858400  0.155400  1.0  0.1273
  H  H909  1  0.627100  0.855600  0.186900  1.0  0.108
  H  H910  1  0.555700  0.669400  0.169300  1.0  0.123
  H  H911  1  0.510600  0.654900  0.171100  1.0  0.1376
  H  H912  1  0.523900  0.657700  0.140000  1.0  0.1213
  H  H913  1  0.603500  0.655300  0.199000  1.0  0.1034
  H  H914  1  0.620200  0.636400  0.201600  1.0  0.1015
  H  H915  1  0.591700  0.628200  0.224700  1.0  0.1046
  H  H916  1  0.822900  0.851400  0.297300  1.0  0.128
  H  H917  1  0.788200  0.804500  0.313300  1.0  0.1296
  H  H918  1  0.818700  0.813600  0.291500  1.0  0.1161
  H  H919  1  0.460000  0.647500  0.078900  1.0  0.1169
  H  H920  1  0.523700  0.705300  0.088600  1.0  0.1196
  H  H921  1  0.497300  0.658600  0.101900  1.0  0.1078
  H  H922  1  0.490800  0.752700  0.194700  1.0  0.1277
  H  H923  1  0.521000  0.750000  0.208000  1.0  0.1285
  H  H924  1  0.552200  0.799100  0.195300  1.0  0.121
  H  H925  1  0.683500  0.293000  0.857900  1.0  0.1257
  H  H926  1  0.717600  0.300300  0.880900  1.0  0.1108
  H  H927  1  0.747600  0.349100  0.868300  1.0  0.1266
  H  H928  1  0.720200  0.400400  0.978400  1.0  0.1286
  H  H929  1  0.780700  0.446000  0.977500  1.0  0.12
  H  H930  1  0.750400  0.397200  0.990200  1.0  0.1331
  H  H931  1  0.637400  0.368500  0.990700  1.0  0.1301
  H  H932  1  0.603400  0.335600  0.013800  1.0  0.1337
  H  H933  1  0.612700  0.374900  0.005200  1.0  0.1271
  H  H934  1  0.401500  0.167900  0.905000  1.0  0.1236
  H  H935  1  0.399200  0.194100  0.926500  1.0  0.1242
  H  H936  1  0.388800  0.154500  0.936300  1.0  0.1293
  H  H937  1  0.539900  0.219600  0.695100  1.0  0.1153
  H  H938  1  0.589300  0.257400  0.723900  1.0  0.1059
  H  H939  1  0.571600  0.216600  0.698600  1.0  0.1355
  H  H940  1  0.702900  0.394100  0.633600  1.0  0.1255
  H  H941  1  0.659600  0.381200  0.638000  1.0  0.1223
  H  H942  1  0.642000  0.339700  0.613500  1.0  0.1296
  H  H943  1  0.626200  0.615300  0.446900  1.0  0.1296
  H  H944  1  0.614700  0.597700  0.411800  1.0  0.1213
  H  H945  1  0.666000  0.628000  0.434600  1.0  0.1289
  H  H946  1  0.514800  0.403200  0.439600  1.0  0.1311
  H  H947  1  0.563100  0.435500  0.425600  1.0  0.1208
  H  H948  1  0.508100  0.401000  0.405100  1.0  0.1268
  H  H949  1  0.452000  0.345700  0.485300  1.0  0.1223
  H  H950  1  0.408800  0.295000  0.498400  1.0  0.1308
  H  H951  1  0.470200  0.337100  0.508500  1.0  0.1262
  H  H952  1  0.490100  0.453300  0.604800  1.0  0.1273
  H  H953  1  0.501000  0.431600  0.617400  1.0  0.123
  H  H954  1  0.440900  0.392600  0.606500  1.0  0.1323
  H  H955  1  0.072100  0.963500  0.011400  1.0  0.1209
  H  H956  1  0.118100  0.000000  0.042100  1.0  0.1128
  H  H957  1  0.131900  0.005500  0.010800  1.0  0.1316
  H  H958  1  0.173000  0.170700  0.026100  1.0  0.1259
  H  H959  1  0.223100  0.193300  0.023800  1.0  0.1108
  H  H960  1  0.210100  0.188700  0.055200  1.0  0.1331
  H  H961  1  0.879200  0.464400  0.503200  1.0  0.1306
  H  H962  1  0.840600  0.451500  0.479900  1.0  0.1021
  H  H963  1  0.816200  0.405200  0.492600  1.0  0.1229
  H  H964  1  0.796400  0.337600  0.376200  1.0  0.102
  H  H965  1  0.858300  0.386900  0.376800  1.0  0.1319
  H  H966  1  0.830100  0.338600  0.389100  1.0  0.0992
  H  H967  1  0.963700  0.428600  0.373700  1.0  0.112
  H  H968  1  0.001500  0.467000  0.353300  1.0  0.1049
  H  H969  1  0.999300  0.433500  0.363600  1.0  0.1074
  H  H970  1  0.189500  0.638500  0.467400  1.0  0.124
  H  H971  1  0.202200  0.623100  0.446100  1.0  0.1268
  H  H972  1  0.201600  0.654800  0.436800  1.0  0.1335
  H  H973  1  0.224500  0.751000  0.548300  1.0  0.122
  H  H974  1  0.206300  0.702900  0.539400  1.0  0.1162
  H  H975  1  0.202100  0.720600  0.513900  1.0  0.1291
  H  H976  1  0.987100  0.572300  0.541800  1.0  0.1296
  H  H977  1  0.029000  0.617100  0.573300  1.0  0.1136
  H  H978  1  0.023000  0.630700  0.545500  1.0  0.139
  H  H979  1  0.903500  0.702200  0.998700  1.0  0.1266
  H  H980  1  0.886100  0.658000  0.978700  1.0  0.112
  H  H981  1  0.843400  0.647200  0.977800  1.0  0.1316
  H  H982  1  0.793500  0.542800  0.077100  1.0  0.1288
  H  H983  1  0.744700  0.503800  0.047500  1.0  0.119
  H  H984  1  0.787900  0.515000  0.049100  1.0  0.1199
  H  H985  1  0.797900  0.570700  0.135800  1.0  0.1262
  H  H986  1  0.791800  0.564800  0.168800  1.0  0.1166
  H  H987  1  0.747800  0.543700  0.144300  1.0  0.132
  H  H988  1  0.907100  0.779100  0.196200  1.0  0.1306
  H  H989  1  0.846600  0.733800  0.197200  1.0  0.1235
  H  H990  1  0.886700  0.750500  0.222400  1.0  0.1288
  H  H991  1  0.980400  0.904600  0.136400  1.0  0.119
  H  H992  1  0.940500  0.849100  0.144000  1.0  0.1386
  H  H993  1  0.003900  0.898800  0.156700  1.0  0.1274
  H  H994  1  0.980800  0.815200  0.031000  1.0  0.1192
  H  H995  1  0.956500  0.825300  0.021000  1.0  0.1198
  H  H996  1  0.019900  0.875100  0.034600  1.0  0.1202
  H  H997  1  0.693300  0.603800  0.183300  1.0  0.1223
  H  H998  1  0.714700  0.604100  0.158200  1.0  0.1342
  H  H999  1  0.755000  0.658000  0.184000  1.0  0.1168
  H  H1000  1  0.780700  0.566500  0.246200  1.0  0.1158
  H  H1001  1  0.835000  0.624700  0.242300  1.0  0.1026
  H  H1002  1  0.795500  0.572600  0.215300  1.0  0.1069
  H  H1003  1  0.733500  0.501100  0.288600  1.0  0.1373
  H  H1004  1  0.698300  0.443900  0.289000  1.0  0.1283
  H  H1005  1  0.737600  0.491000  0.319400  1.0  0.1236
  H  H1006  1  0.537100  0.391700  0.323400  1.0  0.1302
  H  H1007  1  0.560400  0.391900  0.350700  1.0  0.1206
  H  H1008  1  0.521400  0.345200  0.320000  1.0  0.1198
  H  H1009  1  0.479900  0.398300  0.287600  1.0  0.1373
  H  H1010  1  0.430100  0.369600  0.263900  1.0  0.1442
  H  H1011  1  0.462400  0.416200  0.293000  1.0  0.1281
  H  H1012  1  0.598300  0.554400  0.206900  1.0  0.1237
  H  H1013  1  0.576700  0.564300  0.221600  1.0  0.1156
  H  H1014  1  0.538700  0.515200  0.192700  1.0  0.1395
  H  H1015  1  0.731700  0.457900  0.389400  1.0  0.1334
  H  H1016  1  0.713400  0.475400  0.387400  1.0  0.1301
  H  H1017  1  0.740200  0.482700  0.363100  1.0  0.1156
  H  H1018  1  0.505300  0.253000  0.296500  1.0  0.1317
  H  H1019  1  0.536200  0.298200  0.279800  1.0  0.119
  H  H1020  1  0.509100  0.290300  0.304000  1.0  0.1252
  H  H1021  1  0.400800  0.085500  0.260500  1.0  0.1076
  H  H1022  1  0.453100  0.149600  0.270500  1.0  0.1263
  H  H1023  1  0.412100  0.116000  0.290500  1.0  0.1202
  H  H1024  1  0.540700  0.115700  0.341000  1.0  0.1285
  H  H1025  1  0.520500  0.089000  0.305900  1.0  0.1373
  H  H1026  1  0.479300  0.055200  0.325900  1.0  0.1245
  H  H1027  1  0.660300  0.223400  0.387900  1.0  0.1196
  H  H1028  1  0.701400  0.252200  0.419400  1.0  0.123
  H  H1029  1  0.719300  0.261700  0.389400  1.0  0.1127
  H  H1030  1  0.837400  0.463400  0.434000  1.0  0.1086
  H  H1031  1  0.789800  0.445000  0.435600  1.0  0.1383
  H  H1032  1  0.806000  0.452600  0.405000  1.0  0.1282
  H  H1033  1  0.330200  0.921700  0.290500  1.0  0.1344
  H  H1034  1  0.391900  0.977200  0.309100  1.0  0.1187
  H  H1035  1  0.352000  0.970200  0.308200  1.0  0.1092
  H  H1036  1  0.428200  0.057600  0.198000  1.0  0.1329
  H  H1037  1  0.441400  0.093800  0.224400  1.0  0.1115
  H  H1038  1  0.480300  0.099600  0.225700  1.0  0.1396
  H  H1039  1  0.402200  0.009200  0.134400  1.0  0.1304
  H  H1040  1  0.445500  0.026900  0.122800  1.0  0.1083
  H  H1041  1  0.396800  0.000300  0.099500  1.0  0.1187
  H  H1042  1  0.324400  0.825200  0.072800  1.0  0.1058
  H  H1043  1  0.317400  0.812200  0.104400  1.0  0.1325
  H  H1044  1  0.269900  0.787300  0.081000  1.0  0.1212
  H  H1045  1  0.235100  0.721900  0.147600  1.0  0.126
  H  H1046  1  0.262700  0.722200  0.170700  1.0  0.1192
  H  H1047  1  0.199000  0.672700  0.161700  1.0  0.126
  H  H1048  1  0.255900  0.810200  0.269300  1.0  0.1311
  H  H1049  1  0.220000  0.753300  0.271700  1.0  0.1409
  H  H1050  1  0.283700  0.803800  0.278900  1.0  0.1301
  H  H1051  1  0.119500  0.248500  0.154600  1.0  0.1279
  H  H1052  1  0.095100  0.222400  0.119100  1.0  0.1253
  H  H1053  1  0.089700  0.193700  0.140400  1.0  0.1319
  H  H1054  1  0.307900  0.338800  0.121500  1.0  0.1198
  H  H1055  1  0.260900  0.275900  0.109400  1.0  0.1189
  H  H1056  1  0.266900  0.305900  0.089000  1.0  0.1057
  H  H1057  1  0.403200  0.412200  0.163000  1.0  0.1158
  H  H1058  1  0.463300  0.451600  0.175100  1.0  0.125
  H  H1059  1  0.414200  0.391300  0.177500  1.0  0.1218
  H  H1060  1  0.445600  0.484700  0.298900  1.0  0.1306
  H  H1061  1  0.454400  0.458100  0.299300  1.0  0.1229
  H  H1062  1  0.502700  0.519300  0.298800  1.0  0.1108
  H  H1063  1  0.365700  0.473700  0.315000  1.0  0.1311
  H  H1064  1  0.341900  0.481200  0.329500  1.0  0.1298
  H  H1065  1  0.321900  0.432900  0.332600  1.0  0.1328
  H  H1066  1  0.151800  0.312000  0.215800  1.0  0.1295
  H  H1067  1  0.129200  0.287100  0.243300  1.0  0.1088
  H  H1068  1  0.148700  0.335000  0.240100  1.0  0.1323
  H  H1069  1  0.149900  0.731900  0.705600  1.0  0.1314
  H  H1070  1  0.110200  0.709800  0.724800  1.0  0.1208
  H  H1071  1  0.166400  0.743300  0.740900  1.0  0.1174
  H  H1072  1  0.247300  0.937100  0.751400  1.0  0.1255
  H  H1073  1  0.255400  0.930400  0.782600  1.0  0.1321
  H  H1074  1  0.199300  0.897200  0.766700  1.0  0.1115
  H  H1075  1  0.068800  0.776400  0.780000  1.0  0.1265
  H  H1076  1  0.072400  0.761300  0.750100  1.0  0.1188
  H  H1077  1  0.119300  0.822900  0.767400  1.0  0.1053
  H  H1078  1  0.209900  0.791200  0.828500  1.0  0.1196
  H  H1079  1  0.247900  0.838000  0.812300  1.0  0.1263
  H  H1080  1  0.200700  0.777100  0.793400  1.0  0.1149
  H  H1081  1  0.223200  0.838100  0.551900  1.0  0.1257
  H  H1082  1  0.167000  0.779000  0.530400  1.0  0.1302
  H  H1083  1  0.218100  0.801300  0.537400  1.0  0.1249
  H  H1084  1  0.132100  0.700600  0.642700  1.0  0.1159
  H  H1085  1  0.138600  0.679800  0.619800  1.0  0.1173
  H  H1086  1  0.085700  0.654500  0.612400  1.0  0.1128
  H  H1087  1  0.606600  0.292400  0.791800  1.0  0.1242
  H  H1088  1  0.641600  0.297000  0.780800  1.0  0.1297
  H  H1089  1  0.644400  0.331300  0.771500  1.0  0.1076
  H  H1090  1  0.830600  0.499900  0.886300  1.0  0.1229
  H  H1091  1  0.845100  0.516200  0.855700  1.0  0.1374
  H  H1092  1  0.842300  0.482300  0.866200  1.0  0.119
  H  H1093  1  0.844700  0.543700  0.948200  1.0  0.1015
  H  H1094  1  0.863600  0.565200  0.983800  1.0  0.1017
  H  H1095  1  0.871800  0.596500  0.963500  1.0  0.1068
  H  H1096  1  0.648600  0.445900  0.971500  1.0  0.1292
  H  H1097  1  0.695500  0.508800  0.983700  1.0  0.1299
  H  H1098  1  0.686400  0.477900  0.005100  1.0  0.1149
  H  H1099  1  0.852500  0.431400  0.812500  1.0  0.1149
  H  H1100  1  0.794700  0.383300  0.818400  1.0  0.1195
  H  H1101  1  0.841400  0.443300  0.838700  1.0  0.1068
  H  H1102  1  0.747300  0.442000  0.738100  1.0  0.1276
  H  H1103  1  0.750000  0.458000  0.771000  1.0  0.1271
  H  H1104  1  0.700900  0.396200  0.753100  1.0  0.1241
  H  H1105  1  0.207000  0.564900  0.390500  1.0  0.1238
  H  H1106  1  0.199700  0.580600  0.417300  1.0  0.109
  H  H1107  1  0.150900  0.519200  0.398500  1.0  0.1256
  H  H1108  1  0.099600  0.578000  0.319800  1.0  0.1291
  H  H1109  1  0.054000  0.531500  0.334700  1.0  0.1256
  H  H1110  1  0.102800  0.593000  0.353200  1.0  0.132
  H  H1111  1  0.131500  0.622200  0.268900  1.0  0.1317
  H  H1112  1  0.164400  0.678200  0.267800  1.0  0.1327
  H  H1113  1  0.125100  0.630300  0.237800  1.0  0.1293
  H  H1114  1  0.332100  0.737100  0.233600  1.0  0.1184
  H  H1115  1  0.305900  0.732400  0.205100  1.0  0.1212
  H  H1116  1  0.345500  0.781800  0.234300  1.0  0.1268
  H  H1117  1  0.280400  0.475500  0.320300  1.0  0.1158
  H  H1118  1  0.242600  0.466500  0.331900  1.0  0.1062
  H  H1119  1  0.283400  0.482000  0.355000  1.0  0.1366
  H  H1120  1  0.105900  0.239500  0.308800  1.0  0.1253
  H  H1121  1  0.118800  0.256800  0.278400  1.0  0.1204
  H  H1122  1  0.160300  0.273800  0.302300  1.0  0.128
  H  H1123  1  0.884700  0.831600  0.010900  1.0  0.126
  H  H1124  1  0.902300  0.814100  0.017000  1.0  0.1233
  H  H1125  1  0.872000  0.806600  0.038000  1.0  0.1299
  H  H1126  1  0.096800  0.036400  0.111600  1.0  0.1307
  H  H1127  1  0.064500  0.990100  0.127600  1.0  0.1215
  H  H1128  1  0.099000  0.004100  0.107100  1.0  0.1274
  H  H1129  1  0.154300  0.139600  0.106300  1.0  0.1232
  H  H1130  1  0.205000  0.203400  0.113800  1.0  0.1308
  H  H1131  1  0.162900  0.171400  0.133100  1.0  0.1269
  H  H1132  1  0.046700  0.151500  0.036800  1.0  0.1256
  H  H1133  1  0.068400  0.185800  0.069400  1.0  0.122
  H  H1134  1  0.107400  0.213900  0.048300  1.0  0.1327
  H  H1135  1  0.536500  0.047900  0.108600  1.0  0.1253
  H  H1136  1  0.500000  0.042100  0.118100  1.0  0.1108
  H  H1137  1  0.494500  0.005300  0.126400  1.0  0.1331
  H  H1138  1  0.329300  0.855400  0.002300  1.0  0.1266
  H  H1139  1  0.306700  0.830500  0.029800  1.0  0.1149
  H  H1140  1  0.311300  0.866500  0.021400  1.0  0.1323
  H  H1141  1  0.461200  0.376000  0.996800  1.0  0.1302
  H  H1142  1  0.471600  0.360700  0.020100  1.0  0.1059
  H  H1143  1  0.412600  0.323600  0.007400  1.0  0.1241
  H  H1144  1  0.461400  0.420200  0.123800  1.0  0.1015
  H  H1145  1  0.510100  0.481500  0.123200  1.0  0.1336
  H  H1146  1  0.449500  0.441000  0.110900  1.0  0.0996
  H  H1147  1  0.554900  0.590000  0.126300  1.0  0.1096
  H  H1148  1  0.613700  0.648200  0.146700  1.0  0.1036
  H  H1149  1  0.569900  0.635700  0.136400  1.0  0.1056
  H  H1150  1  0.671100  0.722100  0.032600  1.0  0.1255
  H  H1151  1  0.677000  0.756100  0.053900  1.0  0.1283
  H  H1152  1  0.718000  0.764800  0.063200  1.0  0.1326
  H  H1153  1  0.702700  0.676200  0.951700  1.0  0.1185
  H  H1154  1  0.663500  0.666900  0.960600  1.0  0.1203
  H  H1155  1  0.706700  0.688200  0.986100  1.0  0.131
  H  H1156  1  0.530500  0.445300  0.958200  1.0  0.1344
  H  H1157  1  0.543800  0.455700  0.926700  1.0  0.113
  H  H1158  1  0.585200  0.477500  0.954500  1.0  0.1449
  H  H1159  1  0.203500  0.904800  0.501300  1.0  0.1234
  H  H1160  1  0.179300  0.907400  0.521300  1.0  0.1122
  H  H1161  1  0.169400  0.865600  0.522200  1.0  0.1294
  H  H1162  1  0.965700  0.716400  0.422900  1.0  0.1288
  H  H1163  1  0.956300  0.697200  0.452500  1.0  0.1192
  H  H1164  1  0.965900  0.738800  0.450900  1.0  0.1221
  H  H1165  1  0.934900  0.662100  0.364200  1.0  0.1261
  H  H1166  1  0.896000  0.623000  0.331200  1.0  0.1161
  H  H1167  1  0.899400  0.603500  0.355700  1.0  0.1348
  H  H1168  1  0.082900  0.710900  0.303800  1.0  0.1301
  H  H1169  1  0.036600  0.649400  0.302800  1.0  0.1247
  H  H1170  1  0.028100  0.664300  0.277600  1.0  0.1294
  H  H1171  1  0.268200  0.844000  0.363600  1.0  0.1198
  H  H1172  1  0.205100  0.796500  0.356000  1.0  0.1367
  H  H1173  1  0.242100  0.847200  0.343300  1.0  0.1242
  H  H1174  1  0.284200  0.949800  0.469000  1.0  0.1199
  H  H1175  1  0.304300  0.935500  0.479000  1.0  0.1197
  H  H1176  1  0.340500  0.985300  0.465400  1.0  0.1186
  H  H1177  1  0.920500  0.510000  0.316700  1.0  0.1291
  H  H1178  1  0.945900  0.556500  0.341800  1.0  0.1337
  H  H1179  1  0.974000  0.571000  0.316000  1.0  0.1141
  H  H1180  1  0.820300  0.534500  0.253800  1.0  0.1166
  H  H1181  1  0.882400  0.592700  0.257700  1.0  0.1004
  H  H1182  1  0.857300  0.580200  0.284700  1.0  0.1056
  H  H1183  1  0.712500  0.444900  0.211400  1.0  0.1385
  H  H1184  1  0.654900  0.409300  0.211000  1.0  0.1294
  H  H1185  1  0.671600  0.418200  0.180600  1.0  0.1257
  H  H1186  1  0.568300  0.213700  0.176600  1.0  0.1283
  H  H1187  1  0.541200  0.209700  0.149300  1.0  0.1213
  H  H1188  1  0.525200  0.201400  0.180000  1.0  0.1173
  H  H1189  1  0.610700  0.192300  0.212400  1.0  0.1377
  H  H1190  1  0.605700  0.166200  0.236100  1.0  0.1433
  H  H1191  1  0.623200  0.169400  0.207000  1.0  0.1269
  H  H1192  1  0.847500  0.391400  0.293100  1.0  0.1225
  H  H1193  1  0.842700  0.355100  0.278400  1.0  0.116
  H  H1194  1  0.822500  0.346000  0.307300  1.0  0.1409
  H  H1195  1  0.568500  0.342300  0.110600  1.0  0.1334
  H  H1196  1  0.588000  0.326000  0.112600  1.0  0.1307
  H  H1197  1  0.619600  0.377100  0.136900  1.0  0.1176
  H  H1198  1  0.456500  0.208800  0.203500  1.0  0.1295
  H  H1199  1  0.518400  0.256400  0.220200  1.0  0.1196
  H  H1200  1  0.486300  0.205100  0.196000  1.0  0.1236
  H  H1201  1  0.325000  0.140300  0.239500  1.0  0.1086
  H  H1202  1  0.379100  0.182600  0.229500  1.0  0.127
  H  H1203  1  0.325500  0.121600  0.209500  1.0  0.1215
  H  H1204  1  0.274700  0.199700  0.159000  1.0  0.1308
  H  H1205  1  0.283100  0.214600  0.194100  1.0  0.1373
  H  H1206  1  0.229300  0.153400  0.174100  1.0  0.1235
  H  H1207  1  0.335500  0.272400  0.112100  1.0  0.1194
  H  H1208  1  0.332800  0.282000  0.080600  1.0  0.1233
  H  H1209  1  0.372300  0.329900  0.110600  1.0  0.113
  H  H1210  1  0.529400  0.403400  0.066000  1.0  0.1102
  H  H1211  1  0.509400  0.354200  0.064400  1.0  0.1386
  H  H1212  1  0.547600  0.401000  0.095000  1.0  0.1289
  H  H1213  1  0.131200  0.039700  0.209500  1.0  0.1341
  H  H1214  1  0.168100  0.082800  0.190900  1.0  0.1206
  H  H1215  1  0.162000  0.043800  0.191800  1.0  0.1109
  H  H1216  1  0.359600  0.230200  0.302000  1.0  0.1334
  H  H1217  1  0.369400  0.217000  0.275600  1.0  0.1096
  H  H1218  1  0.373900  0.254600  0.274300  1.0  0.1382
  H  H1219  1  0.374800  0.267800  0.365600  1.0  0.1285
  H  H1220  1  0.404100  0.322700  0.377200  1.0  0.1086
  H  H1221  1  0.400800  0.297300  0.400500  1.0  0.1191
  H  H1222  1  0.252400  0.251600  0.427200  1.0  0.1052
  H  H1223  1  0.207800  0.213000  0.395600  1.0  0.1297
  H  H1224  1  0.206300  0.188900  0.419000  1.0  0.1174
  H  H1225  1  0.074300  0.087500  0.352400  1.0  0.1249
  H  H1226  1  0.051500  0.092000  0.329300  1.0  0.1158
  H  H1227  1  0.011000  0.037300  0.338300  1.0  0.1279
  H  H1228  1  0.040900  0.986600  0.230700  1.0  0.129
  H  H1229  1  0.981600  0.948300  0.228300  1.0  0.143
  H  H1230  1  0.024900  0.004800  0.221100  1.0  0.1336
  H  H1231  1  0.593900  0.964900  0.345400  1.0  0.1286
  H  H1232  1  0.603300  0.976000  0.380900  1.0  0.1248
  H  H1233  1  0.553300  0.949300  0.359600  1.0  0.1304
  H  H1234  1  0.717300  0.186400  0.378500  1.0  0.119
  H  H1235  1  0.666500  0.151500  0.390600  1.0  0.1226
  H  H1236  1  0.716900  0.177900  0.411000  1.0  0.1053
  H  H1237  1  0.749200  0.240200  0.337000  1.0  0.1159
  H  H1238  1  0.776500  0.288200  0.324900  1.0  0.1273
  H  H1239  1  0.713800  0.236700  0.322500  1.0  0.1243
  H  H1240  1  0.685800  0.146700  0.201100  1.0  0.1301
  H  H1241  1  0.658800  0.155100  0.200700  1.0  0.1231
  H  H1242  1  0.720500  0.203900  0.201200  1.0  0.1089
  H  H1243  1  0.658700  0.050700  0.185000  1.0  0.1297
  H  H1244  1  0.651700  0.012400  0.170500  1.0  0.1293
  H  H1245  1  0.600300  0.989300  0.167400  1.0  0.1323
  H  H1246  1  0.596200  0.936000  0.284200  1.0  0.1295
  H  H1247  1  0.543800  0.885900  0.256700  1.0  0.1098
  H  H1248  1  0.594900  0.908600  0.259900  1.0  0.1327
  H  H1249  1  0.526300  0.444300  0.794400  1.0  0.1314
  H  H1250  1  0.485000  0.385400  0.775200  1.0  0.1199
  H  H1251  1  0.502400  0.425500  0.759100  1.0  0.1166
  H  H1252  1  0.685700  0.495900  0.748600  1.0  0.1251
  H  H1253  1  0.647800  0.472800  0.717400  1.0  0.1301
  H  H1254  1  0.630500  0.432600  0.733300  1.0  0.1114
  H  H1255  1  0.496400  0.288800  0.720000  1.0  0.1263
  H  H1256  1  0.511200  0.322300  0.749900  1.0  0.1181
  H  H1257  1  0.555500  0.351900  0.732600  1.0  0.1038
  H  H1258  1  0.462700  0.381400  0.671500  1.0  0.1183
  H  H1259  1  0.525700  0.435600  0.687700  1.0  0.1276
  H  H1260  1  0.483700  0.407300  0.706600  1.0  0.1161
  H  H1261  1  0.786200  0.671300  0.948100  1.0  0.1236
  H  H1262  1  0.748600  0.636600  0.969600  1.0  0.1314
  H  H1263  1  0.763900  0.680700  0.962600  1.0  0.1253
  H  H1264  1  0.557900  0.489400  0.857300  1.0  0.1165
  H  H1265  1  0.560000  0.518800  0.880200  1.0  0.1135
  H  H1266  1  0.542100  0.473300  0.887600  1.0  0.1113
  H  H1267  1  0.000600  0.814800  0.708200  1.0  0.1225
  H  H1268  1  0.016200  0.860800  0.719200  1.0  0.1286
  H  H1269  1  0.059800  0.872900  0.728500  1.0  0.1078
  H  H1270  1  0.113600  0.944300  0.613700  1.0  0.1226
  H  H1271  1  0.160500  0.989400  0.644300  1.0  0.1366
  H  H1272  1  0.116100  0.976100  0.633800  1.0  0.1213
  H  H1273  1  0.095500  0.896500  0.551800  1.0  0.104
  H  H1274  1  0.081400  0.879800  0.516200  1.0  0.1007
  H  H1275  1  0.133000  0.908300  0.536500  1.0  0.1053
  H  H1276  1  0.974400  0.677100  0.528500  1.0  0.1284
  H  H1277  1  0.025100  0.711800  0.516300  1.0  0.1286
  H  H1278  1  0.972800  0.681300  0.494900  1.0  0.1164
  H  H1279  1  0.118900  0.040000  0.687500  1.0  0.1183
  H  H1280  1  0.064900  0.976300  0.681600  1.0  0.1195
  H  H1281  1  0.104600  0.002700  0.661300  1.0  0.1049
  H  H1282  1  0.203900  0.009200  0.761900  1.0  0.1267
  H  H1283  1  0.187000  0.979000  0.729000  1.0  0.1284
  H  H1284  1  0.143100  0.947800  0.746900  1.0  0.1223
  H  H1285  1  0.674400  0.816500  0.109500  1.0  0.1257
  H  H1286  1  0.663300  0.782400  0.082700  1.0  0.1095
  H  H1287  1  0.620700  0.752400  0.101500  1.0  0.1273
  H  H1288  1  0.758200  0.779800  0.180200  1.0  0.1266
  H  H1289  1  0.696800  0.719300  0.165300  1.0  0.1211
  H  H1290  1  0.739800  0.749600  0.146800  1.0  0.1321
  H  H1291  1  0.853300  0.862600  0.231100  1.0  0.132
  H  H1292  1  0.910400  0.896600  0.232200  1.0  0.1327
  H  H1293  1  0.892500  0.887300  0.262200  1.0  0.1261
  H  H1294  1  0.003500  0.098500  0.266400  1.0  0.1232
  H  H1295  1  0.027300  0.100800  0.294900  1.0  0.124
  H  H1296  1  0.047500  0.111200  0.265700  1.0  0.128
  H  H1297  1  0.655200  0.960100  0.179700  1.0  0.1159
  H  H1298  1  0.634600  0.910700  0.168100  1.0  0.1051
  H  H1299  1  0.627000  0.928400  0.145000  1.0  0.1345
  H  H1300  1  0.430700  0.797100  0.191200  1.0  0.1209
  H  H1301  1  0.478400  0.840400  0.221600  1.0  0.118
  H  H1302  1  0.471500  0.858000  0.197700  1.0  0.1307
  H  H1303  1  0.320700  0.873800  0.489100  1.0  0.1284
  H  H1304  1  0.297100  0.885300  0.483000  1.0  0.1219
  H  H1305  1  0.268600  0.834000  0.462000  1.0  0.1297
  H  H1306  1  0.424800  0.985200  0.388400  1.0  0.1307
  H  H1307  1  0.362500  0.936900  0.372400  1.0  0.1209
  H  H1308  1  0.397000  0.991900  0.392900  1.0  0.1278
  H  H1309  1  0.533300  0.048000  0.393700  1.0  0.1194
  H  H1310  1  0.589600  0.091200  0.386200  1.0  0.1288
  H  H1311  1  0.538300  0.029800  0.366900  1.0  0.127
  H  H1312  1  0.614700  0.009900  0.463200  1.0  0.1274
  H  H1313  1  0.616400  0.999000  0.430600  1.0  0.1231
  H  H1314  1  0.665600  0.059100  0.451700  1.0  0.1323
  H  H1315  1  0.439300  0.427900  0.391400  1.0  0.1259
  H  H1316  1  0.424000  0.381900  0.381900  1.0  0.1123
  H  H1317  1  0.378900  0.368100  0.373600  1.0  0.1333
  H  H1318  1  0.353100  0.327000  0.497700  1.0  0.1276
  H  H1319  1  0.300700  0.276900  0.470200  1.0  0.1131
  H  H1320  1  0.345100  0.289900  0.478600  1.0  0.136
  H  H1321  1  0.964400  0.961200  0.585200  1.0  0.1276
  H  H1322  1  0.951500  0.971600  0.610900  1.0  0.1007
  H  H1323  1  0.905200  0.912600  0.589000  1.0  0.1221
  H  H1324  1  0.837600  0.961400  0.541200  1.0  0.1016
  H  H1325  1  0.886900  0.010100  0.528600  1.0  0.1323
  H  H1326  1  0.838600  0.949500  0.508500  1.0  0.0994
  H  H1327  1  0.928600  0.054900  0.464900  1.0  0.1102
  H  H1328  1  0.967000  0.113700  0.465500  1.0  0.104
  H  H1329  1  0.933500  0.069900  0.434200  1.0  0.1076
  H  H1330  1  0.138500  0.171100  0.449000  1.0  0.1222
  H  H1331  1  0.123100  0.177000  0.420900  1.0  0.1278
  H  H1332  1  0.154800  0.218000  0.453200  1.0  0.1333
  H  H1333  1  0.251000  0.202700  0.526500  1.0  0.1186
  H  H1334  1  0.202900  0.163500  0.496600  1.0  0.1194
  H  H1335  1  0.220600  0.206700  0.518500  1.0  0.131
  H  H1336  1  0.072300  0.030500  0.585200  1.0  0.1325
  H  H1337  1  0.117100  0.043800  0.588100  1.0  0.1129
  H  H1338  1  0.130700  0.085200  0.607700  1.0  0.1429
  H  H1339  1  0.202200  0.703500  0.798700  1.0  0.1243
  H  H1340  1  0.158000  0.679300  0.771900  1.0  0.1139
  H  H1341  1  0.147200  0.669400  0.803800  1.0  0.131
  H  H1342  1  0.042800  0.465700  0.749300  1.0  0.1307
  H  H1343  1  0.003800  0.456300  0.759100  1.0  0.1192
  H  H1344  1  0.015000  0.465900  0.727100  1.0  0.1168
  H  H1345  1  0.070700  0.434900  0.772800  1.0  0.1229
  H  H1346  1  0.064800  0.396000  0.773000  1.0  0.116
  H  H1347  1  0.043700  0.399400  0.795900  1.0  0.1324
  H  H1348  1  0.279100  0.582900  0.872000  1.0  0.1264
  H  H1349  1  0.233800  0.536600  0.887200  1.0  0.1232
  H  H1350  1  0.250500  0.528100  0.863800  1.0  0.1307
  H  H1351  1  0.404600  0.768200  0.924200  1.0  0.1181
  H  H1352  1  0.349100  0.705100  0.908600  1.0  0.141
  H  H1353  1  0.398800  0.742100  0.894900  1.0  0.1265
  H  H1354  1  0.315200  0.784200  0.834400  1.0  0.119
  H  H1355  1  0.325300  0.804300  0.868800  1.0  0.1201
  H  H1356  1  0.375100  0.840500  0.855200  1.0  0.1197
  H  H1357  1  0.103800  0.420500  0.910500  1.0  0.1278
  H  H1358  1  0.104100  0.445900  0.889400  1.0  0.1354
  H  H1359  1  0.158000  0.474000  0.903000  1.0  0.1157
  H  H1360  1  0.066500  0.320300  0.785800  1.0  0.1137
  H  H1361  1  0.124700  0.382400  0.789700  1.0  0.1014
  H  H1362  1  0.072600  0.357300  0.777100  1.0  0.1054
  H  H1363  1  0.001100  0.212500  0.767600  1.0  0.1391
  H  H1364  1  0.943900  0.154900  0.745600  1.0  0.1283
  H  H1365  1  0.991000  0.171600  0.753400  1.0  0.1264
  H  H1366  1  0.891700  0.068300  0.854600  1.0  0.1274
  H  H1367  1  0.891900  0.041200  0.831500  1.0  0.1235
  H  H1368  1  0.845200  0.025200  0.823800  1.0  0.1181
  H  H1369  1  0.898300  0.110700  0.918400  1.0  0.1388
  H  H1370  1  0.869600  0.105700  0.939500  1.0  0.143
  H  H1371  1  0.916200  0.123200  0.953800  1.0  0.1279
  H  H1372  1  0.054400  0.347500  0.956100  1.0  0.1237
  H  H1373  1  0.064300  0.342700  0.987600  1.0  0.1139
  H  H1374  1  0.015200  0.322500  0.976500  1.0  0.1414
  H  H1375  1  0.957900  0.068500  0.726200  1.0  0.1335
  H  H1376  1  0.975400  0.088000  0.762000  1.0  0.1319
  H  H1377  1  0.982700  0.119600  0.742500  1.0  0.1167
  H  H1378  1  0.753000  0.956500  0.747700  1.0  0.1293
  H  H1379  1  0.798200  0.018400  0.762000  1.0  0.1193
  H  H1380  1  0.790300  0.986300  0.781200  1.0  0.1253
  H  H1381  1  0.585500  0.825000  0.684700  1.0  0.1075
  H  H1382  1  0.649600  0.879100  0.696500  1.0  0.1267
  H  H1383  1  0.616000  0.825500  0.703900  1.0  0.1207
  H  H1384  1  0.615700  0.774700  0.575000  1.0  0.1309
  H  H1385  1  0.589000  0.783100  0.568500  1.0  0.1369
  H  H1386  1  0.555200  0.729300  0.575900  1.0  0.1199
  H  H1387  1  0.723400  0.835500  0.563100  1.0  0.1202
  H  H1388  1  0.752200  0.832800  0.550800  1.0  0.1227
  H  H1389  1  0.761700  0.872300  0.542400  1.0  0.116
  H  H1390  1  0.963400  0.029400  0.626000  1.0  0.1104
  H  H1391  1  0.945000  0.009400  0.655200  1.0  0.1384
  H  H1392  1  0.952600  0.047600  0.646600  1.0  0.1286
  H  H1393  1  0.421700  0.631200  0.591500  1.0  0.1356
  H  H1394  1  0.477200  0.668100  0.585300  1.0  0.121
  H  H1395  1  0.470200  0.662000  0.618200  1.0  0.1103
  H  H1396  1  0.557600  0.859600  0.629400  1.0  0.1337
  H  H1397  1  0.593800  0.869400  0.652400  1.0  0.1115
  H  H1398  1  0.599600  0.873900  0.619300  1.0  0.1384
  H  H1399  1  0.509200  0.874800  0.607000  1.0  0.129
  H  H1400  1  0.526900  0.904100  0.581400  1.0  0.1078
  H  H1401  1  0.500300  0.900800  0.603500  1.0  0.1177
  H  H1402  1  0.325200  0.752400  0.500800  1.0  0.1075
  H  H1403  1  0.312200  0.707800  0.494800  1.0  0.1332
  H  H1404  1  0.287300  0.706300  0.517400  1.0  0.1171
  H  H1405  1  0.221900  0.574300  0.486800  1.0  0.1265
  H  H1406  1  0.222200  0.551500  0.459500  1.0  0.1185
  H  H1407  1  0.172700  0.511000  0.473700  1.0  0.1269
  H  H1408  1  0.310200  0.540900  0.554300  1.0  0.1316
  H  H1409  1  0.253300  0.481600  0.533300  1.0  0.1413
  H  H1410  1  0.303800  0.524900  0.520100  1.0  0.133
  H  H1411  1  0.748500  0.093900  0.129000  1.0  0.1277
  H  H1412  1  0.722400  0.103300  0.127300  1.0  0.123
  H  H1413  1  0.693700  0.053300  0.104000  1.0  0.1299
  H  H1414  1  0.838800  0.217300  0.030900  1.0  0.1195
  H  H1415  1  0.775900  0.166500  0.015000  1.0  0.1168
  H  H1416  1  0.805900  0.216900  0.039000  1.0  0.1057
  H  H1417  1  0.912200  0.249200  0.009000  1.0  0.1151
  H  H1418  1  0.951600  0.276500  0.988300  1.0  0.1263
  H  H1419  1  0.891300  0.213800  0.977100  1.0  0.1216
  H  H1420  1  0.984700  0.185800  0.039100  1.0  0.1287
  H  H1421  1  0.958100  0.158800  0.003700  1.0  0.1233
  H  H1422  1  0.019300  0.220500  0.016600  1.0  0.1078
  H  H1423  1  0.973700  0.158700  0.108000  1.0  0.1293
  H  H1424  1  0.981200  0.151700  0.139300  1.0  0.1304
  H  H1425  1  0.932900  0.100300  0.111000  1.0  0.1327
  H  H1426  1  0.812000  0.096200  0.160200  1.0  0.1295
  H  H1427  1  0.787100  0.043800  0.157900  1.0  0.1074
  H  H1428  1  0.835000  0.094900  0.186300  1.0  0.1326
  H  H1429  1  0.231900  0.026300  0.582000  1.0  0.1313
  H  H1430  1  0.209800  0.985000  0.599600  1.0  0.1199
  H  H1431  1  0.243300  0.002400  0.576900  1.0  0.1158
  H  H1432  1  0.437100  0.185700  0.689800  1.0  0.125
  H  H1433  1  0.430400  0.147800  0.675000  1.0  0.1348
  H  H1434  1  0.397200  0.130500  0.697900  1.0  0.1102
  H  H1435  1  0.276400  0.996400  0.707600  1.0  0.1286
  H  H1436  1  0.261300  0.011200  0.688900  1.0  0.1206
  H  H1437  1  0.322900  0.055500  0.703600  1.0  0.1046
  H  H1438  1  0.291200  0.962700  0.581300  1.0  0.1208
  H  H1439  1  0.338000  0.025700  0.590100  1.0  0.1275
  H  H1440  1  0.277100  0.983700  0.576400  1.0  0.1156
  H  H1441  1  0.338100  0.286200  0.614900  1.0  0.1247
  H  H1442  1  0.279000  0.248600  0.612000  1.0  0.1297
  H  H1443  1  0.301300  0.263900  0.583200  1.0  0.1259
  H  H1444  1  0.200600  0.057900  0.568500  1.0  0.1187
  H  H1445  1  0.179800  0.060000  0.541200  1.0  0.1159
  H  H1446  1  0.154500  0.042100  0.568800  1.0  0.111
  H  H1447  1  0.792400  0.500600  0.685800  1.0  0.1242
  H  H1448  1  0.797000  0.516200  0.655400  1.0  0.1289
  H  H1449  1  0.831300  0.559800  0.686900  1.0  0.1088
  H  H1450  1  0.999900  0.613600  0.669300  1.0  0.1221
  H  H1451  1  0.016200  0.660500  0.671100  1.0  0.137
  H  H1452  1  0.982300  0.616100  0.640000  1.0  0.1189
  H  H1453  1  0.043700  0.595500  0.699000  1.0  0.105
  H  H1454  1  0.065200  0.581400  0.701600  1.0  0.1019
  H  H1455  1  0.096500  0.633000  0.724700  1.0  0.1085
  H  H1456  1  0.945900  0.474400  0.797300  1.0  0.1292
  H  H1457  1  0.008800  0.525100  0.813300  1.0  0.131
  H  H1458  1  0.977900  0.472800  0.791500  1.0  0.1141
  H  H1459  1  0.931400  0.618900  0.578900  1.0  0.1161
  H  H1460  1  0.883300  0.564900  0.588600  1.0  0.1188
  H  H1461  1  0.943300  0.604600  0.601900  1.0  0.1047
  H  H1462  1  0.942000  0.703900  0.694700  1.0  0.1296
  H  H1463  1  0.958000  0.687000  0.708000  1.0  0.126
  H  H1464  1  0.896200  0.643100  0.695300  1.0  0.1218
  H  H1465  1  0.064900  0.174400  0.357900  1.0  0.1244
  H  H1466  1  0.080600  0.163300  0.380900  1.0  0.111
  H  H1467  1  0.019200  0.120700  0.368300  1.0  0.1253
  H  H1468  1  0.078000  0.258200  0.478400  1.0  0.1301
  H  H1469  1  0.031500  0.196800  0.477500  1.0  0.1193
  H  H1470  1  0.093000  0.239800  0.490200  1.0  0.1304
  H  H1471  1  0.122200  0.353300  0.490700  1.0  0.1303
  H  H1472  1  0.178200  0.410400  0.513800  1.0  0.1329
  H  H1473  1  0.130300  0.392500  0.505200  1.0  0.1269
  H  H1474  1  0.237100  0.503500  0.405000  1.0  0.12
  H  H1475  1  0.232400  0.527300  0.426500  1.0  0.1273
  H  H1476  1  0.281800  0.547500  0.436300  1.0  0.1277
  H  H1477  1  0.975500  0.155200  0.195100  1.0  0.1162
  H  H1478  1  0.966500  0.134600  0.223900  1.0  0.1067
  H  H1479  1  0.982000  0.127000  0.198600  1.0  0.1361
  H  H1480  1  0.739500  0.930700  0.133600  1.0  0.121
  H  H1481  1  0.756800  0.978400  0.138000  1.0  0.1203
  H  H1482  1  0.773800  0.971500  0.113500  1.0  0.129
  H  H1483  1  0.331600  0.820700  0.946900  1.0  0.1276
  H  H1484  1  0.314100  0.797100  0.911800  1.0  0.1218
  H  H1485  1  0.306600  0.768600  0.934600  1.0  0.1307
  H  H1486  1  0.536400  0.924800  0.939600  1.0  0.1302
  H  H1487  1  0.490100  0.862500  0.925600  1.0  0.1211
  H  H1488  1  0.504100  0.897000  0.905100  1.0  0.1242
  H  H1489  1  0.639600  0.033300  0.985300  1.0  0.1227
  H  H1490  1  0.703400  0.089600  0.998400  1.0  0.1298
  H  H1491  1  0.671400  0.038300  0.008500  1.0  0.1274
  H  H1492  1  0.651500  0.114700  0.104800  1.0  0.1272
  H  H1493  1  0.685800  0.116400  0.117400  1.0  0.1229
  H  H1494  1  0.713900  0.165600  0.106500  1.0  0.1322
  H  H1495  1  0.547900  0.939300  0.511400  1.0  0.126
  H  H1496  1  0.542100  0.924000  0.542100  1.0  0.1121
  H  H1497  1  0.505300  0.878900  0.510800  1.0  0.1325
  H  H1498  1  0.355400  0.853100  0.526100  1.0  0.1237
  H  H1499  1  0.330500  0.800700  0.523800  1.0  0.1125
  H  H1500  1  0.366500  0.845100  0.555200  1.0  0.1329
  H  H1501  1  0.876000  0.379200  0.914800  1.0  0.1318
  H  H1502  1  0.860700  0.340600  0.889100  1.0  0.1009
  H  H1503  1  0.823600  0.316200  0.911000  1.0  0.1237
  H  H1504  1  0.920200  0.296400  0.958800  1.0  0.1039
  H  H1505  1  0.981500  0.358300  0.971400  1.0  0.1318
  H  H1506  1  0.941000  0.330100  0.991500  1.0  0.0986
  H  H1507  1  0.090000  0.463700  0.035100  1.0  0.1124
  H  H1508  1  0.148200  0.501500  0.034500  1.0  0.1039
  H  H1509  1  0.135700  0.499300  0.065800  1.0  0.1067
  H  H1510  1  0.222100  0.689500  0.051000  1.0  0.1246
  H  H1511  1  0.256100  0.702200  0.079100  1.0  0.1292
  H  H1512  1  0.264800  0.701600  0.046800  1.0  0.1317
  H  H1513  1  0.176200  0.724500  0.973500  1.0  0.119
  H  H1514  1  0.166900  0.706300  0.003400  1.0  0.1188
  H  H1515  1  0.188200  0.702100  0.981500  1.0  0.1311
  H  H1516  1  0.945300  0.487100  0.914800  1.0  0.1311
  H  H1517  1  0.955700  0.529000  0.911900  1.0  0.1114
  H  H1518  1  0.977500  0.523000  0.892300  1.0  0.1437
  H  H1519  1  0.404800  0.403500  0.701300  1.0  0.122
  H  H1520  1  0.407400  0.386100  0.728100  1.0  0.1137
  H  H1521  1  0.365600  0.343400  0.696200  1.0  0.1302
  H  H1522  1  0.216400  0.293500  0.750700  1.0  0.1283
  H  H1523  1  0.197200  0.244700  0.740900  1.0  0.1159
  H  H1524  1  0.238800  0.287900  0.772900  1.0  0.1165
  H  H1525  1  0.162100  0.297900  0.727200  1.0  0.1222
  H  H1526  1  0.123000  0.291800  0.727000  1.0  0.1143
  H  H1527  1  0.103500  0.247800  0.704100  1.0  0.1316
  H  H1528  1  0.210900  0.407100  0.628000  1.0  0.1305
  H  H1529  1  0.149400  0.346600  0.612800  1.0  0.125
  H  H1530  1  0.164300  0.386700  0.636200  1.0  0.1263
  H  H1531  1  0.344000  0.480400  0.575800  1.0  0.118
  H  H1532  1  0.296500  0.440500  0.591400  1.0  0.1394
  H  H1533  1  0.347200  0.503900  0.605100  1.0  0.1273
  H  H1534  1  0.449800  0.480800  0.665600  1.0  0.1193
  H  H1535  1  0.435500  0.456500  0.631200  1.0  0.1199
  H  H1536  1  0.485300  0.519900  0.644800  1.0  0.1194
  H  H1537  1  0.010000  0.193300  0.589500  1.0  0.1286
  H  H1538  1  0.056500  0.214700  0.610600  1.0  0.1311
  H  H1539  1  0.071000  0.255000  0.597000  1.0  0.1134
  H  H1540  1  0.034500  0.280700  0.714200  1.0  0.1151
  H  H1541  1  0.092700  0.335000  0.710300  1.0  0.1029
  H  H1542  1  0.080200  0.295500  0.722900  1.0  0.1057
  H  H1543  1  0.944900  0.233500  0.732400  1.0  0.1374
  H  H1544  1  0.909300  0.198300  0.754400  1.0  0.1292
  H  H1545  1  0.918200  0.237600  0.746600  1.0  0.1242
  H  H1546  1  0.713700  0.037100  0.645400  1.0  0.1264
  H  H1547  1  0.709700  0.060400  0.668500  1.0  0.1219
  H  H1548  1  0.701400  0.021400  0.676200  1.0  0.1181
  H  H1549  1  0.692300  0.979900  0.581600  1.0  0.1373
  H  H1550  1  0.666200  0.930100  0.560500  1.0  0.1438
  H  H1551  1  0.669400  0.962400  0.546200  1.0  0.1271
  H  H1552  1  0.891400  0.098300  0.543900  1.0  0.1227
  H  H1553  1  0.855100  0.076700  0.512400  1.0  0.1147
  H  H1554  1  0.846000  0.038700  0.523500  1.0  0.1414
  H  H1555  1  0.842300  0.231700  0.773800  1.0  0.1353
  H  H1556  1  0.826000  0.213400  0.738000  1.0  0.1303
  H  H1557  1  0.877100  0.240200  0.757500  1.0  0.1158
  H  H1558  1  0.708800  0.005300  0.752300  1.0  0.1288
  H  H1559  1  0.756400  0.036200  0.738000  1.0  0.1221
  H  H1560  1  0.705100  0.009100  0.718800  1.0  0.1231
  H  H1561  1  0.640300  0.900800  0.815300  1.0  0.1076
  H  H1562  1  0.682600  0.953100  0.803500  1.0  0.1258
  H  H1563  1  0.621600  0.912100  0.796100  1.0  0.1213
  H  H1564  1  0.699700  0.040700  0.925000  1.0  0.1341
  H  H1565  1  0.714600  0.020500  0.931500  1.0  0.1346
  H  H1566  1  0.653400  0.979300  0.924100  1.0  0.122
  H  H1567  1  0.772400  0.160300  0.936900  1.0  0.1146
  H  H1568  1  0.782000  0.201400  0.949200  1.0  0.1231
  H  H1569  1  0.829900  0.219300  0.957600  1.0  0.1128
  H  H1570  1  0.903400  0.337400  0.874000  1.0  0.108
  H  H1571  1  0.854200  0.289800  0.844800  1.0  0.1377
  H  H1572  1  0.901000  0.306000  0.853400  1.0  0.1305
  H  H1573  1  0.539700  0.830200  0.908500  1.0  0.1367
  H  H1574  1  0.582800  0.891900  0.914700  1.0  0.121
  H  H1575  1  0.543800  0.852000  0.881800  1.0  0.1108
  H  H1576  1  0.730200  0.928200  0.870600  1.0  0.1308
  H  H1577  1  0.717000  0.941400  0.847600  1.0  0.1113
  H  H1578  1  0.754600  0.980300  0.880700  1.0  0.1377
  H  H1579  1  0.767800  0.902200  0.893000  1.0  0.129
  H  H1580  1  0.822700  0.945500  0.918600  1.0  0.111
  H  H1581  1  0.797300  0.896800  0.896500  1.0  0.1186
  H  H1582  1  0.751600  0.824400  0.999200  1.0  0.1054
  H  H1583  1  0.713000  0.817400  0.005200  1.0  0.1329
  H  H1584  1  0.688900  0.769900  0.982600  1.0  0.117
  H  H1585  1  0.587500  0.735100  0.013200  1.0  0.1248
  H  H1586  1  0.592000  0.762700  0.040500  1.0  0.118
  H  H1587  1  0.537300  0.699000  0.026300  1.0  0.1259
  H  H1588  1  0.486600  0.755900  0.945700  1.0  0.1307
  H  H1589  1  0.448300  0.720000  0.966700  1.0  0.1414
  H  H1590  1  0.504800  0.783700  0.979900  1.0  0.1335
  H  H1591  1  0.464900  0.619500  0.371000  1.0  0.1229
  H  H1592  1  0.476000  0.595100  0.372700  1.0  0.127
  H  H1593  1  0.449300  0.589700  0.396000  1.0  0.1313
  H  H1594  1  0.686400  0.807900  0.469100  1.0  0.1213
  H  H1595  1  0.651500  0.760900  0.485000  1.0  0.1206
  H  H1596  1  0.677900  0.766900  0.461000  1.0  0.1071
  H  H1597  1  0.740200  0.903200  0.491000  1.0  0.1149
  H  H1598  1  0.788200  0.963300  0.511700  1.0  0.1283
  H  H1599  1  0.736700  0.914200  0.522900  1.0  0.1218
  H  H1600  1  0.646700  0.945600  0.460900  1.0  0.1287
  H  H1601  1  0.655100  0.954400  0.496300  1.0  0.1237
  H  H1602  1  0.703900  0.002700  0.483400  1.0  0.1101
  H  H1603  1  0.550700  0.865700  0.392000  1.0  0.131
  H  H1604  1  0.512400  0.841900  0.360700  1.0  0.1312
  H  H1605  1  0.489300  0.821900  0.389000  1.0  0.1335
  H  H1606  1  0.436000  0.651800  0.339800  1.0  0.1285
  H  H1607  1  0.385900  0.629200  0.342100  1.0  0.1082
  H  H1608  1  0.408600  0.648700  0.313700  1.0  0.1314
  H  H1609  1  0.944300  0.649900  0.918000  1.0  0.1345
  H  H1610  1  0.885400  0.610200  0.900400  1.0  0.1193
  H  H1611  1  0.925500  0.666400  0.923100  1.0  0.1168
  H  H1612  1  0.995900  0.747300  0.810200  1.0  0.1243
  H  H1613  1  0.972800  0.755400  0.825000  1.0  0.1324
  H  H1614  1  0.932600  0.699300  0.802100  1.0  0.1097
  H  H1615  1  0.788800  0.568800  0.792400  1.0  0.1279
  H  H1616  1  0.822300  0.572400  0.811100  1.0  0.1178
  H  H1617  1  0.851900  0.619300  0.796400  1.0  0.1031
  H  H1618  1  0.881400  0.709900  0.918700  1.0  0.1209
  H  H1619  1  0.935600  0.747900  0.909900  1.0  0.1265
  H  H1620  1  0.907300  0.700700  0.923600  1.0  0.1137
  H  H1621  1  0.171300  0.723200  0.885100  1.0  0.1242
  H  H1622  1  0.136600  0.667000  0.888000  1.0  0.1315
  H  H1623  1  0.180700  0.718100  0.916800  1.0  0.1255
  H  H1624  1  0.989400  0.632100  0.931500  1.0  0.1195
  H  H1625  1  0.018800  0.638600  0.958800  1.0  0.1144
  H  H1626  1  0.973300  0.585700  0.931200  1.0  0.1126
  H  H1627  1  0.314800  0.106600  0.814200  1.0  0.1218
  H  H1628  1  0.360800  0.141600  0.844600  1.0  0.1267
  H  H1629  1  0.372900  0.144400  0.813100  1.0  0.1096
  H  H1630  1  0.444300  0.330600  0.830700  1.0  0.1236
  H  H1631  1  0.489400  0.345100  0.828900  1.0  0.1374
  H  H1632  1  0.476100  0.342300  0.860000  1.0  0.1211
  H  H1633  1  0.396500  0.344700  0.801000  1.0  0.1054
  H  H1634  1  0.379800  0.363600  0.798400  1.0  0.1004
  H  H1635  1  0.408300  0.371800  0.775300  1.0  0.1039
  H  H1636  1  0.177100  0.148600  0.702700  1.0  0.1246
  H  H1637  1  0.211800  0.195500  0.686700  1.0  0.1295
  H  H1638  1  0.181300  0.186400  0.708500  1.0  0.118
  H  H1639  1  0.540000  0.352500  0.921100  1.0  0.1175
  H  H1640  1  0.476300  0.294700  0.911400  1.0  0.1194
  H  H1641  1  0.502700  0.341400  0.898100  1.0  0.1078
  H  H1642  1  0.509200  0.247300  0.805300  1.0  0.1271
  H  H1643  1  0.479000  0.250000  0.792000  1.0  0.1279
  H  H1644  1  0.447800  0.200900  0.804700  1.0  0.1195
  H  H1645  1  0.316500  0.707000  0.142100  1.0  0.1254
  H  H1646  1  0.282400  0.699700  0.119100  1.0  0.1104
  H  H1647  1  0.252400  0.650900  0.131700  1.0  0.127
  H  H1648  1  0.279800  0.599600  0.021600  1.0  0.1271
  H  H1649  1  0.219300  0.554000  0.022500  1.0  0.12
  H  H1650  1  0.249600  0.602800  0.009800  1.0  0.1321
  H  H1651  1  0.362600  0.631500  0.009300  1.0  0.1301
  H  H1652  1  0.396600  0.664400  0.986200  1.0  0.1353
  H  H1653  1  0.387300  0.625100  0.994800  1.0  0.129
  H  H1654  1  0.598500  0.832100  0.095000  1.0  0.1225
  H  H1655  1  0.600800  0.805900  0.073500  1.0  0.123
  H  H1656  1  0.611200  0.845500  0.063700  1.0  0.1274
  H  H1657  1  0.460100  0.780400  0.304900  1.0  0.1162
  H  H1658  1  0.410700  0.742600  0.276100  1.0  0.1046
  H  H1659  1  0.428400  0.783400  0.301400  1.0  0.136
  H  H1660  1  0.297100  0.605900  0.366400  1.0  0.125
  H  H1661  1  0.340400  0.618800  0.362000  1.0  0.1212
  H  H1662  1  0.358000  0.660300  0.386500  1.0  0.1305
  H  H1663  1  0.373800  0.384700  0.553100  1.0  0.1284
  H  H1664  1  0.385300  0.402300  0.588200  1.0  0.1214
  H  H1665  1  0.334000  0.372000  0.565400  1.0  0.1296
  H  H1666  1  0.485200  0.596800  0.560400  1.0  0.1305
  H  H1667  1  0.436900  0.564500  0.574400  1.0  0.1209
  H  H1668  1  0.491900  0.599000  0.594900  1.0  0.1273
  H  H1669  1  0.548000  0.654300  0.514700  1.0  0.123
  H  H1670  1  0.591200  0.705000  0.501600  1.0  0.1322
  H  H1671  1  0.529800  0.662900  0.491500  1.0  0.1261
  H  H1672  1  0.509900  0.546700  0.395200  1.0  0.1273
  H  H1673  1  0.499000  0.568400  0.382600  1.0  0.1227
  H  H1674  1  0.559100  0.607400  0.393500  1.0  0.1318
  H  H1675  1  0.927900  0.036500  0.988600  1.0  0.1245
  H  H1676  1  0.881900  0.000000  0.957900  1.0  0.1145
  H  H1677  1  0.868100  0.994500  0.989200  1.0  0.1321
  H  H1678  1  0.827000  0.829300  0.973900  1.0  0.1257
  H  H1679  1  0.776900  0.806700  0.976200  1.0  0.1132
  H  H1680  1  0.789900  0.811300  0.944800  1.0  0.1342
  C  C1681  1  0.153100  0.562700  0.513600  1.0  -0.3963
  C  C1682  1  0.145800  0.576900  0.539500  1.0  0.1441
  C  C1683  1  0.178800  0.612570  0.568170  1.0  0.0066
  C  C1684  1  0.152190  0.610100  0.581490  1.0  0.1738
  C  C1685  1  0.168300  0.639400  0.612700  1.0  -0.3919
  C  C1686  1  0.002100  0.547100  0.630600  1.0  -0.3975
  C  C1687  1  0.956600  0.501100  0.602900  1.0  0.1954
  C  C1688  1  0.899500  0.456600  0.599500  1.0  -0.173
  C  C1689  1  0.875000  0.426100  0.569700  1.0  0.213
  C  C1690  1  0.815000  0.372600  0.553400  1.0  -0.4297
  C  C1691  1  0.801200  0.283700  0.465900  1.0  -0.4249
  C  C1692  1  0.857600  0.323200  0.465000  1.0  0.1592
  C  C1693  1  0.878100  0.319400  0.448900  1.0  -0.0791
  C  C1694  1  0.935000  0.371100  0.457500  1.0  0.1691
  C  C1695  1  0.977700  0.389300  0.448400  1.0  -0.4082
  C  C1696  1  0.125800  0.336400  0.009400  1.0  -0.4292
  C  C1697  1  0.142000  0.362000  0.984000  1.0  0.2156
  C  C1698  1  0.184200  0.418600  0.987200  1.0  -0.1611
  C  C1699  1  0.182700  0.420600  0.957500  1.0  0.1866
  C  C1700  1  0.217400  0.469200  0.944800  1.0  -0.4013
  C  C1701  1  0.214000  0.428500  0.848300  1.0  -0.404
  C  C1702  1  0.182400  0.374300  0.838900  1.0  0.205
  C  C1703  1  0.183900  0.352900  0.817200  1.0  -0.1964
  C  C1704  1  0.141200  0.298500  0.818100  1.0  0.1926
  C  C1705  1  0.123500  0.254600  0.798700  1.0  -0.427
  C  C1706  1  0.025000  0.119900  0.860300  1.0  -0.4451
  C  C1707  1  0.024200  0.139000  0.888800  1.0  0.2156
  C  C1708  1  0.018000  0.127100  0.915700  1.0  -0.0331
  C  C1709  1  0.021000  0.157200  0.931800  1.0  0.1978
  C  C1710  1  0.015500  0.160800  0.964500  1.0  -0.3905
  C  C1711  1  0.276200  0.381100  0.820700  1.0  -0.4086
  C  C1712  1  0.263200  0.395300  0.801300  1.0  0.2038
  C  C1713  1  0.223500  0.383300  0.799400  1.0  -0.1237
  C  C1714  1  0.232100  0.409000  0.779300  1.0  0.1746
  C  C1715  1  0.202500  0.411500  0.767800  1.0  -0.3839
  C  C1716  1  0.286500  0.525300  0.700000  1.0  -0.4075
  C  C1717  1  0.331700  0.543900  0.695400  1.0  0.2429
  C  C1718  1  0.369200  0.581000  0.679800  1.0  -0.1689
  C  C1719  1  0.401900  0.583500  0.682600  1.0  0.203
  C  C1720  1  0.450000  0.616600  0.671000  1.0  -0.3895
  C  C1721  1  0.534400  0.596400  0.722200  1.0  -0.3978
  C  C1722  1  0.496500  0.554500  0.739400  1.0  0.186
  C  C1723  1  0.498200  0.531800  0.757000  1.0  -0.1027
  C  C1724  1  0.453670  0.498600  0.768870  1.0  0.1791
  C  C1725  1  0.433100  0.463000  0.788700  1.0  -0.391
  C  C1726  1  0.283400  0.540000  0.624200  1.0  -0.4055
  C  C1727  1  0.338200  0.595600  0.643600  1.0  0.1962
  C  C1728  1  0.375300  0.612800  0.666100  1.0  -0.1941
  C  C1729  1  0.419100  0.669900  0.676400  1.0  0.1889
  C  C1730  1  0.472000  0.710900  0.701300  1.0  -0.3975
  C  C1731  1  0.571200  0.882300  0.722300  1.0  -0.4006
  C  C1732  1  0.539400  0.879600  0.704400  1.0  0.1088
  C  C1733  1  0.543500  0.913000  0.708300  1.0  -0.1642
  C  C1734  1  0.503000  0.888900  0.683900  1.0  0.227
  C  C1735  1  0.489400  0.909200  0.677200  1.0  -0.4279
  C  C1736  1  0.302000  0.744000  0.600400  1.0  -0.4048
  C  C1737  1  0.282200  0.697200  0.597000  1.0  0.1384
  C  C1738  1  0.229800  0.639900  0.582300  1.0  -0.111
  C  C1739  1  0.237600  0.617340  0.586540  1.0  0.196
  C  C1740  1  0.197500  0.558800  0.577100  1.0  -0.4169
  C  C1741  1  0.639100  0.039200  0.703300  1.0  -0.4026
  C  C1742  1  0.625400  0.018300  0.731500  1.0  0.108
  C  C1743  1  0.582800  0.962800  0.734000  1.0  -0.0726
  C  C1744  1  0.589300  0.968200  0.764100  1.0  0.3003
  C  C1745  1  0.557000  0.925600  0.780400  1.0  -0.431
  C  C1746  1  0.592500  0.999800  0.881700  1.0  -0.385
  C  C1747  1  0.626400  0.055000  0.884200  1.0  0.2064
  C  C1748  1  0.631300  0.084400  0.904300  1.0  0.0079
  C  C1749  1  0.667700  0.131700  0.897200  1.0  0.2128
  C  C1750  1  0.691100  0.181300  0.911000  1.0  -0.42
  C  C1751  1  0.766500  0.288400  0.834500  1.0  -0.4166
  C  C1752  1  0.760680  0.260980  0.809260  1.0  0.2709
  C  C1753  1  0.760700  0.264000  0.779900  1.0  -0.1222
  C  C1754  1  0.753900  0.228600  0.765900  1.0  0.2457
  C  C1755  1  0.748100  0.214100  0.733800  1.0  -0.4084
  C  C1756  1  0.887200  0.771700  0.862500  1.0  -0.4076
  C  C1757  1  0.833400  0.739300  0.864900  1.0  0.1831
  C  C1758  1  0.821700  0.750500  0.885000  1.0  -0.0747
  C  C1759  1  0.766100  0.707500  0.877000  1.0  0.1849
  C  C1760  1  0.729300  0.695700  0.890400  1.0  -0.3821
  C  C1761  1  0.572400  0.577800  0.821600  1.0  -0.3862
  C  C1762  1  0.568700  0.559600  0.791100  1.0  0.2406
  C  C1763  1  0.538400  0.542400  0.762600  1.0  -0.1258
  C  C1764  1  0.553510  0.534200  0.742310  1.0  0.1251
  C  C1765  1  0.536200  0.516500  0.708300  1.0  -0.4122
  C  C1766  1  0.666400  0.545100  0.680500  1.0  -0.4124
  C  C1767  1  0.710700  0.580700  0.709400  1.0  0.1159
  C  C1768  1  0.765000  0.615500  0.713100  1.0  -0.1314
  C  C1769  1  0.788300  0.639500  0.744800  1.0  0.2167
  C  C1770  1  0.844700  0.680000  0.763100  1.0  -0.406
  C  C1771  1  0.852200  0.260600  0.275200  1.0  -0.3929
  C  C1772  1  0.825390  0.207900  0.269890  1.0  0.1585
  C  C1773  1  0.818600  0.181000  0.245600  1.0  -0.1885
  C  C1774  1  0.790500  0.134800  0.253500  1.0  0.1412
  C  C1775  1  0.770200  0.088200  0.236600  1.0  -0.3972
  C  C1776  1  0.906900  0.213000  0.230300  1.0  -0.3854
  C  C1777  1  0.878840  0.212070  0.212710  1.0  0.2908
  C  C1778  1  0.839800  0.198400  0.218600  1.0  -0.1335
  C  C1779  1  0.827200  0.206200  0.195400  1.0  0.1977
  C  C1780  1  0.788600  0.199300  0.189700  1.0  -0.3968
  C  C1781  1  0.800500  0.198700  0.454400  1.0  -0.4151
  C  C1782  1  0.815800  0.221100  0.427300  1.0  0.1696
  C  C1783  1  0.849400  0.273020  0.425020  1.0  -0.1986
  C  C1784  1  0.848360  0.269430  0.394590  1.0  0.2161
  C  C1785  1  0.875600  0.312700  0.378500  1.0  -0.3953
  C  C1786  1  0.359200  0.683300  0.212700  1.0  -0.4163
  C  C1787  1  0.313000  0.637500  0.184700  1.0  0.234
  C  C1788  1  0.257500  0.594400  0.181300  1.0  -0.1914
  C  C1789  1  0.231100  0.562100  0.150800  1.0  0.2124
  C  C1790  1  0.173400  0.511600  0.134200  1.0  -0.4006
  C  C1791  1  0.151800  0.438900  0.034900  1.0  -0.3997
  C  C1792  1  0.206900  0.473200  0.035300  1.0  0.2274
  C  C1793  1  0.220300  0.464050  0.014950  1.0  -0.1561
  C  C1794  1  0.276400  0.507600  0.026200  1.0  0.2115
  C  C1795  1  0.314900  0.519900  0.015600  1.0  -0.4067
  C  C1796  1  0.174300  0.579000  0.181500  1.0  -0.3781
  C  C1797  1  0.191500  0.571000  0.202500  1.0  0.203
  C  C1798  1  0.229100  0.580400  0.203700  1.0  -0.1509
  C  C1799  1  0.229600  0.567500  0.229900  1.0  0.2206
  C  C1800  1  0.260600  0.567900  0.243100  1.0  -0.4089
  C  C1801  1  0.818300  0.443700  0.602600  1.0  -0.3895
  C  C1802  1  0.837900  0.436600  0.624700  1.0  0.1168
  C  C1803  1  0.874400  0.444100  0.624100  1.0  -0.1819
  C  C1804  1  0.876100  0.431400  0.649700  1.0  0.2508
  C  C1805  1  0.907600  0.432300  0.661500  1.0  -0.4175
  C  C1806  1  0.849800  0.352100  0.742900  1.0  -0.3981
  C  C1807  1  0.803900  0.332000  0.748100  1.0  0.1979
  C  C1808  1  0.765300  0.293500  0.763400  1.0  -0.1904
  C  C1809  1  0.730800  0.289400  0.760600  1.0  0.0846
  C  C1810  1  0.682300  0.256500  0.773000  1.0  -0.4047
  C  C1811  1  0.740500  0.538100  0.665400  1.0  -0.4251
  C  C1812  1  0.782810  0.596340  0.670150  1.0  0.218
  C  C1813  1  0.793400  0.629400  0.691000  1.0  -0.1493
  C  C1814  1  0.837300  0.681000  0.685100  1.0  0.2332
  C  C1815  1  0.865600  0.732300  0.700300  1.0  -0.3955
  C  C1816  1  0.102200  0.170600  0.973600  1.0  -0.4098
  C  C1817  1  0.047100  0.113300  0.952600  1.0  0.124
  C  C1818  1  0.012200  0.095200  0.928000  1.0  -0.0758
  C  C1819  1  0.972500  0.039600  0.917500  1.0  0.2252
  C  C1820  1  0.923700  0.998600  0.890300  1.0  -0.4273
  C  C1821  1  0.832900  0.830000  0.886900  1.0  -0.427
  C  C1822  1  0.864800  0.836700  0.907900  1.0  0.243
  C  C1823  1  0.861500  0.803800  0.907500  1.0  -0.1695
  C  C1824  1  0.904400  0.833200  0.932800  1.0  0.128
  C  C1825  1  0.922100  0.819200  0.945700  1.0  -0.3972
  C  C1826  1  0.498900  0.977400  0.888700  1.0  -0.4055
  C  C1827  1  0.541500  0.019500  0.918000  1.0  0.2091
  C  C1828  1  0.599200  0.064900  0.925900  1.0  -0.1603
  C  C1829  1  0.613900  0.087100  0.956200  1.0  0.2098
  C  C1830  1  0.672050  0.138400  0.977650  1.0  -0.4066
  C  C1831  1  0.549100  0.639500  0.986400  1.0  -0.3963
  C  C1832  1  0.537400  0.606300  0.960500  1.0  0.1422
  C  C1833  1  0.544400  0.610630  0.931830  1.0  0.0063
  C  C1834  1  0.528610  0.570700  0.918510  1.0  0.1754
  C  C1835  1  0.526700  0.555600  0.887300  1.0  -0.3932
  C  C1836  1  0.416500  0.371500  0.869400  1.0  -0.3965
  C  C1837  1  0.398200  0.353700  0.897100  1.0  0.1963
  C  C1838  1  0.357100  0.300000  0.900500  1.0  -0.1745
  C  C1839  1  0.356400  0.305300  0.930300  1.0  0.2154
  C  C1840  1  0.319200  0.261600  0.946600  1.0  -0.4268
  C  C1841  1  0.317800  0.335300  0.034100  1.0  -0.427
  C  C1842  1  0.358200  0.392600  0.035000  1.0  0.1597
  C  C1843  1  0.370500  0.429200  0.051100  1.0  -0.0788
  C  C1844  1  0.413600  0.477500  0.042500  1.0  0.1674
  C  C1845  1  0.440900  0.529300  0.051600  1.0  -0.4088
  C  C1846  1  0.827000  0.116400  0.490600  1.0  -0.423
  C  C1847  1  0.878000  0.158000  0.516000  1.0  0.2158
  C  C1848  1  0.931400  0.197000  0.512800  1.0  -0.1615
  C  C1849  1  0.963100  0.225200  0.542500  1.0  0.1871
  C  C1850  1  0.024400  0.272600  0.555200  1.0  -0.3996
  C  C1851  1  0.080200  0.365700  0.651700  1.0  -0.4032
  C  C1852  1  0.035400  0.343500  0.661100  1.0  0.2005
  C  C1853  1  0.035700  0.366700  0.682800  1.0  -0.1964
  C  C1854  1  0.980400  0.323100  0.681900  1.0  0.1911
  C  C1855  1  0.955900  0.324800  0.701300  1.0  -0.4272
  C  C1856  1  0.759600  0.164700  0.639700  1.0  -0.442
  C  C1857  1  0.750200  0.135400  0.611200  1.0  0.2141
  C  C1858  1  0.711400  0.102300  0.584300  1.0  -0.0333
  C  C1859  1  0.725400  0.089200  0.568200  1.0  0.1971
  C  C1860  1  0.696300  0.051000  0.535500  1.0  -0.3856
  C  C1861  1  0.060400  0.455500  0.679300  1.0  -0.4087
  C  C1862  1  0.094000  0.461900  0.698700  1.0  0.2034
  C  C1863  1  0.083900  0.424100  0.700600  1.0  -0.1231
  C  C1864  1  0.129700  0.452800  0.720700  1.0  0.1793
  C  C1865  1  0.143700  0.434700  0.732200  1.0  -0.3815
  C  C1866  1  0.325300  0.586500  0.800000  1.0  -0.4093
  C  C1867  1  0.348500  0.636300  0.804600  1.0  0.2423
  C  C1868  1  0.401200  0.689400  0.820200  1.0  -0.169
  C  C1869  1  0.400900  0.719300  0.817400  1.0  0.2044
  C  C1870  1  0.445600  0.779000  0.829000  1.0  -0.3894
  C  C1871  1  0.374200  0.812200  0.777800  1.0  -0.3978
  C  C1872  1  0.315100  0.757100  0.760600  1.0  0.1852
  C  C1873  1  0.274800  0.741200  0.743000  1.0  -0.1014
  C  C1874  1  0.229730  0.684800  0.731130  1.0  0.1768
  C  C1875  1  0.174300  0.644400  0.711300  1.0  -0.3898
  C  C1876  1  0.415800  0.659200  0.875800  1.0  -0.4034
  C  C1877  1  0.452000  0.694600  0.856400  1.0  0.1949
  C  C1878  1  0.446700  0.709200  0.833900  1.0  -0.1943
  C  C1879  1  0.493500  0.742700  0.823600  1.0  0.1887
  C  C1880  1  0.509600  0.770700  0.798700  1.0  -0.3979
  C  C1881  1  0.660000  0.848900  0.777700  1.0  -0.4017
  C  C1882  1  0.675200  0.835000  0.795600  1.0  0.1087
  C  C1883  1  0.704700  0.835200  0.791700  1.0  -0.1647
  C  C1884  1  0.705000  0.819100  0.816100  1.0  0.2253
  C  C1885  1  0.732000  0.812200  0.822800  1.0  -0.4268
  C  C1886  1  0.643600  0.701600  0.899600  1.0  -0.4059
  C  C1887  1  0.600200  0.685200  0.903000  1.0  0.1372
  C  C1888  1  0.557600  0.647500  0.917700  1.0  -0.1124
  C  C1889  1  0.530800  0.651060  0.913460  1.0  0.1939
  C  C1890  1  0.481700  0.620400  0.922900  1.0  -0.4128
  C  C1891  1  0.835900  0.935800  0.796700  1.0  -0.4007
  C  C1892  1  0.786800  0.893900  0.768500  1.0  0.1075
  C  C1893  1  0.728800  0.848800  0.766000  1.0  -0.0725
  C  C1894  1  0.704100  0.825200  0.735900  1.0  0.2969
  C  C1895  1  0.645200  0.776600  0.719600  1.0  -0.4312
  C  C1896  1  0.618100  0.710800  0.618300  1.0  -0.3833
  C  C1897  1  0.670800  0.742200  0.615800  1.0  0.2055
  C  C1898  1  0.680100  0.727000  0.595700  1.0  0.0097
  C  C1899  1  0.734500  0.770500  0.602800  1.0  0.2135
  C  C1900  1  0.770300  0.780100  0.589000  1.0  -0.4145
  C  C1901  1  0.953900  0.932000  0.665500  1.0  -0.4155
  C  C1902  1  0.951720  0.951420  0.690740  1.0  0.2697
  C  C1903  1  0.984100  0.980800  0.720100  1.0  -0.122
  C  C1904  1  0.962700  0.988000  0.734100  1.0  0.2448
  C  C1905  1  0.980300  0.014300  0.766200  1.0  -0.4105
  C  C1906  1  0.409200  0.024700  0.637500  1.0  -0.4067
  C  C1907  1  0.374400  0.968500  0.635100  1.0  0.1835
  C  C1908  1  0.365500  0.936700  0.615000  1.0  -0.0769
  C  C1909  1  0.330500  0.889100  0.623000  1.0  0.185
  C  C1910  1  0.305300  0.838900  0.609600  1.0  -0.384
  C  C1911  1  0.256200  0.750800  0.678400  1.0  -0.3859
  C  C1912  1  0.268500  0.777600  0.708900  1.0  0.2406
  C  C1913  1  0.279800  0.775800  0.737400  1.0  -0.1247
  C  C1914  1  0.291890  0.811200  0.757690  1.0  0.1257
  C  C1915  1  0.308200  0.827900  0.791700  1.0  -0.413
  C  C1916  1  0.364600  0.985900  0.819500  1.0  -0.4185
  C  C1917  1  0.371300  0.001300  0.790600  1.0  0.1176
  C  C1918  1  0.402400  0.051900  0.786900  1.0  -0.1323
  C  C1919  1  0.394700  0.043500  0.755200  1.0  0.2161
  C  C1920  1  0.416900  0.081600  0.736900  1.0  -0.4075
  C  C1921  1  0.485400  0.577000  0.224800  1.0  -0.3933
  C  C1922  1  0.438010  0.555500  0.230110  1.0  0.1576
  C  C1923  1  0.435400  0.573000  0.254400  1.0  -0.1888
  C  C1924  1  0.381300  0.537000  0.246500  1.0  0.1392
  C  C1925  1  0.351600  0.533600  0.263400  1.0  -0.3967
  C  C1926  1  0.482700  0.676600  0.269700  1.0  -0.3861
  C  C1927  1  0.499360  0.666130  0.287290  1.0  0.2912
  C  C1928  1  0.479800  0.621200  0.281400  1.0  -0.134
  C  C1929  1  0.510800  0.631800  0.304600  1.0  0.1999
  C  C1930  1  0.509600  0.598900  0.310300  1.0  -0.3975
  C  C1931  1  0.244300  0.346100  0.045600  1.0  -0.4113
  C  C1932  1  0.293800  0.388500  0.072700  1.0  0.1708
  C  C1933  1  0.348000  0.424380  0.074980  1.0  -0.1991
  C  C1934  1  0.374840  0.453770  0.105410  1.0  0.2155
  C  C1935  1  0.434200  0.497100  0.121500  1.0  -0.3968
  C  C1936  1  0.970600  0.146500  0.287300  1.0  -0.4145
  C  C1937  1  0.952800  0.128300  0.315300  1.0  0.2325
  C  C1938  1  0.913100  0.076200  0.318700  1.0  -0.1915
  C  C1939  1  0.911300  0.080300  0.349200  1.0  0.2138
  C  C1940  1  0.877400  0.039200  0.365800  1.0  -0.4
  C  C1941  1  0.904000  0.116900  0.465100  1.0  -0.4029
  C  C1942  1  0.937900  0.171600  0.464700  1.0  0.2267
  C  C1943  1  0.949100  0.205350  0.485050  1.0  -0.1566
  C  C1944  1  0.981400  0.250200  0.473800  1.0  0.2097
  C  C1945  1  0.004300  0.299300  0.484400  1.0  -0.4046
  C  C1946  1  0.897500  0.992800  0.318500  1.0  -0.3808
  C  C1947  1  0.868500  0.989000  0.297500  1.0  0.2017
  C  C1948  1  0.876700  0.025400  0.296300  1.0  -0.1514
  C  C1949  1  0.837600  0.999700  0.270100  1.0  0.2195
  C  C1950  1  0.824800  0.017500  0.256900  1.0  -0.4091
  C  C1951  1  0.341100  0.215700  0.897400  1.0  -0.3911
  C  C1952  1  0.311900  0.213200  0.875300  1.0  0.117
  C  C1953  1  0.320000  0.250300  0.875900  1.0  -0.1805
  C  C1954  1  0.281700  0.226400  0.850300  1.0  0.2502
  C  C1955  1  0.270800  0.246100  0.838500  1.0  -0.4179
  C  C1956  1  0.109200  0.106900  0.757100  1.0  -0.3964
  C  C1957  1  0.083900  0.055800  0.751900  1.0  0.1981
  C  C1958  1  0.030100  0.001900  0.736600  1.0  -0.1893
  C  C1959  1  0.028800  0.970200  0.739400  1.0  0.0865
  C  C1960  1  0.983500  0.909300  0.727000  1.0  -0.4072
  C  C1961  1  0.372700  0.075100  0.834600  1.0  -0.4249
  C  C1962  1  0.426190  0.112660  0.829850  1.0  0.2158
  C  C1963  1  0.438400  0.102400  0.809000  1.0  -0.1499
  C  C1964  1  0.495900  0.152200  0.814900  1.0  0.2348
  C  C1965  1  0.532000  0.165300  0.799700  1.0  -0.397
  C  C1966  1  0.697000  0.128600  0.526400  1.0  -0.4105
  C  C1967  1  0.660700  0.094500  0.547400  1.0  0.1253
  C  C1968  1  0.667200  0.084200  0.572000  1.0  -0.0764
  C  C1969  1  0.622100  0.055000  0.582500  1.0  0.225
  C  C1970  1  0.608300  0.033400  0.609700  1.0  -0.4305
  C  C1971  1  0.443100  0.946000  0.613100  1.0  -0.4282
  C  C1972  1  0.428800  0.956900  0.592100  1.0  0.2423
  C  C1973  1  0.396300  0.954000  0.592500  1.0  -0.1714
  C  C1974  1  0.400400  0.971600  0.567200  1.0  0.1276
  C  C1975  1  0.373500  0.976400  0.554300  1.0  -0.3963
  C  C1976  1  0.588700  0.610200  0.611300  1.0  -0.4073
  C  C1977  1  0.601500  0.623500  0.582000  1.0  0.2084
  C  C1978  1  0.639000  0.673300  0.574100  1.0  -0.1602
  C  C1979  1  0.630900  0.657700  0.543800  1.0  0.2102
  C  C1980  1  0.660750  0.694400  0.522350  1.0  -0.4094
  C  C1981  1  0.062700  0.049100  0.409600  1.0  -0.3951
  C  C1982  1  0.076900  0.037400  0.431100  1.0  0.1447
  C  C1983  1  0.112570  0.044400  0.433770  1.0  0.0066
  C  C1984  1  0.110100  0.028610  0.457910  1.0  0.175
  C  C1985  1  0.139400  0.026700  0.471100  1.0  -0.391
  C  C1986  1  0.047100  0.916500  0.545000  1.0  -0.3972
  C  C1987  1  0.001100  0.898200  0.544500  1.0  0.195
  C  C1988  1  0.956600  0.857100  0.557100  1.0  -0.1749
  C  C1989  1  0.926100  0.856400  0.551100  1.0  0.2139
  C  C1990  1  0.872600  0.819200  0.557600  1.0  -0.4273
  C  C1991  1  0.783700  0.817800  0.482500  1.0  -0.4234
  C  C1992  1  0.823200  0.858200  0.465600  1.0  0.1561
  C  C1993  1  0.819400  0.870500  0.441300  1.0  -0.0796
  C  C1994  1  0.871100  0.913600  0.436100  1.0  0.1694
  C  C1995  1  0.889300  0.940900  0.411600  1.0  -0.4124
  C  C1996  1  0.836400  0.327000  0.210600  1.0  -0.4261
  C  C1997  1  0.862000  0.378000  0.220000  1.0  0.2178
  C  C1998  1  0.918600  0.431400  0.234400  1.0  -0.1631
  C  C1999  1  0.920600  0.463100  0.237900  1.0  0.1868
  C  C2000  1  0.969200  0.524400  0.251800  1.0  -0.4007
  C  C2001  1  0.928500  0.580200  0.214500  1.0  -0.4041
  C  C2002  1  0.874300  0.535400  0.191900  1.0  0.2018
  C  C2003  1  0.852900  0.535700  0.169000  1.0  -0.1961
  C  C2004  1  0.798500  0.480400  0.157300  1.0  0.1896
  C  C2005  1  0.754600  0.455900  0.131100  1.0  -0.426
  C  C2006  1  0.619900  0.259600  0.094900  1.0  -0.4397
  C  C2007  1  0.639000  0.250200  0.114800  1.0  0.2121
  C  C2008  1  0.627100  0.211400  0.109100  1.0  -0.0319
  C  C2009  1  0.657200  0.225400  0.136200  1.0  0.1994
  C  C2010  1  0.660800  0.196300  0.145300  1.0  -0.3861
  C  C2011  1  0.881100  0.560400  0.104900  1.0  -0.4148
  C  C2012  1  0.895300  0.594000  0.132100  1.0  0.2068
  C  C2013  1  0.883300  0.583900  0.159800  1.0  -0.1225
  C  C2014  1  0.909000  0.629700  0.176900  1.0  0.1783
  C  C2015  1  0.911500  0.643700  0.209000  1.0  -0.3861
  C  C2016  1  0.025300  0.825300  0.238800  1.0  -0.4105
  C  C2017  1  0.043900  0.848500  0.212200  1.0  0.245
  C  C2018  1  0.081000  0.901200  0.211800  1.0  -0.168
  C  C2019  1  0.083500  0.900900  0.181600  1.0  0.2027
  C  C2020  1  0.116600  0.945600  0.166600  1.0  -0.3927
  C  C2021  1  0.096400  0.874200  0.062000  1.0  -0.3972
  C  C2022  1  0.054500  0.815100  0.058000  1.0  0.1866
  C  C2023  1  0.031800  0.774800  0.033600  1.0  -0.1019
  C  C2024  1  0.998600  0.729730  0.044930  1.0  0.1806
  C  C2025  1  0.963000  0.674300  0.029900  1.0  -0.3941
  C  C2026  1  0.040000  0.915800  0.256600  1.0  -0.4038
  C  C2027  1  0.095600  0.952000  0.257400  1.0  0.1965
  C  C2028  1  0.112800  0.946700  0.237500  1.0  -0.1933
  C  C2029  1  0.169900  0.993500  0.250800  1.0  0.1893
  C  C2030  1  0.210900  0.009600  0.238900  1.0  -0.3967
  C  C2031  1  0.382300  0.160000  0.311100  1.0  -0.4036
  C  C2032  1  0.379600  0.175200  0.340200  1.0  0.1081
  C  C2033  1  0.413000  0.204700  0.369500  1.0  -0.166
  C  C2034  1  0.388900  0.205000  0.385900  1.0  0.2281
  C  C2035  1  0.409200  0.232000  0.419800  1.0  -0.425
  C  C2036  1  0.244000  0.143600  0.442000  1.0  -0.4057
  C  C2037  1  0.197200  0.100200  0.415000  1.0  0.138
  C  C2038  1  0.139900  0.057600  0.410100  1.0  -0.1127
  C  C2039  1  0.117340  0.030800  0.379740  1.0  0.1944
  C  C2040  1  0.058800  0.981700  0.361300  1.0  -0.4143
  C  C2041  1  0.539200  0.335900  0.400100  1.0  -0.3988
  C  C2042  1  0.518300  0.286800  0.392900  1.0  0.1062
  C  C2043  1  0.462800  0.228800  0.380000  1.0  -0.0752
  C  C2044  1  0.468200  0.204100  0.378900  1.0  0.2994
  C  C2045  1  0.425600  0.145200  0.368600  1.0  -0.4338
  C  C2046  1  0.499800  0.118100  0.407300  1.0  -0.3846
  C  C2047  1  0.555000  0.170800  0.428600  1.0  0.2065
  C  C2048  1  0.584400  0.180100  0.453100  1.0  0.009
  C  C2049  1  0.631700  0.234500  0.464000  1.0  0.2136
  C  C2050  1  0.681300  0.270300  0.490200  1.0  -0.4151
  C  C2051  1  0.788400  0.453900  0.521900  1.0  -0.4145
  C  C2052  1  0.760980  0.451720  0.500300  1.0  0.2717
  C  C2053  1  0.764000  0.484100  0.503300  1.0  -0.122
  C  C2054  1  0.728600  0.462700  0.474700  1.0  0.2432
  C  C2055  1  0.714100  0.480300  0.466000  1.0  -0.4051
  C  C2056  1  0.271700  0.909200  0.884500  1.0  -0.405
  C  C2057  1  0.239300  0.874400  0.905900  1.0  0.1831
  C  C2058  1  0.250500  0.865500  0.928800  1.0  -0.0782
  C  C2059  1  0.207500  0.830500  0.941400  1.0  0.184
  C  C2060  1  0.195700  0.805300  0.966400  1.0  -0.388
  C  C2061  1  0.077800  0.756200  0.005400  1.0  -0.3842
  C  C2062  1  0.059600  0.768500  0.990900  1.0  0.2396
  C  C2063  1  0.042400  0.779800  0.004000  1.0  -0.1264
  C  C2064  1  0.034200  0.791890  0.980690  1.0  0.126
  C  C2065  1  0.016500  0.808200  0.980300  1.0  -0.4085
  C  C2066  1  0.045100  0.864600  0.878700  1.0  -0.4121
  C  C2067  1  0.080700  0.871300  0.870000  1.0  0.1157
  C  C2068  1  0.115500  0.902400  0.850500  1.0  -0.1303
  C  C2069  1  0.139500  0.894700  0.851200  1.0  0.2182
  C  C2070  1  0.180000  0.916900  0.835300  1.0  -0.4071
  C  C2071  1  0.760600  0.985400  0.408400  1.0  -0.3927
  C  C2072  1  0.707900  0.938010  0.382510  1.0  0.1577
  C  C2073  1  0.681000  0.935400  0.362400  1.0  -0.1882
  C  C2074  1  0.634800  0.881300  0.344300  1.0  0.139
  C  C2075  1  0.588200  0.851600  0.318000  1.0  -0.3979
  C  C2076  1  0.713000  0.982700  0.306100  1.0  -0.389
  C  C2077  1  0.712070  0.999360  0.333230  1.0  0.2897
  C  C2078  1  0.698400  0.979800  0.358600  1.0  -0.1331
  C  C2079  1  0.706200  0.010800  0.379000  1.0  0.1999
  C  C2080  1  0.699300  0.009600  0.410700  1.0  -0.4
  C  C2081  1  0.698700  0.744300  0.398200  1.0  -0.4108
  C  C2082  1  0.721100  0.793800  0.405300  1.0  0.1729
  C  C2083  1  0.773020  0.848000  0.423620  1.0  -0.1981
  C  C2084  1  0.769430  0.874840  0.421070  1.0  0.2151
  C  C2085  1  0.812700  0.934200  0.437100  1.0  -0.3961
  C  C2086  1  0.183300  0.470600  0.324100  1.0  -0.4173
  C  C2087  1  0.137500  0.452800  0.324500  1.0  0.2309
  C  C2088  1  0.094400  0.413100  0.336900  1.0  -0.1914
  C  C2089  1  0.062100  0.411300  0.331000  1.0  0.2127
  C  C2090  1  0.011600  0.377400  0.338200  1.0  -0.3989
  C  C2091  1  0.938900  0.404000  0.287100  1.0  -0.4029
  C  C2092  1  0.973200  0.437900  0.266300  1.0  0.2274
  C  C2093  1  0.964050  0.449100  0.243750  1.0  -0.1557
  C  C2094  1  0.007600  0.481400  0.231200  1.0  0.2085
  C  C2095  1  0.019900  0.504300  0.205000  1.0  -0.4071
  C  C2096  1  0.079000  0.397500  0.404700  1.0  -0.3818
  C  C2097  1  0.071000  0.368500  0.379500  1.0  0.2015
  C  C2098  1  0.080400  0.376700  0.351300  1.0  -0.1519
  C  C2099  1  0.067500  0.337600  0.337900  1.0  0.2222
  C  C2100  1  0.067900  0.324800  0.307300  1.0  -0.4138
  C  C2101  1  0.943700  0.841100  0.625400  1.0  -0.3926
  C  C2102  1  0.936600  0.811900  0.598700  1.0  0.1155
  C  C2103  1  0.944100  0.820000  0.569700  1.0  -0.1814
  C  C2104  1  0.931400  0.781700  0.555300  1.0  0.2515
  C  C2105  1  0.932300  0.770800  0.524700  1.0  -0.4201
  C  C2106  1  0.852100  0.609200  0.502300  1.0  -0.3995
  C  C2107  1  0.832000  0.583900  0.528100  1.0  0.1973
  C  C2108  1  0.793500  0.530100  0.528200  1.0  -0.1914
  C  C2109  1  0.789400  0.528800  0.558600  1.0  0.0834
  C  C2110  1  0.756500  0.483500  0.574200  1.0  -0.4034
  C  C2111  1  0.038100  0.872700  0.797600  1.0  -0.4245
  C  C2112  1  0.096340  0.926190  0.813530  1.0  0.2166
  C  C2113  1  0.129400  0.938400  0.836000  1.0  -0.1484
  C  C2114  1  0.181000  0.995900  0.843700  1.0  0.2336
  C  C2115  1  0.232300  0.032000  0.866700  1.0  -0.3963
  C  C2116  1  0.670600  0.197000  0.068400  1.0  -0.4079
  C  C2117  1  0.613300  0.160700  0.066200  1.0  0.1247
  C  C2118  1  0.595200  0.167200  0.083000  1.0  -0.0744
  C  C2119  1  0.539600  0.122100  0.067100  1.0  0.2247
  C  C2120  1  0.498600  0.108300  0.074900  1.0  -0.4278
  C  C2121  1  0.330000  0.943100  0.997100  1.0  -0.4271
  C  C2122  1  0.336700  0.928800  0.971900  1.0  0.2423
  C  C2123  1  0.303800  0.896300  0.942300  1.0  -0.1701
  C  C2124  1  0.333200  0.900400  0.928800  1.0  0.1274
  C  C2125  1  0.319200  0.873500  0.897100  1.0  -0.4007
  C  C2126  1  0.477400  0.088700  0.478500  1.0  -0.4037
  C  C2127  1  0.519500  0.101500  0.478000  1.0  0.2085
  C  C2128  1  0.564900  0.139000  0.465700  1.0  -0.1604
  C  C2129  1  0.587100  0.130900  0.473200  1.0  0.2112
  C  C2130  1  0.638400  0.160750  0.466350  1.0  -0.4061
  C  C2131  1  0.139500  0.653100  0.090400  1.0  -0.3963
  C  C2132  1  0.106300  0.645800  0.068900  1.0  0.1454
  C  C2133  1  0.110630  0.678800  0.066230  1.0  0.0075
  C  C2134  1  0.070700  0.652190  0.042090  1.0  0.1728
  C  C2135  1  0.055600  0.668300  0.028900  1.0  -0.3903
  C  C2136  1  0.871500  0.502100  0.955000  1.0  -0.3965
  C  C2137  1  0.853700  0.456600  0.955500  1.0  0.1947
  C  C2138  1  0.800000  0.399500  0.942900  1.0  -0.1724
  C  C2139  1  0.805300  0.375000  0.948900  1.0  0.2142
  C  C2140  1  0.761600  0.315000  0.942400  1.0  -0.4317
  C  C2141  1  0.835300  0.301200  0.017500  1.0  -0.4254
  C  C2142  1  0.892600  0.357600  0.034400  1.0  0.1588
  C  C2143  1  0.929200  0.378100  0.058700  1.0  -0.0774
  C  C2144  1  0.977500  0.435000  0.063900  1.0  0.1701
  C  C2145  1  0.029300  0.477700  0.088400  1.0  -0.4095
  C  C2146  1  0.616400  0.625800  0.289400  1.0  -0.4218
  C  C2147  1  0.658000  0.642000  0.280000  1.0  0.2155
  C  C2148  1  0.697000  0.684200  0.265600  1.0  -0.1615
  C  C2149  1  0.725200  0.682700  0.262100  1.0  0.1874
  C  C2150  1  0.772600  0.717400  0.248200  1.0  -0.4001
  C  C2151  1  0.865700  0.714000  0.285500  1.0  -0.4007
  C  C2152  1  0.843500  0.682400  0.308100  1.0  0.2038
  C  C2153  1  0.866700  0.683900  0.331000  1.0  -0.1956
  C  C2154  1  0.823100  0.641200  0.342700  1.0  0.1908
  C  C2155  1  0.824800  0.623500  0.368900  1.0  -0.4291
  C  C2156  1  0.664700  0.525000  0.405100  1.0  -0.442
  C  C2157  1  0.635400  0.524200  0.385200  1.0  0.2146
  C  C2158  1  0.602300  0.518000  0.390900  1.0  -0.0333
  C  C2159  1  0.589200  0.521000  0.363800  1.0  0.1954
  C  C2160  1  0.551000  0.515500  0.354700  1.0  -0.3862
  C  C2161  1  0.955500  0.776200  0.395100  1.0  -0.4123
  C  C2162  1  0.961900  0.763200  0.367900  1.0  0.2058
  C  C2163  1  0.924100  0.723500  0.340200  1.0  -0.1239
  C  C2164  1  0.952800  0.732100  0.323100  1.0  0.1789
  C  C2165  1  0.934700  0.702500  0.291000  1.0  -0.3841
  C  C2166  1  0.086500  0.786500  0.261200  1.0  -0.4077
  C  C2167  1  0.136300  0.831700  0.287800  1.0  0.2448
  C  C2168  1  0.189400  0.869200  0.288200  1.0  -0.169
  C  C2169  1  0.219300  0.901900  0.318400  1.0  0.2039
  C  C2170  1  0.279000  0.950000  0.333400  1.0  -0.39
  C  C2171  1  0.312200  0.034400  0.438000  1.0  -0.3985
  C  C2172  1  0.257100  0.996500  0.442000  1.0  0.185
  C  C2173  1  0.241200  0.998200  0.466400  1.0  -0.1007
  C  C2174  1  0.184800  0.953670  0.455070  1.0  0.1783
  C  C2175  1  0.144400  0.933100  0.470100  1.0  -0.3906
  C  C2176  1  0.159200  0.783400  0.243400  1.0  -0.4057
  C  C2177  1  0.194600  0.838200  0.242600  1.0  0.1952
  C  C2178  1  0.209200  0.875300  0.262500  1.0  -0.1942
  C  C2179  1  0.242700  0.919100  0.249200  1.0  0.1898
  C  C2180  1  0.270700  0.972000  0.261100  1.0  -0.3969
  C  C2181  1  0.348900  0.071200  0.188900  1.0  -0.4019
  C  C2182  1  0.335000  0.039400  0.159800  1.0  0.1092
  C  C2183  1  0.335200  0.043500  0.130500  1.0  -0.1647
  C  C2184  1  0.319100  0.003000  0.114100  1.0  0.2276
  C  C2185  1  0.312200  0.989400  0.080200  1.0  -0.4265
  C  C2186  1  0.201600  0.802000  0.058000  1.0  -0.406
  C  C2187  1  0.185200  0.782200  0.085000  1.0  0.141
  C  C2188  1  0.147500  0.729800  0.089900  1.0  -0.1115
  C  C2189  1  0.151060  0.737600  0.120260  1.0  0.1958
  C  C2190  1  0.120400  0.697500  0.138700  1.0  -0.4116
  C  C2191  1  0.435800  0.139100  0.099900  1.0  -0.401
  C  C2192  1  0.393900  0.125400  0.107100  1.0  0.1054
  C  C2193  1  0.348800  0.082800  0.120000  1.0  -0.0706
  C  C2194  1  0.325200  0.089300  0.121100  1.0  0.2983
  C  C2195  1  0.276600  0.057000  0.131400  1.0  -0.4285
  C  C2196  1  0.210800  0.092500  0.092700  1.0  -0.3843
  C  C2197  1  0.242200  0.126400  0.071400  1.0  0.2047
  C  C2198  1  0.227000  0.131300  0.046900  1.0  0.0075
  C  C2199  1  0.270500  0.167700  0.036000  1.0  0.2137
  C  C2200  1  0.280100  0.191100  0.009800  1.0  -0.4187
  C  C2201  1  0.432000  0.266500  0.978100  1.0  -0.4144
  C  C2202  1  0.451420  0.260680  0.999700  1.0  0.2705
  C  C2203  1  0.480800  0.260700  0.996700  1.0  -0.1229
  C  C2204  1  0.488000  0.253900  0.025300  1.0  0.2414
  C  C2205  1  0.514300  0.248100  0.034000  1.0  -0.4054
  C  C2206  1  0.524700  0.387200  0.615500  1.0  -0.4085
  C  C2207  1  0.468500  0.333400  0.594100  1.0  0.1825
  C  C2208  1  0.436700  0.321700  0.571200  1.0  -0.0764
  C  C2209  1  0.389100  0.266100  0.558600  1.0  0.1833
  C  C2210  1  0.338900  0.229300  0.533600  1.0  -0.3846
  C  C2211  1  0.250800  0.072400  0.494600  1.0  -0.3852
  C  C2212  1  0.277600  0.068700  0.509100  1.0  0.2399
  C  C2213  1  0.275800  0.038400  0.496000  1.0  -0.125
  C  C2214  1  0.311200  0.053510  0.519310  1.0  0.1252
  C  C2215  1  0.327900  0.036200  0.519700  1.0  -0.4081
  C  C2216  1  0.485900  0.166400  0.621300  1.0  -0.4159
  C  C2217  1  0.501300  0.210700  0.630000  1.0  0.1164
  C  C2218  1  0.551900  0.265000  0.649500  1.0  -0.1316
  C  C2219  1  0.543500  0.288300  0.648800  1.0  0.2185
  C  C2220  1  0.581600  0.344700  0.664700  1.0  -0.4068
  C  C2221  1  0.077000  0.352200  0.091600  1.0  -0.3924
  C  C2222  1  0.055500  0.325390  0.117490  1.0  0.1587
  C  C2223  1  0.073000  0.318600  0.137600  1.0  -0.1893
  C  C2224  1  0.037000  0.290500  0.155700  1.0  0.1394
  C  C2225  1  0.033600  0.270200  0.182000  1.0  -0.4017
  C  C2226  1  0.176600  0.406900  0.193900  1.0  -0.3871
  C  C2227  1  0.166130  0.378840  0.166770  1.0  0.2919
  C  C2228  1  0.121200  0.339800  0.141400  1.0  -0.134
  C  C2229  1  0.131800  0.327200  0.121000  1.0  0.1994
  C  C2230  1  0.098900  0.288600  0.089300  1.0  -0.3976
  C  C2231  1  0.846100  0.300500  0.101800  1.0  -0.4108
  C  C2232  1  0.888500  0.315800  0.094700  1.0  0.1715
  C  C2233  1  0.924380  0.349400  0.076380  1.0  -0.2018
  C  C2234  1  0.953770  0.348360  0.078930  1.0  0.2166
  C  C2235  1  0.997100  0.375600  0.062900  1.0  -0.3948
  C  C2236  1  0.646500  0.859200  0.175900  1.0  -0.4145
  C  C2237  1  0.628300  0.813000  0.175500  1.0  0.2311
  C  C2238  1  0.576200  0.757500  0.163100  1.0  -0.1902
  C  C2239  1  0.580300  0.731100  0.169000  1.0  0.2145
  C  C2240  1  0.539200  0.673400  0.161800  1.0  -0.4013
  C  C2241  1  0.616900  0.651800  0.212900  1.0  -0.4029
  C  C2242  1  0.671600  0.706900  0.233700  1.0  0.2272
  C  C2243  1  0.705350  0.720300  0.256250  1.0  -0.1573
  C  C2244  1  0.750200  0.776400  0.268800  1.0  0.208
  C  C2245  1  0.799300  0.814900  0.295000  1.0  -0.4054
  C  C2246  1  0.492800  0.674300  0.095300  1.0  -0.381
  C  C2247  1  0.489000  0.691500  0.120500  1.0  0.2036
  C  C2248  1  0.525400  0.729100  0.148700  1.0  -0.1506
  C  C2249  1  0.499700  0.729600  0.162100  1.0  0.2192
  C  C2250  1  0.517500  0.760600  0.192700  1.0  -0.4117
  C  C2251  1  0.715700  0.318300  0.874600  1.0  -0.39
  C  C2252  1  0.713200  0.337900  0.901300  1.0  0.1169
  C  C2253  1  0.750300  0.374400  0.930300  1.0  -0.1809
  C  C2254  1  0.726400  0.376100  0.944700  1.0  0.2496
  C  C2255  1  0.746100  0.407600  0.975300  1.0  -0.418
  C  C2256  1  0.606900  0.349800  0.997700  1.0  -0.3977
  C  C2257  1  0.555800  0.303900  0.971900  1.0  0.1973
  C  C2258  1  0.501900  0.265300  0.971800  1.0  -0.1912
  C  C2259  1  0.470200  0.230800  0.941400  1.0  0.0857
  C  C2260  1  0.409300  0.182300  0.925800  1.0  -0.406
  C  C2261  1  0.575100  0.240500  0.702400  1.0  -0.4227
  C  C2262  1  0.612660  0.282810  0.686470  1.0  0.215
  C  C2263  1  0.602400  0.293400  0.664000  1.0  -0.1513
  C  C2264  1  0.652200  0.337300  0.656300  1.0  0.234
  C  C2265  1  0.665300  0.365600  0.633300  1.0  -0.3976
  C  C2266  1  0.628600  0.602200  0.431600  1.0  -0.4094
  C  C2267  1  0.594500  0.547100  0.433800  1.0  0.1248
  C  C2268  1  0.584200  0.512200  0.417000  1.0  -0.0756
  C  C2269  1  0.555000  0.472500  0.432900  1.0  0.2224
  C  C2270  1  0.533400  0.423700  0.425100  1.0  -0.429
  C  C2271  1  0.446000  0.332900  0.502900  1.0  -0.432
  C  C2272  1  0.456900  0.364800  0.528100  1.0  0.2428
  C  C2273  1  0.454000  0.361500  0.557700  1.0  -0.1698
  C  C2274  1  0.471600  0.404400  0.571200  1.0  0.1289
  C  C2275  1  0.476400  0.422100  0.602900  1.0  -0.4014
  C  C2276  1  0.110200  0.998900  0.021500  1.0  -0.4056
  C  C2277  1  0.123500  0.041500  0.022000  1.0  0.2084
  C  C2278  1  0.173300  0.099200  0.034300  1.0  -0.1591
  C  C2279  1  0.157700  0.113900  0.026800  1.0  0.2094
  C  C2280  1  0.194400  0.172050  0.033650  1.0  -0.4076
  C  C2281  1  0.846900  0.437300  0.486400  1.0  -0.397
  C  C2282  1  0.854200  0.423100  0.460500  1.0  0.1436
  C  C2283  1  0.821200  0.387430  0.431830  1.0  0.0078
  C  C2284  1  0.847810  0.389900  0.418510  1.0  0.1757
  C  C2285  1  0.831700  0.360600  0.387300  1.0  -0.3914
  C  C2286  1  0.997900  0.452900  0.369400  1.0  -0.3975
  C  C2287  1  0.043400  0.498900  0.397100  1.0  0.1959
  C  C2288  1  0.100500  0.543400  0.400500  1.0  -0.1737
  C  C2289  1  0.125000  0.573900  0.430300  1.0  0.2138
  C  C2290  1  0.185000  0.627400  0.446600  1.0  -0.4283
  C  C2291  1  0.198800  0.716300  0.534100  1.0  -0.4258
  C  C2292  1  0.142400  0.676800  0.535000  1.0  0.1578
  C  C2293  1  0.121900  0.680600  0.551100  1.0  -0.0797
  C  C2294  1  0.065000  0.628900  0.542500  1.0  0.1668
  C  C2295  1  0.022300  0.610700  0.551600  1.0  -0.4075
  C  C2296  1  0.874200  0.663600  0.990600  1.0  -0.4278
  C  C2297  1  0.858000  0.638000  0.016000  1.0  0.2153
  C  C2298  1  0.815800  0.581400  0.012800  1.0  -0.1623
  C  C2299  1  0.817300  0.579400  0.042500  1.0  0.1871
  C  C2300  1  0.782600  0.530800  0.055200  1.0  -0.4008
  C  C2301  1  0.786000  0.571500  0.151700  1.0  -0.4044
  C  C2302  1  0.817600  0.625700  0.161100  1.0  0.2032
  C  C2303  1  0.816100  0.647100  0.182800  1.0  -0.1973
  C  C2304  1  0.858800  0.701500  0.181900  1.0  0.1911
  C  C2305  1  0.876500  0.745400  0.201300  1.0  -0.424
  C  C2306  1  0.975000  0.880100  0.139700  1.0  -0.4431
  C  C2307  1  0.975800  0.861000  0.111200  1.0  0.2131
  C  C2308  1  0.982000  0.872900  0.084300  1.0  -0.0331
  C  C2309  1  0.979000  0.842800  0.068200  1.0  0.1993
  C  C2310  1  0.984500  0.839200  0.035500  1.0  -0.3886
  C  C2311  1  0.723800  0.618900  0.179300  1.0  -0.408
  C  C2312  1  0.736800  0.604700  0.198700  1.0  0.2044
  C  C2313  1  0.776500  0.616700  0.200600  1.0  -0.1238
  C  C2314  1  0.767900  0.591000  0.220700  1.0  0.1766
  C  C2315  1  0.797500  0.588500  0.232200  1.0  -0.3829
  C  C2316  1  0.713500  0.474700  0.300000  1.0  -0.4092
  C  C2317  1  0.668300  0.456100  0.304600  1.0  0.2421
  C  C2318  1  0.630800  0.419000  0.320200  1.0  -0.1695
  C  C2319  1  0.598100  0.416500  0.317400  1.0  0.2043
  C  C2320  1  0.550000  0.383400  0.329000  1.0  -0.388
  C  C2321  1  0.465600  0.403600  0.277800  1.0  -0.3942
  C  C2322  1  0.503500  0.445500  0.260600  1.0  0.1864
  C  C2323  1  0.501800  0.468200  0.243000  1.0  -0.1043
  C  C2324  1  0.546330  0.501400  0.231130  1.0  0.1782
  C  C2325  1  0.566900  0.537000  0.211300  1.0  -0.3917
  C  C2326  1  0.716600  0.460000  0.375800  1.0  -0.4047
  C  C2327  1  0.661800  0.404400  0.356400  1.0  0.1961
  C  C2328  1  0.624700  0.387200  0.333900  1.0  -0.1939
  C  C2329  1  0.580900  0.330100  0.323600  1.0  0.1886
  C  C2330  1  0.528000  0.289100  0.298700  1.0  -0.3968
  C  C2331  1  0.428800  0.117700  0.277700  1.0  -0.4004
  C  C2332  1  0.460600  0.120400  0.295600  1.0  0.1092
  C  C2333  1  0.456500  0.087000  0.291700  1.0  -0.1637
  C  C2334  1  0.497000  0.111100  0.316100  1.0  0.2264
  C  C2335  1  0.510600  0.090800  0.322800  1.0  -0.4283
  C  C2336  1  0.698000  0.256000  0.399600  1.0  -0.4043
  C  C2337  1  0.717800  0.302800  0.403000  1.0  0.1373
  C  C2338  1  0.770200  0.360100  0.417700  1.0  -0.1103
  C  C2339  1  0.762400  0.382660  0.413460  1.0  0.1946
  C  C2340  1  0.802500  0.441200  0.422900  1.0  -0.4148
  C  C2341  1  0.360900  0.960800  0.296700  1.0  -0.4032
  C  C2342  1  0.374600  0.981700  0.268500  1.0  0.1088
  C  C2343  1  0.417200  0.037200  0.266000  1.0  -0.0744
  C  C2344  1  0.410700  0.031800  0.235900  1.0  0.2988
  C  C2345  1  0.443000  0.074400  0.219600  1.0  -0.4301
  C  C2346  1  0.407500  0.000200  0.118300  1.0  -0.3842
  C  C2347  1  0.373600  0.945000  0.115800  1.0  0.2054
  C  C2348  1  0.368700  0.915600  0.095700  1.0  0.0083
  C  C2349  1  0.332300  0.868300  0.102800  1.0  0.2147
  C  C2350  1  0.308900  0.818700  0.089000  1.0  -0.4179
  C  C2351  1  0.233500  0.711600  0.165500  1.0  -0.416
  C  C2352  1  0.239320  0.739020  0.190740  1.0  0.2707
  C  C2353  1  0.239300  0.736000  0.220100  1.0  -0.1227
  C  C2354  1  0.246100  0.771400  0.234100  1.0  0.2453
  C  C2355  1  0.251900  0.785900  0.266200  1.0  -0.41
  C  C2356  1  0.112800  0.228300  0.137500  1.0  -0.4073
  C  C2357  1  0.166600  0.260700  0.135100  1.0  0.1853
  C  C2358  1  0.178300  0.249500  0.115000  1.0  -0.076
  C  C2359  1  0.233900  0.292500  0.123000  1.0  0.1855
  C  C2360  1  0.270700  0.304300  0.109600  1.0  -0.3832
  C  C2361  1  0.427600  0.422200  0.178400  1.0  -0.3875
  C  C2362  1  0.431300  0.440400  0.208900  1.0  0.2402
  C  C2363  1  0.461600  0.457600  0.237400  1.0  -0.1261
  C  C2364  1  0.446490  0.465800  0.257690  1.0  0.1257
  C  C2365  1  0.463800  0.483500  0.291700  1.0  -0.411
  C  C2366  1  0.333600  0.454900  0.319500  1.0  -0.4149
  C  C2367  1  0.289300  0.419300  0.290600  1.0  0.1167
  C  C2368  1  0.235000  0.384500  0.286900  1.0  -0.1314
  C  C2369  1  0.211700  0.360500  0.255200  1.0  0.2186
  C  C2370  1  0.155300  0.320000  0.236900  1.0  -0.4068
  C  C2371  1  0.147800  0.739400  0.724800  1.0  -0.3927
  C  C2372  1  0.174610  0.792100  0.730110  1.0  0.1601
  C  C2373  1  0.181400  0.819000  0.754400  1.0  -0.1898
  C  C2374  1  0.209500  0.865200  0.746500  1.0  0.14
  C  C2375  1  0.229800  0.911800  0.763400  1.0  -0.3961
  C  C2376  1  0.093100  0.787000  0.769700  1.0  -0.3836
  C  C2377  1  0.121160  0.787930  0.787290  1.0  0.2889
  C  C2378  1  0.160200  0.801600  0.781400  1.0  -0.1336
  C  C2379  1  0.172800  0.793800  0.804600  1.0  0.1996
  C  C2380  1  0.211400  0.800700  0.810300  1.0  -0.3967
  C  C2381  1  0.199500  0.801300  0.545600  1.0  -0.4128
  C  C2382  1  0.184200  0.778900  0.572700  1.0  0.1689
  C  C2383  1  0.150600  0.726980  0.574980  1.0  -0.198
  C  C2384  1  0.151640  0.730570  0.605410  1.0  0.2171
  C  C2385  1  0.124400  0.687300  0.621500  1.0  -0.396
  C  C2386  1  0.640800  0.316700  0.787300  1.0  -0.4153
  C  C2387  1  0.687000  0.362500  0.815300  1.0  0.234
  C  C2388  1  0.742500  0.405600  0.818700  1.0  -0.1914
  C  C2389  1  0.768900  0.437900  0.849200  1.0  0.2117
  C  C2390  1  0.826600  0.488400  0.865800  1.0  -0.4014
  C  C2391  1  0.848200  0.561100  0.965100  1.0  -0.3971
  C  C2392  1  0.793100  0.526800  0.964700  1.0  0.2267
  C  C2393  1  0.779700  0.535950  0.985050  1.0  -0.1555
  C  C2394  1  0.723600  0.492400  0.973800  1.0  0.2104
  C  C2395  1  0.685100  0.480100  0.984400  1.0  -0.4042
  C  C2396  1  0.825700  0.421000  0.818500  1.0  -0.3805
  C  C2397  1  0.808500  0.429000  0.797500  1.0  0.2039
  C  C2398  1  0.770900  0.419600  0.796300  1.0  -0.1514
  C  C2399  1  0.770400  0.432500  0.770100  1.0  0.2198
  C  C2400  1  0.739400  0.432100  0.756900  1.0  -0.4061
  C  C2401  1  0.181700  0.556300  0.397400  1.0  -0.3903
  C  C2402  1  0.162100  0.563400  0.375300  1.0  0.1168
  C  C2403  1  0.125600  0.555900  0.375900  1.0  -0.1812
  C  C2404  1  0.123900  0.568600  0.350300  1.0  0.2503
  C  C2405  1  0.092400  0.567700  0.338500  1.0  -0.4149
  C  C2406  1  0.150200  0.647900  0.257100  1.0  -0.3965
  C  C2407  1  0.196100  0.668000  0.251900  1.0  0.1973
  C  C2408  1  0.234700  0.706500  0.236600  1.0  -0.1879
  C  C2409  1  0.269200  0.710600  0.239400  1.0  0.0858
  C  C2410  1  0.317700  0.743500  0.227000  1.0  -0.4061
  C  C2411  1  0.259500  0.461900  0.334600  1.0  -0.4259
  C  C2412  1  0.217190  0.403660  0.329850  1.0  0.2168
  C  C2413  1  0.206600  0.370600  0.309000  1.0  -0.1495
  C  C2414  1  0.162700  0.319000  0.314900  1.0  0.2346
  C  C2415  1  0.134400  0.267700  0.299700  1.0  -0.3987
  C  C2416  1  0.897800  0.829400  0.026400  1.0  -0.4094
  C  C2417  1  0.952900  0.886700  0.047400  1.0  0.1253
  C  C2418  1  0.987800  0.904800  0.072000  1.0  -0.0762
  C  C2419  1  0.027500  0.960400  0.082500  1.0  0.2255
  C  C2420  1  0.076300  0.001400  0.109700  1.0  -0.4271
  C  C2421  1  0.167100  0.170000  0.113100  1.0  -0.4277
  C  C2422  1  0.135200  0.163300  0.092100  1.0  0.2408
  C  C2423  1  0.138500  0.196200  0.092500  1.0  -0.1697
  C  C2424  1  0.095600  0.166800  0.067200  1.0  0.127
  C  C2425  1  0.077900  0.180800  0.054300  1.0  -0.3956
  C  C2426  1  0.501100  0.022600  0.111300  1.0  -0.4071
  C  C2427  1  0.458500  0.980500  0.082000  1.0  0.2087
  C  C2428  1  0.400800  0.935100  0.074100  1.0  -0.1608
  C  C2429  1  0.386100  0.912900  0.043800  1.0  0.208
  C  C2430  1  0.327950  0.861600  0.022350  1.0  -0.4076
  C  C2431  1  0.450900  0.360500  0.013600  1.0  -0.3974
  C  C2432  1  0.462600  0.393700  0.039500  1.0  0.1441
  C  C2433  1  0.455600  0.389370  0.068170  1.0  0.0069
  C  C2434  1  0.471390  0.429300  0.081490  1.0  0.1749
  C  C2435  1  0.473300  0.444400  0.112700  1.0  -0.3939
  C  C2436  1  0.583500  0.628500  0.130600  1.0  -0.3974
  C  C2437  1  0.601800  0.646300  0.102900  1.0  0.1974
  C  C2438  1  0.642900  0.700000  0.099500  1.0  -0.1733
  C  C2439  1  0.643600  0.694700  0.069700  1.0  0.2151
  C  C2440  1  0.680800  0.738400  0.053400  1.0  -0.4278
  C  C2441  1  0.682200  0.664700  0.965900  1.0  -0.4265
  C  C2442  1  0.641800  0.607400  0.965000  1.0  0.1595
  C  C2443  1  0.629500  0.570800  0.948900  1.0  -0.0775
  C  C2444  1  0.586400  0.522500  0.957500  1.0  0.1695
  C  C2445  1  0.559100  0.470700  0.948400  1.0  -0.4114
  C  C2446  1  0.173000  0.883600  0.509400  1.0  -0.4233
  C  C2447  1  0.122000  0.842000  0.484000  1.0  0.2166
  C  C2448  1  0.068600  0.803000  0.487200  1.0  -0.162
  C  C2449  1  0.036900  0.774800  0.457500  1.0  0.1885
  C  C2450  1  0.975600  0.727400  0.444800  1.0  -0.4005
  C  C2451  1  0.919800  0.634300  0.348300  1.0  -0.4015
  C  C2452  1  0.964600  0.656500  0.338900  1.0  0.2033
  C  C2453  1  0.964300  0.633300  0.317200  1.0  -0.1966
  C  C2454  1  0.019600  0.676900  0.318100  1.0  0.1931
  C  C2455  1  0.044100  0.675200  0.298700  1.0  -0.4271
  C  C2456  1  0.240400  0.835300  0.360300  1.0  -0.4419
  C  C2457  1  0.249800  0.864600  0.388800  1.0  0.2147
  C  C2458  1  0.288600  0.897700  0.415700  1.0  -0.0325
  C  C2459  1  0.274600  0.910800  0.431800  1.0  0.1977
  C  C2460  1  0.303700  0.949000  0.464500  1.0  -0.3859
  C  C2461  1  0.939600  0.544500  0.320700  1.0  -0.4105
  C  C2462  1  0.906000  0.538100  0.301300  1.0  0.2042
  C  C2463  1  0.916100  0.575900  0.299400  1.0  -0.1244
  C  C2464  1  0.870300  0.547200  0.279300  1.0  0.1784
  C  C2465  1  0.856300  0.565300  0.267800  1.0  -0.3807
  C  C2466  1  0.674700  0.413500  0.200000  1.0  -0.4072
  C  C2467  1  0.651500  0.363700  0.195400  1.0  0.2438
  C  C2468  1  0.598800  0.310600  0.179800  1.0  -0.1681
  C  C2469  1  0.599100  0.280700  0.182600  1.0  0.2026
  C  C2470  1  0.554400  0.221000  0.171000  1.0  -0.3908
  C  C2471  1  0.625800  0.187800  0.222200  1.0  -0.3974
  C  C2472  1  0.684900  0.242900  0.239400  1.0  0.1861
  C  C2473  1  0.725200  0.258800  0.257000  1.0  -0.1027
  C  C2474  1  0.770270  0.315200  0.268870  1.0  0.1782
  C  C2475  1  0.825700  0.355600  0.288700  1.0  -0.3897
  C  C2476  1  0.584200  0.340800  0.124200  1.0  -0.4012
  C  C2477  1  0.548000  0.305400  0.143600  1.0  0.1953
  C  C2478  1  0.553300  0.290800  0.166100  1.0  -0.1938
  C  C2479  1  0.506500  0.257300  0.176400  1.0  0.1897
  C  C2480  1  0.490400  0.229300  0.201300  1.0  -0.3997
  C  C2481  1  0.340000  0.151100  0.222300  1.0  -0.403
  C  C2482  1  0.324800  0.165000  0.204400  1.0  0.1091
  C  C2483  1  0.295300  0.164800  0.208300  1.0  -0.1647
  C  C2484  1  0.295000  0.180900  0.183900  1.0  0.2241
  C  C2485  1  0.268000  0.187800  0.177200  1.0  -0.4247
  C  C2486  1  0.356400  0.298400  0.100400  1.0  -0.4073
  C  C2487  1  0.399800  0.314800  0.097000  1.0  0.1381
  C  C2488  1  0.442400  0.352500  0.082300  1.0  -0.1102
  C  C2489  1  0.469200  0.348940  0.086540  1.0  0.196
  C  C2490  1  0.518300  0.379600  0.077100  1.0  -0.4155
  C  C2491  1  0.164100  0.064200  0.203300  1.0  -0.4
  C  C2492  1  0.213200  0.106100  0.231500  1.0  0.1069
  C  C2493  1  0.271200  0.151200  0.234000  1.0  -0.0722
  C  C2494  1  0.295900  0.174800  0.264100  1.0  0.298
  C  C2495  1  0.354800  0.223400  0.280400  1.0  -0.4304
  C  C2496  1  0.381900  0.289200  0.381700  1.0  -0.384
  C  C2497  1  0.329200  0.257800  0.384200  1.0  0.2061
  C  C2498  1  0.319900  0.273000  0.404300  1.0  0.0093
  C  C2499  1  0.265500  0.229500  0.397200  1.0  0.2102
  C  C2500  1  0.229700  0.219900  0.411000  1.0  -0.4136
  C  C2501  1  0.046100  0.068000  0.334500  1.0  -0.4172
  C  C2502  1  0.048280  0.048580  0.309260  1.0  0.2698
  C  C2503  1  0.015900  0.019200  0.279900  1.0  -0.1217
  C  C2504  1  0.037300  0.012000  0.265900  1.0  0.2448
  C  C2505  1  0.019700  0.985700  0.233800  1.0  -0.4089
  C  C2506  1  0.590800  0.975300  0.362500  1.0  -0.4081
  C  C2507  1  0.625600  0.031500  0.364900  1.0  0.1823
  C  C2508  1  0.634500  0.063300  0.385000  1.0  -0.0786
  C  C2509  1  0.669500  0.110900  0.377000  1.0  0.1848
  C  C2510  1  0.694700  0.161100  0.390400  1.0  -0.3831
  C  C2511  1  0.743800  0.249200  0.321600  1.0  -0.3865
  C  C2512  1  0.731500  0.222400  0.291100  1.0  0.2401
  C  C2513  1  0.720200  0.224200  0.262600  1.0  -0.1261
  C  C2514  1  0.708110  0.188800  0.242310  1.0  0.1262
  C  C2515  1  0.691800  0.172100  0.208300  1.0  -0.41
  C  C2516  1  0.635400  0.014100  0.180500  1.0  -0.4185
  C  C2517  1  0.628700  0.998700  0.209400  1.0  0.118
  C  C2518  1  0.597600  0.948100  0.213100  1.0  -0.1322
  C  C2519  1  0.605300  0.956500  0.244800  1.0  0.2175
  C  C2520  1  0.583100  0.918400  0.263100  1.0  -0.4075
  C  C2521  1  0.514600  0.423000  0.775200  1.0  -0.393
  C  C2522  1  0.561990  0.444500  0.769890  1.0  0.1572
  C  C2523  1  0.564600  0.427000  0.745600  1.0  -0.188
  C  C2524  1  0.618700  0.463000  0.753500  1.0  0.1408
  C  C2525  1  0.648400  0.466400  0.736600  1.0  -0.3974
  C  C2526  1  0.517300  0.323400  0.730300  1.0  -0.3872
  C  C2527  1  0.500640  0.333870  0.712710  1.0  0.2905
  C  C2528  1  0.520200  0.378800  0.718600  1.0  -0.1343
  C  C2529  1  0.489200  0.368200  0.695400  1.0  0.2
  C  C2530  1  0.490400  0.401100  0.689700  1.0  -0.3959
  C  C2531  1  0.755700  0.653900  0.954400  1.0  -0.4127
  C  C2532  1  0.706200  0.611500  0.927300  1.0  0.1711
  C  C2533  1  0.652000  0.575620  0.925020  1.0  -0.1996
  C  C2534  1  0.625160  0.546230  0.894590  1.0  0.2163
  C  C2535  1  0.565800  0.502900  0.878500  1.0  -0.3972
  C  C2536  1  0.029400  0.853500  0.712700  1.0  -0.4146
  C  C2537  1  0.047200  0.871700  0.684700  1.0  0.2332
  C  C2538  1  0.086900  0.923800  0.681300  1.0  -0.1911
  C  C2539  1  0.088700  0.919700  0.650800  1.0  0.2126
  C  C2540  1  0.122600  0.960800  0.634200  1.0  -0.4001
  C  C2541  1  0.096000  0.883100  0.534900  1.0  -0.3992
  C  C2542  1  0.062100  0.828400  0.535300  1.0  0.2274
  C  C2543  1  0.050900  0.794650  0.514950  1.0  -0.1567
  C  C2544  1  0.018600  0.749800  0.526200  1.0  0.2099
  C  C2545  1  0.995700  0.700700  0.515600  1.0  -0.4078
  C  C2546  1  0.102500  0.007200  0.681500  1.0  -0.3814
  C  C2547  1  0.131500  0.011000  0.702500  1.0  0.2036
  C  C2548  1  0.123300  0.974600  0.703700  1.0  -0.1504
  C  C2549  1  0.162400  0.000300  0.729900  1.0  0.2196
  C  C2550  1  0.175200  0.982500  0.743100  1.0  -0.4106
  C  C2551  1  0.658900  0.784300  0.102600  1.0  -0.3907
  C  C2552  1  0.688100  0.786800  0.124700  1.0  0.1165
  C  C2553  1  0.680000  0.749700  0.124100  1.0  -0.1805
  C  C2554  1  0.718300  0.773600  0.149700  1.0  0.2504
  C  C2555  1  0.729200  0.753900  0.161500  1.0  -0.4197
  C  C2556  1  0.890800  0.893100  0.242900  1.0  -0.3985
  C  C2557  1  0.916100  0.944200  0.248100  1.0  0.1974
  C  C2558  1  0.969900  0.998100  0.263400  1.0  -0.1882
  C  C2559  1  0.971200  0.029800  0.260600  1.0  0.0861
  C  C2560  1  0.016500  0.090700  0.273000  1.0  -0.4079
  C  C2561  1  0.627300  0.924900  0.165400  1.0  -0.4242
  C  C2562  1  0.573810  0.887340  0.170150  1.0  0.2159
  C  C2563  1  0.561600  0.897600  0.191000  1.0  -0.1496
  C  C2564  1  0.504100  0.847800  0.185100  1.0  0.2359
  C  C2565  1  0.468000  0.834700  0.200300  1.0  -0.3954
  C  C2566  1  0.303000  0.871400  0.473600  1.0  -0.4083
  C  C2567  1  0.339300  0.905500  0.452600  1.0  0.1245
  C  C2568  1  0.332800  0.915800  0.428000  1.0  -0.0763
  C  C2569  1  0.377900  0.945000  0.417500  1.0  0.224
  C  C2570  1  0.391700  0.966600  0.390300  1.0  -0.429
  C  C2571  1  0.556900  0.054000  0.386900  1.0  -0.4271
  C  C2572  1  0.571200  0.043100  0.407900  1.0  0.2419
  C  C2573  1  0.603700  0.046000  0.407500  1.0  -0.1699
  C  C2574  1  0.599600  0.028400  0.432800  1.0  0.1274
  C  C2575  1  0.626500  0.023600  0.445700  1.0  -0.3971
  C  C2576  1  0.411300  0.389800  0.388700  1.0  -0.4045
  C  C2577  1  0.398500  0.376500  0.418000  1.0  0.2103
  C  C2578  1  0.361000  0.326700  0.425900  1.0  -0.1608
  C  C2579  1  0.369100  0.342300  0.456200  1.0  0.2098
  C  C2580  1  0.339250  0.305600  0.477650  1.0  -0.4091
  C  C2581  1  0.937300  0.950900  0.590400  1.0  -0.3964
  C  C2582  1  0.923100  0.962600  0.568900  1.0  0.1452
  C  C2583  1  0.887430  0.955600  0.566230  1.0  0.0075
  C  C2584  1  0.889900  0.971390  0.542090  1.0  0.1724
  C  C2585  1  0.860600  0.973300  0.528900  1.0  -0.3898
  C  C2586  1  0.952900  0.083500  0.455000  1.0  -0.3964
  C  C2587  1  0.998900  0.101800  0.455500  1.0  0.1948
  C  C2588  1  0.043400  0.142900  0.442900  1.0  -0.1736
  C  C2589  1  0.073900  0.143600  0.448900  1.0  0.2147
  C  C2590  1  0.127400  0.180800  0.442400  1.0  -0.4287
  C  C2591  1  0.216300  0.182200  0.517500  1.0  -0.4226
  C  C2592  1  0.176800  0.141800  0.534400  1.0  0.1581
  C  C2593  1  0.180600  0.129500  0.558700  1.0  -0.0772
  C  C2594  1  0.128900  0.086400  0.563900  1.0  0.169
  C  C2595  1  0.110700  0.059100  0.588400  1.0  -0.412
  C  C2596  1  0.163600  0.673000  0.789400  1.0  -0.4232
  C  C2597  1  0.138000  0.622000  0.780000  1.0  0.2195
  C  C2598  1  0.081400  0.568600  0.765600  1.0  -0.1664
  C  C2599  1  0.079400  0.536900  0.762100  1.0  0.1882
  C  C2600  1  0.030800  0.475600  0.748200  1.0  -0.402
  C  C2601  1  0.071500  0.419800  0.785500  1.0  -0.4046
  C  C2602  1  0.125700  0.464600  0.808100  1.0  0.2046
  C  C2603  1  0.147100  0.464300  0.831000  1.0  -0.1959
  C  C2604  1  0.201500  0.519600  0.842700  1.0  0.1917
  C  C2605  1  0.245400  0.544100  0.868900  1.0  -0.4257
  C  C2606  1  0.380100  0.740400  0.905100  1.0  -0.4392
  C  C2607  1  0.361000  0.749800  0.885200  1.0  0.2124
  C  C2608  1  0.372900  0.788600  0.890900  1.0  -0.0322
  C  C2609  1  0.342800  0.774600  0.863800  1.0  0.1967
  C  C2610  1  0.339200  0.803700  0.854700  1.0  -0.3853
  C  C2611  1  0.118900  0.439600  0.895100  1.0  -0.4139
  C  C2612  1  0.104700  0.406000  0.867900  1.0  0.2065
  C  C2613  1  0.116700  0.416100  0.840200  1.0  -0.1235
  C  C2614  1  0.091000  0.370300  0.823100  1.0  0.1778
  C  C2615  1  0.088500  0.356300  0.791000  1.0  -0.3853
  C  C2616  1  0.974700  0.174700  0.761200  1.0  -0.4088
  C  C2617  1  0.956100  0.151500  0.787800  1.0  0.2453
  C  C2618  1  0.919000  0.098800  0.788200  1.0  -0.1687
  C  C2619  1  0.916500  0.099100  0.818400  1.0  0.2036
  C  C2620  1  0.883400  0.054400  0.833400  1.0  -0.3918
  C  C2621  1  0.903600  0.125800  0.938000  1.0  -0.3972
  C  C2622  1  0.945500  0.184900  0.942000  1.0  0.185
  C  C2623  1  0.968200  0.225200  0.966400  1.0  -0.1035
  C  C2624  1  0.001400  0.270270  0.955070  1.0  0.179
  C  C2625  1  0.037000  0.325700  0.970100  1.0  -0.3924
  C  C2626  1  0.960000  0.084200  0.743400  1.0  -0.4034
  C  C2627  1  0.904400  0.048000  0.742600  1.0  0.197
  C  C2628  1  0.887200  0.053300  0.762500  1.0  -0.1942
  C  C2629  1  0.830100  0.006500  0.749200  1.0  0.1881
  C  C2630  1  0.789100  0.990400  0.761100  1.0  -0.3947
  C  C2631  1  0.617700  0.840000  0.688900  1.0  -0.4049
  C  C2632  1  0.620400  0.824800  0.659800  1.0  0.1078
  C  C2633  1  0.587000  0.795300  0.630500  1.0  -0.1655
  C  C2634  1  0.611100  0.795000  0.614100  1.0  0.2292
  C  C2635  1  0.590800  0.768000  0.580200  1.0  -0.425
  C  C2636  1  0.756000  0.856400  0.558000  1.0  -0.404
  C  C2637  1  0.802800  0.899800  0.585000  1.0  0.1393
  C  C2638  1  0.860100  0.942400  0.589900  1.0  -0.1122
  C  C2639  1  0.882660  0.969200  0.620260  1.0  0.1939
  C  C2640  1  0.941200  0.018300  0.638700  1.0  -0.4141
  C  C2641  1  0.460800  0.664100  0.599900  1.0  -0.4003
  C  C2642  1  0.481700  0.713200  0.607100  1.0  0.1058
  C  C2643  1  0.537200  0.771200  0.620000  1.0  -0.0724
  C  C2644  1  0.531800  0.795900  0.621100  1.0  0.2989
  C  C2645  1  0.574400  0.854800  0.631400  1.0  -0.4314
  C  C2646  1  0.500200  0.881900  0.592700  1.0  -0.3852
  C  C2647  1  0.445000  0.829200  0.571400  1.0  0.2058
  C  C2648  1  0.415600  0.819900  0.546900  1.0  0.0096
  C  C2649  1  0.368300  0.765500  0.536000  1.0  0.2128
  C  C2650  1  0.318700  0.729700  0.509800  1.0  -0.4152
  C  C2651  1  0.211600  0.546100  0.478100  1.0  -0.4148
  C  C2652  1  0.239020  0.548280  0.499700  1.0  0.2713
  C  C2653  1  0.236000  0.515900  0.496700  1.0  -0.1215
  C  C2654  1  0.271400  0.537300  0.525300  1.0  0.243
  C  C2655  1  0.285900  0.519700  0.534000  1.0  -0.4065
  C  C2656  1  0.728300  0.090800  0.115500  1.0  -0.4062
  C  C2657  1  0.760700  0.125600  0.094100  1.0  0.1818
  C  C2658  1  0.749500  0.134500  0.071200  1.0  -0.0782
  C  C2659  1  0.792500  0.169500  0.058600  1.0  0.1839
  C  C2660  1  0.804300  0.194700  0.033600  1.0  -0.3876
  C  C2661  1  0.922200  0.243800  0.994600  1.0  -0.3841
  C  C2662  1  0.940400  0.231500  0.009100  1.0  0.2387
  C  C2663  1  0.957600  0.220200  0.996000  1.0  -0.1265
  C  C2664  1  0.965800  0.208110  0.019310  1.0  0.1273
  C  C2665  1  0.983500  0.191800  0.019700  1.0  -0.4078
  C  C2666  1  0.954900  0.135400  0.121300  1.0  -0.414
  C  C2667  1  0.919300  0.128700  0.130000  1.0  0.1165
  C  C2668  1  0.884500  0.097600  0.149500  1.0  -0.1307
  C  C2669  1  0.860500  0.105300  0.148800  1.0  0.2193
  C  C2670  1  0.820000  0.083100  0.164700  1.0  -0.4055
  C  C2671  1  0.239400  0.014600  0.591600  1.0  -0.3913
  C  C2672  1  0.292100  0.061990  0.617490  1.0  0.1585
  C  C2673  1  0.319000  0.064600  0.637600  1.0  -0.1891
  C  C2674  1  0.365200  0.118700  0.655700  1.0  0.1388
  C  C2675  1  0.411800  0.148400  0.682000  1.0  -0.398
  C  C2676  1  0.287000  0.017300  0.693900  1.0  -0.3879
  C  C2677  1  0.287930  0.000640  0.666770  1.0  0.2883
  C  C2678  1  0.301600  0.020200  0.641400  1.0  -0.1328
  C  C2679  1  0.293800  0.989200  0.621000  1.0  0.1995
  C  C2680  1  0.300700  0.990400  0.589300  1.0  -0.4013
  C  C2681  1  0.301300  0.255700  0.601800  1.0  -0.4108
  C  C2682  1  0.278900  0.206200  0.594700  1.0  0.1739
  C  C2683  1  0.226980  0.152000  0.576380  1.0  -0.2017
  C  C2684  1  0.230570  0.125160  0.578930  1.0  0.2161
  C  C2685  1  0.187300  0.065800  0.562900  1.0  -0.3983
  C  C2686  1  0.816700  0.529400  0.675900  1.0  -0.4176
  C  C2687  1  0.862500  0.547200  0.675500  1.0  0.2321
  C  C2688  1  0.905600  0.586900  0.663100  1.0  -0.1904
  C  C2689  1  0.937900  0.588700  0.669000  1.0  0.2123
  C  C2690  1  0.988400  0.622600  0.661800  1.0  -0.4001
  C  C2691  1  0.061100  0.596000  0.712900  1.0  -0.3992
  C  C2692  1  0.026800  0.562100  0.733700  1.0  0.2282
  C  C2693  1  0.035950  0.550900  0.756250  1.0  -0.1567
  C  C2694  1  0.992400  0.518600  0.768800  1.0  0.2076
  C  C2695  1  0.980100  0.495700  0.795000  1.0  -0.409
  C  C2696  1  0.921000  0.602500  0.595300  1.0  -0.3827
  C  C2697  1  0.929000  0.631500  0.620500  1.0  0.2041
  C  C2698  1  0.919600  0.623300  0.648700  1.0  -0.1512
  C  C2699  1  0.932500  0.662400  0.662100  1.0  0.2213
  C  C2700  1  0.932100  0.675200  0.692700  1.0  -0.4132
  C  C2701  1  0.056300  0.158900  0.374600  1.0  -0.3914
  C  C2702  1  0.063400  0.188100  0.401300  1.0  0.1156
  C  C2703  1  0.055900  0.180000  0.430300  1.0  -0.1806
  C  C2704  1  0.068600  0.218300  0.444700  1.0  0.2515
  C  C2705  1  0.067700  0.229200  0.475300  1.0  -0.4197
  C  C2706  1  0.147900  0.390800  0.497700  1.0  -0.4006
  C  C2707  1  0.168000  0.416100  0.471900  1.0  0.1966
  C  C2708  1  0.206500  0.469900  0.471800  1.0  -0.1909
  C  C2709  1  0.210600  0.471200  0.441400  1.0  0.0833
  C  C2710  1  0.243500  0.516500  0.425800  1.0  -0.4062
  C  C2711  1  0.961900  0.127300  0.202400  1.0  -0.4255
  C  C2712  1  0.903660  0.073810  0.186470  1.0  0.216
  C  C2713  1  0.870600  0.061600  0.164000  1.0  -0.1505
  C  C2714  1  0.819000  0.004100  0.156300  1.0  0.2327
  C  C2715  1  0.767700  0.968000  0.133300  1.0  -0.3959
  C  C2716  1  0.329400  0.803000  0.931600  1.0  -0.4085
  C  C2717  1  0.386700  0.839300  0.933800  1.0  0.1259
  C  C2718  1  0.404800  0.832800  0.917000  1.0  -0.0748
  C  C2719  1  0.460400  0.877900  0.932900  1.0  0.2251
  C  C2720  1  0.501400  0.891700  0.925100  1.0  -0.4286
  C  C2721  1  0.670000  0.056900  0.002900  1.0  -0.4283
  C  C2722  1  0.663300  0.071200  0.028100  1.0  0.2422
  C  C2723  1  0.696200  0.103700  0.057700  1.0  -0.1705
  C  C2724  1  0.666800  0.099600  0.071200  1.0  0.1278
  C  C2725  1  0.680800  0.126500  0.102900  1.0  -0.4
  C  C2726  1  0.522600  0.911300  0.521500  1.0  -0.4038
  C  C2727  1  0.480500  0.898500  0.522000  1.0  0.2079
  C  C2728  1  0.435100  0.861000  0.534300  1.0  -0.1592
  C  C2729  1  0.412900  0.869100  0.526800  1.0  0.2105
  C  C2730  1  0.361600  0.839250  0.533650  1.0  -0.405
  C  C2731  1  0.860500  0.346900  0.909600  1.0  -0.3949
  C  C2732  1  0.893700  0.354200  0.931100  1.0  0.1457
  C  C2733  1  0.889370  0.321200  0.933770  1.0  0.0071
  C  C2734  1  0.929300  0.347810  0.957910  1.0  0.1735
  C  C2735  1  0.944400  0.331700  0.971100  1.0  -0.3902
  C  C2736  1  0.128500  0.497900  0.045000  1.0  -0.3966
  C  C2737  1  0.146300  0.543400  0.044500  1.0  0.1939
  C  C2738  1  0.200000  0.600500  0.057100  1.0  -0.1729
  C  C2739  1  0.194700  0.625000  0.051100  1.0  0.2135
  C  C2740  1  0.238400  0.685000  0.057600  1.0  -0.43
  C  C2741  1  0.164700  0.698800  0.982500  1.0  -0.4256
  C  C2742  1  0.107400  0.642400  0.965600  1.0  0.1575
  C  C2743  1  0.070800  0.621900  0.941300  1.0  -0.0789
  C  C2744  1  0.022500  0.565000  0.936100  1.0  0.1685
  C  C2745  1  0.970700  0.522300  0.911600  1.0  -0.4087
  C  C2746  1  0.383600  0.374200  0.710600  1.0  -0.4237
  C  C2747  1  0.342000  0.358000  0.720000  1.0  0.2143
  C  C2748  1  0.303000  0.315800  0.734400  1.0  -0.1621
  C  C2749  1  0.274800  0.317300  0.737900  1.0  0.1872
  C  C2750  1  0.227400  0.282600  0.751800  1.0  -0.3999
  C  C2751  1  0.134300  0.286000  0.714500  1.0  -0.4013
  C  C2752  1  0.156500  0.317600  0.691900  1.0  0.2021
  C  C2753  1  0.133300  0.316100  0.669000  1.0  -0.1972
  C  C2754  1  0.176900  0.358800  0.657300  1.0  0.191
  C  C2755  1  0.175200  0.376500  0.631100  1.0  -0.4287
  C  C2756  1  0.335300  0.475000  0.594900  1.0  -0.4405
  C  C2757  1  0.364600  0.475800  0.614800  1.0  0.2134
  C  C2758  1  0.397700  0.482000  0.609100  1.0  -0.0325
  C  C2759  1  0.410800  0.479000  0.636200  1.0  0.1938
  C  C2760  1  0.449000  0.484500  0.645300  1.0  -0.3869
  C  C2761  1  0.044500  0.223800  0.604900  1.0  -0.412
  C  C2762  1  0.038100  0.236800  0.632100  1.0  0.2064
  C  C2763  1  0.075900  0.276500  0.659800  1.0  -0.1255
  C  C2764  1  0.047200  0.267900  0.676900  1.0  0.1785
  C  C2765  1  0.065300  0.297500  0.709000  1.0  -0.3837
  C  C2766  1  0.913500  0.213500  0.738800  1.0  -0.4095
  C  C2767  1  0.863700  0.168300  0.712200  1.0  0.2432
  C  C2768  1  0.810600  0.130800  0.711800  1.0  -0.1688
  C  C2769  1  0.780700  0.098100  0.681600  1.0  0.2059
  C  C2770  1  0.721000  0.050000  0.666667  1.0  -0.3916
  C  C2771  1  0.687800  0.965600  0.562000  1.0  -0.3957
  C  C2772  1  0.742900  0.003500  0.558000  1.0  0.1874
  C  C2773  1  0.758800  0.001800  0.533600  1.0  -0.1026
  C  C2774  1  0.815200  0.046330  0.544930  1.0  0.1805
  C  C2775  1  0.855600  0.066900  0.529900  1.0  -0.3913
  C  C2776  1  0.840800  0.216600  0.756600  1.0  -0.405
  C  C2777  1  0.805400  0.161800  0.757400  1.0  0.196
  C  C2778  1  0.790800  0.124700  0.737500  1.0  -0.1933
  C  C2779  1  0.757300  0.080900  0.750800  1.0  0.1899
  C  C2780  1  0.729300  0.028000  0.738900  1.0  -0.3982
  C  C2781  1  0.651100  0.928800  0.811100  1.0  -0.4014
  C  C2782  1  0.665000  0.960600  0.840200  1.0  0.1088
  C  C2783  1  0.664800  0.956500  0.869500  1.0  -0.1644
  C  C2784  1  0.680900  0.997000  0.885900  1.0  0.2285
  C  C2785  1  0.687800  0.010600  0.919800  1.0  -0.4275
  C  C2786  1  0.798400  0.198000  0.942000  1.0  -0.4065
  C  C2787  1  0.814800  0.217800  0.915000  1.0  0.1415
  C  C2788  1  0.852500  0.270200  0.910100  1.0  -0.112
  C  C2789  1  0.848940  0.262400  0.879740  1.0  0.1961
  C  C2790  1  0.879600  0.302500  0.861300  1.0  -0.4129
  C  C2791  1  0.564200  0.860900  0.900100  1.0  -0.4017
  C  C2792  1  0.606100  0.874600  0.892900  1.0  0.106
  C  C2793  1  0.651200  0.917200  0.880000  1.0  -0.0727
  C  C2794  1  0.674800  0.910700  0.878900  1.0  0.2992
  C  C2795  1  0.723400  0.943000  0.868600  1.0  -0.4304
  C  C2796  1  0.789200  0.907500  0.907300  1.0  -0.3828
  C  C2797  1  0.757800  0.873600  0.928600  1.0  0.2044
  C  C2798  1  0.773000  0.868700  0.953100  1.0  0.0082
  C  C2799  1  0.729500  0.832300  0.964000  1.0  0.2142
  C  C2800  1  0.719900  0.808900  0.990200  1.0  -0.4194
  C  C2801  1  0.568000  0.733500  0.021900  1.0  -0.4147
  C  C2802  1  0.548580  0.739320  0.000300  1.0  0.2713
  C  C2803  1  0.519200  0.739300  0.003300  1.0  -0.1229
  C  C2804  1  0.512000  0.746100  0.974700  1.0  0.2424
  C  C2805  1  0.485700  0.751900  0.966000  1.0  -0.4023
  C  C2806  1  0.475300  0.612800  0.384500  1.0  -0.4054
  C  C2807  1  0.531500  0.666667  0.405900  1.0  0.1894
  C  C2808  1  0.563300  0.678300  0.428800  1.0  -0.0887
  C  C2809  1  0.610900  0.733900  0.441400  1.0  0.1843
  C  C2810  1  0.661100  0.770700  0.466400  1.0  -0.3846
  C  C2811  1  0.749200  0.927600  0.505400  1.0  -0.387
  C  C2812  1  0.722400  0.931300  0.490900  1.0  0.2391
  C  C2813  1  0.724200  0.961600  0.504000  1.0  -0.1251
  C  C2814  1  0.688800  0.946490  0.480690  1.0  0.1254
  C  C2815  1  0.672100  0.963800  0.480300  1.0  -0.4054
  C  C2816  1  0.514100  0.833600  0.378700  1.0  -0.4141
  C  C2817  1  0.498700  0.789300  0.370000  1.0  0.115
  C  C2818  1  0.448100  0.735000  0.350500  1.0  -0.1302
  C  C2819  1  0.456500  0.711700  0.351200  1.0  0.2182
  C  C2820  1  0.418400  0.655300  0.335300  1.0  -0.4075
  C  C2821  1  0.923000  0.647800  0.908400  1.0  -0.3916
  C  C2822  1  0.944500  0.674610  0.882510  1.0  0.1578
  C  C2823  1  0.927000  0.681400  0.862400  1.0  -0.1883
  C  C2824  1  0.963000  0.709500  0.844300  1.0  0.1392
  C  C2825  1  0.966400  0.729800  0.818000  1.0  -0.4002
  C  C2826  1  0.823400  0.593100  0.806100  1.0  -0.3883
  C  C2827  1  0.833870  0.621160  0.833230  1.0  0.2912
  C  C2828  1  0.878800  0.660200  0.858600  1.0  -0.1332
  C  C2829  1  0.868200  0.672800  0.879000  1.0  0.1998
  C  C2830  1  0.901100  0.711400  0.910700  1.0  -0.3961
  C  C2831  1  0.153900  0.699500  0.898200  1.0  -0.411
  C  C2832  1  0.111500  0.684200  0.905300  1.0  0.1724
  C  C2833  1  0.075620  0.650600  0.923620  1.0  -0.1999
  C  C2834  1  0.046230  0.651640  0.921070  1.0  0.2153
  C  C2835  1  0.002900  0.624400  0.937100  1.0  -0.3956
  C  C2836  1  0.353500  0.140800  0.824100  1.0  -0.4142
  C  C2837  1  0.371700  0.187000  0.824500  1.0  0.2291
  C  C2838  1  0.423800  0.242500  0.836900  1.0  -0.1902
  C  C2839  1  0.419700  0.268900  0.831000  1.0  0.2136
  C  C2840  1  0.460800  0.326600  0.838200  1.0  -0.4021
  C  C2841  1  0.383100  0.348200  0.787100  1.0  -0.3993
  C  C2842  1  0.328400  0.293100  0.766300  1.0  0.2272
  C  C2843  1  0.294650  0.279700  0.743750  1.0  -0.1566
  C  C2844  1  0.249800  0.223600  0.731200  1.0  0.2089
  C  C2845  1  0.200700  0.185100  0.705000  1.0  -0.4047
  C  C2846  1  0.507200  0.325700  0.904700  1.0  -0.382
  C  C2847  1  0.511000  0.308500  0.879500  1.0  0.2041
  C  C2848  1  0.474600  0.270900  0.851300  1.0  -0.1499
  C  C2849  1  0.500300  0.270400  0.837900  1.0  0.2208
  C  C2850  1  0.482500  0.239400  0.807300  1.0  -0.4118
  C  C2851  1  0.284300  0.681700  0.125400  1.0  -0.3911
  C  C2852  1  0.286800  0.662100  0.098700  1.0  0.116
  C  C2853  1  0.249700  0.625600  0.069700  1.0  -0.1812
  C  C2854  1  0.273600  0.623900  0.055300  1.0  0.2508
  C  C2855  1  0.253900  0.592400  0.024700  1.0  -0.4178
  C  C2856  1  0.393100  0.650200  0.002300  1.0  -0.3972
  C  C2857  1  0.444200  0.696100  0.028100  1.0  0.1978
  C  C2858  1  0.498100  0.734700  0.028200  1.0  -0.1898
  C  C2859  1  0.529800  0.769200  0.058600  1.0  0.0858
  C  C2860  1  0.590700  0.817700  0.074200  1.0  -0.4073
  C  C2861  1  0.424900  0.759500  0.297600  1.0  -0.4228
  C  C2862  1  0.387340  0.717190  0.313530  1.0  0.2159
  C  C2863  1  0.397600  0.706600  0.336000  1.0  -0.1492
  C  C2864  1  0.347800  0.662700  0.343700  1.0  0.2347
  C  C2865  1  0.334700  0.634400  0.366700  1.0  -0.3989
  C  C2866  1  0.371400  0.397800  0.568400  1.0  -0.4093
  C  C2867  1  0.405500  0.452900  0.566200  1.0  0.1255
  C  C2868  1  0.415800  0.487800  0.583000  1.0  -0.076
  C  C2869  1  0.445000  0.527500  0.567100  1.0  0.2222
  C  C2870  1  0.466600  0.576300  0.574900  1.0  -0.4283
  C  C2871  1  0.554000  0.667100  0.497100  1.0  -0.431
  C  C2872  1  0.543100  0.635200  0.471900  1.0  0.2405
  C  C2873  1  0.546000  0.638500  0.442300  1.0  -0.1695
  C  C2874  1  0.528400  0.595600  0.428800  1.0  0.1285
  C  C2875  1  0.523600  0.577900  0.397100  1.0  -0.4005
  C  C2876  1  0.889800  0.001100  0.978500  1.0  -0.4034
  C  C2877  1  0.876500  0.958500  0.978000  1.0  0.2084
  C  C2878  1  0.826700  0.900800  0.965700  1.0  -0.1599
  C  C2879  1  0.842300  0.886100  0.973200  1.0  0.209
  C  C2880  1  0.805600  0.827950  0.966350  1.0  -0.4098
  N  N2881  1  0.098770  0.553740  0.534510  1.0  -0.244
  N  N2882  1  0.103240  0.574980  0.561420  1.0  -0.268
  N  N2883  1  0.963770  0.496730  0.575700  1.0  -0.2243
  N  N2884  1  0.913610  0.449790  0.555800  1.0  -0.2266
  N  N2885  1  0.899660  0.374860  0.484120  1.0  -0.2557
  N  N2886  1  0.948090  0.405460  0.479150  1.0  -0.1882
  N  N2887  1  0.118600  0.334570  0.954570  1.0  -0.2381
  N  N2888  1  0.143700  0.370500  0.938000  1.0  -0.2522
  N  N2889  1  0.142180  0.335600  0.851980  1.0  -0.2335
  N  N2890  1  0.115800  0.287500  0.838700  1.0  -0.2864
  N  N2891  1  0.030620  0.173170  0.887790  1.0  -0.3112
  N  N2892  1  0.028100  0.184000  0.916300  1.0  -0.2341
  N  N2893  1  0.294840  0.426960  0.783200  1.0  -0.3134
  N  N2894  1  0.274300  0.434700  0.768800  1.0  -0.2277
  N  N2895  1  0.342540  0.527810  0.708550  1.0  -0.2796
  N  N2896  1  0.386420  0.552650  0.700470  1.0  -0.2354
  N  N2897  1  0.454920  0.536360  0.742080  1.0  -0.1304
  N  N2898  1  0.428180  0.502700  0.760480  1.0  -0.2814
  N  N2899  1  0.359210  0.639700  0.640510  1.0  -0.2403
  N  N2900  1  0.409160  0.685700  0.661260  1.0  -0.2862
  N  N2901  1  0.496880  0.836360  0.679040  1.0  -0.2416
  N  N2902  1  0.474580  0.842280  0.667460  1.0  -0.1465
  N  N2903  1  0.318100  0.705860  0.609160  1.0  -0.2856
  N  N2904  1  0.290400  0.657300  0.602700  1.0  -0.2001
  N  N2905  1  0.652870  0.052840  0.760110  1.0  -0.2622
  N  N2906  1  0.630810  0.020830  0.780040  1.0  -0.2081
  N  N2907  1  0.659780  0.085190  0.867170  1.0  -0.1544
  N  N2908  1  0.685150  0.133220  0.874370  1.0  -0.2831
  N  N2909  1  0.752950  0.226360  0.812310  1.0  -0.1512
  N  N2910  1  0.748700  0.206620  0.786320  1.0  -0.1249
  N  N2911  1  0.786050  0.690170  0.844820  1.0  -0.199
  N  N2912  1  0.742920  0.669620  0.852740  1.0  -0.2807
  N  N2913  1  0.600210  0.563360  0.788370  1.0  -0.1951
  N  N2914  1  0.590740  0.546120  0.758260  1.0  -0.2806
  N  N2915  1  0.703730  0.584590  0.736920  1.0  -0.2875
  N  N2916  1  0.751500  0.620030  0.758130  1.0  -0.1961
  N  N2917  1  0.805110  0.181110  0.291620  1.0  -0.2361
  N  N2918  1  0.783160  0.134790  0.281750  1.0  -0.3006
  N  N2919  1  0.887430  0.225880  0.186310  1.0  -0.2274
  N  N2920  1  0.855810  0.223420  0.175830  1.0  -0.2914
  N  N2921  1  0.799310  0.191690  0.400200  1.0  -0.2843
  N  N2922  1  0.819090  0.221630  0.379920  1.0  -0.218
  N  N2923  1  0.321060  0.631560  0.158820  1.0  -0.3082
  N  N2924  1  0.270000  0.585430  0.137830  1.0  -0.2232
  N  N2925  1  0.251900  0.520670  0.056770  1.0  -0.2884
  N  N2926  1  0.296400  0.542600  0.051000  1.0  -0.2931
  N  N2927  1  0.170900  0.554800  0.227100  1.0  -0.3078
  N  N2928  1  0.195800  0.552600  0.244200  1.0  -0.2612
  N  N2929  1  0.819260  0.421470  0.650130  1.0  -0.3513
  N  N2930  1  0.846320  0.420870  0.665990  1.0  -0.2302
  N  N2931  1  0.790800  0.346240  0.735040  1.0  -0.2107
  N  N2932  1  0.747510  0.322500  0.743410  1.0  -0.2836
  N  N2933  1  0.818000  0.625130  0.652730  1.0  -0.2532
  N  N2934  1  0.851000  0.677930  0.661730  1.0  -0.2224
  N  N2935  1  0.030400  0.071900  0.958700  1.0  -0.3645
  N  N2936  1  0.982000  0.025700  0.936100  1.0  -0.2306
  N  N2937  1  0.906600  0.882300  0.931300  1.0  -0.1991
  N  N2938  1  0.933400  0.882400  0.947400  1.0  -0.3603
  N  N2939  1  0.524500  0.015500  0.942400  1.0  -0.2924
  N  N2940  1  0.572500  0.061000  0.966900  1.0  -0.2428
  N  N2941  1  0.519230  0.564260  0.965490  1.0  -0.2467
  N  N2942  1  0.513560  0.541820  0.938580  1.0  -0.2627
  N  N2943  1  0.421030  0.388070  0.924300  1.0  -0.2257
  N  N2944  1  0.393990  0.357810  0.944200  1.0  -0.2293
  N  N2945  1  0.390740  0.415540  0.015880  1.0  -0.2558
  N  N2946  1  0.426310  0.468940  0.020850  1.0  -0.1884
  N  N2947  1  0.880000  0.164030  0.545430  1.0  -0.2386
  N  N2948  1  0.932500  0.205700  0.562000  1.0  -0.2497
  N  N2949  1  0.983620  0.290200  0.648020  1.0  -0.2283
  N  N2950  1  0.948800  0.277100  0.661300  1.0  -0.2891
  N  N2951  1  0.785380  0.142830  0.612210  1.0  -0.3161
  N  N2952  1  0.767700  0.111800  0.583700  1.0  -0.2348
  N  N2953  1  0.143760  0.511640  0.716800  1.0  -0.3141
  N  N2954  1  0.165900  0.505500  0.731200  1.0  -0.225
  N  N2955  1  0.319260  0.633990  0.791450  1.0  -0.2817
  N  N2956  1  0.352180  0.685950  0.799530  1.0  -0.2336
  N  N2957  1  0.294280  0.712840  0.757920  1.0  -0.132
  N  N2958  1  0.242220  0.667700  0.739520  1.0  -0.2777
  N  N2959  1  0.499190  0.718700  0.859490  1.0  -0.2433
  N  N2960  1  0.524440  0.747900  0.838740  1.0  -0.2869
  N  N2961  1  0.657320  0.817840  0.820960  1.0  -0.2412
  N  N2962  1  0.674820  0.807120  0.832540  1.0  -0.1517
  N  N2963  1  0.596700  0.708940  0.890840  1.0  -0.2872
  N  N2964  1  0.554600  0.687700  0.897300  1.0  -0.1979
  N  N2965  1  0.792730  0.892760  0.739890  1.0  -0.2639
  N  N2966  1  0.740790  0.850770  0.719960  1.0  -0.2077
  N  N2967  1  0.718020  0.792610  0.632830  1.0  -0.151
  N  N2968  1  0.758850  0.810780  0.625630  1.0  -0.2846
  N  N2969  1  0.914050  0.940640  0.687690  1.0  -0.1494
  N  N2970  1  0.920300  0.962380  0.713680  1.0  -0.1289
  N  N2971  1  0.345350  0.941230  0.655180  1.0  -0.2012
  N  N2972  1  0.316880  0.890180  0.647260  1.0  -0.2829
  N  N2973  1  0.274990  0.811840  0.711630  1.0  -0.1916
  N  N2974  1  0.287860  0.832480  0.741740  1.0  -0.2772
  N  N2975  1  0.347670  0.966810  0.763080  1.0  -0.2895
  N  N2976  1  0.361900  0.993370  0.741870  1.0  -0.1959
  N  N2977  1  0.389490  0.513490  0.208380  1.0  -0.2372
  N  N2978  1  0.353040  0.501410  0.218250  1.0  -0.2958
  N  N2979  1  0.539570  0.701120  0.313690  1.0  -0.2253
  N  N2980  1  0.547590  0.679980  0.324170  1.0  -0.2908
  N  N2981  1  0.291490  0.399110  0.099800  1.0  -0.2793
  N  N2982  1  0.341710  0.439170  0.120080  1.0  -0.2168
  N  N2983  1  0.972740  0.162240  0.341180  1.0  -0.3076
  N  N2984  1  0.947600  0.132170  0.362170  1.0  -0.2221
  N  N2985  1  0.963900  0.195130  0.443230  1.0  -0.2869
  N  N2986  1  0.991600  0.245400  0.449000  1.0  -0.2966
  N  N2987  1  0.827700  0.943800  0.272900  1.0  -0.3025
  N  N2988  1  0.808400  0.951600  0.255800  1.0  -0.257
  N  N2989  1  0.271340  0.169130  0.849870  1.0  -0.3453
  N  N2990  1  0.254880  0.180330  0.834010  1.0  -0.2256
  N  N2991  1  0.111200  0.055760  0.764960  1.0  -0.2122
  N  N2992  1  0.079090  0.004100  0.756590  1.0  -0.2803
  N  N2993  1  0.472400  0.165270  0.847270  1.0  -0.2529
  N  N2994  1  0.516200  0.189270  0.838270  1.0  -0.2207
  N  N2995  1  0.613200  0.071700  0.541300  1.0  -0.3627
  N  N2996  1  0.589600  0.045900  0.563900  1.0  -0.2297
  N  N2997  1  0.451000  0.975300  0.568700  1.0  -0.2008
  N  N2998  1  0.435000  0.986000  0.552600  1.0  -0.3601
  N  N2999  1  0.573100  0.582100  0.557600  1.0  -0.2968
  N  N3000  1  0.594100  0.605600  0.533100  1.0  -0.2424
  N  N3001  1  0.053740  0.019230  0.454970  1.0  -0.2462
  N  N3002  1  0.074980  0.013560  0.471740  1.0  -0.265
  N  N3003  1  0.996730  0.921030  0.532960  1.0  -0.2209
  N  N3004  1  0.949790  0.893990  0.536180  1.0  -0.2237
  N  N3005  1  0.874860  0.890740  0.475200  1.0  -0.2582
  N  N3006  1  0.905460  0.926310  0.457370  1.0  -0.1885
  N  N3007  1  0.834570  0.380000  0.215970  1.0  -0.2358
  N  N3008  1  0.870500  0.432500  0.226800  1.0  -0.2492
  N  N3009  1  0.835600  0.483620  0.193420  1.0  -0.231
  N  N3010  1  0.787500  0.448800  0.171700  1.0  -0.2914
  N  N3011  1  0.673170  0.285380  0.142550  1.0  -0.3096
  N  N3012  1  0.684000  0.267700  0.155900  1.0  -0.235
  N  N3013  1  0.926960  0.643760  0.132120  1.0  -0.3143
  N  N3014  1  0.934700  0.665900  0.160400  1.0  -0.2247
  N  N3015  1  0.027810  0.819260  0.185270  1.0  -0.2767
  N  N3016  1  0.052650  0.852180  0.166230  1.0  -0.235
  N  N3017  1  0.036360  0.794280  0.081440  1.0  -0.1316
  N  N3018  1  0.002700  0.742220  0.074520  1.0  -0.2754
  N  N3019  1  0.139700  0.999190  0.280490  1.0  -0.2406
  N  N3020  1  0.185700  0.024440  0.276540  1.0  -0.2854
  N  N3021  1  0.336360  0.157320  0.339480  1.0  -0.2454
  N  N3022  1  0.342280  0.174820  0.367700  1.0  -0.1485
  N  N3023  1  0.205860  0.096700  0.387760  1.0  -0.287
  N  N3024  1  0.157300  0.054600  0.366900  1.0  -0.202
  N  N3025  1  0.552840  0.292730  0.399970  1.0  -0.2635
  N  N3026  1  0.520830  0.240790  0.390020  1.0  -0.2073
  N  N3027  1  0.585190  0.218020  0.425410  1.0  -0.1538
  N  N3028  1  0.633220  0.258850  0.448070  1.0  -0.2836
  N  N3029  1  0.726360  0.414050  0.473410  1.0  -0.1465
  N  N3030  1  0.706620  0.420300  0.457920  1.0  -0.1255
  N  N3031  1  0.190170  0.845350  0.904120  1.0  -0.1975
  N  N3032  1  0.169620  0.816880  0.926700  1.0  -0.2811
  N  N3033  1  0.063360  0.774990  0.963150  1.0  -0.1971
  N  N3034  1  0.046120  0.787860  0.955380  1.0  -0.2775
  N  N3035  1  0.084590  0.847670  0.880860  1.0  -0.2882
  N  N3036  1  0.120030  0.861900  0.868530  1.0  -0.197
  N  N3037  1  0.681110  0.889490  0.376000  1.0  -0.2369
  N  N3038  1  0.634790  0.853040  0.351630  1.0  -0.2978
  N  N3039  1  0.725880  0.039570  0.338450  1.0  -0.2261
  N  N3040  1  0.723420  0.047590  0.367610  1.0  -0.2898
  N  N3041  1  0.691690  0.791490  0.392380  1.0  -0.2793
  N  N3042  1  0.721630  0.841710  0.402540  1.0  -0.215
  N  N3043  1  0.131560  0.472740  0.310500  1.0  -0.3084
  N  N3044  1  0.085430  0.447600  0.315430  1.0  -0.2158
  N  N3045  1  0.020670  0.463900  0.268770  1.0  -0.2869
  N  N3046  1  0.042600  0.491600  0.246200  1.0  -0.2926
  N  N3047  1  0.054800  0.327700  0.383900  1.0  -0.3039
  N  N3048  1  0.052600  0.308400  0.356800  1.0  -0.2575
  N  N3049  1  0.921470  0.771340  0.602210  1.0  -0.3463
  N  N3050  1  0.920870  0.754880  0.574550  1.0  -0.226
  N  N3051  1  0.846240  0.611200  0.555440  1.0  -0.2101
  N  N3052  1  0.822500  0.579090  0.574990  1.0  -0.2872
  N  N3053  1  0.125130  0.972400  0.807130  1.0  -0.253
  N  N3054  1  0.177930  0.016200  0.826930  1.0  -0.221
  N  N3055  1  0.571900  0.113200  0.041500  1.0  -0.363
  N  N3056  1  0.525700  0.089600  0.043700  1.0  -0.2273
  N  N3057  1  0.382300  0.951000  0.975700  1.0  -0.1971
  N  N3058  1  0.382400  0.935000  0.949000  1.0  -0.3616
  N  N3059  1  0.515500  0.073100  0.491000  1.0  -0.2909
  N  N3060  1  0.561000  0.094100  0.488500  1.0  -0.2425
  N  N3061  1  0.064260  0.598770  0.045030  1.0  -0.2424
  N  N3062  1  0.041820  0.603240  0.028260  1.0  -0.2622
  N  N3063  1  0.888070  0.463770  0.967040  1.0  -0.2247
  N  N3064  1  0.857810  0.413610  0.963820  1.0  -0.2276
  N  N3065  1  0.915540  0.399660  0.024800  1.0  -0.257
  N  N3066  1  0.968940  0.448090  0.042630  1.0  -0.1879
  N  N3067  1  0.664030  0.618600  0.284030  1.0  -0.2363
  N  N3068  1  0.705700  0.643700  0.273200  1.0  -0.2517
  N  N3069  1  0.790200  0.642180  0.306580  1.0  -0.2295
  N  N3070  1  0.777100  0.615800  0.328300  1.0  -0.288
  N  N3071  1  0.642830  0.530620  0.357450  1.0  -0.3084
  N  N3072  1  0.611800  0.528100  0.344100  1.0  -0.2336
  N  N3073  1  0.011640  0.794840  0.367880  1.0  -0.3093
  N  N3074  1  0.005500  0.774300  0.339600  1.0  -0.2256
  N  N3075  1  0.133990  0.842540  0.314730  1.0  -0.2796
  N  N3076  1  0.185950  0.886420  0.333770  1.0  -0.2342
  N  N3077  1  0.212840  0.954920  0.418560  1.0  -0.1325
  N  N3078  1  0.167700  0.928180  0.425480  1.0  -0.2763
  N  N3079  1  0.218700  0.859210  0.219510  1.0  -0.2411
  N  N3080  1  0.247900  0.909160  0.223460  1.0  -0.2903
  N  N3081  1  0.317840  0.996880  0.160520  1.0  -0.2429
  N  N3082  1  0.307120  0.974580  0.132300  1.0  -0.1457
  N  N3083  1  0.208940  0.818100  0.112240  1.0  -0.2893
  N  N3084  1  0.187700  0.790400  0.133100  1.0  -0.1987
  N  N3085  1  0.392760  0.152870  0.100030  1.0  -0.2614
  N  N3086  1  0.350770  0.130810  0.109980  1.0  -0.2063
  N  N3087  1  0.292610  0.159780  0.074590  1.0  -0.151
  N  N3088  1  0.310780  0.185150  0.051930  1.0  -0.2857
  N  N3089  1  0.440640  0.252950  0.026590  1.0  -0.1503
  N  N3090  1  0.462380  0.248700  0.042080  1.0  -0.1263
  N  N3091  1  0.441230  0.286050  0.595880  1.0  -0.2009
  N  N3092  1  0.390180  0.242920  0.573300  1.0  -0.2822
  N  N3093  1  0.311840  0.100210  0.536850  1.0  -0.1905
  N  N3094  1  0.332480  0.090740  0.544620  1.0  -0.2761
  N  N3095  1  0.466810  0.203730  0.619140  1.0  -0.2895
  N  N3096  1  0.493370  0.251500  0.631470  1.0  -0.1967
  N  N3097  1  0.013490  0.305110  0.124000  1.0  -0.2336
  N  N3098  1  0.001410  0.283160  0.148370  1.0  -0.2976
  N  N3099  1  0.201120  0.387430  0.161550  1.0  -0.2309
  N  N3100  1  0.179980  0.355810  0.132390  1.0  -0.2944
  N  N3101  1  0.899110  0.299310  0.107620  1.0  -0.2823
  N  N3102  1  0.939170  0.319090  0.097460  1.0  -0.2153
  N  N3103  1  0.662240  0.821060  0.189500  1.0  -0.3092
  N  N3104  1  0.632170  0.770000  0.184570  1.0  -0.2208
  N  N3105  1  0.695130  0.751900  0.231230  1.0  -0.2866
  N  N3106  1  0.745400  0.796400  0.253800  1.0  -0.2931
  N  N3107  1  0.443800  0.670900  0.116100  1.0  -0.3071
  N  N3108  1  0.451600  0.695800  0.143200  1.0  -0.2598
  N  N3109  1  0.669130  0.319260  0.897790  1.0  -0.3506
  N  N3110  1  0.680330  0.346320  0.925450  1.0  -0.2296
  N  N3111  1  0.555760  0.290800  0.944560  1.0  -0.2163
  N  N3112  1  0.504100  0.247510  0.925010  1.0  -0.2849
  N  N3113  1  0.665270  0.318000  0.692870  1.0  -0.2557
  N  N3114  1  0.689270  0.351000  0.673070  1.0  -0.2231
  N  N3115  1  0.571700  0.530400  0.458500  1.0  -0.3622
  N  N3116  1  0.545900  0.482000  0.456300  1.0  -0.2323
  N  N3117  1  0.475300  0.406600  0.524300  1.0  -0.2026
  N  N3118  1  0.486000  0.433400  0.551000  1.0  -0.3588
  N  N3119  1  0.082100  0.024500  0.009000  1.0  -0.2941
  N  N3120  1  0.105600  0.072500  0.011500  1.0  -0.2428
  N  N3121  1  0.901230  0.446260  0.465490  1.0  -0.2461
  N  N3122  1  0.896760  0.425020  0.438580  1.0  -0.2661
  N  N3123  1  0.036230  0.503270  0.424300  1.0  -0.2232
  N  N3124  1  0.086390  0.550210  0.444200  1.0  -0.2294
  N  N3125  1  0.100340  0.625140  0.515880  1.0  -0.2553
  N  N3126  1  0.051910  0.594540  0.520850  1.0  -0.1853
  N  N3127  1  0.881400  0.665430  0.045430  1.0  -0.24
  N  N3128  1  0.856300  0.629500  0.062000  1.0  -0.2521
  N  N3129  1  0.857820  0.664400  0.148020  1.0  -0.2324
  N  N3130  1  0.884200  0.712500  0.161300  1.0  -0.2866
  N  N3131  1  0.969380  0.826830  0.112210  1.0  -0.3107
  N  N3132  1  0.971900  0.816000  0.083700  1.0  -0.2329
  N  N3133  1  0.705160  0.573040  0.216800  1.0  -0.3144
  N  N3134  1  0.725700  0.565300  0.231200  1.0  -0.2289
  N  N3135  1  0.657460  0.472190  0.291450  1.0  -0.2783
  N  N3136  1  0.613580  0.447350  0.299530  1.0  -0.2322
  N  N3137  1  0.545080  0.463640  0.257920  1.0  -0.1337
  N  N3138  1  0.571820  0.497300  0.239520  1.0  -0.2832
  N  N3139  1  0.640790  0.360300  0.359490  1.0  -0.2441
  N  N3140  1  0.590840  0.314300  0.338740  1.0  -0.2871
  N  N3141  1  0.503120  0.163640  0.320960  1.0  -0.2417
  N  N3142  1  0.525420  0.157720  0.332540  1.0  -0.1462
  N  N3143  1  0.681900  0.294140  0.390840  1.0  -0.2853
  N  N3144  1  0.709600  0.342700  0.397300  1.0  -0.2004
  N  N3145  1  0.347130  0.947160  0.239890  1.0  -0.2636
  N  N3146  1  0.369190  0.979170  0.219960  1.0  -0.2075
  N  N3147  1  0.340220  0.914810  0.132830  1.0  -0.156
  N  N3148  1  0.314850  0.866780  0.125630  1.0  -0.2832
  N  N3149  1  0.247050  0.773640  0.187690  1.0  -0.1514
  N  N3150  1  0.251300  0.793380  0.213680  1.0  -0.1245
  N  N3151  1  0.213950  0.309830  0.155180  1.0  -0.1998
  N  N3152  1  0.257080  0.330380  0.147260  1.0  -0.2805
  N  N3153  1  0.399790  0.436640  0.211630  1.0  -0.1947
  N  N3154  1  0.409260  0.453880  0.241740  1.0  -0.2781
  N  N3155  1  0.296270  0.415410  0.263080  1.0  -0.2889
  N  N3156  1  0.248500  0.379970  0.241870  1.0  -0.197
  N  N3157  1  0.194890  0.818890  0.708380  1.0  -0.2384
  N  N3158  1  0.216840  0.865210  0.718250  1.0  -0.2994
  N  N3159  1  0.112570  0.774120  0.813690  1.0  -0.2269
  N  N3160  1  0.144190  0.776580  0.824170  1.0  -0.2953
  N  N3161  1  0.200690  0.808310  0.599800  1.0  -0.283
  N  N3162  1  0.180910  0.778370  0.620080  1.0  -0.2174
  N  N3163  1  0.678940  0.368440  0.841180  1.0  -0.3083
  N  N3164  1  0.730000  0.414570  0.862170  1.0  -0.2231
  N  N3165  1  0.748100  0.479330  0.943230  1.0  -0.2869
  N  N3166  1  0.703600  0.457400  0.949000  1.0  -0.2923
  N  N3167  1  0.829100  0.445200  0.772900  1.0  -0.3055
  N  N3168  1  0.804200  0.447400  0.755800  1.0  -0.2592
  N  N3169  1  0.180740  0.578530  0.349870  1.0  -0.3494
  N  N3170  1  0.153680  0.579130  0.334010  1.0  -0.2282
  N  N3171  1  0.209200  0.653760  0.264960  1.0  -0.2143
  N  N3172  1  0.252490  0.677500  0.256590  1.0  -0.2837
  N  N3173  1  0.182000  0.374870  0.347270  1.0  -0.2543
  N  N3174  1  0.149000  0.322070  0.338270  1.0  -0.2237
  N  N3175  1  0.969600  0.928100  0.041300  1.0  -0.3632
  N  N3176  1  0.018000  0.974300  0.063900  1.0  -0.2301
  N  N3177  1  0.093400  0.117700  0.068700  1.0  -0.1962
  N  N3178  1  0.066600  0.117600  0.052600  1.0  -0.3596
  N  N3179  1  0.475500  0.984500  0.057600  1.0  -0.2928
  N  N3180  1  0.427500  0.939000  0.033100  1.0  -0.243
  N  N3181  1  0.480770  0.435740  0.034510  1.0  -0.2445
  N  N3182  1  0.486440  0.458180  0.061420  1.0  -0.2624
  N  N3183  1  0.578970  0.611930  0.075700  1.0  -0.2286
  N  N3184  1  0.606010  0.642190  0.055800  1.0  -0.2251
  N  N3185  1  0.609260  0.584460  0.984120  1.0  -0.2551
  N  N3186  1  0.573690  0.531060  0.979150  1.0  -0.1862
  N  N3187  1  0.120000  0.835970  0.454570  1.0  -0.2406
  N  N3188  1  0.067500  0.794300  0.438000  1.0  -0.2514
  N  N3189  1  0.016380  0.709800  0.351980  1.0  -0.2284
  N  N3190  1  0.051200  0.722900  0.338700  1.0  -0.2894
  N  N3191  1  0.214620  0.857170  0.387790  1.0  -0.3165
  N  N3192  1  0.232300  0.888200  0.416300  1.0  -0.2352
  N  N3193  1  0.856240  0.488360  0.283200  1.0  -0.3138
  N  N3194  1  0.834100  0.494500  0.268800  1.0  -0.2254
  N  N3195  1  0.680740  0.366010  0.208550  1.0  -0.2797
  N  N3196  1  0.647820  0.314050  0.200470  1.0  -0.2362
  N  N3197  1  0.705720  0.287160  0.242080  1.0  -0.1299
  N  N3198  1  0.757780  0.332300  0.260480  1.0  -0.2766
  N  N3199  1  0.500810  0.281300  0.140510  1.0  -0.2391
  N  N3200  1  0.475560  0.252100  0.161260  1.0  -0.2876
  N  N3201  1  0.342680  0.182160  0.179040  1.0  -0.2423
  N  N3202  1  0.325180  0.192880  0.167460  1.0  -0.147
  N  N3203  1  0.403300  0.291060  0.109160  1.0  -0.2868
  N  N3204  1  0.445400  0.312300  0.102700  1.0  -0.1981
  N  N3205  1  0.207270  0.107240  0.260110  1.0  -0.261
  N  N3206  1  0.259210  0.149230  0.280040  1.0  -0.2082
  N  N3207  1  0.281980  0.207390  0.367170  1.0  -0.1504
  N  N3208  1  0.241150  0.189220  0.374370  1.0  -0.2845
  N  N3209  1  0.085950  0.059360  0.312310  1.0  -0.15
  N  N3210  1  0.079700  0.037620  0.286320  1.0  -0.1279
  N  N3211  1  0.654650  0.058770  0.344820  1.0  -0.1996
  N  N3212  1  0.683120  0.109820  0.352740  1.0  -0.281
  N  N3213  1  0.725010  0.188160  0.288370  1.0  -0.1924
  N  N3214  1  0.712140  0.167520  0.258260  1.0  -0.2733
  N  N3215  1  0.652330  0.033190  0.236920  1.0  -0.2877
  N  N3216  1  0.638100  0.006630  0.258130  1.0  -0.196
  N  N3217  1  0.610510  0.486510  0.791620  1.0  -0.24
  N  N3218  1  0.646960  0.498590  0.781750  1.0  -0.2966
  N  N3219  1  0.460430  0.298880  0.686310  1.0  -0.2251
  N  N3220  1  0.452410  0.320020  0.675830  1.0  -0.2902
  N  N3221  1  0.708510  0.600890  0.900200  1.0  -0.2813
  N  N3222  1  0.658290  0.560830  0.879920  1.0  -0.2177
  N  N3223  1  0.027260  0.837760  0.658820  1.0  -0.3086
  N  N3224  1  0.052400  0.867830  0.637830  1.0  -0.2218
  N  N3225  1  0.036100  0.804870  0.556770  1.0  -0.2889
  N  N3226  1  0.008400  0.754600  0.551000  1.0  -0.2954
  N  N3227  1  0.172300  0.056200  0.727100  1.0  -0.3062
  N  N3228  1  0.191600  0.048400  0.744200  1.0  -0.2583
  N  N3229  1  0.728660  0.830870  0.150130  1.0  -0.3468
  N  N3230  1  0.745120  0.819670  0.165990  1.0  -0.2251
  N  N3231  1  0.888800  0.944240  0.235040  1.0  -0.2105
  N  N3232  1  0.920910  0.995900  0.243410  1.0  -0.283
  N  N3233  1  0.527600  0.834730  0.152730  1.0  -0.2523
  N  N3234  1  0.483800  0.810730  0.161730  1.0  -0.2236
  N  N3235  1  0.386800  0.928300  0.458700  1.0  -0.3638
  N  N3236  1  0.410400  0.954100  0.436100  1.0  -0.2314
  N  N3237  1  0.549000  0.024700  0.431300  1.0  -0.2015
  N  N3238  1  0.565000  0.014000  0.447400  1.0  -0.3596
  N  N3239  1  0.426900  0.417900  0.442400  1.0  -0.2956
  N  N3240  1  0.405900  0.394400  0.466900  1.0  -0.2446
  N  N3241  1  0.946260  0.980770  0.545030  1.0  -0.245
  N  N3242  1  0.925020  0.986440  0.528260  1.0  -0.2644
  N  N3243  1  0.003270  0.078970  0.467040  1.0  -0.2218
  N  N3244  1  0.050210  0.106010  0.463820  1.0  -0.225
  N  N3245  1  0.125140  0.109260  0.524800  1.0  -0.2568
  N  N3246  1  0.094540  0.073690  0.542630  1.0  -0.1893
  N  N3247  1  0.165430  0.620000  0.784030  1.0  -0.238
  N  N3248  1  0.129500  0.567500  0.773200  1.0  -0.2529
  N  N3249  1  0.164400  0.516380  0.806580  1.0  -0.2322
  N  N3250  1  0.212500  0.551200  0.828300  1.0  -0.2898
  N  N3251  1  0.326830  0.714620  0.857450  1.0  -0.3096
  N  N3252  1  0.316000  0.732300  0.844100  1.0  -0.2356
  N  N3253  1  0.073040  0.356240  0.867880  1.0  -0.3147
  N  N3254  1  0.065300  0.334100  0.839600  1.0  -0.2255
  N  N3255  1  0.972190  0.180740  0.814730  1.0  -0.2772
  N  N3256  1  0.947350  0.147820  0.833770  1.0  -0.2351
  N  N3257  1  0.963640  0.205720  0.918560  1.0  -0.1324
  N  N3258  1  0.997300  0.257780  0.925480  1.0  -0.2783
  N  N3259  1  0.860300  0.000810  0.719510  1.0  -0.2421
  N  N3260  1  0.814300  0.975560  0.723460  1.0  -0.2853
  N  N3261  1  0.663640  0.842680  0.660520  1.0  -0.2465
  N  N3262  1  0.657720  0.825180  0.632300  1.0  -0.1492
  N  N3263  1  0.794140  0.903300  0.612240  1.0  -0.2878
  N  N3264  1  0.842700  0.945400  0.633100  1.0  -0.1986
  N  N3265  1  0.447160  0.707270  0.600030  1.0  -0.2629
  N  N3266  1  0.479170  0.759210  0.609980  1.0  -0.2081
  N  N3267  1  0.414810  0.781980  0.574590  1.0  -0.154
  N  N3268  1  0.366780  0.741150  0.551930  1.0  -0.2867
  N  N3269  1  0.273640  0.585950  0.526590  1.0  -0.1477
  N  N3270  1  0.293380  0.579700  0.542080  1.0  -0.1281
  N  N3271  1  0.809830  0.154650  0.095880  1.0  -0.2003
  N  N3272  1  0.830380  0.183120  0.073300  1.0  -0.2809
  N  N3273  1  0.936640  0.225010  0.036850  1.0  -0.1963
  N  N3274  1  0.953880  0.212140  0.044620  1.0  -0.2766
  N  N3275  1  0.915410  0.152330  0.119140  1.0  -0.2879
  N  N3276  1  0.879970  0.138100  0.131470  1.0  -0.1945
  N  N3277  1  0.318890  0.110510  0.624000  1.0  -0.236
  N  N3278  1  0.365210  0.146960  0.648370  1.0  -0.2957
  N  N3279  1  0.274120  0.960430  0.661550  1.0  -0.2253
  N  N3280  1  0.276580  0.952410  0.632390  1.0  -0.2898
  N  N3281  1  0.308310  0.208510  0.607620  1.0  -0.2784
  N  N3282  1  0.278370  0.158290  0.597460  1.0  -0.2157
  N  N3283  1  0.868440  0.527260  0.689500  1.0  -0.3096
  N  N3284  1  0.914570  0.552400  0.684570  1.0  -0.2168
  N  N3285  1  0.979330  0.536100  0.731230  1.0  -0.2859
  N  N3286  1  0.957400  0.508400  0.753800  1.0  -0.2924
  N  N3287  1  0.945200  0.672300  0.616100  1.0  -0.3063
  N  N3288  1  0.947400  0.691600  0.643200  1.0  -0.2579
  N  N3289  1  0.078530  0.228660  0.397790  1.0  -0.3469
  N  N3290  1  0.079130  0.245120  0.425450  1.0  -0.2254
  N  N3291  1  0.153760  0.388800  0.444560  1.0  -0.2136
  N  N3292  1  0.177500  0.420910  0.425010  1.0  -0.2849
  N  N3293  1  0.874870  0.027600  0.192870  1.0  -0.2561
  N  N3294  1  0.822070  0.983800  0.173070  1.0  -0.2217
  N  N3295  1  0.428100  0.886800  0.958500  1.0  -0.3615
  N  N3296  1  0.474300  0.910400  0.956300  1.0  -0.2261
  N  N3297  1  0.617700  0.049000  0.024300  1.0  -0.1983
  N  N3298  1  0.617600  0.065000  0.051000  1.0  -0.3604
  N  N3299  1  0.484500  0.926900  0.509000  1.0  -0.2897
  N  N3300  1  0.439000  0.905900  0.511500  1.0  -0.2426
  N  N3301  1  0.935740  0.401230  0.954970  1.0  -0.2427
  N  N3302  1  0.958180  0.396760  0.971740  1.0  -0.2615
  N  N3303  1  0.111930  0.536230  0.032960  1.0  -0.2238
  N  N3304  1  0.142190  0.586390  0.036180  1.0  -0.2247
  N  N3305  1  0.084460  0.600340  0.975200  1.0  -0.2586
  N  N3306  1  0.031060  0.551910  0.957370  1.0  -0.1866
  N  N3307  1  0.335970  0.381400  0.715970  1.0  -0.2341
  N  N3308  1  0.294300  0.356300  0.726800  1.0  -0.2489
  N  N3309  1  0.209800  0.357820  0.693420  1.0  -0.2297
  N  N3310  1  0.222900  0.384200  0.671700  1.0  -0.2879
  N  N3311  1  0.357170  0.469380  0.642550  1.0  -0.3115
  N  N3312  1  0.388200  0.471900  0.655900  1.0  -0.2346
  N  N3313  1  0.988360  0.205160  0.632120  1.0  -0.3117
  N  N3314  1  0.994500  0.225700  0.660400  1.0  -0.2283
  N  N3315  1  0.866010  0.157460  0.685270  1.0  -0.2781
  N  N3316  1  0.814050  0.113580  0.666230  1.0  -0.2356
  N  N3317  1  0.787160  0.045080  0.581440  1.0  -0.132
  N  N3318  1  0.832300  0.071820  0.574520  1.0  -0.2715
  N  N3319  1  0.781300  0.140790  0.780490  1.0  -0.2416
  N  N3320  1  0.752100  0.090840  0.776540  1.0  -0.2902
  N  N3321  1  0.682160  0.003120  0.839480  1.0  -0.2435
  N  N3322  1  0.692880  0.025420  0.867700  1.0  -0.1462
  N  N3323  1  0.791060  0.181900  0.887760  1.0  -0.2877
  N  N3324  1  0.812300  0.209600  0.866900  1.0  -0.202
  N  N3325  1  0.607240  0.847130  0.899970  1.0  -0.2608
  N  N3326  1  0.649230  0.869190  0.890020  1.0  -0.2052
  N  N3327  1  0.707390  0.840220  0.925410  1.0  -0.1509
  N  N3328  1  0.689220  0.814850  0.948070  1.0  -0.2845
  N  N3329  1  0.559360  0.747050  0.973410  1.0  -0.1488
  N  N3330  1  0.537620  0.751300  0.957920  1.0  -0.1227
  N  N3331  1  0.558770  0.713950  0.404120  1.0  -0.1964
  N  N3332  1  0.609820  0.757080  0.426700  1.0  -0.2818
  N  N3333  1  0.688160  0.899790  0.463150  1.0  -0.1914
  N  N3334  1  0.667520  0.909260  0.455380  1.0  -0.2741
  N  N3335  1  0.533190  0.796270  0.380860  1.0  -0.2858
  N  N3336  1  0.506630  0.748500  0.368530  1.0  -0.1992
  N  N3337  1  0.986510  0.694890  0.876000  1.0  -0.2342
  N  N3338  1  0.998590  0.716840  0.851630  1.0  -0.3001
  N  N3339  1  0.798880  0.612570  0.838450  1.0  -0.228
  N  N3340  1  0.820020  0.644190  0.867610  1.0  -0.2945
  N  N3341  1  0.100890  0.700690  0.892380  1.0  -0.2852
  N  N3342  1  0.060830  0.680910  0.902540  1.0  -0.2141
  N  N3343  1  0.337760  0.178940  0.810500  1.0  -0.3087
  N  N3344  1  0.367830  0.230000  0.815430  1.0  -0.2175
  N  N3345  1  0.304870  0.248100  0.768770  1.0  -0.2885
  N  N3346  1  0.254600  0.203600  0.746200  1.0  -0.295
  N  N3347  1  0.556200  0.329100  0.883900  1.0  -0.3079
  N  N3348  1  0.548400  0.304200  0.856800  1.0  -0.2617
  N  N3349  1  0.330870  0.680740  0.102210  1.0  -0.3506
  N  N3350  1  0.319670  0.653680  0.074550  1.0  -0.2319
  N  N3351  1  0.444240  0.709200  0.055440  1.0  -0.2095
  N  N3352  1  0.495900  0.752490  0.074990  1.0  -0.2876
  N  N3353  1  0.334730  0.682000  0.307130  1.0  -0.2534
  N  N3354  1  0.310730  0.649000  0.326930  1.0  -0.2202
  N  N3355  1  0.428300  0.469600  0.541500  1.0  -0.3637
  N  N3356  1  0.454100  0.518000  0.543700  1.0  -0.2338
  N  N3357  1  0.524700  0.593400  0.475700  1.0  -0.2005
  N  N3358  1  0.514000  0.566600  0.449000  1.0  -0.3576
  N  N3359  1  0.917900  0.975500  0.991000  1.0  -0.2926
  N  N3360  1  0.894400  0.927500  0.988500  1.0  -0.2439
