# generated using pymatgen
data_GdMnH12(C4O5)3
_symmetry_space_group_name_H-M   'P 1'
_cell_length_a   26.10650000
_cell_length_b   26.10650000
_cell_length_c   26.10650000
_cell_angle_alpha   90.00000000
_cell_angle_beta   90.00000000
_cell_angle_gamma   90.00000000
_symmetry_Int_Tables_number   1
_chemical_formula_structural   GdMnH12(C4O5)3
_chemical_formula_sum   'Gd32 Mn32 H384 C384 O480'
_cell_volume   17792.86790345
_cell_formula_units_Z   32
loop_
 _symmetry_equiv_pos_site_id
 _symmetry_equiv_pos_as_xyz
  1  'x, y, z'
loop_
 _atom_site_type_symbol
 _atom_site_label
 _atom_site_symmetry_multiplicity
 _atom_site_fract_x
 _atom_site_fract_y
 _atom_site_fract_z
 _atom_site_occupancy
 _atom_site_charge
  Gd  Gd1  1  0.000000  0.000000  0.250000  1.0  2.103
  Gd  Gd2  1  0.000000  0.500000  0.750000  1.0  2.103
  Gd  Gd3  1  0.250000  0.750000  0.750000  1.0  2.103
  Gd  Gd4  1  0.250000  0.250000  0.250000  1.0  2.103
  Gd  Gd5  1  0.750000  0.500000  0.000000  1.0  2.103
  Gd  Gd6  1  0.750000  0.000000  0.500000  1.0  2.103
  Gd  Gd7  1  0.500000  0.250000  0.500000  1.0  2.103
  Gd  Gd8  1  0.500000  0.750000  0.000000  1.0  2.103
  Gd  Gd9  1  0.250000  0.000000  0.000000  1.0  2.103
  Gd  Gd10  1  0.750000  0.250000  0.750000  1.0  2.103
  Gd  Gd11  1  0.000000  0.750000  0.500000  1.0  2.103
  Gd  Gd12  1  0.500000  0.500000  0.250000  1.0  2.103
  Gd  Gd13  1  0.000000  0.250000  0.000000  1.0  2.103
  Gd  Gd14  1  0.750000  0.750000  0.250000  1.0  2.103
  Gd  Gd15  1  0.500000  0.000000  0.750000  1.0  2.103
  Gd  Gd16  1  0.250000  0.500000  0.500000  1.0  2.103
  Gd  Gd17  1  0.000000  0.000000  0.750000  1.0  2.103
  Gd  Gd18  1  0.000000  0.500000  0.250000  1.0  2.103
  Gd  Gd19  1  0.750000  0.250000  0.250000  1.0  2.103
  Gd  Gd20  1  0.750000  0.750000  0.750000  1.0  2.103
  Gd  Gd21  1  0.250000  0.500000  0.000000  1.0  2.103
  Gd  Gd22  1  0.250000  0.000000  0.500000  1.0  2.103
  Gd  Gd23  1  0.500000  0.750000  0.500000  1.0  2.103
  Gd  Gd24  1  0.500000  0.250000  0.000000  1.0  2.103
  Gd  Gd25  1  0.750000  0.000000  0.000000  1.0  2.103
  Gd  Gd26  1  0.250000  0.750000  0.250000  1.0  2.103
  Gd  Gd27  1  0.000000  0.250000  0.500000  1.0  2.103
  Gd  Gd28  1  0.500000  0.500000  0.750000  1.0  2.103
  Gd  Gd29  1  0.000000  0.750000  0.000000  1.0  2.103
  Gd  Gd30  1  0.250000  0.250000  0.750000  1.0  2.103
  Gd  Gd31  1  0.500000  0.000000  0.250000  1.0  2.103
  Gd  Gd32  1  0.750000  0.500000  0.500000  1.0  2.103
  Mn  Mn33  1  0.000000  0.750000  0.250000  1.0  1.0255
  Mn  Mn34  1  0.500000  0.750000  0.750000  1.0  1.0255
  Mn  Mn35  1  0.250000  0.000000  0.750000  1.0  1.0255
  Mn  Mn36  1  0.250000  0.500000  0.250000  1.0  1.0255
  Mn  Mn37  1  0.750000  0.250000  0.000000  1.0  1.0255
  Mn  Mn38  1  0.750000  0.750000  0.500000  1.0  1.0255
  Mn  Mn39  1  0.500000  0.500000  0.500000  1.0  1.0255
  Mn  Mn40  1  0.500000  0.000000  0.000000  1.0  1.0255
  Mn  Mn41  1  0.000000  0.500000  0.000000  1.0  1.0255
  Mn  Mn42  1  0.000000  0.000000  0.500000  1.0  1.0255
  Mn  Mn43  1  0.250000  0.250000  0.500000  1.0  1.0255
  Mn  Mn44  1  0.500000  0.250000  0.750000  1.0  1.0255
  Mn  Mn45  1  0.000000  0.250000  0.250000  1.0  1.0255
  Mn  Mn46  1  0.750000  0.500000  0.250000  1.0  1.0255
  Mn  Mn47  1  0.750000  0.000000  0.750000  1.0  1.0255
  Mn  Mn48  1  0.000000  0.000000  0.000000  1.0  1.0255
  Mn  Mn49  1  0.000000  0.500000  0.500000  1.0  1.0255
  Mn  Mn50  1  0.500000  0.000000  0.500000  1.0  1.0255
  Mn  Mn51  1  0.500000  0.500000  0.000000  1.0  1.0255
  Mn  Mn52  1  0.250000  0.750000  0.500000  1.0  1.0255
  Mn  Mn53  1  0.250000  0.250000  0.000000  1.0  1.0255
  Mn  Mn54  1  0.000000  0.250000  0.750000  1.0  1.0255
  Mn  Mn55  1  0.500000  0.250000  0.250000  1.0  1.0255
  Mn  Mn56  1  0.750000  0.000000  0.250000  1.0  1.0255
  Mn  Mn57  1  0.750000  0.500000  0.750000  1.0  1.0255
  Mn  Mn58  1  0.250000  0.750000  0.000000  1.0  1.0255
  Mn  Mn59  1  0.500000  0.750000  0.250000  1.0  1.0255
  Mn  Mn60  1  0.000000  0.750000  0.750000  1.0  1.0255
  Mn  Mn61  1  0.250000  0.500000  0.750000  1.0  1.0255
  Mn  Mn62  1  0.250000  0.000000  0.250000  1.0  1.0255
  Mn  Mn63  1  0.750000  0.250000  0.500000  1.0  1.0255
  Mn  Mn64  1  0.750000  0.750000  0.000000  1.0  1.0255
  H  H65  1  0.033700  0.866800  0.176100  1.0  0.1156
  H  H66  1  0.972500  0.863600  0.181500  1.0  0.1191
  H  H67  1  0.033700  0.366800  0.676100  1.0  0.1156
  H  H68  1  0.972500  0.363600  0.681500  1.0  0.1191
  H  H69  1  0.533700  0.866800  0.676100  1.0  0.1156
  H  H70  1  0.472500  0.863600  0.681500  1.0  0.1191
  H  H71  1  0.533700  0.366800  0.176100  1.0  0.1156
  H  H72  1  0.472500  0.363600  0.181500  1.0  0.1191
  H  H73  1  0.216300  0.883200  0.676100  1.0  0.1164
  H  H74  1  0.277500  0.886400  0.681500  1.0  0.1169
  H  H75  1  0.216300  0.383200  0.176100  1.0  0.1164
  H  H76  1  0.277500  0.386400  0.181500  1.0  0.1169
  H  H77  1  0.716300  0.883200  0.176100  1.0  0.1164
  H  H78  1  0.777500  0.886400  0.181500  1.0  0.1169
  H  H79  1  0.716300  0.383200  0.676100  1.0  0.1164
  H  H80  1  0.777500  0.386400  0.681500  1.0  0.1169
  H  H81  1  0.716300  0.366800  0.073900  1.0  0.1165
  H  H82  1  0.777500  0.363600  0.068500  1.0  0.1171
  H  H83  1  0.716300  0.866800  0.573900  1.0  0.1165
  H  H84  1  0.777500  0.863600  0.568500  1.0  0.1171
  H  H85  1  0.216300  0.366800  0.573900  1.0  0.1165
  H  H86  1  0.277500  0.363600  0.568500  1.0  0.1171
  H  H87  1  0.216300  0.866800  0.073900  1.0  0.1165
  H  H88  1  0.277500  0.863600  0.068500  1.0  0.1171
  H  H89  1  0.533700  0.383200  0.573900  1.0  0.1156
  H  H90  1  0.472500  0.386400  0.568500  1.0  0.1188
  H  H91  1  0.533700  0.883200  0.073900  1.0  0.1156
  H  H92  1  0.472500  0.886400  0.068500  1.0  0.1188
  H  H93  1  0.033700  0.383200  0.073900  1.0  0.1156
  H  H94  1  0.972500  0.386400  0.068500  1.0  0.1188
  H  H95  1  0.033700  0.883200  0.573900  1.0  0.1156
  H  H96  1  0.972500  0.886400  0.568500  1.0  0.1188
  H  H97  1  0.176100  0.033700  0.866800  1.0  0.1162
  H  H98  1  0.181500  0.972500  0.863600  1.0  0.1185
  H  H99  1  0.176100  0.533700  0.366800  1.0  0.1162
  H  H100  1  0.181500  0.472500  0.363600  1.0  0.1185
  H  H101  1  0.676100  0.033700  0.366800  1.0  0.1162
  H  H102  1  0.681500  0.972500  0.363600  1.0  0.1185
  H  H103  1  0.676100  0.533700  0.866800  1.0  0.1162
  H  H104  1  0.681500  0.472500  0.863600  1.0  0.1185
  H  H105  1  0.676100  0.216300  0.883200  1.0  0.1167
  H  H106  1  0.681500  0.277500  0.886400  1.0  0.1183
  H  H107  1  0.676100  0.716300  0.383200  1.0  0.1167
  H  H108  1  0.681500  0.777500  0.386400  1.0  0.1183
  H  H109  1  0.176100  0.216300  0.383200  1.0  0.1167
  H  H110  1  0.181500  0.277500  0.386400  1.0  0.1183
  H  H111  1  0.176100  0.716300  0.883200  1.0  0.1167
  H  H112  1  0.181500  0.777500  0.886400  1.0  0.1183
  H  H113  1  0.073900  0.716300  0.366800  1.0  0.1162
  H  H114  1  0.068500  0.777500  0.363600  1.0  0.1183
  H  H115  1  0.073900  0.216300  0.866800  1.0  0.1162
  H  H116  1  0.068500  0.277500  0.863600  1.0  0.1183
  H  H117  1  0.573900  0.716300  0.866800  1.0  0.1162
  H  H118  1  0.568500  0.777500  0.863600  1.0  0.1183
  H  H119  1  0.573900  0.216300  0.366800  1.0  0.1162
  H  H120  1  0.568500  0.277500  0.363600  1.0  0.1183
  H  H121  1  0.573900  0.533700  0.383200  1.0  0.1162
  H  H122  1  0.568500  0.472500  0.386400  1.0  0.1192
  H  H123  1  0.573900  0.033700  0.883200  1.0  0.1162
  H  H124  1  0.568500  0.972500  0.886400  1.0  0.1192
  H  H125  1  0.073900  0.533700  0.883200  1.0  0.1162
  H  H126  1  0.068500  0.472500  0.886400  1.0  0.1192
  H  H127  1  0.073900  0.033700  0.383200  1.0  0.1162
  H  H128  1  0.068500  0.972500  0.386400  1.0  0.1192
  H  H129  1  0.866800  0.176100  0.033700  1.0  0.1148
  H  H130  1  0.863600  0.181500  0.972500  1.0  0.1166
  H  H131  1  0.866800  0.676100  0.533700  1.0  0.1148
  H  H132  1  0.863600  0.681500  0.472500  1.0  0.1166
  H  H133  1  0.366800  0.176100  0.533700  1.0  0.1148
  H  H134  1  0.363600  0.181500  0.472500  1.0  0.1166
  H  H135  1  0.366800  0.676100  0.033700  1.0  0.1148
  H  H136  1  0.363600  0.681500  0.972500  1.0  0.1166
  H  H137  1  0.883200  0.676100  0.216300  1.0  0.1139
  H  H138  1  0.886400  0.681500  0.277500  1.0  0.1164
  H  H139  1  0.883200  0.176100  0.716300  1.0  0.1139
  H  H140  1  0.886400  0.181500  0.777500  1.0  0.1164
  H  H141  1  0.383200  0.676100  0.716300  1.0  0.1139
  H  H142  1  0.386400  0.681500  0.777500  1.0  0.1164
  H  H143  1  0.383200  0.176100  0.216300  1.0  0.1139
  H  H144  1  0.386400  0.181500  0.277500  1.0  0.1164
  H  H145  1  0.366800  0.073900  0.716300  1.0  0.114
  H  H146  1  0.363600  0.068500  0.777500  1.0  0.1168
  H  H147  1  0.366800  0.573900  0.216300  1.0  0.114
  H  H148  1  0.363600  0.568500  0.277500  1.0  0.1168
  H  H149  1  0.866800  0.073900  0.216300  1.0  0.114
  H  H150  1  0.863600  0.068500  0.277500  1.0  0.1168
  H  H151  1  0.866800  0.573900  0.716300  1.0  0.114
  H  H152  1  0.863600  0.568500  0.777500  1.0  0.1168
  H  H153  1  0.383200  0.573900  0.533700  1.0  0.1146
  H  H154  1  0.386400  0.568500  0.472500  1.0  0.1164
  H  H155  1  0.383200  0.073900  0.033700  1.0  0.1146
  H  H156  1  0.386400  0.068500  0.972500  1.0  0.1164
  H  H157  1  0.883200  0.573900  0.033700  1.0  0.1146
  H  H158  1  0.886400  0.568500  0.972500  1.0  0.1164
  H  H159  1  0.883200  0.073900  0.533700  1.0  0.1146
  H  H160  1  0.886400  0.068500  0.472500  1.0  0.1164
  H  H161  1  0.616800  0.283700  0.823900  1.0  0.1159
  H  H162  1  0.613600  0.222500  0.818500  1.0  0.1188
  H  H163  1  0.616800  0.783700  0.323900  1.0  0.1159
  H  H164  1  0.613600  0.722500  0.318500  1.0  0.1188
  H  H165  1  0.116800  0.283700  0.323900  1.0  0.1159
  H  H166  1  0.113600  0.222500  0.318500  1.0  0.1188
  H  H167  1  0.116800  0.783700  0.823900  1.0  0.1159
  H  H168  1  0.113600  0.722500  0.818500  1.0  0.1188
  H  H169  1  0.633200  0.466300  0.323900  1.0  0.1164
  H  H170  1  0.636400  0.527500  0.318500  1.0  0.1182
  H  H171  1  0.633200  0.966300  0.823900  1.0  0.1164
  H  H172  1  0.636400  0.027500  0.818500  1.0  0.1182
  H  H173  1  0.133200  0.466300  0.823900  1.0  0.1164
  H  H174  1  0.136400  0.527500  0.818500  1.0  0.1182
  H  H175  1  0.133200  0.966300  0.323900  1.0  0.1164
  H  H176  1  0.136400  0.027500  0.318500  1.0  0.1182
  H  H177  1  0.116800  0.966300  0.926100  1.0  0.1162
  H  H178  1  0.113600  0.027500  0.931500  1.0  0.1187
  H  H179  1  0.116800  0.466300  0.426100  1.0  0.1162
  H  H180  1  0.113600  0.527500  0.431500  1.0  0.1187
  H  H181  1  0.616800  0.966300  0.426100  1.0  0.1162
  H  H182  1  0.613600  0.027500  0.431500  1.0  0.1187
  H  H183  1  0.616800  0.466300  0.926100  1.0  0.1162
  H  H184  1  0.613600  0.527500  0.931500  1.0  0.1187
  H  H185  1  0.133200  0.783700  0.426100  1.0  0.1159
  H  H186  1  0.136400  0.722500  0.431500  1.0  0.119
  H  H187  1  0.133200  0.283700  0.926100  1.0  0.1159
  H  H188  1  0.136400  0.222500  0.931500  1.0  0.119
  H  H189  1  0.633200  0.783700  0.926100  1.0  0.1159
  H  H190  1  0.636400  0.722500  0.931500  1.0  0.119
  H  H191  1  0.633200  0.283700  0.426100  1.0  0.1159
  H  H192  1  0.636400  0.222500  0.431500  1.0  0.119
  H  H193  1  0.783700  0.426100  0.133200  1.0  0.116
  H  H194  1  0.722500  0.431500  0.136400  1.0  0.1185
  H  H195  1  0.783700  0.926100  0.633200  1.0  0.116
  H  H196  1  0.722500  0.931500  0.636400  1.0  0.1185
  H  H197  1  0.283700  0.426100  0.633200  1.0  0.116
  H  H198  1  0.222500  0.431500  0.636400  1.0  0.1185
  H  H199  1  0.283700  0.926100  0.133200  1.0  0.116
  H  H200  1  0.222500  0.931500  0.136400  1.0  0.1185
  H  H201  1  0.966300  0.926100  0.116800  1.0  0.1164
  H  H202  1  0.027500  0.931500  0.113600  1.0  0.1165
  H  H203  1  0.966300  0.426100  0.616800  1.0  0.1164
  H  H204  1  0.027500  0.431500  0.613600  1.0  0.1165
  H  H205  1  0.466300  0.926100  0.616800  1.0  0.1164
  H  H206  1  0.527500  0.931500  0.613600  1.0  0.1165
  H  H207  1  0.466300  0.426100  0.116800  1.0  0.1164
  H  H208  1  0.527500  0.431500  0.113600  1.0  0.1165
  H  H209  1  0.466300  0.323900  0.633200  1.0  0.1165
  H  H210  1  0.527500  0.318500  0.636400  1.0  0.1167
  H  H211  1  0.466300  0.823900  0.133200  1.0  0.1165
  H  H212  1  0.527500  0.818500  0.136400  1.0  0.1167
  H  H213  1  0.966300  0.323900  0.133200  1.0  0.1165
  H  H214  1  0.027500  0.318500  0.136400  1.0  0.1167
  H  H215  1  0.966300  0.823900  0.633200  1.0  0.1165
  H  H216  1  0.027500  0.818500  0.636400  1.0  0.1167
  H  H217  1  0.283700  0.823900  0.616800  1.0  0.1157
  H  H218  1  0.222500  0.818500  0.613600  1.0  0.1185
  H  H219  1  0.283700  0.323900  0.116800  1.0  0.1157
  H  H220  1  0.222500  0.318500  0.113600  1.0  0.1185
  H  H221  1  0.783700  0.823900  0.116800  1.0  0.1157
  H  H222  1  0.722500  0.818500  0.113600  1.0  0.1185
  H  H223  1  0.783700  0.323900  0.616800  1.0  0.1157
  H  H224  1  0.722500  0.318500  0.613600  1.0  0.1185
  H  H225  1  0.926100  0.116800  0.966300  1.0  0.1143
  H  H226  1  0.931500  0.113600  0.027500  1.0  0.1173
  H  H227  1  0.926100  0.616800  0.466300  1.0  0.1143
  H  H228  1  0.931500  0.613600  0.527500  1.0  0.1173
  H  H229  1  0.426100  0.116800  0.466300  1.0  0.1143
  H  H230  1  0.431500  0.113600  0.527500  1.0  0.1173
  H  H231  1  0.426100  0.616800  0.966300  1.0  0.1143
  H  H232  1  0.431500  0.613600  0.027500  1.0  0.1173
  H  H233  1  0.426100  0.133200  0.783700  1.0  0.1145
  H  H234  1  0.431500  0.136400  0.722500  1.0  0.117
  H  H235  1  0.426100  0.633200  0.283700  1.0  0.1145
  H  H236  1  0.431500  0.636400  0.222500  1.0  0.117
  H  H237  1  0.926100  0.133200  0.283700  1.0  0.1145
  H  H238  1  0.931500  0.136400  0.222500  1.0  0.117
  H  H239  1  0.926100  0.633200  0.783700  1.0  0.1145
  H  H240  1  0.931500  0.636400  0.722500  1.0  0.117
  H  H241  1  0.823900  0.616800  0.283700  1.0  0.1147
  H  H242  1  0.818500  0.613600  0.222500  1.0  0.1171
  H  H243  1  0.823900  0.116800  0.783700  1.0  0.1147
  H  H244  1  0.818500  0.113600  0.722500  1.0  0.1171
  H  H245  1  0.323900  0.616800  0.783700  1.0  0.1147
  H  H246  1  0.318500  0.613600  0.722500  1.0  0.1171
  H  H247  1  0.323900  0.116800  0.283700  1.0  0.1147
  H  H248  1  0.318500  0.113600  0.222500  1.0  0.1171
  H  H249  1  0.323900  0.633200  0.466300  1.0  0.1139
  H  H250  1  0.318500  0.636400  0.527500  1.0  0.1165
  H  H251  1  0.323900  0.133200  0.966300  1.0  0.1139
  H  H252  1  0.318500  0.136400  0.027500  1.0  0.1165
  H  H253  1  0.823900  0.633200  0.966300  1.0  0.1139
  H  H254  1  0.818500  0.636400  0.027500  1.0  0.1165
  H  H255  1  0.823900  0.133200  0.466300  1.0  0.1139
  H  H256  1  0.818500  0.136400  0.527500  1.0  0.1165
  H  H257  1  0.966300  0.133200  0.823900  1.0  0.1165
  H  H258  1  0.027500  0.136400  0.818500  1.0  0.117
  H  H259  1  0.966300  0.633200  0.323900  1.0  0.1165
  H  H260  1  0.027500  0.636400  0.318500  1.0  0.117
  H  H261  1  0.466300  0.133200  0.323900  1.0  0.1165
  H  H262  1  0.527500  0.136400  0.318500  1.0  0.117
  H  H263  1  0.466300  0.633200  0.823900  1.0  0.1165
  H  H264  1  0.527500  0.636400  0.818500  1.0  0.117
  H  H265  1  0.783700  0.116800  0.323900  1.0  0.1158
  H  H266  1  0.722500  0.113600  0.318500  1.0  0.1187
  H  H267  1  0.783700  0.616800  0.823900  1.0  0.1158
  H  H268  1  0.722500  0.613600  0.818500  1.0  0.1187
  H  H269  1  0.283700  0.116800  0.823900  1.0  0.1158
  H  H270  1  0.222500  0.113600  0.818500  1.0  0.1187
  H  H271  1  0.283700  0.616800  0.323900  1.0  0.1158
  H  H272  1  0.222500  0.613600  0.318500  1.0  0.1187
  H  H273  1  0.283700  0.633200  0.926100  1.0  0.1155
  H  H274  1  0.222500  0.636400  0.931500  1.0  0.1191
  H  H275  1  0.283700  0.133200  0.426100  1.0  0.1155
  H  H276  1  0.222500  0.136400  0.431500  1.0  0.1191
  H  H277  1  0.783700  0.633200  0.426100  1.0  0.1155
  H  H278  1  0.722500  0.636400  0.431500  1.0  0.1191
  H  H279  1  0.783700  0.133200  0.926100  1.0  0.1155
  H  H280  1  0.722500  0.136400  0.931500  1.0  0.1191
  H  H281  1  0.466300  0.616800  0.426100  1.0  0.1161
  H  H282  1  0.527500  0.613600  0.431500  1.0  0.1172
  H  H283  1  0.466300  0.116800  0.926100  1.0  0.1161
  H  H284  1  0.527500  0.113600  0.931500  1.0  0.1172
  H  H285  1  0.966300  0.616800  0.926100  1.0  0.1161
  H  H286  1  0.027500  0.613600  0.931500  1.0  0.1172
  H  H287  1  0.966300  0.116800  0.426100  1.0  0.1161
  H  H288  1  0.027500  0.113600  0.431500  1.0  0.1172
  H  H289  1  0.823900  0.966300  0.133200  1.0  0.1166
  H  H290  1  0.818500  0.027500  0.136400  1.0  0.1181
  H  H291  1  0.823900  0.466300  0.633200  1.0  0.1166
  H  H292  1  0.818500  0.527500  0.636400  1.0  0.1181
  H  H293  1  0.323900  0.966300  0.633200  1.0  0.1166
  H  H294  1  0.318500  0.027500  0.636400  1.0  0.1181
  H  H295  1  0.323900  0.466300  0.133200  1.0  0.1166
  H  H296  1  0.318500  0.527500  0.136400  1.0  0.1181
  H  H297  1  0.323900  0.783700  0.116800  1.0  0.1162
  H  H298  1  0.318500  0.722500  0.113600  1.0  0.1185
  H  H299  1  0.323900  0.283700  0.616800  1.0  0.1162
  H  H300  1  0.318500  0.222500  0.613600  1.0  0.1185
  H  H301  1  0.823900  0.783700  0.616800  1.0  0.1162
  H  H302  1  0.818500  0.722500  0.613600  1.0  0.1185
  H  H303  1  0.823900  0.283700  0.116800  1.0  0.1162
  H  H304  1  0.818500  0.222500  0.113600  1.0  0.1185
  H  H305  1  0.926100  0.283700  0.633200  1.0  0.1161
  H  H306  1  0.931500  0.222500  0.636400  1.0  0.1191
  H  H307  1  0.926100  0.783700  0.133200  1.0  0.1161
  H  H308  1  0.931500  0.722500  0.136400  1.0  0.1191
  H  H309  1  0.426100  0.283700  0.133200  1.0  0.1161
  H  H310  1  0.431500  0.222500  0.136400  1.0  0.1191
  H  H311  1  0.426100  0.783700  0.633200  1.0  0.1161
  H  H312  1  0.431500  0.722500  0.636400  1.0  0.1191
  H  H313  1  0.426100  0.466300  0.616800  1.0  0.1165
  H  H314  1  0.431500  0.527500  0.613600  1.0  0.1186
  H  H315  1  0.426100  0.966300  0.116800  1.0  0.1165
  H  H316  1  0.431500  0.027500  0.113600  1.0  0.1186
  H  H317  1  0.926100  0.466300  0.116800  1.0  0.1165
  H  H318  1  0.931500  0.527500  0.113600  1.0  0.1186
  H  H319  1  0.926100  0.966300  0.616800  1.0  0.1165
  H  H320  1  0.931500  0.027500  0.613600  1.0  0.1186
  H  H321  1  0.133200  0.823900  0.966300  1.0  0.1136
  H  H322  1  0.136400  0.818500  0.027500  1.0  0.1167
  H  H323  1  0.133200  0.323900  0.466300  1.0  0.1136
  H  H324  1  0.136400  0.318500  0.527500  1.0  0.1167
  H  H325  1  0.633200  0.823900  0.466300  1.0  0.1136
  H  H326  1  0.636400  0.818500  0.527500  1.0  0.1167
  H  H327  1  0.633200  0.323900  0.966300  1.0  0.1136
  H  H328  1  0.636400  0.318500  0.027500  1.0  0.1167
  H  H329  1  0.116800  0.323900  0.783700  1.0  0.1145
  H  H330  1  0.113600  0.318500  0.722500  1.0  0.1165
  H  H331  1  0.116800  0.823900  0.283700  1.0  0.1145
  H  H332  1  0.113600  0.818500  0.222500  1.0  0.1165
  H  H333  1  0.616800  0.323900  0.283700  1.0  0.1145
  H  H334  1  0.613600  0.318500  0.222500  1.0  0.1165
  H  H335  1  0.616800  0.823900  0.783700  1.0  0.1145
  H  H336  1  0.613600  0.818500  0.722500  1.0  0.1165
  H  H337  1  0.633200  0.926100  0.283700  1.0  0.1147
  H  H338  1  0.636400  0.931500  0.222500  1.0  0.1166
  H  H339  1  0.633200  0.426100  0.783700  1.0  0.1147
  H  H340  1  0.636400  0.431500  0.722500  1.0  0.1166
  H  H341  1  0.133200  0.926100  0.783700  1.0  0.1147
  H  H342  1  0.136400  0.931500  0.722500  1.0  0.1166
  H  H343  1  0.133200  0.426100  0.283700  1.0  0.1147
  H  H344  1  0.136400  0.431500  0.222500  1.0  0.1166
  H  H345  1  0.616800  0.426100  0.466300  1.0  0.1144
  H  H346  1  0.613600  0.431500  0.527500  1.0  0.1165
  H  H347  1  0.616800  0.926100  0.966300  1.0  0.1144
  H  H348  1  0.613600  0.931500  0.027500  1.0  0.1165
  H  H349  1  0.116800  0.426100  0.966300  1.0  0.1144
  H  H350  1  0.113600  0.431500  0.027500  1.0  0.1165
  H  H351  1  0.116800  0.926100  0.466300  1.0  0.1144
  H  H352  1  0.113600  0.931500  0.527500  1.0  0.1165
  H  H353  1  0.383200  0.716300  0.176100  1.0  0.1159
  H  H354  1  0.386400  0.777500  0.181500  1.0  0.1183
  H  H355  1  0.383200  0.216300  0.676100  1.0  0.1159
  H  H356  1  0.386400  0.277500  0.681500  1.0  0.1183
  H  H357  1  0.883200  0.716300  0.676100  1.0  0.1159
  H  H358  1  0.886400  0.777500  0.681500  1.0  0.1183
  H  H359  1  0.883200  0.216300  0.176100  1.0  0.1159
  H  H360  1  0.886400  0.277500  0.181500  1.0  0.1183
  H  H361  1  0.366800  0.533700  0.676100  1.0  0.1161
  H  H362  1  0.363600  0.472500  0.681500  1.0  0.119
  H  H363  1  0.366800  0.033700  0.176100  1.0  0.1161
  H  H364  1  0.363600  0.972500  0.181500  1.0  0.119
  H  H365  1  0.866800  0.533700  0.176100  1.0  0.1161
  H  H366  1  0.863600  0.472500  0.181500  1.0  0.119
  H  H367  1  0.866800  0.033700  0.676100  1.0  0.1161
  H  H368  1  0.863600  0.972500  0.681500  1.0  0.119
  H  H369  1  0.883200  0.033700  0.073900  1.0  0.1159
  H  H370  1  0.886400  0.972500  0.068500  1.0  0.1189
  H  H371  1  0.883200  0.533700  0.573900  1.0  0.1159
  H  H372  1  0.886400  0.472500  0.568500  1.0  0.1189
  H  H373  1  0.383200  0.033700  0.573900  1.0  0.1159
  H  H374  1  0.386400  0.972500  0.568500  1.0  0.1189
  H  H375  1  0.383200  0.533700  0.073900  1.0  0.1159
  H  H376  1  0.386400  0.472500  0.068500  1.0  0.1189
  H  H377  1  0.866800  0.216300  0.573900  1.0  0.1165
  H  H378  1  0.863600  0.277500  0.568500  1.0  0.1184
  H  H379  1  0.866800  0.716300  0.073900  1.0  0.1165
  H  H380  1  0.863600  0.777500  0.068500  1.0  0.1184
  H  H381  1  0.366800  0.216300  0.073900  1.0  0.1165
  H  H382  1  0.363600  0.277500  0.068500  1.0  0.1184
  H  H383  1  0.366800  0.716300  0.573900  1.0  0.1165
  H  H384  1  0.363600  0.777500  0.568500  1.0  0.1184
  H  H385  1  0.216300  0.573900  0.866800  1.0  0.1166
  H  H386  1  0.277500  0.568500  0.863600  1.0  0.1163
  H  H387  1  0.216300  0.073900  0.366800  1.0  0.1166
  H  H388  1  0.277500  0.068500  0.363600  1.0  0.1163
  H  H389  1  0.716300  0.573900  0.366800  1.0  0.1166
  H  H390  1  0.777500  0.568500  0.363600  1.0  0.1163
  H  H391  1  0.716300  0.073900  0.866800  1.0  0.1166
  H  H392  1  0.777500  0.068500  0.863600  1.0  0.1163
  H  H393  1  0.033700  0.073900  0.883200  1.0  0.1157
  H  H394  1  0.972500  0.068500  0.886400  1.0  0.1187
  H  H395  1  0.033700  0.573900  0.383200  1.0  0.1157
  H  H396  1  0.972500  0.568500  0.386400  1.0  0.1187
  H  H397  1  0.533700  0.073900  0.383200  1.0  0.1157
  H  H398  1  0.472500  0.068500  0.386400  1.0  0.1187
  H  H399  1  0.533700  0.573900  0.883200  1.0  0.1157
  H  H400  1  0.472500  0.568500  0.886400  1.0  0.1187
  H  H401  1  0.533700  0.676100  0.366800  1.0  0.1158
  H  H402  1  0.472500  0.681500  0.363600  1.0  0.1186
  H  H403  1  0.533700  0.176100  0.866800  1.0  0.1158
  H  H404  1  0.472500  0.181500  0.863600  1.0  0.1186
  H  H405  1  0.033700  0.676100  0.866800  1.0  0.1158
  H  H406  1  0.972500  0.681500  0.863600  1.0  0.1186
  H  H407  1  0.033700  0.176100  0.366800  1.0  0.1158
  H  H408  1  0.972500  0.181500  0.363600  1.0  0.1186
  H  H409  1  0.716300  0.176100  0.383200  1.0  0.1166
  H  H410  1  0.777500  0.181500  0.386400  1.0  0.1167
  H  H411  1  0.716300  0.676100  0.883200  1.0  0.1166
  H  H412  1  0.777500  0.681500  0.886400  1.0  0.1167
  H  H413  1  0.216300  0.176100  0.883200  1.0  0.1166
  H  H414  1  0.277500  0.181500  0.886400  1.0  0.1167
  H  H415  1  0.216300  0.676100  0.383200  1.0  0.1166
  H  H416  1  0.277500  0.681500  0.386400  1.0  0.1167
  H  H417  1  0.073900  0.883200  0.033700  1.0  0.1148
  H  H418  1  0.068500  0.886400  0.972500  1.0  0.1167
  H  H419  1  0.073900  0.383200  0.533700  1.0  0.1148
  H  H420  1  0.068500  0.386400  0.472500  1.0  0.1167
  H  H421  1  0.573900  0.883200  0.533700  1.0  0.1148
  H  H422  1  0.568500  0.886400  0.472500  1.0  0.1167
  H  H423  1  0.573900  0.383200  0.033700  1.0  0.1148
  H  H424  1  0.568500  0.386400  0.972500  1.0  0.1167
  H  H425  1  0.573900  0.866800  0.216300  1.0  0.114
  H  H426  1  0.568500  0.863600  0.277500  1.0  0.117
  H  H427  1  0.573900  0.366800  0.716300  1.0  0.114
  H  H428  1  0.568500  0.363600  0.777500  1.0  0.117
  H  H429  1  0.073900  0.866800  0.716300  1.0  0.114
  H  H430  1  0.068500  0.863600  0.777500  1.0  0.117
  H  H431  1  0.073900  0.366800  0.216300  1.0  0.114
  H  H432  1  0.068500  0.363600  0.277500  1.0  0.117
  H  H433  1  0.176100  0.383200  0.716300  1.0  0.1141
  H  H434  1  0.181500  0.386400  0.777500  1.0  0.1168
  H  H435  1  0.176100  0.883200  0.216300  1.0  0.1141
  H  H436  1  0.181500  0.886400  0.277500  1.0  0.1168
  H  H437  1  0.676100  0.383200  0.216300  1.0  0.1141
  H  H438  1  0.681500  0.386400  0.277500  1.0  0.1168
  H  H439  1  0.676100  0.883200  0.716300  1.0  0.1141
  H  H440  1  0.681500  0.886400  0.777500  1.0  0.1168
  H  H441  1  0.676100  0.366800  0.533700  1.0  0.1147
  H  H442  1  0.681500  0.363600  0.472500  1.0  0.1172
  H  H443  1  0.676100  0.866800  0.033700  1.0  0.1147
  H  H444  1  0.681500  0.863600  0.972500  1.0  0.1172
  H  H445  1  0.176100  0.366800  0.033700  1.0  0.1147
  H  H446  1  0.181500  0.363600  0.972500  1.0  0.1172
  H  H447  1  0.176100  0.866800  0.533700  1.0  0.1147
  H  H448  1  0.181500  0.863600  0.472500  1.0  0.1172
  C  C449  1  0.009200  0.874500  0.252700  1.0  0.7375
  C  C450  1  0.003600  0.881500  0.193800  1.0  -0.0217
  C  C451  1  0.009200  0.374500  0.752700  1.0  0.7375
  C  C452  1  0.003600  0.381500  0.693800  1.0  -0.0217
  C  C453  1  0.509200  0.874500  0.752700  1.0  0.7375
  C  C454  1  0.503600  0.881500  0.693800  1.0  -0.0217
  C  C455  1  0.509200  0.374500  0.252700  1.0  0.7375
  C  C456  1  0.503600  0.381500  0.193800  1.0  -0.0217
  C  C457  1  0.240800  0.875500  0.752700  1.0  0.7375
  C  C458  1  0.246400  0.868500  0.693800  1.0  -0.0217
  C  C459  1  0.240800  0.375500  0.252700  1.0  0.7375
  C  C460  1  0.246400  0.368500  0.193800  1.0  -0.0217
  C  C461  1  0.740800  0.875500  0.252700  1.0  0.7375
  C  C462  1  0.746400  0.868500  0.193800  1.0  -0.0217
  C  C463  1  0.740800  0.375500  0.752700  1.0  0.7375
  C  C464  1  0.746400  0.368500  0.693800  1.0  -0.0217
  C  C465  1  0.740800  0.374500  0.997300  1.0  0.7354
  C  C466  1  0.746400  0.381500  0.056200  1.0  -0.0202
  C  C467  1  0.740800  0.874500  0.497300  1.0  0.7354
  C  C468  1  0.746400  0.881500  0.556200  1.0  -0.0202
  C  C469  1  0.240800  0.374500  0.497300  1.0  0.7354
  C  C470  1  0.246400  0.381500  0.556200  1.0  -0.0202
  C  C471  1  0.240800  0.874500  0.997300  1.0  0.7354
  C  C472  1  0.246400  0.881500  0.056200  1.0  -0.0202
  C  C473  1  0.509200  0.375500  0.497300  1.0  0.7357
  C  C474  1  0.503600  0.368500  0.556200  1.0  -0.0201
  C  C475  1  0.509200  0.875500  0.997300  1.0  0.7357
  C  C476  1  0.503600  0.868500  0.056200  1.0  -0.0201
  C  C477  1  0.009200  0.375500  0.997300  1.0  0.7357
  C  C478  1  0.003600  0.368500  0.056200  1.0  -0.0201
  C  C479  1  0.009200  0.875500  0.497300  1.0  0.7357
  C  C480  1  0.003600  0.868500  0.556200  1.0  -0.0201
  C  C481  1  0.252700  0.009200  0.874500  1.0  0.7288
  C  C482  1  0.193800  0.003600  0.881500  1.0  -0.0222
  C  C483  1  0.252700  0.509200  0.374500  1.0  0.7288
  C  C484  1  0.193800  0.503600  0.381500  1.0  -0.0222
  C  C485  1  0.752700  0.009200  0.374500  1.0  0.7288
  C  C486  1  0.693800  0.003600  0.381500  1.0  -0.0222
  C  C487  1  0.752700  0.509200  0.874500  1.0  0.7288
  C  C488  1  0.693800  0.503600  0.881500  1.0  -0.0222
  C  C489  1  0.752700  0.240800  0.875500  1.0  0.7285
  C  C490  1  0.693800  0.246400  0.868500  1.0  -0.0234
  C  C491  1  0.752700  0.740800  0.375500  1.0  0.7285
  C  C492  1  0.693800  0.746400  0.368500  1.0  -0.0234
  C  C493  1  0.252700  0.240800  0.375500  1.0  0.7285
  C  C494  1  0.193800  0.246400  0.368500  1.0  -0.0234
  C  C495  1  0.252700  0.740800  0.875500  1.0  0.7285
  C  C496  1  0.193800  0.746400  0.868500  1.0  -0.0234
  C  C497  1  0.997300  0.740800  0.374500  1.0  0.7279
  C  C498  1  0.056200  0.746400  0.381500  1.0  -0.0217
  C  C499  1  0.997300  0.240800  0.874500  1.0  0.7279
  C  C500  1  0.056200  0.246400  0.881500  1.0  -0.0217
  C  C501  1  0.497300  0.740800  0.874500  1.0  0.7279
  C  C502  1  0.556200  0.746400  0.881500  1.0  -0.0217
  C  C503  1  0.497300  0.240800  0.374500  1.0  0.7279
  C  C504  1  0.556200  0.246400  0.381500  1.0  -0.0217
  C  C505  1  0.497300  0.509200  0.375500  1.0  0.7283
  C  C506  1  0.556200  0.503600  0.368500  1.0  -0.0207
  C  C507  1  0.497300  0.009200  0.875500  1.0  0.7283
  C  C508  1  0.556200  0.003600  0.868500  1.0  -0.0207
  C  C509  1  0.997300  0.509200  0.875500  1.0  0.7283
  C  C510  1  0.056200  0.503600  0.868500  1.0  -0.0207
  C  C511  1  0.997300  0.009200  0.375500  1.0  0.7283
  C  C512  1  0.056200  0.003600  0.368500  1.0  -0.0207
  C  C513  1  0.874500  0.252700  0.009200  1.0  0.7288
  C  C514  1  0.881500  0.193800  0.003600  1.0  -0.0225
  C  C515  1  0.874500  0.752700  0.509200  1.0  0.7288
  C  C516  1  0.881500  0.693800  0.503600  1.0  -0.0225
  C  C517  1  0.374500  0.252700  0.509200  1.0  0.7288
  C  C518  1  0.381500  0.193800  0.503600  1.0  -0.0225
  C  C519  1  0.374500  0.752700  0.009200  1.0  0.7288
  C  C520  1  0.381500  0.693800  0.003600  1.0  -0.0225
  C  C521  1  0.875500  0.752700  0.240800  1.0  0.7288
  C  C522  1  0.868500  0.693800  0.246400  1.0  -0.0204
  C  C523  1  0.875500  0.252700  0.740800  1.0  0.7288
  C  C524  1  0.868500  0.193800  0.746400  1.0  -0.0204
  C  C525  1  0.375500  0.752700  0.740800  1.0  0.7288
  C  C526  1  0.368500  0.693800  0.746400  1.0  -0.0204
  C  C527  1  0.375500  0.252700  0.240800  1.0  0.7288
  C  C528  1  0.368500  0.193800  0.246400  1.0  -0.0204
  C  C529  1  0.374500  0.997300  0.740800  1.0  0.7272
  C  C530  1  0.381500  0.056200  0.746400  1.0  -0.0208
  C  C531  1  0.374500  0.497300  0.240800  1.0  0.7272
  C  C532  1  0.381500  0.556200  0.246400  1.0  -0.0208
  C  C533  1  0.874500  0.997300  0.240800  1.0  0.7272
  C  C534  1  0.881500  0.056200  0.246400  1.0  -0.0208
  C  C535  1  0.874500  0.497300  0.740800  1.0  0.7272
  C  C536  1  0.881500  0.556200  0.746400  1.0  -0.0208
  C  C537  1  0.375500  0.497300  0.509200  1.0  0.7276
  C  C538  1  0.368500  0.556200  0.503600  1.0  -0.0188
  C  C539  1  0.375500  0.997300  0.009200  1.0  0.7276
  C  C540  1  0.368500  0.056200  0.003600  1.0  -0.0188
  C  C541  1  0.875500  0.497300  0.009200  1.0  0.7276
  C  C542  1  0.868500  0.556200  0.003600  1.0  -0.0188
  C  C543  1  0.875500  0.997300  0.509200  1.0  0.7276
  C  C544  1  0.868500  0.056200  0.503600  1.0  -0.0188
  C  C545  1  0.624500  0.259200  0.747300  1.0  0.735
  C  C546  1  0.631500  0.253600  0.806200  1.0  -0.021
  C  C547  1  0.624500  0.759200  0.247300  1.0  0.735
  C  C548  1  0.631500  0.753600  0.306200  1.0  -0.021
  C  C549  1  0.124500  0.259200  0.247300  1.0  0.735
  C  C550  1  0.131500  0.253600  0.306200  1.0  -0.021
  C  C551  1  0.124500  0.759200  0.747300  1.0  0.735
  C  C552  1  0.131500  0.753600  0.806200  1.0  -0.021
  C  C553  1  0.625500  0.490800  0.247300  1.0  0.7346
  C  C554  1  0.618500  0.496400  0.306200  1.0  -0.0196
  C  C555  1  0.625500  0.990800  0.747300  1.0  0.7346
  C  C556  1  0.618500  0.996400  0.806200  1.0  -0.0196
  C  C557  1  0.125500  0.490800  0.747300  1.0  0.7346
  C  C558  1  0.118500  0.496400  0.806200  1.0  -0.0196
  C  C559  1  0.125500  0.990800  0.247300  1.0  0.7346
  C  C560  1  0.118500  0.996400  0.306200  1.0  -0.0196
  C  C561  1  0.124500  0.990800  0.002700  1.0  0.7368
  C  C562  1  0.131500  0.996400  0.943800  1.0  -0.0236
  C  C563  1  0.124500  0.490800  0.502700  1.0  0.7368
  C  C564  1  0.131500  0.496400  0.443800  1.0  -0.0236
  C  C565  1  0.624500  0.990800  0.502700  1.0  0.7368
  C  C566  1  0.631500  0.996400  0.443800  1.0  -0.0236
  C  C567  1  0.624500  0.490800  0.002700  1.0  0.7368
  C  C568  1  0.631500  0.496400  0.943800  1.0  -0.0236
  C  C569  1  0.125500  0.759200  0.502700  1.0  0.7365
  C  C570  1  0.118500  0.753600  0.443800  1.0  -0.0204
  C  C571  1  0.125500  0.259200  0.002700  1.0  0.7365
  C  C572  1  0.118500  0.253600  0.943800  1.0  -0.0204
  C  C573  1  0.625500  0.759200  0.002700  1.0  0.7365
  C  C574  1  0.618500  0.753600  0.943800  1.0  -0.0204
  C  C575  1  0.625500  0.259200  0.502700  1.0  0.7365
  C  C576  1  0.618500  0.253600  0.443800  1.0  -0.0204
  C  C577  1  0.759200  0.502700  0.125500  1.0  0.7283
  C  C578  1  0.753600  0.443800  0.118500  1.0  -0.0205
  C  C579  1  0.759200  0.002700  0.625500  1.0  0.7283
  C  C580  1  0.753600  0.943800  0.618500  1.0  -0.0205
  C  C581  1  0.259200  0.502700  0.625500  1.0  0.7283
  C  C582  1  0.253600  0.443800  0.618500  1.0  -0.0205
  C  C583  1  0.259200  0.002700  0.125500  1.0  0.7283
  C  C584  1  0.253600  0.943800  0.118500  1.0  -0.0205
  C  C585  1  0.990800  0.002700  0.124500  1.0  0.728
  C  C586  1  0.996400  0.943800  0.131500  1.0  -0.02
  C  C587  1  0.990800  0.502700  0.624500  1.0  0.728
  C  C588  1  0.996400  0.443800  0.631500  1.0  -0.02
  C  C589  1  0.490800  0.002700  0.624500  1.0  0.728
  C  C590  1  0.496400  0.943800  0.631500  1.0  -0.02
  C  C591  1  0.490800  0.502700  0.124500  1.0  0.728
  C  C592  1  0.496400  0.443800  0.131500  1.0  -0.02
  C  C593  1  0.490800  0.247300  0.625500  1.0  0.727
  C  C594  1  0.496400  0.306200  0.618500  1.0  -0.0187
  C  C595  1  0.490800  0.747300  0.125500  1.0  0.727
  C  C596  1  0.496400  0.806200  0.118500  1.0  -0.0187
  C  C597  1  0.990800  0.247300  0.125500  1.0  0.727
  C  C598  1  0.996400  0.306200  0.118500  1.0  -0.0187
  C  C599  1  0.990800  0.747300  0.625500  1.0  0.727
  C  C600  1  0.996400  0.806200  0.618500  1.0  -0.0187
  C  C601  1  0.259200  0.747300  0.624500  1.0  0.7277
  C  C602  1  0.253600  0.806200  0.631500  1.0  -0.0187
  C  C603  1  0.259200  0.247300  0.124500  1.0  0.7277
  C  C604  1  0.253600  0.306200  0.131500  1.0  -0.0187
  C  C605  1  0.759200  0.747300  0.124500  1.0  0.7277
  C  C606  1  0.753600  0.806200  0.131500  1.0  -0.0187
  C  C607  1  0.759200  0.247300  0.624500  1.0  0.7277
  C  C608  1  0.753600  0.306200  0.631500  1.0  -0.0187
  C  C609  1  0.002700  0.124500  0.990800  1.0  0.73
  C  C610  1  0.943800  0.131500  0.996400  1.0  -0.0243
  C  C611  1  0.002700  0.624500  0.490800  1.0  0.73
  C  C612  1  0.943800  0.631500  0.496400  1.0  -0.0243
  C  C613  1  0.502700  0.124500  0.490800  1.0  0.73
  C  C614  1  0.443800  0.131500  0.496400  1.0  -0.0243
  C  C615  1  0.502700  0.624500  0.990800  1.0  0.73
  C  C616  1  0.443800  0.631500  0.996400  1.0  -0.0243
  C  C617  1  0.502700  0.125500  0.759200  1.0  0.7295
  C  C618  1  0.443800  0.118500  0.753600  1.0  -0.0238
  C  C619  1  0.502700  0.625500  0.259200  1.0  0.7295
  C  C620  1  0.443800  0.618500  0.253600  1.0  -0.0238
  C  C621  1  0.002700  0.125500  0.259200  1.0  0.7295
  C  C622  1  0.943800  0.118500  0.253600  1.0  -0.0238
  C  C623  1  0.002700  0.625500  0.759200  1.0  0.7295
  C  C624  1  0.943800  0.618500  0.753600  1.0  -0.0238
  C  C625  1  0.747300  0.624500  0.259200  1.0  0.7295
  C  C626  1  0.806200  0.631500  0.253600  1.0  -0.0223
  C  C627  1  0.747300  0.124500  0.759200  1.0  0.7295
  C  C628  1  0.806200  0.131500  0.753600  1.0  -0.0223
  C  C629  1  0.247300  0.624500  0.759200  1.0  0.7295
  C  C630  1  0.306200  0.631500  0.753600  1.0  -0.0223
  C  C631  1  0.247300  0.124500  0.259200  1.0  0.7295
  C  C632  1  0.306200  0.131500  0.253600  1.0  -0.0223
  C  C633  1  0.247300  0.625500  0.490800  1.0  0.7292
  C  C634  1  0.306200  0.618500  0.496400  1.0  -0.0226
  C  C635  1  0.247300  0.125500  0.990800  1.0  0.7292
  C  C636  1  0.306200  0.118500  0.996400  1.0  -0.0226
  C  C637  1  0.747300  0.625500  0.990800  1.0  0.7292
  C  C638  1  0.806200  0.618500  0.996400  1.0  -0.0226
  C  C639  1  0.747300  0.125500  0.490800  1.0  0.7292
  C  C640  1  0.806200  0.118500  0.496400  1.0  -0.0226
  C  C641  1  0.990800  0.125500  0.747300  1.0  0.7353
  C  C642  1  0.996400  0.118500  0.806200  1.0  -0.0202
  C  C643  1  0.990800  0.625500  0.247300  1.0  0.7353
  C  C644  1  0.996400  0.618500  0.306200  1.0  -0.0202
  C  C645  1  0.490800  0.125500  0.247300  1.0  0.7353
  C  C646  1  0.496400  0.118500  0.306200  1.0  -0.0202
  C  C647  1  0.490800  0.625500  0.747300  1.0  0.7353
  C  C648  1  0.496400  0.618500  0.806200  1.0  -0.0202
  C  C649  1  0.759200  0.124500  0.247300  1.0  0.7357
  C  C650  1  0.753600  0.131500  0.306200  1.0  -0.02
  C  C651  1  0.759200  0.624500  0.747300  1.0  0.7357
  C  C652  1  0.753600  0.631500  0.806200  1.0  -0.02
  C  C653  1  0.259200  0.124500  0.747300  1.0  0.7357
  C  C654  1  0.253600  0.131500  0.806200  1.0  -0.02
  C  C655  1  0.259200  0.624500  0.247300  1.0  0.7357
  C  C656  1  0.253600  0.631500  0.306200  1.0  -0.02
  C  C657  1  0.259200  0.625500  0.002700  1.0  0.7374
  C  C658  1  0.253600  0.618500  0.943800  1.0  -0.0216
  C  C659  1  0.259200  0.125500  0.502700  1.0  0.7374
  C  C660  1  0.253600  0.118500  0.443800  1.0  -0.0216
  C  C661  1  0.759200  0.625500  0.502700  1.0  0.7374
  C  C662  1  0.753600  0.618500  0.443800  1.0  -0.0216
  C  C663  1  0.759200  0.125500  0.002700  1.0  0.7374
  C  C664  1  0.753600  0.118500  0.943800  1.0  -0.0216
  C  C665  1  0.490800  0.624500  0.502700  1.0  0.7376
  C  C666  1  0.496400  0.631500  0.443800  1.0  -0.0218
  C  C667  1  0.490800  0.124500  0.002700  1.0  0.7376
  C  C668  1  0.496400  0.131500  0.943800  1.0  -0.0218
  C  C669  1  0.990800  0.624500  0.002700  1.0  0.7376
  C  C670  1  0.996400  0.631500  0.943800  1.0  -0.0218
  C  C671  1  0.990800  0.124500  0.502700  1.0  0.7376
  C  C672  1  0.996400  0.131500  0.443800  1.0  -0.0218
  C  C673  1  0.747300  0.990800  0.125500  1.0  0.7276
  C  C674  1  0.806200  0.996400  0.118500  1.0  -0.0215
  C  C675  1  0.747300  0.490800  0.625500  1.0  0.7276
  C  C676  1  0.806200  0.496400  0.618500  1.0  -0.0215
  C  C677  1  0.247300  0.990800  0.625500  1.0  0.7276
  C  C678  1  0.306200  0.996400  0.618500  1.0  -0.0215
  C  C679  1  0.247300  0.490800  0.125500  1.0  0.7276
  C  C680  1  0.306200  0.496400  0.118500  1.0  -0.0215
  C  C681  1  0.247300  0.759200  0.124500  1.0  0.7285
  C  C682  1  0.306200  0.753600  0.131500  1.0  -0.0208
  C  C683  1  0.247300  0.259200  0.624500  1.0  0.7285
  C  C684  1  0.306200  0.253600  0.631500  1.0  -0.0208
  C  C685  1  0.747300  0.759200  0.624500  1.0  0.7285
  C  C686  1  0.806200  0.753600  0.631500  1.0  -0.0208
  C  C687  1  0.747300  0.259200  0.124500  1.0  0.7285
  C  C688  1  0.806200  0.253600  0.131500  1.0  -0.0208
  C  C689  1  0.002700  0.259200  0.625500  1.0  0.7287
  C  C690  1  0.943800  0.253600  0.618500  1.0  -0.0226
  C  C691  1  0.002700  0.759200  0.125500  1.0  0.7287
  C  C692  1  0.943800  0.753600  0.118500  1.0  -0.0226
  C  C693  1  0.502700  0.259200  0.125500  1.0  0.7287
  C  C694  1  0.443800  0.253600  0.118500  1.0  -0.0226
  C  C695  1  0.502700  0.759200  0.625500  1.0  0.7287
  C  C696  1  0.443800  0.753600  0.618500  1.0  -0.0226
  C  C697  1  0.502700  0.490800  0.624500  1.0  0.7285
  C  C698  1  0.443800  0.496400  0.631500  1.0  -0.0231
  C  C699  1  0.502700  0.990800  0.124500  1.0  0.7285
  C  C700  1  0.443800  0.996400  0.131500  1.0  -0.0231
  C  C701  1  0.002700  0.490800  0.124500  1.0  0.7285
  C  C702  1  0.943800  0.496400  0.131500  1.0  -0.0231
  C  C703  1  0.002700  0.990800  0.624500  1.0  0.7285
  C  C704  1  0.943800  0.996400  0.631500  1.0  -0.0231
  C  C705  1  0.125500  0.747300  0.990800  1.0  0.7274
  C  C706  1  0.118500  0.806200  0.996400  1.0  -0.019
  C  C707  1  0.125500  0.247300  0.490800  1.0  0.7274
  C  C708  1  0.118500  0.306200  0.496400  1.0  -0.019
  C  C709  1  0.625500  0.747300  0.490800  1.0  0.7274
  C  C710  1  0.618500  0.806200  0.496400  1.0  -0.019
  C  C711  1  0.625500  0.247300  0.990800  1.0  0.7274
  C  C712  1  0.618500  0.306200  0.996400  1.0  -0.019
  C  C713  1  0.124500  0.247300  0.759200  1.0  0.7274
  C  C714  1  0.131500  0.306200  0.753600  1.0  -0.0207
  C  C715  1  0.124500  0.747300  0.259200  1.0  0.7274
  C  C716  1  0.131500  0.806200  0.253600  1.0  -0.0207
  C  C717  1  0.624500  0.247300  0.259200  1.0  0.7274
  C  C718  1  0.631500  0.306200  0.253600  1.0  -0.0207
  C  C719  1  0.624500  0.747300  0.759200  1.0  0.7274
  C  C720  1  0.631500  0.806200  0.753600  1.0  -0.0207
  C  C721  1  0.625500  0.002700  0.259200  1.0  0.7288
  C  C722  1  0.618500  0.943800  0.253600  1.0  -0.02
  C  C723  1  0.625500  0.502700  0.759200  1.0  0.7288
  C  C724  1  0.618500  0.443800  0.753600  1.0  -0.02
  C  C725  1  0.125500  0.002700  0.759200  1.0  0.7288
  C  C726  1  0.118500  0.943800  0.753600  1.0  -0.02
  C  C727  1  0.125500  0.502700  0.259200  1.0  0.7288
  C  C728  1  0.118500  0.443800  0.253600  1.0  -0.02
  C  C729  1  0.624500  0.502700  0.490800  1.0  0.7287
  C  C730  1  0.631500  0.443800  0.496400  1.0  -0.0229
  C  C731  1  0.624500  0.002700  0.990800  1.0  0.7287
  C  C732  1  0.631500  0.943800  0.996400  1.0  -0.0229
  C  C733  1  0.124500  0.502700  0.990800  1.0  0.7287
  C  C734  1  0.131500  0.443800  0.996400  1.0  -0.0229
  C  C735  1  0.124500  0.002700  0.490800  1.0  0.7287
  C  C736  1  0.131500  0.943800  0.496400  1.0  -0.0229
  C  C737  1  0.375500  0.740800  0.252700  1.0  0.7369
  C  C738  1  0.368500  0.746400  0.193800  1.0  -0.0212
  C  C739  1  0.375500  0.240800  0.752700  1.0  0.7369
  C  C740  1  0.368500  0.246400  0.693800  1.0  -0.0212
  C  C741  1  0.875500  0.740800  0.752700  1.0  0.7369
  C  C742  1  0.868500  0.746400  0.693800  1.0  -0.0212
  C  C743  1  0.875500  0.240800  0.252700  1.0  0.7369
  C  C744  1  0.868500  0.246400  0.193800  1.0  -0.0212
  C  C745  1  0.374500  0.509200  0.752700  1.0  0.7363
  C  C746  1  0.381500  0.503600  0.693800  1.0  -0.0228
  C  C747  1  0.374500  0.009200  0.252700  1.0  0.7363
  C  C748  1  0.381500  0.003600  0.193800  1.0  -0.0228
  C  C749  1  0.874500  0.509200  0.252700  1.0  0.7363
  C  C750  1  0.881500  0.503600  0.193800  1.0  -0.0228
  C  C751  1  0.874500  0.009200  0.752700  1.0  0.7363
  C  C752  1  0.881500  0.003600  0.693800  1.0  -0.0228
  C  C753  1  0.875500  0.009200  0.997300  1.0  0.7352
  C  C754  1  0.868500  0.003600  0.056200  1.0  -0.0185
  C  C755  1  0.875500  0.509200  0.497300  1.0  0.7352
  C  C756  1  0.868500  0.503600  0.556200  1.0  -0.0185
  C  C757  1  0.375500  0.009200  0.497300  1.0  0.7352
  C  C758  1  0.368500  0.003600  0.556200  1.0  -0.0185
  C  C759  1  0.375500  0.509200  0.997300  1.0  0.7352
  C  C760  1  0.368500  0.503600  0.056200  1.0  -0.0185
  C  C761  1  0.874500  0.240800  0.497300  1.0  0.7345
  C  C762  1  0.881500  0.246400  0.556200  1.0  -0.022
  C  C763  1  0.874500  0.740800  0.997300  1.0  0.7345
  C  C764  1  0.881500  0.746400  0.056200  1.0  -0.022
  C  C765  1  0.374500  0.240800  0.997300  1.0  0.7345
  C  C766  1  0.381500  0.246400  0.056200  1.0  -0.022
  C  C767  1  0.374500  0.740800  0.497300  1.0  0.7345
  C  C768  1  0.381500  0.746400  0.556200  1.0  -0.022
  C  C769  1  0.240800  0.497300  0.874500  1.0  0.7274
  C  C770  1  0.246400  0.556200  0.881500  1.0  -0.0187
  C  C771  1  0.240800  0.997300  0.374500  1.0  0.7274
  C  C772  1  0.246400  0.056200  0.381500  1.0  -0.0187
  C  C773  1  0.740800  0.497300  0.374500  1.0  0.7274
  C  C774  1  0.746400  0.556200  0.381500  1.0  -0.0187
  C  C775  1  0.740800  0.997300  0.874500  1.0  0.7274
  C  C776  1  0.746400  0.056200  0.881500  1.0  -0.0187
  C  C777  1  0.009200  0.997300  0.875500  1.0  0.7274
  C  C778  1  0.003600  0.056200  0.868500  1.0  -0.0188
  C  C779  1  0.009200  0.497300  0.375500  1.0  0.7274
  C  C780  1  0.003600  0.556200  0.368500  1.0  -0.0188
  C  C781  1  0.509200  0.997300  0.375500  1.0  0.7274
  C  C782  1  0.503600  0.056200  0.368500  1.0  -0.0188
  C  C783  1  0.509200  0.497300  0.875500  1.0  0.7274
  C  C784  1  0.503600  0.556200  0.868500  1.0  -0.0188
  C  C785  1  0.509200  0.752700  0.374500  1.0  0.7282
  C  C786  1  0.503600  0.693800  0.381500  1.0  -0.02
  C  C787  1  0.509200  0.252700  0.874500  1.0  0.7282
  C  C788  1  0.503600  0.193800  0.881500  1.0  -0.02
  C  C789  1  0.009200  0.752700  0.874500  1.0  0.7282
  C  C790  1  0.003600  0.693800  0.881500  1.0  -0.02
  C  C791  1  0.009200  0.252700  0.374500  1.0  0.7282
  C  C792  1  0.003600  0.193800  0.381500  1.0  -0.02
  C  C793  1  0.740800  0.252700  0.375500  1.0  0.7279
  C  C794  1  0.746400  0.193800  0.368500  1.0  -0.0205
  C  C795  1  0.740800  0.752700  0.875500  1.0  0.7279
  C  C796  1  0.746400  0.693800  0.868500  1.0  -0.0205
  C  C797  1  0.240800  0.252700  0.875500  1.0  0.7279
  C  C798  1  0.246400  0.193800  0.868500  1.0  -0.0205
  C  C799  1  0.240800  0.752700  0.375500  1.0  0.7279
  C  C800  1  0.246400  0.693800  0.368500  1.0  -0.0205
  C  C801  1  0.997300  0.875500  0.009200  1.0  0.7295
  C  C802  1  0.056200  0.868500  0.003600  1.0  -0.0223
  C  C803  1  0.997300  0.375500  0.509200  1.0  0.7295
  C  C804  1  0.056200  0.368500  0.503600  1.0  -0.0223
  C  C805  1  0.497300  0.875500  0.509200  1.0  0.7295
  C  C806  1  0.556200  0.868500  0.503600  1.0  -0.0223
  C  C807  1  0.497300  0.375500  0.009200  1.0  0.7295
  C  C808  1  0.556200  0.368500  0.003600  1.0  -0.0223
  C  C809  1  0.497300  0.874500  0.240800  1.0  0.7293
  C  C810  1  0.556200  0.881500  0.246400  1.0  -0.0226
  C  C811  1  0.497300  0.374500  0.740800  1.0  0.7293
  C  C812  1  0.556200  0.381500  0.746400  1.0  -0.0226
  C  C813  1  0.997300  0.874500  0.740800  1.0  0.7293
  C  C814  1  0.056200  0.881500  0.746400  1.0  -0.0226
  C  C815  1  0.997300  0.374500  0.240800  1.0  0.7293
  C  C816  1  0.056200  0.381500  0.246400  1.0  -0.0226
  C  C817  1  0.252700  0.375500  0.740800  1.0  0.7298
  C  C818  1  0.193800  0.368500  0.746400  1.0  -0.0242
  C  C819  1  0.252700  0.875500  0.240800  1.0  0.7298
  C  C820  1  0.193800  0.868500  0.246400  1.0  -0.0242
  C  C821  1  0.752700  0.375500  0.240800  1.0  0.7298
  C  C822  1  0.693800  0.368500  0.246400  1.0  -0.0242
  C  C823  1  0.752700  0.875500  0.740800  1.0  0.7298
  C  C824  1  0.693800  0.868500  0.746400  1.0  -0.0242
  C  C825  1  0.752700  0.374500  0.509200  1.0  0.7297
  C  C826  1  0.693800  0.381500  0.503600  1.0  -0.0239
  C  C827  1  0.752700  0.874500  0.009200  1.0  0.7297
  C  C828  1  0.693800  0.881500  0.003600  1.0  -0.0239
  C  C829  1  0.252700  0.374500  0.009200  1.0  0.7297
  C  C830  1  0.193800  0.381500  0.003600  1.0  -0.0239
  C  C831  1  0.252700  0.874500  0.509200  1.0  0.7297
  C  C832  1  0.193800  0.881500  0.503600  1.0  -0.0239
  O  O833  1  0.009000  0.913900  0.279700  1.0  -0.6437
  O  O834  1  0.013600  0.829700  0.271200  1.0  -0.6664
  O  O835  1  0.009000  0.413900  0.779700  1.0  -0.6437
  O  O836  1  0.013600  0.329700  0.771200  1.0  -0.6664
  O  O837  1  0.509000  0.913900  0.779700  1.0  -0.6437
  O  O838  1  0.513600  0.829700  0.771200  1.0  -0.6664
  O  O839  1  0.509000  0.413900  0.279700  1.0  -0.6437
  O  O840  1  0.513600  0.329700  0.271200  1.0  -0.6664
  O  O841  1  0.241000  0.836100  0.779700  1.0  -0.6438
  O  O842  1  0.236400  0.920300  0.771200  1.0  -0.6639
  O  O843  1  0.241000  0.336100  0.279700  1.0  -0.6438
  O  O844  1  0.236400  0.420300  0.271200  1.0  -0.6639
  O  O845  1  0.741000  0.836100  0.279700  1.0  -0.6438
  O  O846  1  0.736400  0.920300  0.271200  1.0  -0.6639
  O  O847  1  0.741000  0.336100  0.779700  1.0  -0.6438
  O  O848  1  0.736400  0.420300  0.771200  1.0  -0.6639
  O  O849  1  0.741000  0.413900  0.970300  1.0  -0.6433
  O  O850  1  0.736400  0.329700  0.978800  1.0  -0.6629
  O  O851  1  0.741000  0.913900  0.470300  1.0  -0.6433
  O  O852  1  0.736400  0.829700  0.478800  1.0  -0.6629
  O  O853  1  0.241000  0.413900  0.470300  1.0  -0.6433
  O  O854  1  0.236400  0.329700  0.478800  1.0  -0.6629
  O  O855  1  0.241000  0.913900  0.970300  1.0  -0.6433
  O  O856  1  0.236400  0.829700  0.978800  1.0  -0.6629
  O  O857  1  0.509000  0.336100  0.470300  1.0  -0.6445
  O  O858  1  0.513600  0.420300  0.478800  1.0  -0.6629
  O  O859  1  0.509000  0.836100  0.970300  1.0  -0.6445
  O  O860  1  0.513600  0.920300  0.978800  1.0  -0.6629
  O  O861  1  0.009000  0.336100  0.970300  1.0  -0.6445
  O  O862  1  0.013600  0.420300  0.978800  1.0  -0.6629
  O  O863  1  0.009000  0.836100  0.470300  1.0  -0.6445
  O  O864  1  0.013600  0.920300  0.478800  1.0  -0.6629
  O  O865  1  0.279700  0.009000  0.913900  1.0  -0.6415
  O  O866  1  0.271200  0.013600  0.829700  1.0  -0.66
  O  O867  1  0.279700  0.509000  0.413900  1.0  -0.6415
  O  O868  1  0.271200  0.513600  0.329700  1.0  -0.66
  O  O869  1  0.779700  0.009000  0.413900  1.0  -0.6415
  O  O870  1  0.771200  0.013600  0.329700  1.0  -0.66
  O  O871  1  0.779700  0.509000  0.913900  1.0  -0.6415
  O  O872  1  0.771200  0.513600  0.829700  1.0  -0.66
  O  O873  1  0.779700  0.241000  0.836100  1.0  -0.6413
  O  O874  1  0.771200  0.236400  0.920300  1.0  -0.6592
  O  O875  1  0.779700  0.741000  0.336100  1.0  -0.6413
  O  O876  1  0.771200  0.736400  0.420300  1.0  -0.6592
  O  O877  1  0.279700  0.241000  0.336100  1.0  -0.6413
  O  O878  1  0.271200  0.236400  0.420300  1.0  -0.6592
  O  O879  1  0.279700  0.741000  0.836100  1.0  -0.6413
  O  O880  1  0.271200  0.736400  0.920300  1.0  -0.6592
  O  O881  1  0.970300  0.741000  0.413900  1.0  -0.6402
  O  O882  1  0.978800  0.736400  0.329700  1.0  -0.6604
  O  O883  1  0.970300  0.241000  0.913900  1.0  -0.6402
  O  O884  1  0.978800  0.236400  0.829700  1.0  -0.6604
  O  O885  1  0.470300  0.741000  0.913900  1.0  -0.6402
  O  O886  1  0.478800  0.736400  0.829700  1.0  -0.6604
  O  O887  1  0.470300  0.241000  0.413900  1.0  -0.6402
  O  O888  1  0.478800  0.236400  0.329700  1.0  -0.6604
  O  O889  1  0.470300  0.509000  0.336100  1.0  -0.6402
  O  O890  1  0.478800  0.513600  0.420300  1.0  -0.6593
  O  O891  1  0.470300  0.009000  0.836100  1.0  -0.6402
  O  O892  1  0.478800  0.013600  0.920300  1.0  -0.6593
  O  O893  1  0.970300  0.509000  0.836100  1.0  -0.6402
  O  O894  1  0.978800  0.513600  0.920300  1.0  -0.6593
  O  O895  1  0.970300  0.009000  0.336100  1.0  -0.6402
  O  O896  1  0.978800  0.013600  0.420300  1.0  -0.6593
  O  O897  1  0.913900  0.279700  0.009000  1.0  -0.6376
  O  O898  1  0.829700  0.271200  0.013600  1.0  -0.6596
  O  O899  1  0.913900  0.779700  0.509000  1.0  -0.6376
  O  O900  1  0.829700  0.771200  0.513600  1.0  -0.6596
  O  O901  1  0.413900  0.279700  0.509000  1.0  -0.6376
  O  O902  1  0.329700  0.271200  0.513600  1.0  -0.6596
  O  O903  1  0.413900  0.779700  0.009000  1.0  -0.6376
  O  O904  1  0.329700  0.771200  0.013600  1.0  -0.6596
  O  O905  1  0.836100  0.779700  0.241000  1.0  -0.6368
  O  O906  1  0.920300  0.771200  0.236400  1.0  -0.6614
  O  O907  1  0.836100  0.279700  0.741000  1.0  -0.6368
  O  O908  1  0.920300  0.271200  0.736400  1.0  -0.6614
  O  O909  1  0.336100  0.779700  0.741000  1.0  -0.6368
  O  O910  1  0.420300  0.771200  0.736400  1.0  -0.6614
  O  O911  1  0.336100  0.279700  0.241000  1.0  -0.6368
  O  O912  1  0.420300  0.271200  0.236400  1.0  -0.6614
  O  O913  1  0.413900  0.970300  0.741000  1.0  -0.6363
  O  O914  1  0.329700  0.978800  0.736400  1.0  -0.66
  O  O915  1  0.413900  0.470300  0.241000  1.0  -0.6363
  O  O916  1  0.329700  0.478800  0.236400  1.0  -0.66
  O  O917  1  0.913900  0.970300  0.241000  1.0  -0.6363
  O  O918  1  0.829700  0.978800  0.236400  1.0  -0.66
  O  O919  1  0.913900  0.470300  0.741000  1.0  -0.6363
  O  O920  1  0.829700  0.478800  0.736400  1.0  -0.66
  O  O921  1  0.336100  0.470300  0.509000  1.0  -0.6381
  O  O922  1  0.420300  0.478800  0.513600  1.0  -0.6607
  O  O923  1  0.336100  0.970300  0.009000  1.0  -0.6381
  O  O924  1  0.420300  0.978800  0.013600  1.0  -0.6607
  O  O925  1  0.836100  0.470300  0.009000  1.0  -0.6381
  O  O926  1  0.920300  0.478800  0.013600  1.0  -0.6607
  O  O927  1  0.836100  0.970300  0.509000  1.0  -0.6381
  O  O928  1  0.920300  0.978800  0.513600  1.0  -0.6607
  O  O929  1  0.663900  0.259000  0.720300  1.0  -0.6421
  O  O930  1  0.579700  0.263600  0.728800  1.0  -0.6606
  O  O931  1  0.663900  0.759000  0.220300  1.0  -0.6421
  O  O932  1  0.579700  0.763600  0.228800  1.0  -0.6606
  O  O933  1  0.163900  0.259000  0.220300  1.0  -0.6421
  O  O934  1  0.079700  0.263600  0.228800  1.0  -0.6606
  O  O935  1  0.163900  0.759000  0.720300  1.0  -0.6421
  O  O936  1  0.079700  0.763600  0.728800  1.0  -0.6606
  O  O937  1  0.586100  0.491000  0.220300  1.0  -0.6427
  O  O938  1  0.670300  0.486400  0.228800  1.0  -0.662
  O  O939  1  0.586100  0.991000  0.720300  1.0  -0.6427
  O  O940  1  0.670300  0.986400  0.728800  1.0  -0.662
  O  O941  1  0.086100  0.491000  0.720300  1.0  -0.6427
  O  O942  1  0.170300  0.486400  0.728800  1.0  -0.662
  O  O943  1  0.086100  0.991000  0.220300  1.0  -0.6427
  O  O944  1  0.170300  0.986400  0.228800  1.0  -0.662
  O  O945  1  0.163900  0.991000  0.029700  1.0  -0.6429
  O  O946  1  0.079700  0.986400  0.021200  1.0  -0.663
  O  O947  1  0.163900  0.491000  0.529700  1.0  -0.6429
  O  O948  1  0.079700  0.486400  0.521200  1.0  -0.663
  O  O949  1  0.663900  0.991000  0.529700  1.0  -0.6429
  O  O950  1  0.579700  0.986400  0.521200  1.0  -0.663
  O  O951  1  0.663900  0.491000  0.029700  1.0  -0.6429
  O  O952  1  0.579700  0.486400  0.021200  1.0  -0.663
  O  O953  1  0.086100  0.759000  0.529700  1.0  -0.642
  O  O954  1  0.170300  0.763600  0.521200  1.0  -0.6636
  O  O955  1  0.086100  0.259000  0.029700  1.0  -0.642
  O  O956  1  0.170300  0.263600  0.021200  1.0  -0.6636
  O  O957  1  0.586100  0.759000  0.029700  1.0  -0.642
  O  O958  1  0.670300  0.763600  0.021200  1.0  -0.6636
  O  O959  1  0.586100  0.259000  0.529700  1.0  -0.642
  O  O960  1  0.670300  0.263600  0.521200  1.0  -0.6636
  O  O961  1  0.759000  0.529700  0.086100  1.0  -0.6408
  O  O962  1  0.763600  0.521200  0.170300  1.0  -0.6618
  O  O963  1  0.759000  0.029700  0.586100  1.0  -0.6408
  O  O964  1  0.763600  0.021200  0.670300  1.0  -0.6618
  O  O965  1  0.259000  0.529700  0.586100  1.0  -0.6408
  O  O966  1  0.263600  0.521200  0.670300  1.0  -0.6618
  O  O967  1  0.259000  0.029700  0.086100  1.0  -0.6408
  O  O968  1  0.263600  0.021200  0.170300  1.0  -0.6618
  O  O969  1  0.991000  0.029700  0.163900  1.0  -0.64
  O  O970  1  0.986400  0.021200  0.079700  1.0  -0.6615
  O  O971  1  0.991000  0.529700  0.663900  1.0  -0.64
  O  O972  1  0.986400  0.521200  0.579700  1.0  -0.6615
  O  O973  1  0.491000  0.029700  0.663900  1.0  -0.64
  O  O974  1  0.486400  0.021200  0.579700  1.0  -0.6615
  O  O975  1  0.491000  0.529700  0.163900  1.0  -0.64
  O  O976  1  0.486400  0.521200  0.079700  1.0  -0.6615
  O  O977  1  0.491000  0.220300  0.586100  1.0  -0.6409
  O  O978  1  0.486400  0.228800  0.670300  1.0  -0.6604
  O  O979  1  0.491000  0.720300  0.086100  1.0  -0.6409
  O  O980  1  0.486400  0.728800  0.170300  1.0  -0.6604
  O  O981  1  0.991000  0.220300  0.086100  1.0  -0.6409
  O  O982  1  0.986400  0.228800  0.170300  1.0  -0.6604
  O  O983  1  0.991000  0.720300  0.586100  1.0  -0.6409
  O  O984  1  0.986400  0.728800  0.670300  1.0  -0.6604
  O  O985  1  0.259000  0.720300  0.663900  1.0  -0.6402
  O  O986  1  0.263600  0.728800  0.579700  1.0  -0.6619
  O  O987  1  0.259000  0.220300  0.163900  1.0  -0.6402
  O  O988  1  0.263600  0.228800  0.079700  1.0  -0.6619
  O  O989  1  0.759000  0.720300  0.163900  1.0  -0.6402
  O  O990  1  0.763600  0.728800  0.079700  1.0  -0.6619
  O  O991  1  0.759000  0.220300  0.663900  1.0  -0.6402
  O  O992  1  0.763600  0.228800  0.579700  1.0  -0.6619
  O  O993  1  0.029700  0.163900  0.991000  1.0  -0.6398
  O  O994  1  0.021200  0.079700  0.986400  1.0  -0.6603
  O  O995  1  0.029700  0.663900  0.491000  1.0  -0.6398
  O  O996  1  0.021200  0.579700  0.486400  1.0  -0.6603
  O  O997  1  0.529700  0.163900  0.491000  1.0  -0.6398
  O  O998  1  0.521200  0.079700  0.486400  1.0  -0.6603
  O  O999  1  0.529700  0.663900  0.991000  1.0  -0.6398
  O  O1000  1  0.521200  0.579700  0.986400  1.0  -0.6603
  O  O1001  1  0.529700  0.086100  0.759000  1.0  -0.6398
  O  O1002  1  0.521200  0.170300  0.763600  1.0  -0.6587
  O  O1003  1  0.529700  0.586100  0.259000  1.0  -0.6398
  O  O1004  1  0.521200  0.670300  0.263600  1.0  -0.6587
  O  O1005  1  0.029700  0.086100  0.259000  1.0  -0.6398
  O  O1006  1  0.021200  0.170300  0.263600  1.0  -0.6587
  O  O1007  1  0.029700  0.586100  0.759000  1.0  -0.6398
  O  O1008  1  0.021200  0.670300  0.763600  1.0  -0.6587
  O  O1009  1  0.720300  0.663900  0.259000  1.0  -0.6382
  O  O1010  1  0.728800  0.579700  0.263600  1.0  -0.6602
  O  O1011  1  0.720300  0.163900  0.759000  1.0  -0.6382
  O  O1012  1  0.728800  0.079700  0.763600  1.0  -0.6602
  O  O1013  1  0.220300  0.663900  0.759000  1.0  -0.6382
  O  O1014  1  0.228800  0.579700  0.763600  1.0  -0.6602
  O  O1015  1  0.220300  0.163900  0.259000  1.0  -0.6382
  O  O1016  1  0.228800  0.079700  0.263600  1.0  -0.6602
  O  O1017  1  0.220300  0.586100  0.491000  1.0  -0.6388
  O  O1018  1  0.228800  0.670300  0.486400  1.0  -0.6597
  O  O1019  1  0.220300  0.086100  0.991000  1.0  -0.6388
  O  O1020  1  0.228800  0.170300  0.986400  1.0  -0.6597
  O  O1021  1  0.720300  0.586100  0.991000  1.0  -0.6388
  O  O1022  1  0.728800  0.670300  0.986400  1.0  -0.6597
  O  O1023  1  0.720300  0.086100  0.491000  1.0  -0.6388
  O  O1024  1  0.728800  0.170300  0.486400  1.0  -0.6597
  O  O1025  1  0.991000  0.086100  0.720300  1.0  -0.6444
  O  O1026  1  0.986400  0.170300  0.728800  1.0  -0.6621
  O  O1027  1  0.991000  0.586100  0.220300  1.0  -0.6444
  O  O1028  1  0.986400  0.670300  0.228800  1.0  -0.6621
  O  O1029  1  0.491000  0.086100  0.220300  1.0  -0.6444
  O  O1030  1  0.486400  0.170300  0.228800  1.0  -0.6621
  O  O1031  1  0.491000  0.586100  0.720300  1.0  -0.6444
  O  O1032  1  0.486400  0.670300  0.728800  1.0  -0.6621
  O  O1033  1  0.759000  0.163900  0.220300  1.0  -0.6435
  O  O1034  1  0.763600  0.079700  0.228800  1.0  -0.6634
  O  O1035  1  0.759000  0.663900  0.720300  1.0  -0.6435
  O  O1036  1  0.763600  0.579700  0.728800  1.0  -0.6634
  O  O1037  1  0.259000  0.163900  0.720300  1.0  -0.6435
  O  O1038  1  0.263600  0.079700  0.728800  1.0  -0.6634
  O  O1039  1  0.259000  0.663900  0.220300  1.0  -0.6435
  O  O1040  1  0.263600  0.579700  0.228800  1.0  -0.6634
  O  O1041  1  0.259000  0.586100  0.029700  1.0  -0.6438
  O  O1042  1  0.263600  0.670300  0.021200  1.0  -0.6651
  O  O1043  1  0.259000  0.086100  0.529700  1.0  -0.6438
  O  O1044  1  0.263600  0.170300  0.521200  1.0  -0.6651
  O  O1045  1  0.759000  0.586100  0.529700  1.0  -0.6438
  O  O1046  1  0.763600  0.670300  0.521200  1.0  -0.6651
  O  O1047  1  0.759000  0.086100  0.029700  1.0  -0.6438
  O  O1048  1  0.763600  0.170300  0.021200  1.0  -0.6651
  O  O1049  1  0.491000  0.663900  0.529700  1.0  -0.6434
  O  O1050  1  0.486400  0.579700  0.521200  1.0  -0.6654
  O  O1051  1  0.491000  0.163900  0.029700  1.0  -0.6434
  O  O1052  1  0.486400  0.079700  0.021200  1.0  -0.6654
  O  O1053  1  0.991000  0.663900  0.029700  1.0  -0.6434
  O  O1054  1  0.986400  0.579700  0.021200  1.0  -0.6654
  O  O1055  1  0.991000  0.163900  0.529700  1.0  -0.6434
  O  O1056  1  0.986400  0.079700  0.521200  1.0  -0.6654
  O  O1057  1  0.720300  0.991000  0.086100  1.0  -0.6407
  O  O1058  1  0.728800  0.986400  0.170300  1.0  -0.6596
  O  O1059  1  0.720300  0.491000  0.586100  1.0  -0.6407
  O  O1060  1  0.728800  0.486400  0.670300  1.0  -0.6596
  O  O1061  1  0.220300  0.991000  0.586100  1.0  -0.6407
  O  O1062  1  0.228800  0.986400  0.670300  1.0  -0.6596
  O  O1063  1  0.220300  0.491000  0.086100  1.0  -0.6407
  O  O1064  1  0.228800  0.486400  0.170300  1.0  -0.6596
  O  O1065  1  0.220300  0.759000  0.163900  1.0  -0.6397
  O  O1066  1  0.228800  0.763600  0.079700  1.0  -0.66
  O  O1067  1  0.220300  0.259000  0.663900  1.0  -0.6397
  O  O1068  1  0.228800  0.263600  0.579700  1.0  -0.66
  O  O1069  1  0.720300  0.759000  0.663900  1.0  -0.6397
  O  O1070  1  0.728800  0.763600  0.579700  1.0  -0.66
  O  O1071  1  0.720300  0.259000  0.163900  1.0  -0.6397
  O  O1072  1  0.728800  0.263600  0.079700  1.0  -0.66
  O  O1073  1  0.029700  0.259000  0.586100  1.0  -0.6418
  O  O1074  1  0.021200  0.263600  0.670300  1.0  -0.6593
  O  O1075  1  0.029700  0.759000  0.086100  1.0  -0.6418
  O  O1076  1  0.021200  0.763600  0.170300  1.0  -0.6593
  O  O1077  1  0.529700  0.259000  0.086100  1.0  -0.6418
  O  O1078  1  0.521200  0.263600  0.170300  1.0  -0.6593
  O  O1079  1  0.529700  0.759000  0.586100  1.0  -0.6418
  O  O1080  1  0.521200  0.763600  0.670300  1.0  -0.6593
  O  O1081  1  0.529700  0.491000  0.663900  1.0  -0.641
  O  O1082  1  0.521200  0.486400  0.579700  1.0  -0.6598
  O  O1083  1  0.529700  0.991000  0.163900  1.0  -0.641
  O  O1084  1  0.521200  0.986400  0.079700  1.0  -0.6598
  O  O1085  1  0.029700  0.491000  0.163900  1.0  -0.641
  O  O1086  1  0.021200  0.486400  0.079700  1.0  -0.6598
  O  O1087  1  0.029700  0.991000  0.663900  1.0  -0.641
  O  O1088  1  0.021200  0.986400  0.579700  1.0  -0.6598
  O  O1089  1  0.086100  0.720300  0.991000  1.0  -0.6373
  O  O1090  1  0.170300  0.728800  0.986400  1.0  -0.6602
  O  O1091  1  0.086100  0.220300  0.491000  1.0  -0.6373
  O  O1092  1  0.170300  0.228800  0.486400  1.0  -0.6602
  O  O1093  1  0.586100  0.720300  0.491000  1.0  -0.6373
  O  O1094  1  0.670300  0.728800  0.486400  1.0  -0.6602
  O  O1095  1  0.586100  0.220300  0.991000  1.0  -0.6373
  O  O1096  1  0.670300  0.228800  0.986400  1.0  -0.6602
  O  O1097  1  0.163900  0.220300  0.759000  1.0  -0.6368
  O  O1098  1  0.079700  0.228800  0.763600  1.0  -0.6605
  O  O1099  1  0.163900  0.720300  0.259000  1.0  -0.6368
  O  O1100  1  0.079700  0.728800  0.263600  1.0  -0.6605
  O  O1101  1  0.663900  0.220300  0.259000  1.0  -0.6368
  O  O1102  1  0.579700  0.228800  0.263600  1.0  -0.6605
  O  O1103  1  0.663900  0.720300  0.759000  1.0  -0.6368
  O  O1104  1  0.579700  0.728800  0.763600  1.0  -0.6605
  O  O1105  1  0.586100  0.029700  0.259000  1.0  -0.6371
  O  O1106  1  0.670300  0.021200  0.263600  1.0  -0.661
  O  O1107  1  0.586100  0.529700  0.759000  1.0  -0.6371
  O  O1108  1  0.670300  0.521200  0.763600  1.0  -0.661
  O  O1109  1  0.086100  0.029700  0.759000  1.0  -0.6371
  O  O1110  1  0.170300  0.021200  0.763600  1.0  -0.661
  O  O1111  1  0.086100  0.529700  0.259000  1.0  -0.6371
  O  O1112  1  0.170300  0.521200  0.263600  1.0  -0.661
  O  O1113  1  0.663900  0.529700  0.491000  1.0  -0.637
  O  O1114  1  0.579700  0.521200  0.486400  1.0  -0.6597
  O  O1115  1  0.663900  0.029700  0.991000  1.0  -0.637
  O  O1116  1  0.579700  0.021200  0.986400  1.0  -0.6597
  O  O1117  1  0.163900  0.529700  0.991000  1.0  -0.637
  O  O1118  1  0.079700  0.521200  0.986400  1.0  -0.6597
  O  O1119  1  0.163900  0.029700  0.491000  1.0  -0.637
  O  O1120  1  0.079700  0.021200  0.486400  1.0  -0.6597
  O  O1121  1  0.336100  0.741000  0.279700  1.0  -0.6429
  O  O1122  1  0.420300  0.736400  0.271200  1.0  -0.664
  O  O1123  1  0.336100  0.241000  0.779700  1.0  -0.6429
  O  O1124  1  0.420300  0.236400  0.771200  1.0  -0.664
  O  O1125  1  0.836100  0.741000  0.779700  1.0  -0.6429
  O  O1126  1  0.920300  0.736400  0.771200  1.0  -0.664
  O  O1127  1  0.836100  0.241000  0.279700  1.0  -0.6429
  O  O1128  1  0.920300  0.236400  0.271200  1.0  -0.664
  O  O1129  1  0.413900  0.509000  0.779700  1.0  -0.6416
  O  O1130  1  0.329700  0.513600  0.771200  1.0  -0.6631
  O  O1131  1  0.413900  0.009000  0.279700  1.0  -0.6416
  O  O1132  1  0.329700  0.013600  0.271200  1.0  -0.6631
  O  O1133  1  0.913900  0.509000  0.279700  1.0  -0.6416
  O  O1134  1  0.829700  0.513600  0.271200  1.0  -0.6631
  O  O1135  1  0.913900  0.009000  0.779700  1.0  -0.6416
  O  O1136  1  0.829700  0.013600  0.771200  1.0  -0.6631
  O  O1137  1  0.836100  0.009000  0.970300  1.0  -0.6424
  O  O1138  1  0.920300  0.013600  0.978800  1.0  -0.6614
  O  O1139  1  0.836100  0.509000  0.470300  1.0  -0.6424
  O  O1140  1  0.920300  0.513600  0.478800  1.0  -0.6614
  O  O1141  1  0.336100  0.009000  0.470300  1.0  -0.6424
  O  O1142  1  0.420300  0.013600  0.478800  1.0  -0.6614
  O  O1143  1  0.336100  0.509000  0.970300  1.0  -0.6424
  O  O1144  1  0.420300  0.513600  0.978800  1.0  -0.6614
  O  O1145  1  0.913900  0.241000  0.470300  1.0  -0.6424
  O  O1146  1  0.829700  0.236400  0.478800  1.0  -0.6602
  O  O1147  1  0.913900  0.741000  0.970300  1.0  -0.6424
  O  O1148  1  0.829700  0.736400  0.978800  1.0  -0.6602
  O  O1149  1  0.413900  0.241000  0.970300  1.0  -0.6424
  O  O1150  1  0.329700  0.236400  0.978800  1.0  -0.6602
  O  O1151  1  0.413900  0.741000  0.470300  1.0  -0.6424
  O  O1152  1  0.329700  0.736400  0.478800  1.0  -0.6602
  O  O1153  1  0.241000  0.470300  0.913900  1.0  -0.6407
  O  O1154  1  0.236400  0.478800  0.829700  1.0  -0.6617
  O  O1155  1  0.241000  0.970300  0.413900  1.0  -0.6407
  O  O1156  1  0.236400  0.978800  0.329700  1.0  -0.6617
  O  O1157  1  0.741000  0.470300  0.413900  1.0  -0.6407
  O  O1158  1  0.736400  0.478800  0.329700  1.0  -0.6617
  O  O1159  1  0.741000  0.970300  0.913900  1.0  -0.6407
  O  O1160  1  0.736400  0.978800  0.829700  1.0  -0.6617
  O  O1161  1  0.009000  0.970300  0.836100  1.0  -0.6402
  O  O1162  1  0.013600  0.978800  0.920300  1.0  -0.6608
  O  O1163  1  0.009000  0.470300  0.336100  1.0  -0.6402
  O  O1164  1  0.013600  0.478800  0.420300  1.0  -0.6608
  O  O1165  1  0.509000  0.970300  0.336100  1.0  -0.6402
  O  O1166  1  0.513600  0.978800  0.420300  1.0  -0.6608
  O  O1167  1  0.509000  0.470300  0.836100  1.0  -0.6402
  O  O1168  1  0.513600  0.478800  0.920300  1.0  -0.6608
  O  O1169  1  0.509000  0.779700  0.413900  1.0  -0.6409
  O  O1170  1  0.513600  0.771200  0.329700  1.0  -0.6623
  O  O1171  1  0.509000  0.279700  0.913900  1.0  -0.6409
  O  O1172  1  0.513600  0.271200  0.829700  1.0  -0.6623
  O  O1173  1  0.009000  0.779700  0.913900  1.0  -0.6409
  O  O1174  1  0.013600  0.771200  0.829700  1.0  -0.6623
  O  O1175  1  0.009000  0.279700  0.413900  1.0  -0.6409
  O  O1176  1  0.013600  0.271200  0.329700  1.0  -0.6623
  O  O1177  1  0.741000  0.279700  0.336100  1.0  -0.6399
  O  O1178  1  0.736400  0.271200  0.420300  1.0  -0.6606
  O  O1179  1  0.741000  0.779700  0.836100  1.0  -0.6399
  O  O1180  1  0.736400  0.771200  0.920300  1.0  -0.6606
  O  O1181  1  0.241000  0.279700  0.836100  1.0  -0.6399
  O  O1182  1  0.236400  0.271200  0.920300  1.0  -0.6606
  O  O1183  1  0.241000  0.779700  0.336100  1.0  -0.6399
  O  O1184  1  0.236400  0.771200  0.420300  1.0  -0.6606
  O  O1185  1  0.970300  0.836100  0.009000  1.0  -0.6389
  O  O1186  1  0.978800  0.920300  0.013600  1.0  -0.6591
  O  O1187  1  0.970300  0.336100  0.509000  1.0  -0.6389
  O  O1188  1  0.978800  0.420300  0.513600  1.0  -0.6591
  O  O1189  1  0.470300  0.836100  0.509000  1.0  -0.6389
  O  O1190  1  0.478800  0.920300  0.513600  1.0  -0.6591
  O  O1191  1  0.470300  0.336100  0.009000  1.0  -0.6389
  O  O1192  1  0.478800  0.420300  0.013600  1.0  -0.6591
  O  O1193  1  0.470300  0.913900  0.241000  1.0  -0.6382
  O  O1194  1  0.478800  0.829700  0.236400  1.0  -0.6604
  O  O1195  1  0.470300  0.413900  0.741000  1.0  -0.6382
  O  O1196  1  0.478800  0.329700  0.736400  1.0  -0.6604
  O  O1197  1  0.970300  0.913900  0.741000  1.0  -0.6382
  O  O1198  1  0.978800  0.829700  0.736400  1.0  -0.6604
  O  O1199  1  0.970300  0.413900  0.241000  1.0  -0.6382
  O  O1200  1  0.978800  0.329700  0.236400  1.0  -0.6604
  O  O1201  1  0.279700  0.336100  0.741000  1.0  -0.6397
  O  O1202  1  0.271200  0.420300  0.736400  1.0  -0.6591
  O  O1203  1  0.279700  0.836100  0.241000  1.0  -0.6397
  O  O1204  1  0.271200  0.920300  0.236400  1.0  -0.6591
  O  O1205  1  0.779700  0.336100  0.241000  1.0  -0.6397
  O  O1206  1  0.771200  0.420300  0.236400  1.0  -0.6591
  O  O1207  1  0.779700  0.836100  0.741000  1.0  -0.6397
  O  O1208  1  0.771200  0.920300  0.736400  1.0  -0.6591
  O  O1209  1  0.779700  0.413900  0.509000  1.0  -0.6399
  O  O1210  1  0.771200  0.329700  0.513600  1.0  -0.66
  O  O1211  1  0.779700  0.913900  0.009000  1.0  -0.6399
  O  O1212  1  0.771200  0.829700  0.013600  1.0  -0.66
  O  O1213  1  0.279700  0.413900  0.009000  1.0  -0.6399
  O  O1214  1  0.271200  0.329700  0.013600  1.0  -0.66
  O  O1215  1  0.279700  0.913900  0.509000  1.0  -0.6399
  O  O1216  1  0.271200  0.829700  0.513600  1.0  -0.66
  O  O1217  1  0.000000  0.933600  0.183600  1.0  -0.3241
  O  O1218  1  0.000000  0.433600  0.683600  1.0  -0.3241
  O  O1219  1  0.500000  0.933600  0.683600  1.0  -0.3241
  O  O1220  1  0.500000  0.433600  0.183600  1.0  -0.3241
  O  O1221  1  0.250000  0.816400  0.683600  1.0  -0.3246
  O  O1222  1  0.250000  0.316400  0.183600  1.0  -0.3246
  O  O1223  1  0.750000  0.816400  0.183600  1.0  -0.3246
  O  O1224  1  0.750000  0.316400  0.683600  1.0  -0.3246
  O  O1225  1  0.750000  0.433600  0.066400  1.0  -0.3258
  O  O1226  1  0.750000  0.933600  0.566400  1.0  -0.3258
  O  O1227  1  0.250000  0.433600  0.566400  1.0  -0.3258
  O  O1228  1  0.250000  0.933600  0.066400  1.0  -0.3258
  O  O1229  1  0.500000  0.316400  0.566400  1.0  -0.3261
  O  O1230  1  0.500000  0.816400  0.066400  1.0  -0.3261
  O  O1231  1  0.000000  0.316400  0.066400  1.0  -0.3261
  O  O1232  1  0.000000  0.816400  0.566400  1.0  -0.3261
  O  O1233  1  0.183600  0.000000  0.933600  1.0  -0.3247
  O  O1234  1  0.183600  0.500000  0.433600  1.0  -0.3247
  O  O1235  1  0.683600  0.000000  0.433600  1.0  -0.3247
  O  O1236  1  0.683600  0.500000  0.933600  1.0  -0.3247
  O  O1237  1  0.683600  0.250000  0.816400  1.0  -0.3264
  O  O1238  1  0.683600  0.750000  0.316400  1.0  -0.3264
  O  O1239  1  0.183600  0.250000  0.316400  1.0  -0.3264
  O  O1240  1  0.183600  0.750000  0.816400  1.0  -0.3264
  O  O1241  1  0.066400  0.750000  0.433600  1.0  -0.3249
  O  O1242  1  0.066400  0.250000  0.933600  1.0  -0.3249
  O  O1243  1  0.566400  0.750000  0.933600  1.0  -0.3249
  O  O1244  1  0.566400  0.250000  0.433600  1.0  -0.3249
  O  O1245  1  0.566400  0.500000  0.316400  1.0  -0.3256
  O  O1246  1  0.566400  0.000000  0.816400  1.0  -0.3256
  O  O1247  1  0.066400  0.500000  0.816400  1.0  -0.3256
  O  O1248  1  0.066400  0.000000  0.316400  1.0  -0.3256
  O  O1249  1  0.933600  0.183600  0.000000  1.0  -0.3247
  O  O1250  1  0.933600  0.683600  0.500000  1.0  -0.3247
  O  O1251  1  0.433600  0.183600  0.500000  1.0  -0.3247
  O  O1252  1  0.433600  0.683600  0.000000  1.0  -0.3247
  O  O1253  1  0.816400  0.683600  0.250000  1.0  -0.3246
  O  O1254  1  0.816400  0.183600  0.750000  1.0  -0.3246
  O  O1255  1  0.316400  0.683600  0.750000  1.0  -0.3246
  O  O1256  1  0.316400  0.183600  0.250000  1.0  -0.3246
  O  O1257  1  0.433600  0.066400  0.750000  1.0  -0.3252
  O  O1258  1  0.433600  0.566400  0.250000  1.0  -0.3252
  O  O1259  1  0.933600  0.066400  0.250000  1.0  -0.3252
  O  O1260  1  0.933600  0.566400  0.750000  1.0  -0.3252
  O  O1261  1  0.316400  0.566400  0.500000  1.0  -0.3256
  O  O1262  1  0.316400  0.066400  0.000000  1.0  -0.3256
  O  O1263  1  0.816400  0.566400  0.000000  1.0  -0.3256
  O  O1264  1  0.816400  0.066400  0.500000  1.0  -0.3256
  O  O1265  1  0.000000  0.066400  0.816400  1.0  -0.3261
  O  O1266  1  0.000000  0.566400  0.316400  1.0  -0.3261
  O  O1267  1  0.500000  0.066400  0.316400  1.0  -0.3261
  O  O1268  1  0.500000  0.566400  0.816400  1.0  -0.3261
  O  O1269  1  0.750000  0.183600  0.316400  1.0  -0.3258
  O  O1270  1  0.750000  0.683600  0.816400  1.0  -0.3258
  O  O1271  1  0.250000  0.183600  0.816400  1.0  -0.3258
  O  O1272  1  0.250000  0.683600  0.316400  1.0  -0.3258
  O  O1273  1  0.250000  0.566400  0.933600  1.0  -0.3246
  O  O1274  1  0.250000  0.066400  0.433600  1.0  -0.3246
  O  O1275  1  0.750000  0.566400  0.433600  1.0  -0.3246
  O  O1276  1  0.750000  0.066400  0.933600  1.0  -0.3246
  O  O1277  1  0.500000  0.683600  0.433600  1.0  -0.3241
  O  O1278  1  0.500000  0.183600  0.933600  1.0  -0.3241
  O  O1279  1  0.000000  0.683600  0.933600  1.0  -0.3241
  O  O1280  1  0.000000  0.183600  0.433600  1.0  -0.3241
  O  O1281  1  0.816400  0.000000  0.066400  1.0  -0.3256
  O  O1282  1  0.816400  0.500000  0.566400  1.0  -0.3256
  O  O1283  1  0.316400  0.000000  0.566400  1.0  -0.3256
  O  O1284  1  0.316400  0.500000  0.066400  1.0  -0.3256
  O  O1285  1  0.316400  0.750000  0.183600  1.0  -0.3249
  O  O1286  1  0.316400  0.250000  0.683600  1.0  -0.3249
  O  O1287  1  0.816400  0.750000  0.683600  1.0  -0.3249
  O  O1288  1  0.816400  0.250000  0.183600  1.0  -0.3249
  O  O1289  1  0.933600  0.250000  0.566400  1.0  -0.3264
  O  O1290  1  0.933600  0.750000  0.066400  1.0  -0.3264
  O  O1291  1  0.433600  0.250000  0.066400  1.0  -0.3264
  O  O1292  1  0.433600  0.750000  0.566400  1.0  -0.3264
  O  O1293  1  0.433600  0.500000  0.683600  1.0  -0.3247
  O  O1294  1  0.433600  0.000000  0.183600  1.0  -0.3247
  O  O1295  1  0.933600  0.500000  0.183600  1.0  -0.3247
  O  O1296  1  0.933600  0.000000  0.683600  1.0  -0.3247
  O  O1297  1  0.066400  0.816400  0.000000  1.0  -0.3256
  O  O1298  1  0.066400  0.316400  0.500000  1.0  -0.3256
  O  O1299  1  0.566400  0.816400  0.500000  1.0  -0.3256
  O  O1300  1  0.566400  0.316400  0.000000  1.0  -0.3256
  O  O1301  1  0.183600  0.316400  0.750000  1.0  -0.3252
  O  O1302  1  0.183600  0.816400  0.250000  1.0  -0.3252
  O  O1303  1  0.683600  0.316400  0.250000  1.0  -0.3252
  O  O1304  1  0.683600  0.816400  0.750000  1.0  -0.3252
  O  O1305  1  0.566400  0.933600  0.250000  1.0  -0.3246
  O  O1306  1  0.566400  0.433600  0.750000  1.0  -0.3246
  O  O1307  1  0.066400  0.933600  0.750000  1.0  -0.3246
  O  O1308  1  0.066400  0.433600  0.250000  1.0  -0.3246
  O  O1309  1  0.683600  0.433600  0.500000  1.0  -0.3247
  O  O1310  1  0.683600  0.933600  0.000000  1.0  -0.3247
  O  O1311  1  0.183600  0.433600  0.000000  1.0  -0.3247
  O  O1312  1  0.183600  0.933600  0.500000  1.0  -0.3247
