# generated using pymatgen
data_AgH4(C2N3)2
_symmetry_space_group_name_H-M   'P 1'
_cell_length_a   35.26510000
_cell_length_b   35.26510000
_cell_length_c   35.26510000
_cell_angle_alpha   60.00000000
_cell_angle_beta   60.00000000
_cell_angle_gamma   60.00000000
_symmetry_Int_Tables_number   1
_chemical_formula_structural   AgH4(C2N3)2
_chemical_formula_sum   'Ag96 H384 C384 N576'
_cell_volume   31011.32777157
_cell_formula_units_Z   96
loop_
 _symmetry_equiv_pos_site_id
 _symmetry_equiv_pos_as_xyz
  1  'x, y, z'
loop_
 _atom_site_type_symbol
 _atom_site_label
 _atom_site_symmetry_multiplicity
 _atom_site_fract_x
 _atom_site_fract_y
 _atom_site_fract_z
 _atom_site_occupancy
 _atom_site_charge
  Ag  Ag1  1  0.068860  0.883610  0.315400  1.0  0.3249
  Ag  Ag2  1  0.007000  0.819260  0.434730  1.0  0.3486
  Ag  Ag3  1  0.383610  0.568860  0.732130  1.0  0.3248
  Ag  Ag4  1  0.319260  0.507000  0.739010  1.0  0.349
  Ag  Ag5  1  0.815400  0.732130  0.568860  1.0  0.324
  Ag  Ag6  1  0.934730  0.739010  0.507000  1.0  0.3481
  Ag  Ag7  1  0.232130  0.315400  0.883610  1.0  0.3232
  Ag  Ag8  1  0.239010  0.434730  0.819260  1.0  0.3481
  Ag  Ag9  1  0.068860  0.315400  0.732130  1.0  0.3246
  Ag  Ag10  1  0.007000  0.434730  0.739010  1.0  0.3482
  Ag  Ag11  1  0.383610  0.732130  0.315400  1.0  0.3241
  Ag  Ag12  1  0.319260  0.739010  0.434730  1.0  0.3482
  Ag  Ag13  1  0.815400  0.568860  0.883610  1.0  0.3248
  Ag  Ag14  1  0.934730  0.507000  0.819260  1.0  0.3483
  Ag  Ag15  1  0.232130  0.883610  0.568860  1.0  0.3269
  Ag  Ag16  1  0.239010  0.819260  0.507000  1.0  0.3486
  Ag  Ag17  1  0.068860  0.732130  0.883610  1.0  0.3246
  Ag  Ag18  1  0.007000  0.739010  0.819260  1.0  0.3479
  Ag  Ag19  1  0.383610  0.315400  0.568860  1.0  0.3241
  Ag  Ag20  1  0.319260  0.434730  0.507000  1.0  0.3484
  Ag  Ag21  1  0.815400  0.883610  0.732130  1.0  0.3246
  Ag  Ag22  1  0.934730  0.819260  0.739010  1.0  0.3487
  Ag  Ag23  1  0.232130  0.568860  0.315400  1.0  0.3244
  Ag  Ag24  1  0.239010  0.507000  0.434730  1.0  0.3483
  Ag  Ag25  1  0.116390  0.931140  0.184600  1.0  0.3253
  Ag  Ag26  1  0.180740  0.993000  0.065270  1.0  0.3489
  Ag  Ag27  1  0.431140  0.616390  0.767870  1.0  0.324
  Ag  Ag28  1  0.493000  0.680740  0.760990  1.0  0.3489
  Ag  Ag29  1  0.267870  0.184600  0.931140  1.0  0.3232
  Ag  Ag30  1  0.260990  0.065270  0.993000  1.0  0.3481
  Ag  Ag31  1  0.684600  0.767870  0.616390  1.0  0.3241
  Ag  Ag32  1  0.565270  0.760990  0.680740  1.0  0.348
  Ag  Ag33  1  0.684600  0.931140  0.767870  1.0  0.3248
  Ag  Ag34  1  0.565270  0.993000  0.760990  1.0  0.3482
  Ag  Ag35  1  0.267870  0.616390  0.184600  1.0  0.3272
  Ag  Ag36  1  0.260990  0.680740  0.065270  1.0  0.3487
  Ag  Ag37  1  0.431140  0.184600  0.616390  1.0  0.3245
  Ag  Ag38  1  0.493000  0.065270  0.680740  1.0  0.3485
  Ag  Ag39  1  0.116390  0.767870  0.931140  1.0  0.3244
  Ag  Ag40  1  0.180740  0.760990  0.993000  1.0  0.3479
  Ag  Ag41  1  0.267870  0.931140  0.616390  1.0  0.3251
  Ag  Ag42  1  0.260990  0.993000  0.680740  1.0  0.3485
  Ag  Ag43  1  0.684600  0.616390  0.931140  1.0  0.324
  Ag  Ag44  1  0.565270  0.680740  0.993000  1.0  0.3484
  Ag  Ag45  1  0.116390  0.184600  0.767870  1.0  0.3247
  Ag  Ag46  1  0.180740  0.065270  0.760990  1.0  0.348
  Ag  Ag47  1  0.431140  0.767870  0.184600  1.0  0.3238
  Ag  Ag48  1  0.493000  0.760990  0.065270  1.0  0.348
  Ag  Ag49  1  0.931140  0.116390  0.684600  1.0  0.3243
  Ag  Ag50  1  0.993000  0.180740  0.565270  1.0  0.3492
  Ag  Ag51  1  0.616390  0.431140  0.267870  1.0  0.3249
  Ag  Ag52  1  0.680740  0.493000  0.260990  1.0  0.3486
  Ag  Ag53  1  0.184600  0.267870  0.431140  1.0  0.3226
  Ag  Ag54  1  0.065270  0.260990  0.493000  1.0  0.3478
  Ag  Ag55  1  0.767870  0.684600  0.116390  1.0  0.3247
  Ag  Ag56  1  0.760990  0.565270  0.180740  1.0  0.348
  Ag  Ag57  1  0.931140  0.684600  0.267870  1.0  0.3225
  Ag  Ag58  1  0.993000  0.565270  0.260990  1.0  0.3483
  Ag  Ag59  1  0.616390  0.267870  0.684600  1.0  0.3257
  Ag  Ag60  1  0.680740  0.260990  0.565270  1.0  0.3484
  Ag  Ag61  1  0.184600  0.431140  0.116390  1.0  0.3272
  Ag  Ag62  1  0.065270  0.493000  0.180740  1.0  0.3484
  Ag  Ag63  1  0.767870  0.116390  0.431140  1.0  0.3262
  Ag  Ag64  1  0.760990  0.180740  0.493000  1.0  0.3483
  Ag  Ag65  1  0.931140  0.267870  0.116390  1.0  0.324
  Ag  Ag66  1  0.993000  0.260990  0.180740  1.0  0.3483
  Ag  Ag67  1  0.616390  0.684600  0.431140  1.0  0.3247
  Ag  Ag68  1  0.680740  0.565270  0.493000  1.0  0.348
  Ag  Ag69  1  0.184600  0.116390  0.267870  1.0  0.324
  Ag  Ag70  1  0.065270  0.180740  0.260990  1.0  0.3484
  Ag  Ag71  1  0.767870  0.431140  0.684600  1.0  0.3249
  Ag  Ag72  1  0.760990  0.493000  0.565270  1.0  0.3485
  Ag  Ag73  1  0.883610  0.068860  0.815400  1.0  0.3245
  Ag  Ag74  1  0.819260  0.007000  0.934730  1.0  0.3487
  Ag  Ag75  1  0.568860  0.383610  0.232130  1.0  0.3252
  Ag  Ag76  1  0.507000  0.319260  0.239010  1.0  0.3489
  Ag  Ag77  1  0.732130  0.815400  0.068860  1.0  0.3247
  Ag  Ag78  1  0.739010  0.934730  0.007000  1.0  0.3482
  Ag  Ag79  1  0.315400  0.232130  0.383610  1.0  0.3225
  Ag  Ag80  1  0.434730  0.239010  0.319260  1.0  0.3482
  Ag  Ag81  1  0.315400  0.068860  0.232130  1.0  0.3265
  Ag  Ag82  1  0.434730  0.007000  0.239010  1.0  0.3485
  Ag  Ag83  1  0.732130  0.383610  0.815400  1.0  0.3255
  Ag  Ag84  1  0.739010  0.319260  0.934730  1.0  0.3482
  Ag  Ag85  1  0.568860  0.815400  0.383610  1.0  0.3226
  Ag  Ag86  1  0.507000  0.934730  0.319260  1.0  0.3482
  Ag  Ag87  1  0.883610  0.232130  0.068860  1.0  0.3253
  Ag  Ag88  1  0.819260  0.239010  0.007000  1.0  0.3485
  Ag  Ag89  1  0.732130  0.068860  0.383610  1.0  0.3244
  Ag  Ag90  1  0.739010  0.007000  0.319260  1.0  0.3483
  Ag  Ag91  1  0.315400  0.383610  0.068860  1.0  0.3249
  Ag  Ag92  1  0.434730  0.319260  0.007000  1.0  0.3487
  Ag  Ag93  1  0.883610  0.815400  0.232130  1.0  0.324
  Ag  Ag94  1  0.819260  0.934730  0.239010  1.0  0.3483
  Ag  Ag95  1  0.568860  0.232130  0.815400  1.0  0.3246
  Ag  Ag96  1  0.507000  0.239010  0.934730  1.0  0.3479
  H  H97  1  0.962000  0.983400  0.316800  1.0  0.063
  H  H98  1  0.900800  0.907000  0.442200  1.0  0.0693
  H  H99  1  0.842700  0.991100  0.351500  1.0  0.0652
  H  H100  1  0.876800  0.029600  0.415200  1.0  0.0641
  H  H101  1  0.159900  0.862700  0.345300  1.0  0.0765
  H  H102  1  0.103300  0.783500  0.469500  1.0  0.0802
  H  H103  1  0.148500  0.849500  0.468900  1.0  0.0665
  H  H104  1  0.235700  0.765300  0.395300  1.0  0.071
  H  H105  1  0.483400  0.462000  0.737800  1.0  0.0601
  H  H106  1  0.407000  0.400800  0.750000  1.0  0.0679
  H  H107  1  0.491100  0.342700  0.814700  1.0  0.0644
  H  H108  1  0.529600  0.376800  0.678400  1.0  0.0646
  H  H109  1  0.362700  0.659900  0.632100  1.0  0.0754
  H  H110  1  0.283500  0.603300  0.643700  1.0  0.0787
  H  H111  1  0.349500  0.648500  0.533100  1.0  0.0665
  H  H112  1  0.265300  0.735700  0.603700  1.0  0.0713
  H  H113  1  0.816800  0.737800  0.462000  1.0  0.0623
  H  H114  1  0.942200  0.750000  0.400800  1.0  0.0696
  H  H115  1  0.851500  0.814700  0.342700  1.0  0.0672
  H  H116  1  0.915200  0.678400  0.376800  1.0  0.0668
  H  H117  1  0.845300  0.632100  0.659900  1.0  0.0774
  H  H118  1  0.969500  0.643700  0.603300  1.0  0.0781
  H  H119  1  0.968900  0.533100  0.648500  1.0  0.0656
  H  H120  1  0.895300  0.603700  0.735700  1.0  0.0695
  H  H121  1  0.237800  0.316800  0.983400  1.0  0.0657
  H  H122  1  0.250000  0.442200  0.907000  1.0  0.0701
  H  H123  1  0.314700  0.351500  0.991100  1.0  0.0642
  H  H124  1  0.178400  0.415200  0.029600  1.0  0.065
  H  H125  1  0.132100  0.345300  0.862700  1.0  0.077
  H  H126  1  0.143700  0.469500  0.783500  1.0  0.0813
  H  H127  1  0.033100  0.468900  0.849500  1.0  0.065
  H  H128  1  0.103700  0.395300  0.765300  1.0  0.0694
  H  H129  1  0.962000  0.316800  0.737800  1.0  0.0644
  H  H130  1  0.900800  0.442200  0.750000  1.0  0.0699
  H  H131  1  0.842700  0.351500  0.814700  1.0  0.0634
  H  H132  1  0.876800  0.415200  0.678400  1.0  0.0644
  H  H133  1  0.159900  0.345300  0.632100  1.0  0.0763
  H  H134  1  0.103300  0.469500  0.643700  1.0  0.0806
  H  H135  1  0.148500  0.468900  0.533100  1.0  0.0655
  H  H136  1  0.235700  0.395300  0.603700  1.0  0.0717
  H  H137  1  0.483400  0.737800  0.316800  1.0  0.0611
  H  H138  1  0.407000  0.750000  0.442200  1.0  0.0687
  H  H139  1  0.491100  0.814700  0.351500  1.0  0.0665
  H  H140  1  0.529600  0.678400  0.415200  1.0  0.0674
  H  H141  1  0.362700  0.632100  0.345300  1.0  0.0763
  H  H142  1  0.283500  0.643700  0.469500  1.0  0.0788
  H  H143  1  0.349500  0.533100  0.468900  1.0  0.0652
  H  H144  1  0.265300  0.603700  0.395300  1.0  0.0712
  H  H145  1  0.816800  0.462000  0.983400  1.0  0.062
  H  H146  1  0.942200  0.400800  0.907000  1.0  0.0686
  H  H147  1  0.851500  0.342700  0.991100  1.0  0.064
  H  H148  1  0.915200  0.376800  0.029600  1.0  0.0639
  H  H149  1  0.845300  0.659900  0.862700  1.0  0.074
  H  H150  1  0.969500  0.603300  0.783500  1.0  0.0784
  H  H151  1  0.968900  0.648500  0.849500  1.0  0.0671
  H  H152  1  0.895300  0.735700  0.765300  1.0  0.0716
  H  H153  1  0.237800  0.983400  0.462000  1.0  0.0634
  H  H154  1  0.250000  0.907000  0.400800  1.0  0.0695
  H  H155  1  0.314700  0.991100  0.342700  1.0  0.0647
  H  H156  1  0.178400  0.029600  0.376800  1.0  0.0654
  H  H157  1  0.132100  0.862700  0.659900  1.0  0.075
  H  H158  1  0.143700  0.783500  0.603300  1.0  0.0797
  H  H159  1  0.033100  0.849500  0.648500  1.0  0.0659
  H  H160  1  0.103700  0.765300  0.735700  1.0  0.0704
  H  H161  1  0.962000  0.737800  0.983400  1.0  0.0616
  H  H162  1  0.900800  0.750000  0.907000  1.0  0.0691
  H  H163  1  0.842700  0.814700  0.991100  1.0  0.0666
  H  H164  1  0.876800  0.678400  0.029600  1.0  0.0664
  H  H165  1  0.159900  0.632100  0.862700  1.0  0.0756
  H  H166  1  0.103300  0.643700  0.783500  1.0  0.0786
  H  H167  1  0.148500  0.533100  0.849500  1.0  0.066
  H  H168  1  0.235700  0.603700  0.765300  1.0  0.0704
  H  H169  1  0.483400  0.316800  0.462000  1.0  0.0643
  H  H170  1  0.407000  0.442200  0.400800  1.0  0.0695
  H  H171  1  0.491100  0.351500  0.342700  1.0  0.0634
  H  H172  1  0.529600  0.415200  0.376800  1.0  0.0646
  H  H173  1  0.362700  0.345300  0.659900  1.0  0.0769
  H  H174  1  0.283500  0.469500  0.603300  1.0  0.0828
  H  H175  1  0.349500  0.468900  0.648500  1.0  0.0671
  H  H176  1  0.265300  0.395300  0.735700  1.0  0.0694
  H  H177  1  0.816800  0.983400  0.737800  1.0  0.0639
  H  H178  1  0.942200  0.907000  0.750000  1.0  0.0673
  H  H179  1  0.851500  0.991100  0.814700  1.0  0.063
  H  H180  1  0.915200  0.029600  0.678400  1.0  0.0649
  H  H181  1  0.845300  0.862700  0.632100  1.0  0.0764
  H  H182  1  0.969500  0.783500  0.643700  1.0  0.0805
  H  H183  1  0.968900  0.849500  0.533100  1.0  0.0674
  H  H184  1  0.895300  0.765300  0.603700  1.0  0.0707
  H  H185  1  0.237800  0.462000  0.316800  1.0  0.0618
  H  H186  1  0.250000  0.400800  0.442200  1.0  0.0701
  H  H187  1  0.314700  0.342700  0.351500  1.0  0.0643
  H  H188  1  0.178400  0.376800  0.415200  1.0  0.0632
  H  H189  1  0.132100  0.659900  0.345300  1.0  0.076
  H  H190  1  0.143700  0.603300  0.469500  1.0  0.0788
  H  H191  1  0.033100  0.648500  0.468900  1.0  0.0666
  H  H192  1  0.103700  0.735700  0.395300  1.0  0.0707
  H  H193  1  0.016600  0.038000  0.183200  1.0  0.0615
  H  H194  1  0.093000  0.099200  0.057800  1.0  0.0686
  H  H195  1  0.008900  0.157300  0.148500  1.0  0.0636
  H  H196  1  0.970400  0.123200  0.084800  1.0  0.065
  H  H197  1  0.137300  0.840100  0.154700  1.0  0.0763
  H  H198  1  0.216500  0.896700  0.030500  1.0  0.0786
  H  H199  1  0.150500  0.851500  0.031100  1.0  0.0666
  H  H200  1  0.234700  0.764300  0.104700  1.0  0.0712
  H  H201  1  0.538000  0.516600  0.762200  1.0  0.0634
  H  H202  1  0.599200  0.593000  0.750000  1.0  0.0692
  H  H203  1  0.657300  0.508900  0.685300  1.0  0.0648
  H  H204  1  0.623200  0.470400  0.821600  1.0  0.0646
  H  H205  1  0.340100  0.637300  0.867900  1.0  0.0767
  H  H206  1  0.396700  0.716500  0.856300  1.0  0.0796
  H  H207  1  0.351500  0.650500  0.966900  1.0  0.0659
  H  H208  1  0.264300  0.734700  0.896300  1.0  0.071
  H  H209  1  0.262200  0.183200  0.038000  1.0  0.0654
  H  H210  1  0.250000  0.057800  0.099200  1.0  0.0704
  H  H211  1  0.185300  0.148500  0.157300  1.0  0.0643
  H  H212  1  0.321600  0.084800  0.123200  1.0  0.0653
  H  H213  1  0.367900  0.154700  0.840100  1.0  0.0766
  H  H214  1  0.356300  0.030500  0.896700  1.0  0.0809
  H  H215  1  0.466900  0.031100  0.851500  1.0  0.0653
  H  H216  1  0.396300  0.104700  0.764300  1.0  0.0696
  H  H217  1  0.683200  0.762200  0.516600  1.0  0.0621
  H  H218  1  0.557800  0.750000  0.593000  1.0  0.0697
  H  H219  1  0.648500  0.685300  0.508900  1.0  0.066
  H  H220  1  0.584800  0.821600  0.470400  1.0  0.0671
  H  H221  1  0.654700  0.867900  0.637300  1.0  0.0762
  H  H222  1  0.530500  0.856300  0.716500  1.0  0.0786
  H  H223  1  0.531100  0.966900  0.650500  1.0  0.0651
  H  H224  1  0.604700  0.896300  0.734700  1.0  0.0691
  H  H225  1  0.683200  0.038000  0.762200  1.0  0.0611
  H  H226  1  0.557800  0.099200  0.750000  1.0  0.069
  H  H227  1  0.648500  0.157300  0.685300  1.0  0.0633
  H  H228  1  0.584800  0.123200  0.821600  1.0  0.0643
  H  H229  1  0.654700  0.840100  0.867900  1.0  0.074
  H  H230  1  0.530500  0.896700  0.856300  1.0  0.0788
  H  H231  1  0.531100  0.851500  0.966900  1.0  0.0671
  H  H232  1  0.604700  0.764300  0.896300  1.0  0.0718
  H  H233  1  0.262200  0.516600  0.183200  1.0  0.0639
  H  H234  1  0.250000  0.593000  0.057800  1.0  0.0695
  H  H235  1  0.185300  0.508900  0.148500  1.0  0.0651
  H  H236  1  0.321600  0.470400  0.084800  1.0  0.0651
  H  H237  1  0.367900  0.637300  0.154700  1.0  0.0752
  H  H238  1  0.356300  0.716500  0.030500  1.0  0.0804
  H  H239  1  0.466900  0.650500  0.031100  1.0  0.0651
  H  H240  1  0.396300  0.734700  0.104700  1.0  0.0704
  H  H241  1  0.538000  0.183200  0.516600  1.0  0.0642
  H  H242  1  0.599200  0.057800  0.593000  1.0  0.0692
  H  H243  1  0.657300  0.148500  0.508900  1.0  0.0636
  H  H244  1  0.623200  0.084800  0.470400  1.0  0.0644
  H  H245  1  0.340100  0.154700  0.637300  1.0  0.0765
  H  H246  1  0.396700  0.030500  0.716500  1.0  0.0805
  H  H247  1  0.351500  0.031100  0.650500  1.0  0.0662
  H  H248  1  0.264300  0.104700  0.734700  1.0  0.0717
  H  H249  1  0.016600  0.762200  0.038000  1.0  0.0605
  H  H250  1  0.093000  0.750000  0.099200  1.0  0.0687
  H  H251  1  0.008900  0.685300  0.157300  1.0  0.0661
  H  H252  1  0.970400  0.821600  0.123200  1.0  0.0674
  H  H253  1  0.137300  0.867900  0.840100  1.0  0.0764
  H  H254  1  0.216500  0.856300  0.896700  1.0  0.0785
  H  H255  1  0.150500  0.966900  0.851500  1.0  0.0654
  H  H256  1  0.234700  0.896300  0.764300  1.0  0.0706
  H  H257  1  0.262200  0.038000  0.516600  1.0  0.0616
  H  H258  1  0.250000  0.099200  0.593000  1.0  0.0698
  H  H259  1  0.185300  0.157300  0.508900  1.0  0.0657
  H  H260  1  0.321600  0.123200  0.470400  1.0  0.0636
  H  H261  1  0.367900  0.840100  0.637300  1.0  0.0762
  H  H262  1  0.356300  0.896700  0.716500  1.0  0.0784
  H  H263  1  0.466900  0.851500  0.650500  1.0  0.0675
  H  H264  1  0.396300  0.764300  0.734700  1.0  0.0706
  H  H265  1  0.683200  0.516600  0.038000  1.0  0.064
  H  H266  1  0.557800  0.593000  0.099200  1.0  0.0674
  H  H267  1  0.648500  0.508900  0.157300  1.0  0.0623
  H  H268  1  0.584800  0.470400  0.123200  1.0  0.065
  H  H269  1  0.654700  0.637300  0.840100  1.0  0.0762
  H  H270  1  0.530500  0.716500  0.896700  1.0  0.081
  H  H271  1  0.531100  0.650500  0.851500  1.0  0.0662
  H  H272  1  0.604700  0.734700  0.764300  1.0  0.0709
  H  H273  1  0.016600  0.183200  0.762200  1.0  0.0646
  H  H274  1  0.093000  0.057800  0.750000  1.0  0.0683
  H  H275  1  0.008900  0.148500  0.685300  1.0  0.0639
  H  H276  1  0.970400  0.084800  0.821600  1.0  0.0655
  H  H277  1  0.137300  0.154700  0.867900  1.0  0.0764
  H  H278  1  0.216500  0.030500  0.856300  1.0  0.0821
  H  H279  1  0.150500  0.031100  0.966900  1.0  0.0662
  H  H280  1  0.234700  0.104700  0.896300  1.0  0.0704
  H  H281  1  0.538000  0.762200  0.183200  1.0  0.0613
  H  H282  1  0.599200  0.750000  0.057800  1.0  0.0693
  H  H283  1  0.657300  0.685300  0.148500  1.0  0.0669
  H  H284  1  0.623200  0.821600  0.084800  1.0  0.0669
  H  H285  1  0.340100  0.867900  0.154700  1.0  0.0764
  H  H286  1  0.396700  0.856300  0.030500  1.0  0.0794
  H  H287  1  0.351500  0.966900  0.031100  1.0  0.0664
  H  H288  1  0.264300  0.896300  0.104700  1.0  0.07
  H  H289  1  0.038000  0.016600  0.683200  1.0  0.0634
  H  H290  1  0.099200  0.093000  0.557800  1.0  0.0686
  H  H291  1  0.157300  0.008900  0.648500  1.0  0.0637
  H  H292  1  0.123200  0.970400  0.584800  1.0  0.0646
  H  H293  1  0.840100  0.137300  0.654700  1.0  0.0768
  H  H294  1  0.896700  0.216500  0.530500  1.0  0.0799
  H  H295  1  0.851500  0.150500  0.531100  1.0  0.0657
  H  H296  1  0.764300  0.234700  0.604700  1.0  0.0714
  H  H297  1  0.516600  0.538000  0.262200  1.0  0.0612
  H  H298  1  0.593000  0.599200  0.250000  1.0  0.0692
  H  H299  1  0.508900  0.657300  0.185300  1.0  0.0643
  H  H300  1  0.470400  0.623200  0.321600  1.0  0.065
  H  H301  1  0.637300  0.340100  0.367900  1.0  0.076
  H  H302  1  0.716500  0.396700  0.356300  1.0  0.0784
  H  H303  1  0.650500  0.351500  0.466900  1.0  0.0671
  H  H304  1  0.734700  0.264300  0.396300  1.0  0.0712
  H  H305  1  0.183200  0.262200  0.538000  1.0  0.0619
  H  H306  1  0.057800  0.250000  0.599200  1.0  0.0692
  H  H307  1  0.148500  0.185300  0.657300  1.0  0.0659
  H  H308  1  0.084800  0.321600  0.623200  1.0  0.0674
  H  H309  1  0.154700  0.367900  0.340100  1.0  0.0761
  H  H310  1  0.030500  0.356300  0.396700  1.0  0.0791
  H  H311  1  0.031100  0.466900  0.351500  1.0  0.065
  H  H312  1  0.104700  0.396300  0.264300  1.0  0.0694
  H  H313  1  0.762200  0.683200  0.016600  1.0  0.0651
  H  H314  1  0.750000  0.557800  0.093000  1.0  0.0709
  H  H315  1  0.685300  0.648500  0.008900  1.0  0.0641
  H  H316  1  0.821600  0.584800  0.970400  1.0  0.0653
  H  H317  1  0.867900  0.654700  0.137300  1.0  0.0767
  H  H318  1  0.856300  0.530500  0.216500  1.0  0.0808
  H  H319  1  0.966900  0.531100  0.150500  1.0  0.0655
  H  H320  1  0.896300  0.604700  0.234700  1.0  0.0689
  H  H321  1  0.038000  0.683200  0.262200  1.0  0.0647
  H  H322  1  0.099200  0.557800  0.250000  1.0  0.0702
  H  H323  1  0.157300  0.648500  0.185300  1.0  0.0639
  H  H324  1  0.123200  0.584800  0.321600  1.0  0.0648
  H  H325  1  0.840100  0.654700  0.367900  1.0  0.0756
  H  H326  1  0.896700  0.530500  0.356300  1.0  0.081
  H  H327  1  0.851500  0.531100  0.466900  1.0  0.0661
  H  H328  1  0.764300  0.604700  0.396300  1.0  0.0714
  H  H329  1  0.516600  0.262200  0.683200  1.0  0.0608
  H  H330  1  0.593000  0.250000  0.557800  1.0  0.0695
  H  H331  1  0.508900  0.185300  0.648500  1.0  0.0664
  H  H332  1  0.470400  0.321600  0.584800  1.0  0.0675
  H  H333  1  0.637300  0.367900  0.654700  1.0  0.0753
  H  H334  1  0.716500  0.356300  0.530500  1.0  0.0786
  H  H335  1  0.650500  0.466900  0.531100  1.0  0.064
  H  H336  1  0.734700  0.396300  0.604700  1.0  0.0716
  H  H337  1  0.183200  0.538000  0.016600  1.0  0.0609
  H  H338  1  0.057800  0.599200  0.093000  1.0  0.0681
  H  H339  1  0.148500  0.657300  0.008900  1.0  0.0617
  H  H340  1  0.084800  0.623200  0.970400  1.0  0.0641
  H  H341  1  0.154700  0.340100  0.137300  1.0  0.0747
  H  H342  1  0.030500  0.396700  0.216500  1.0  0.0783
  H  H343  1  0.031100  0.351500  0.150500  1.0  0.067
  H  H344  1  0.104700  0.264300  0.234700  1.0  0.0717
  H  H345  1  0.762200  0.016600  0.538000  1.0  0.0631
  H  H346  1  0.750000  0.093000  0.599200  1.0  0.0684
  H  H347  1  0.685300  0.008900  0.657300  1.0  0.0649
  H  H348  1  0.821600  0.970400  0.623200  1.0  0.0655
  H  H349  1  0.867900  0.137300  0.340100  1.0  0.076
  H  H350  1  0.856300  0.216500  0.396700  1.0  0.0798
  H  H351  1  0.966900  0.150500  0.351500  1.0  0.0665
  H  H352  1  0.896300  0.234700  0.264300  1.0  0.0701
  H  H353  1  0.038000  0.262200  0.016600  1.0  0.0612
  H  H354  1  0.099200  0.250000  0.093000  1.0  0.0698
  H  H355  1  0.157300  0.185300  0.008900  1.0  0.0665
  H  H356  1  0.123200  0.321600  0.970400  1.0  0.0661
  H  H357  1  0.840100  0.367900  0.137300  1.0  0.0761
  H  H358  1  0.896700  0.356300  0.216500  1.0  0.0787
  H  H359  1  0.851500  0.466900  0.150500  1.0  0.067
  H  H360  1  0.764300  0.396300  0.234700  1.0  0.0701
  H  H361  1  0.516600  0.683200  0.538000  1.0  0.0645
  H  H362  1  0.593000  0.557800  0.599200  1.0  0.0686
  H  H363  1  0.508900  0.648500  0.657300  1.0  0.063
  H  H364  1  0.470400  0.584800  0.623200  1.0  0.0651
  H  H365  1  0.637300  0.654700  0.340100  1.0  0.0767
  H  H366  1  0.716500  0.530500  0.396700  1.0  0.0822
  H  H367  1  0.650500  0.531100  0.351500  1.0  0.0668
  H  H368  1  0.734700  0.604700  0.264300  1.0  0.0709
  H  H369  1  0.183200  0.016600  0.262200  1.0  0.064
  H  H370  1  0.057800  0.093000  0.250000  1.0  0.0674
  H  H371  1  0.148500  0.008900  0.185300  1.0  0.0631
  H  H372  1  0.084800  0.970400  0.321600  1.0  0.0655
  H  H373  1  0.154700  0.137300  0.367900  1.0  0.0759
  H  H374  1  0.030500  0.216500  0.356300  1.0  0.0809
  H  H375  1  0.031100  0.150500  0.466900  1.0  0.0656
  H  H376  1  0.104700  0.234700  0.396300  1.0  0.0704
  H  H377  1  0.762200  0.538000  0.683200  1.0  0.0616
  H  H378  1  0.750000  0.599200  0.557800  1.0  0.0694
  H  H379  1  0.685300  0.657300  0.648500  1.0  0.0656
  H  H380  1  0.821600  0.623200  0.584800  1.0  0.0641
  H  H381  1  0.867900  0.340100  0.654700  1.0  0.0765
  H  H382  1  0.856300  0.396700  0.530500  1.0  0.0791
  H  H383  1  0.966900  0.351500  0.531100  1.0  0.0669
  H  H384  1  0.896300  0.264300  0.604700  1.0  0.0705
  H  H385  1  0.983400  0.962000  0.816800  1.0  0.061
  H  H386  1  0.907000  0.900800  0.942200  1.0  0.0693
  H  H387  1  0.991100  0.842700  0.851500  1.0  0.0653
  H  H388  1  0.029600  0.876800  0.915200  1.0  0.0641
  H  H389  1  0.862700  0.159900  0.845300  1.0  0.0755
  H  H390  1  0.783500  0.103300  0.969500  1.0  0.0792
  H  H391  1  0.849500  0.148500  0.968900  1.0  0.067
  H  H392  1  0.765300  0.235700  0.895300  1.0  0.0712
  H  H393  1  0.462000  0.483400  0.237800  1.0  0.0627
  H  H394  1  0.400800  0.407000  0.250000  1.0  0.0681
  H  H395  1  0.342700  0.491100  0.314700  1.0  0.0644
  H  H396  1  0.376800  0.529600  0.178400  1.0  0.065
  H  H397  1  0.659900  0.362700  0.132100  1.0  0.0763
  H  H398  1  0.603300  0.283500  0.143700  1.0  0.0794
  H  H399  1  0.648500  0.349500  0.033100  1.0  0.0659
  H  H400  1  0.735700  0.265300  0.103700  1.0  0.0711
  H  H401  1  0.737800  0.816800  0.962000  1.0  0.0651
  H  H402  1  0.750000  0.942200  0.900800  1.0  0.0708
  H  H403  1  0.814700  0.851500  0.842700  1.0  0.0642
  H  H404  1  0.678400  0.915200  0.876800  1.0  0.0649
  H  H405  1  0.632100  0.845300  0.159900  1.0  0.0773
  H  H406  1  0.643700  0.969500  0.103300  1.0  0.0809
  H  H407  1  0.533100  0.968900  0.148500  1.0  0.0655
  H  H408  1  0.603700  0.895300  0.235700  1.0  0.0691
  H  H409  1  0.316800  0.237800  0.483400  1.0  0.0627
  H  H410  1  0.442200  0.250000  0.407000  1.0  0.0687
  H  H411  1  0.351500  0.314700  0.491100  1.0  0.0664
  H  H412  1  0.415200  0.178400  0.529600  1.0  0.0669
  H  H413  1  0.345300  0.132100  0.362700  1.0  0.0772
  H  H414  1  0.469500  0.143700  0.283500  1.0  0.0786
  H  H415  1  0.468900  0.033100  0.349500  1.0  0.0649
  H  H416  1  0.395300  0.103700  0.265300  1.0  0.0701
  H  H417  1  0.316800  0.962000  0.237800  1.0  0.0616
  H  H418  1  0.442200  0.900800  0.250000  1.0  0.0678
  H  H419  1  0.351500  0.842700  0.314700  1.0  0.0628
  H  H420  1  0.415200  0.876800  0.178400  1.0  0.0642
  H  H421  1  0.345300  0.159900  0.132100  1.0  0.0751
  H  H422  1  0.469500  0.103300  0.143700  1.0  0.0778
  H  H423  1  0.468900  0.148500  0.033100  1.0  0.0667
  H  H424  1  0.395300  0.235700  0.103700  1.0  0.0717
  H  H425  1  0.737800  0.483400  0.816800  1.0  0.0629
  H  H426  1  0.750000  0.407000  0.942200  1.0  0.0686
  H  H427  1  0.814700  0.491100  0.851500  1.0  0.0646
  H  H428  1  0.678400  0.529600  0.915200  1.0  0.0654
  H  H429  1  0.632100  0.362700  0.845300  1.0  0.0757
  H  H430  1  0.643700  0.283500  0.969500  1.0  0.0803
  H  H431  1  0.533100  0.349500  0.968900  1.0  0.0669
  H  H432  1  0.603700  0.265300  0.895300  1.0  0.07
  H  H433  1  0.462000  0.816800  0.483400  1.0  0.0652
  H  H434  1  0.400800  0.942200  0.407000  1.0  0.0708
  H  H435  1  0.342700  0.851500  0.491100  1.0  0.0642
  H  H436  1  0.376800  0.915200  0.529600  1.0  0.0638
  H  H437  1  0.659900  0.845300  0.362700  1.0  0.0756
  H  H438  1  0.603300  0.969500  0.283500  1.0  0.0811
  H  H439  1  0.648500  0.968900  0.349500  1.0  0.0657
  H  H440  1  0.735700  0.895300  0.265300  1.0  0.0713
  H  H441  1  0.983400  0.237800  0.962000  1.0  0.0609
  H  H442  1  0.907000  0.250000  0.900800  1.0  0.0695
  H  H443  1  0.991100  0.314700  0.842700  1.0  0.0669
  H  H444  1  0.029600  0.178400  0.876800  1.0  0.0674
  H  H445  1  0.862700  0.132100  0.159900  1.0  0.0753
  H  H446  1  0.783500  0.143700  0.103300  1.0  0.0784
  H  H447  1  0.849500  0.033100  0.148500  1.0  0.0646
  H  H448  1  0.765300  0.103700  0.235700  1.0  0.0715
  H  H449  1  0.737800  0.962000  0.483400  1.0  0.0614
  H  H450  1  0.750000  0.900800  0.407000  1.0  0.0692
  H  H451  1  0.814700  0.842700  0.491100  1.0  0.0638
  H  H452  1  0.678400  0.876800  0.529600  1.0  0.0639
  H  H453  1  0.632100  0.159900  0.362700  1.0  0.0763
  H  H454  1  0.643700  0.103300  0.283500  1.0  0.0787
  H  H455  1  0.533100  0.148500  0.349500  1.0  0.0667
  H  H456  1  0.603700  0.235700  0.265300  1.0  0.0704
  H  H457  1  0.316800  0.483400  0.962000  1.0  0.064
  H  H458  1  0.442200  0.407000  0.900800  1.0  0.0672
  H  H459  1  0.351500  0.491100  0.842700  1.0  0.0631
  H  H460  1  0.415200  0.529600  0.876800  1.0  0.0647
  H  H461  1  0.345300  0.362700  0.159900  1.0  0.076
  H  H462  1  0.469500  0.283500  0.103300  1.0  0.0804
  H  H463  1  0.468900  0.349500  0.148500  1.0  0.0675
  H  H464  1  0.395300  0.265300  0.235700  1.0  0.0699
  H  H465  1  0.983400  0.816800  0.237800  1.0  0.0643
  H  H466  1  0.907000  0.942200  0.250000  1.0  0.0695
  H  H467  1  0.991100  0.851500  0.314700  1.0  0.063
  H  H468  1  0.029600  0.915200  0.178400  1.0  0.0648
  H  H469  1  0.862700  0.845300  0.132100  1.0  0.0771
  H  H470  1  0.783500  0.969500  0.143700  1.0  0.0825
  H  H471  1  0.849500  0.968900  0.033100  1.0  0.0666
  H  H472  1  0.765300  0.895300  0.103700  1.0  0.0702
  H  H473  1  0.462000  0.237800  0.816800  1.0  0.061
  H  H474  1  0.400800  0.250000  0.942200  1.0  0.0699
  H  H475  1  0.342700  0.314700  0.851500  1.0  0.067
  H  H476  1  0.376800  0.178400  0.915200  1.0  0.0658
  H  H477  1  0.659900  0.132100  0.845300  1.0  0.0758
  H  H478  1  0.603300  0.143700  0.969500  1.0  0.0787
  H  H479  1  0.648500  0.033100  0.968900  1.0  0.0658
  H  H480  1  0.735700  0.103700  0.895300  1.0  0.0708
  C  C481  1  0.956990  0.958250  0.344850  1.0  0.0944
  C  C482  1  0.923480  0.916740  0.413460  1.0  0.1159
  C  C483  1  0.841710  0.007210  0.367110  1.0  0.0752
  C  C484  1  0.859940  0.027960  0.402120  1.0  0.071
  C  C485  1  0.139670  0.846370  0.370710  1.0  0.0827
  C  C486  1  0.108650  0.803570  0.438130  1.0  0.0823
  C  C487  1  0.176060  0.828920  0.454360  1.0  0.0745
  C  C488  1  0.223250  0.783210  0.414410  1.0  0.0594
  C  C489  1  0.458250  0.456990  0.739910  1.0  0.0943
  C  C490  1  0.416740  0.423480  0.746320  1.0  0.1138
  C  C491  1  0.507210  0.341710  0.783970  1.0  0.0724
  C  C492  1  0.527960  0.359940  0.709980  1.0  0.0702
  C  C493  1  0.346370  0.639670  0.643250  1.0  0.081
  C  C494  1  0.303570  0.608650  0.649650  1.0  0.0825
  C  C495  1  0.328920  0.676060  0.540660  1.0  0.0758
  C  C496  1  0.283210  0.723250  0.579130  1.0  0.0571
  C  C497  1  0.844850  0.739910  0.456990  1.0  0.0909
  C  C498  1  0.913460  0.746320  0.423480  1.0  0.1139
  C  C499  1  0.867110  0.783970  0.341710  1.0  0.0777
  C  C500  1  0.902120  0.709980  0.359940  1.0  0.0711
  C  C501  1  0.870710  0.643250  0.639670  1.0  0.0794
  C  C502  1  0.938130  0.649650  0.608650  1.0  0.0821
  C  C503  1  0.954360  0.540660  0.676060  1.0  0.0757
  C  C504  1  0.914410  0.579130  0.723250  1.0  0.0568
  C  C505  1  0.239910  0.344850  0.958250  1.0  0.0928
  C  C506  1  0.246320  0.413460  0.916740  1.0  0.1148
  C  C507  1  0.283970  0.367110  0.007210  1.0  0.0743
  C  C508  1  0.209980  0.402120  0.027960  1.0  0.0692
  C  C509  1  0.143250  0.370710  0.846370  1.0  0.0815
  C  C510  1  0.149650  0.438130  0.803570  1.0  0.0838
  C  C511  1  0.040660  0.454360  0.828920  1.0  0.0756
  C  C512  1  0.079130  0.414410  0.783210  1.0  0.0583
  C  C513  1  0.956990  0.344850  0.739910  1.0  0.0925
  C  C514  1  0.923480  0.413460  0.746320  1.0  0.1153
  C  C515  1  0.841710  0.367110  0.783970  1.0  0.0726
  C  C516  1  0.859940  0.402120  0.709980  1.0  0.0704
  C  C517  1  0.139670  0.370710  0.643250  1.0  0.0825
  C  C518  1  0.108650  0.438130  0.649650  1.0  0.0836
  C  C519  1  0.176060  0.454360  0.540660  1.0  0.0754
  C  C520  1  0.223250  0.414410  0.579130  1.0  0.0586
  C  C521  1  0.458250  0.739910  0.344850  1.0  0.0954
  C  C522  1  0.416740  0.746320  0.413460  1.0  0.115
  C  C523  1  0.507210  0.783970  0.367110  1.0  0.0778
  C  C524  1  0.527960  0.709980  0.402120  1.0  0.0712
  C  C525  1  0.346370  0.643250  0.370710  1.0  0.0833
  C  C526  1  0.303570  0.649650  0.438130  1.0  0.0843
  C  C527  1  0.328920  0.540660  0.454360  1.0  0.0769
  C  C528  1  0.283210  0.579130  0.414410  1.0  0.0585
  C  C529  1  0.844850  0.456990  0.958250  1.0  0.0919
  C  C530  1  0.913460  0.423480  0.916740  1.0  0.1153
  C  C531  1  0.867110  0.341710  0.007210  1.0  0.0755
  C  C532  1  0.902120  0.359940  0.027960  1.0  0.0723
  C  C533  1  0.870710  0.639670  0.846370  1.0  0.0805
  C  C534  1  0.938130  0.608650  0.803570  1.0  0.0824
  C  C535  1  0.954360  0.676060  0.828920  1.0  0.0767
  C  C536  1  0.914410  0.723250  0.783210  1.0  0.058
  C  C537  1  0.239910  0.958250  0.456990  1.0  0.0927
  C  C538  1  0.246320  0.916740  0.423480  1.0  0.1149
  C  C539  1  0.283970  0.007210  0.341710  1.0  0.0744
  C  C540  1  0.209980  0.027960  0.359940  1.0  0.0695
  C  C541  1  0.143250  0.846370  0.639670  1.0  0.0807
  C  C542  1  0.149650  0.803570  0.608650  1.0  0.0819
  C  C543  1  0.040660  0.828920  0.676060  1.0  0.0761
  C  C544  1  0.079130  0.783210  0.723250  1.0  0.0587
  C  C545  1  0.956990  0.739910  0.958250  1.0  0.0945
  C  C546  1  0.923480  0.746320  0.916740  1.0  0.1171
  C  C547  1  0.841710  0.783970  0.007210  1.0  0.0771
  C  C548  1  0.859940  0.709980  0.027960  1.0  0.0708
  C  C549  1  0.139670  0.643250  0.846370  1.0  0.0827
  C  C550  1  0.108650  0.649650  0.803570  1.0  0.0831
  C  C551  1  0.176060  0.540660  0.828920  1.0  0.0739
  C  C552  1  0.223250  0.579130  0.783210  1.0  0.059
  C  C553  1  0.458250  0.344850  0.456990  1.0  0.0925
  C  C554  1  0.416740  0.413460  0.423480  1.0  0.1157
  C  C555  1  0.507210  0.367110  0.341710  1.0  0.0724
  C  C556  1  0.527960  0.402120  0.359940  1.0  0.0703
  C  C557  1  0.346370  0.370710  0.639670  1.0  0.0816
  C  C558  1  0.303570  0.438130  0.608650  1.0  0.0835
  C  C559  1  0.328920  0.454360  0.676060  1.0  0.0748
  C  C560  1  0.283210  0.414410  0.723250  1.0  0.0598
  C  C561  1  0.844850  0.958250  0.739910  1.0  0.0933
  C  C562  1  0.913460  0.916740  0.746320  1.0  0.1164
  C  C563  1  0.867110  0.007210  0.783970  1.0  0.0736
  C  C564  1  0.902120  0.027960  0.709980  1.0  0.0715
  C  C565  1  0.870710  0.846370  0.643250  1.0  0.0797
  C  C566  1  0.938130  0.803570  0.649650  1.0  0.0832
  C  C567  1  0.954360  0.828920  0.540660  1.0  0.075
  C  C568  1  0.914410  0.783210  0.579130  1.0  0.0602
  C  C569  1  0.239910  0.456990  0.344850  1.0  0.094
  C  C570  1  0.246320  0.423480  0.413460  1.0  0.1158
  C  C571  1  0.283970  0.341710  0.367110  1.0  0.0736
  C  C572  1  0.209980  0.359940  0.402120  1.0  0.0695
  C  C573  1  0.143250  0.639670  0.370710  1.0  0.0827
  C  C574  1  0.149650  0.608650  0.438130  1.0  0.0832
  C  C575  1  0.040660  0.676060  0.454360  1.0  0.0734
  C  C576  1  0.079130  0.723250  0.414410  1.0  0.0592
  C  C577  1  0.041750  0.043010  0.155150  1.0  0.094
  C  C578  1  0.083260  0.076520  0.086540  1.0  0.1149
  C  C579  1  0.992790  0.158290  0.132890  1.0  0.0731
  C  C580  1  0.972040  0.140060  0.097880  1.0  0.0704
  C  C581  1  0.153630  0.860330  0.129290  1.0  0.0809
  C  C582  1  0.196430  0.891350  0.061870  1.0  0.0826
  C  C583  1  0.171080  0.823940  0.045640  1.0  0.0743
  C  C584  1  0.216790  0.776750  0.085590  1.0  0.0588
  C  C585  1  0.543010  0.541750  0.760090  1.0  0.0922
  C  C586  1  0.576520  0.583260  0.753680  1.0  0.1155
  C  C587  1  0.658290  0.492790  0.716030  1.0  0.0752
  C  C588  1  0.640060  0.472040  0.790020  1.0  0.0718
  C  C589  1  0.360330  0.653630  0.856750  1.0  0.0826
  C  C590  1  0.391350  0.696430  0.850350  1.0  0.082
  C  C591  1  0.323940  0.671080  0.959340  1.0  0.0768
  C  C592  1  0.276750  0.716790  0.920870  1.0  0.0586
  C  C593  1  0.260090  0.155150  0.043010  1.0  0.0938
  C  C594  1  0.253680  0.086540  0.076520  1.0  0.116
  C  C595  1  0.216030  0.132890  0.158290  1.0  0.0749
  C  C596  1  0.290020  0.097880  0.140060  1.0  0.0702
  C  C597  1  0.356750  0.129290  0.860330  1.0  0.082
  C  C598  1  0.350350  0.061870  0.891350  1.0  0.0832
  C  C599  1  0.459340  0.045640  0.823940  1.0  0.077
  C  C600  1  0.420870  0.085590  0.776750  1.0  0.0577
  C  C601  1  0.655150  0.760090  0.541750  1.0  0.0927
  C  C602  1  0.586540  0.753680  0.583260  1.0  0.1115
  C  C603  1  0.632890  0.716030  0.492790  1.0  0.075
  C  C604  1  0.597880  0.790020  0.472040  1.0  0.073
  C  C605  1  0.629290  0.856750  0.653630  1.0  0.0815
  C  C606  1  0.561870  0.850350  0.696430  1.0  0.0811
  C  C607  1  0.545640  0.959340  0.671080  1.0  0.0744
  C  C608  1  0.585590  0.920870  0.716790  1.0  0.0582
  C  C609  1  0.655150  0.043010  0.760090  1.0  0.0944
  C  C610  1  0.586540  0.076520  0.753680  1.0  0.1138
  C  C611  1  0.632890  0.158290  0.716030  1.0  0.0766
  C  C612  1  0.597880  0.140060  0.790020  1.0  0.0722
  C  C613  1  0.629290  0.860330  0.856750  1.0  0.0826
  C  C614  1  0.561870  0.891350  0.850350  1.0  0.0819
  C  C615  1  0.545640  0.823940  0.959340  1.0  0.0738
  C  C616  1  0.585590  0.776750  0.920870  1.0  0.0588
  C  C617  1  0.260090  0.541750  0.155150  1.0  0.0938
  C  C618  1  0.253680  0.583260  0.086540  1.0  0.1156
  C  C619  1  0.216030  0.492790  0.132890  1.0  0.0723
  C  C620  1  0.290020  0.472040  0.097880  1.0  0.0705
  C  C621  1  0.356750  0.653630  0.129290  1.0  0.0814
  C  C622  1  0.350350  0.696430  0.061870  1.0  0.082
  C  C623  1  0.459340  0.671080  0.045640  1.0  0.0764
  C  C624  1  0.420870  0.716790  0.085590  1.0  0.0565
  C  C625  1  0.543010  0.155150  0.541750  1.0  0.0937
  C  C626  1  0.576520  0.086540  0.583260  1.0  0.1174
  C  C627  1  0.658290  0.132890  0.492790  1.0  0.0736
  C  C628  1  0.640060  0.097880  0.472040  1.0  0.071
  C  C629  1  0.360330  0.129290  0.653630  1.0  0.0817
  C  C630  1  0.391350  0.061870  0.696430  1.0  0.0834
  C  C631  1  0.323940  0.045640  0.671080  1.0  0.0759
  C  C632  1  0.276750  0.085590  0.716790  1.0  0.0569
  C  C633  1  0.041750  0.760090  0.043010  1.0  0.0947
  C  C634  1  0.083260  0.753680  0.076520  1.0  0.1163
  C  C635  1  0.992790  0.716030  0.158290  1.0  0.0749
  C  C636  1  0.972040  0.790020  0.140060  1.0  0.0731
  C  C637  1  0.153630  0.856750  0.860330  1.0  0.0826
  C  C638  1  0.196430  0.850350  0.891350  1.0  0.0855
  C  C639  1  0.171080  0.959340  0.823940  1.0  0.0744
  C  C640  1  0.216790  0.920870  0.776750  1.0  0.059
  C  C641  1  0.260090  0.043010  0.541750  1.0  0.0948
  C  C642  1  0.253680  0.076520  0.583260  1.0  0.1165
  C  C643  1  0.216030  0.158290  0.492790  1.0  0.0718
  C  C644  1  0.290020  0.140060  0.472040  1.0  0.0708
  C  C645  1  0.356750  0.860330  0.653630  1.0  0.0832
  C  C646  1  0.350350  0.891350  0.696430  1.0  0.0817
  C  C647  1  0.459340  0.823940  0.671080  1.0  0.0753
  C  C648  1  0.420870  0.776750  0.716790  1.0  0.0605
  C  C649  1  0.655150  0.541750  0.043010  1.0  0.0934
  C  C650  1  0.586540  0.583260  0.076520  1.0  0.1134
  C  C651  1  0.632890  0.492790  0.158290  1.0  0.076
  C  C652  1  0.597880  0.472040  0.140060  1.0  0.0709
  C  C653  1  0.629290  0.653630  0.860330  1.0  0.0817
  C  C654  1  0.561870  0.696430  0.891350  1.0  0.0814
  C  C655  1  0.545640  0.671080  0.823940  1.0  0.0732
  C  C656  1  0.585590  0.716790  0.776750  1.0  0.0582
  C  C657  1  0.041750  0.155150  0.760090  1.0  0.092
  C  C658  1  0.083260  0.086540  0.753680  1.0  0.1162
  C  C659  1  0.992790  0.132890  0.716030  1.0  0.0742
  C  C660  1  0.972040  0.097880  0.790020  1.0  0.0701
  C  C661  1  0.153630  0.129290  0.856750  1.0  0.0811
  C  C662  1  0.196430  0.061870  0.850350  1.0  0.0823
  C  C663  1  0.171080  0.045640  0.959340  1.0  0.0731
  C  C664  1  0.216790  0.085590  0.920870  1.0  0.0592
  C  C665  1  0.543010  0.760090  0.155150  1.0  0.0926
  C  C666  1  0.576520  0.753680  0.086540  1.0  0.1173
  C  C667  1  0.658290  0.716030  0.132890  1.0  0.073
  C  C668  1  0.640060  0.790020  0.097880  1.0  0.0735
  C  C669  1  0.360330  0.856750  0.129290  1.0  0.0823
  C  C670  1  0.391350  0.850350  0.061870  1.0  0.0831
  C  C671  1  0.323940  0.959340  0.045640  1.0  0.0754
  C  C672  1  0.276750  0.920870  0.085590  1.0  0.0582
  C  C673  1  0.043010  0.041750  0.655150  1.0  0.0929
  C  C674  1  0.076520  0.083260  0.586540  1.0  0.116
  C  C675  1  0.158290  0.992790  0.632890  1.0  0.0737
  C  C676  1  0.140060  0.972040  0.597880  1.0  0.0719
  C  C677  1  0.860330  0.153630  0.629290  1.0  0.0819
  C  C678  1  0.891350  0.196430  0.561870  1.0  0.0822
  C  C679  1  0.823940  0.171080  0.545640  1.0  0.076
  C  C680  1  0.776750  0.216790  0.585590  1.0  0.0579
  C  C681  1  0.541750  0.543010  0.260090  1.0  0.0934
  C  C682  1  0.583260  0.576520  0.253680  1.0  0.1146
  C  C683  1  0.492790  0.658290  0.216030  1.0  0.0752
  C  C684  1  0.472040  0.640060  0.290020  1.0  0.0706
  C  C685  1  0.653630  0.360330  0.356750  1.0  0.0815
  C  C686  1  0.696430  0.391350  0.350350  1.0  0.0822
  C  C687  1  0.671080  0.323940  0.459340  1.0  0.0734
  C  C688  1  0.716790  0.276750  0.420870  1.0  0.0585
  C  C689  1  0.155150  0.260090  0.543010  1.0  0.0932
  C  C690  1  0.086540  0.253680  0.576520  1.0  0.1112
  C  C691  1  0.132890  0.216030  0.658290  1.0  0.0751
  C  C692  1  0.097880  0.290020  0.640060  1.0  0.073
  C  C693  1  0.129290  0.356750  0.360330  1.0  0.0816
  C  C694  1  0.061870  0.350350  0.391350  1.0  0.0815
  C  C695  1  0.045640  0.459340  0.323940  1.0  0.0734
  C  C696  1  0.085590  0.420870  0.276750  1.0  0.058
  C  C697  1  0.760090  0.655150  0.041750  1.0  0.0935
  C  C698  1  0.753680  0.586540  0.083260  1.0  0.1161
  C  C699  1  0.716030  0.632890  0.992790  1.0  0.0743
  C  C700  1  0.790020  0.597880  0.972040  1.0  0.0702
  C  C701  1  0.856750  0.629290  0.153630  1.0  0.0818
  C  C702  1  0.850350  0.561870  0.196430  1.0  0.0827
  C  C703  1  0.959340  0.545640  0.171080  1.0  0.0758
  C  C704  1  0.920870  0.585590  0.216790  1.0  0.0568
  C  C705  1  0.043010  0.655150  0.260090  1.0  0.0929
  C  C706  1  0.076520  0.586540  0.253680  1.0  0.1173
  C  C707  1  0.158290  0.632890  0.216030  1.0  0.0757
  C  C708  1  0.140060  0.597880  0.290020  1.0  0.0715
  C  C709  1  0.860330  0.629290  0.356750  1.0  0.0818
  C  C710  1  0.891350  0.561870  0.350350  1.0  0.083
  C  C711  1  0.823940  0.545640  0.459340  1.0  0.0769
  C  C712  1  0.776750  0.585590  0.420870  1.0  0.0589
  C  C713  1  0.541750  0.260090  0.655150  1.0  0.093
  C  C714  1  0.583260  0.253680  0.586540  1.0  0.1163
  C  C715  1  0.492790  0.216030  0.632890  1.0  0.0752
  C  C716  1  0.472040  0.290020  0.597880  1.0  0.073
  C  C717  1  0.653630  0.356750  0.629290  1.0  0.0812
  C  C718  1  0.696430  0.350350  0.561870  1.0  0.0838
  C  C719  1  0.671080  0.459340  0.545640  1.0  0.0752
  C  C720  1  0.716790  0.420870  0.585590  1.0  0.0591
  C  C721  1  0.155150  0.543010  0.041750  1.0  0.0935
  C  C722  1  0.086540  0.576520  0.083260  1.0  0.1128
  C  C723  1  0.132890  0.658290  0.992790  1.0  0.0753
  C  C724  1  0.097880  0.640060  0.972040  1.0  0.0715
  C  C725  1  0.129290  0.360330  0.153630  1.0  0.0827
  C  C726  1  0.061870  0.391350  0.196430  1.0  0.0808
  C  C727  1  0.045640  0.323940  0.171080  1.0  0.0744
  C  C728  1  0.085590  0.276750  0.216790  1.0  0.0578
  C  C729  1  0.760090  0.041750  0.543010  1.0  0.0942
  C  C730  1  0.753680  0.083260  0.576520  1.0  0.1148
  C  C731  1  0.716030  0.992790  0.658290  1.0  0.0718
  C  C732  1  0.790020  0.972040  0.640060  1.0  0.0709
  C  C733  1  0.856750  0.153630  0.360330  1.0  0.0822
  C  C734  1  0.850350  0.196430  0.391350  1.0  0.0825
  C  C735  1  0.959340  0.171080  0.323940  1.0  0.078
  C  C736  1  0.920870  0.216790  0.276750  1.0  0.0578
  C  C737  1  0.043010  0.260090  0.041750  1.0  0.0938
  C  C738  1  0.076520  0.253680  0.083260  1.0  0.1168
  C  C739  1  0.158290  0.216030  0.992790  1.0  0.073
  C  C740  1  0.140060  0.290020  0.972040  1.0  0.0732
  C  C741  1  0.860330  0.356750  0.153630  1.0  0.0833
  C  C742  1  0.891350  0.350350  0.196430  1.0  0.084
  C  C743  1  0.823940  0.459340  0.171080  1.0  0.0753
  C  C744  1  0.776750  0.420870  0.216790  1.0  0.0584
  C  C745  1  0.541750  0.655150  0.543010  1.0  0.0932
  C  C746  1  0.583260  0.586540  0.576520  1.0  0.1167
  C  C747  1  0.492790  0.632890  0.658290  1.0  0.0734
  C  C748  1  0.472040  0.597880  0.640060  1.0  0.0706
  C  C749  1  0.653630  0.629290  0.360330  1.0  0.0808
  C  C750  1  0.696430  0.561870  0.391350  1.0  0.0828
  C  C751  1  0.671080  0.545640  0.323940  1.0  0.0726
  C  C752  1  0.716790  0.585590  0.276750  1.0  0.059
  C  C753  1  0.155150  0.041750  0.260090  1.0  0.0935
  C  C754  1  0.086540  0.083260  0.253680  1.0  0.1137
  C  C755  1  0.132890  0.992790  0.216030  1.0  0.0763
  C  C756  1  0.097880  0.972040  0.290020  1.0  0.0706
  C  C757  1  0.129290  0.153630  0.356750  1.0  0.082
  C  C758  1  0.061870  0.196430  0.350350  1.0  0.082
  C  C759  1  0.045640  0.171080  0.459340  1.0  0.0737
  C  C760  1  0.085590  0.216790  0.420870  1.0  0.0584
  C  C761  1  0.760090  0.543010  0.655150  1.0  0.0941
  C  C762  1  0.753680  0.576520  0.586540  1.0  0.1171
  C  C763  1  0.716030  0.658290  0.632890  1.0  0.0716
  C  C764  1  0.790020  0.640060  0.597880  1.0  0.0707
  C  C765  1  0.856750  0.360330  0.629290  1.0  0.0823
  C  C766  1  0.850350  0.391350  0.561870  1.0  0.082
  C  C767  1  0.959340  0.323940  0.545640  1.0  0.0753
  C  C768  1  0.920870  0.276750  0.585590  1.0  0.0603
  C  C769  1  0.958250  0.956990  0.844850  1.0  0.0948
  C  C770  1  0.916740  0.923480  0.913460  1.0  0.1138
  C  C771  1  0.007210  0.841710  0.867110  1.0  0.0746
  C  C772  1  0.027960  0.859940  0.902120  1.0  0.0706
  C  C773  1  0.846370  0.139670  0.870710  1.0  0.0822
  C  C774  1  0.803570  0.108650  0.938130  1.0  0.0831
  C  C775  1  0.828920  0.176060  0.954360  1.0  0.0766
  C  C776  1  0.783210  0.223250  0.914410  1.0  0.058
  C  C777  1  0.456990  0.458250  0.239910  1.0  0.0937
  C  C778  1  0.423480  0.416740  0.246320  1.0  0.1157
  C  C779  1  0.341710  0.507210  0.283970  1.0  0.0731
  C  C780  1  0.359940  0.527960  0.209980  1.0  0.0709
  C  C781  1  0.639670  0.346370  0.143250  1.0  0.0814
  C  C782  1  0.608650  0.303570  0.149650  1.0  0.0815
  C  C783  1  0.676060  0.328920  0.040660  1.0  0.0756
  C  C784  1  0.723250  0.283210  0.079130  1.0  0.0599
  C  C785  1  0.739910  0.844850  0.956990  1.0  0.0928
  C  C786  1  0.746320  0.913460  0.923480  1.0  0.1153
  C  C787  1  0.783970  0.867110  0.841710  1.0  0.0742
  C  C788  1  0.709980  0.902120  0.859940  1.0  0.0693
  C  C789  1  0.643250  0.870710  0.139670  1.0  0.0816
  C  C790  1  0.649650  0.938130  0.108650  1.0  0.0833
  C  C791  1  0.540660  0.954360  0.176060  1.0  0.0762
  C  C792  1  0.579130  0.914410  0.223250  1.0  0.0583
  C  C793  1  0.344850  0.239910  0.458250  1.0  0.091
  C  C794  1  0.413460  0.246320  0.416740  1.0  0.1138
  C  C795  1  0.367110  0.283970  0.507210  1.0  0.0782
  C  C796  1  0.402120  0.209980  0.527960  1.0  0.0708
  C  C797  1  0.370710  0.143250  0.346370  1.0  0.0795
  C  C798  1  0.438130  0.149650  0.303570  1.0  0.0823
  C  C799  1  0.454360  0.040660  0.328920  1.0  0.0765
  C  C800  1  0.414410  0.079130  0.283210  1.0  0.0575
  C  C801  1  0.344850  0.956990  0.239910  1.0  0.0927
  C  C802  1  0.413460  0.923480  0.246320  1.0  0.1154
  C  C803  1  0.367110  0.841710  0.283970  1.0  0.0735
  C  C804  1  0.402120  0.859940  0.209980  1.0  0.0714
  C  C805  1  0.370710  0.139670  0.143250  1.0  0.0807
  C  C806  1  0.438130  0.108650  0.149650  1.0  0.0832
  C  C807  1  0.454360  0.176060  0.040660  1.0  0.0759
  C  C808  1  0.414410  0.223250  0.079130  1.0  0.0559
  C  C809  1  0.739910  0.458250  0.844850  1.0  0.0943
  C  C810  1  0.746320  0.416740  0.913460  1.0  0.115
  C  C811  1  0.783970  0.507210  0.867110  1.0  0.0739
  C  C812  1  0.709980  0.527960  0.902120  1.0  0.0697
  C  C813  1  0.643250  0.346370  0.870710  1.0  0.0821
  C  C814  1  0.649650  0.303570  0.938130  1.0  0.0833
  C  C815  1  0.540660  0.328920  0.954360  1.0  0.0758
  C  C816  1  0.579130  0.283210  0.914410  1.0  0.059
  C  C817  1  0.456990  0.844850  0.458250  1.0  0.0935
  C  C818  1  0.423480  0.913460  0.416740  1.0  0.1166
  C  C819  1  0.341710  0.867110  0.507210  1.0  0.0736
  C  C820  1  0.359940  0.902120  0.527960  1.0  0.0706
  C  C821  1  0.639670  0.870710  0.346370  1.0  0.0825
  C  C822  1  0.608650  0.938130  0.303570  1.0  0.0845
  C  C823  1  0.676060  0.954360  0.328920  1.0  0.0737
  C  C824  1  0.723250  0.914410  0.283210  1.0  0.0594
  C  C825  1  0.958250  0.239910  0.956990  1.0  0.0947
  C  C826  1  0.916740  0.246320  0.923480  1.0  0.1157
  C  C827  1  0.007210  0.283970  0.841710  1.0  0.0784
  C  C828  1  0.027960  0.209980  0.859940  1.0  0.0708
  C  C829  1  0.846370  0.143250  0.139670  1.0  0.0828
  C  C830  1  0.803570  0.149650  0.108650  1.0  0.0839
  C  C831  1  0.828920  0.040660  0.176060  1.0  0.0757
  C  C832  1  0.783210  0.079130  0.223250  1.0  0.0576
  C  C833  1  0.739910  0.956990  0.458250  1.0  0.0928
  C  C834  1  0.746320  0.923480  0.416740  1.0  0.1173
  C  C835  1  0.783970  0.841710  0.507210  1.0  0.074
  C  C836  1  0.709980  0.859940  0.527960  1.0  0.0695
  C  C837  1  0.643250  0.139670  0.346370  1.0  0.0816
  C  C838  1  0.649650  0.108650  0.303570  1.0  0.0828
  C  C839  1  0.540660  0.176060  0.328920  1.0  0.0732
  C  C840  1  0.579130  0.223250  0.283210  1.0  0.059
  C  C841  1  0.344850  0.458250  0.956990  1.0  0.0922
  C  C842  1  0.413460  0.416740  0.923480  1.0  0.1161
  C  C843  1  0.367110  0.507210  0.841710  1.0  0.0748
  C  C844  1  0.402120  0.527960  0.859940  1.0  0.0716
  C  C845  1  0.370710  0.346370  0.139670  1.0  0.0797
  C  C846  1  0.438130  0.303570  0.108650  1.0  0.0823
  C  C847  1  0.454360  0.328920  0.176060  1.0  0.0753
  C  C848  1  0.414410  0.283210  0.223250  1.0  0.0604
  C  C849  1  0.958250  0.844850  0.239910  1.0  0.0925
  C  C850  1  0.916740  0.913460  0.246320  1.0  0.1154
  C  C851  1  0.007210  0.867110  0.283970  1.0  0.0718
  C  C852  1  0.027960  0.902120  0.209980  1.0  0.0704
  C  C853  1  0.846370  0.870710  0.143250  1.0  0.0813
  C  C854  1  0.803570  0.938130  0.149650  1.0  0.0832
  C  C855  1  0.828920  0.954360  0.040660  1.0  0.0744
  C  C856  1  0.783210  0.914410  0.079130  1.0  0.0596
  C  C857  1  0.456990  0.239910  0.844850  1.0  0.0947
  C  C858  1  0.423480  0.246320  0.913460  1.0  0.1157
  C  C859  1  0.341710  0.283970  0.867110  1.0  0.0771
  C  C860  1  0.359940  0.209980  0.902120  1.0  0.0707
  C  C861  1  0.639670  0.143250  0.870710  1.0  0.0833
  C  C862  1  0.608650  0.149650  0.938130  1.0  0.0825
  C  C863  1  0.676060  0.040660  0.954360  1.0  0.0738
  C  C864  1  0.723250  0.079130  0.914410  1.0  0.0591
  N  N865  1  0.987730  0.918190  0.354670  1.0  -0.2331
  N  N866  1  0.967350  0.891130  0.398810  1.0  -0.2838
  N  N867  1  0.916330  0.958990  0.380770  1.0  0.0173
  N  N868  1  0.874900  0.995660  0.383520  1.0  0.02
  N  N869  1  0.808460  0.043820  0.376120  1.0  -0.2327
  N  N870  1  0.819470  0.056250  0.399630  1.0  -0.2432
  N  N871  1  0.102840  0.845680  0.370400  1.0  -0.284
  N  N872  1  0.083840  0.818580  0.414280  1.0  -0.2001
  N  N873  1  0.143870  0.820610  0.412070  1.0  0.0082
  N  N874  1  0.179040  0.811940  0.426320  1.0  0.003
  N  N875  1  0.215600  0.813620  0.459020  1.0  -0.2474
  N  N876  1  0.245780  0.784520  0.433540  1.0  -0.1995
  N  N877  1  0.418190  0.487730  0.739410  1.0  -0.2329
  N  N878  1  0.391130  0.467350  0.742710  1.0  -0.2852
  N  N879  1  0.458990  0.416330  0.743910  1.0  0.0173
  N  N880  1  0.495660  0.374900  0.745920  1.0  0.0206
  N  N881  1  0.543820  0.308460  0.771600  1.0  -0.236
  N  N882  1  0.556250  0.319470  0.724650  1.0  -0.24
  N  N883  1  0.345680  0.602840  0.681080  1.0  -0.2827
  N  N884  1  0.318580  0.583840  0.683300  1.0  -0.2034
  N  N885  1  0.320610  0.643870  0.623450  1.0  0.009
  N  N886  1  0.311940  0.679040  0.582700  1.0  0.0028
  N  N887  1  0.313620  0.715600  0.511760  1.0  -0.2474
  N  N888  1  0.284520  0.745780  0.536160  1.0  -0.2001
  N  N889  1  0.854670  0.739410  0.487730  1.0  -0.2321
  N  N890  1  0.898810  0.742710  0.467350  1.0  -0.284
  N  N891  1  0.880770  0.743910  0.416330  1.0  0.0205
  N  N892  1  0.883520  0.745920  0.374900  1.0  0.0222
  N  N893  1  0.876120  0.771600  0.308460  1.0  -0.2396
  N  N894  1  0.899630  0.724650  0.319470  1.0  -0.2379
  N  N895  1  0.870400  0.681080  0.602840  1.0  -0.2871
  N  N896  1  0.914280  0.683300  0.583840  1.0  -0.2047
  N  N897  1  0.912070  0.623450  0.643870  1.0  0.0084
  N  N898  1  0.926320  0.582700  0.679040  1.0  0.0034
  N  N899  1  0.959020  0.511760  0.715600  1.0  -0.2482
  N  N900  1  0.933540  0.536160  0.745780  1.0  -0.2008
  N  N901  1  0.239410  0.354670  0.918190  1.0  -0.2308
  N  N902  1  0.242710  0.398810  0.891130  1.0  -0.2853
  N  N903  1  0.243910  0.380770  0.958990  1.0  0.0185
  N  N904  1  0.245920  0.383520  0.995660  1.0  0.0226
  N  N905  1  0.271600  0.376120  0.043820  1.0  -0.236
  N  N906  1  0.224650  0.399630  0.056250  1.0  -0.239
  N  N907  1  0.181080  0.370400  0.845680  1.0  -0.2861
  N  N908  1  0.183300  0.414280  0.818580  1.0  -0.2027
  N  N909  1  0.123450  0.412070  0.820610  1.0  0.0078
  N  N910  1  0.082700  0.426320  0.811940  1.0  0.0027
  N  N911  1  0.011760  0.459020  0.813620  1.0  -0.2478
  N  N912  1  0.036160  0.433540  0.784520  1.0  -0.1981
  N  N913  1  0.987730  0.354670  0.739410  1.0  -0.2332
  N  N914  1  0.967350  0.398810  0.742710  1.0  -0.284
  N  N915  1  0.916330  0.380770  0.743910  1.0  0.0195
  N  N916  1  0.874900  0.383520  0.745920  1.0  0.0212
  N  N917  1  0.808460  0.376120  0.771600  1.0  -0.2338
  N  N918  1  0.819470  0.399630  0.724650  1.0  -0.2399
  N  N919  1  0.102840  0.370400  0.681080  1.0  -0.2864
  N  N920  1  0.083840  0.414280  0.683300  1.0  -0.2021
  N  N921  1  0.143870  0.412070  0.623450  1.0  0.0091
  N  N922  1  0.179040  0.426320  0.582700  1.0  0.0023
  N  N923  1  0.215600  0.459020  0.511760  1.0  -0.2504
  N  N924  1  0.245780  0.433540  0.536160  1.0  -0.1947
  N  N925  1  0.418190  0.739410  0.354670  1.0  -0.2303
  N  N926  1  0.391130  0.742710  0.398810  1.0  -0.2827
  N  N927  1  0.458990  0.743910  0.380770  1.0  0.0187
  N  N928  1  0.495660  0.745920  0.383520  1.0  0.023
  N  N929  1  0.543820  0.771600  0.376120  1.0  -0.2356
  N  N930  1  0.556250  0.724650  0.399630  1.0  -0.2401
  N  N931  1  0.345680  0.681080  0.370400  1.0  -0.288
  N  N932  1  0.318580  0.683300  0.414280  1.0  -0.2046
  N  N933  1  0.320610  0.623450  0.412070  1.0  0.0082
  N  N934  1  0.311940  0.582700  0.426320  1.0  0.0025
  N  N935  1  0.313620  0.511760  0.459020  1.0  -0.2483
  N  N936  1  0.284520  0.536160  0.433540  1.0  -0.1999
  N  N937  1  0.854670  0.487730  0.918190  1.0  -0.2307
  N  N938  1  0.898810  0.467350  0.891130  1.0  -0.2868
  N  N939  1  0.880770  0.416330  0.958990  1.0  0.0182
  N  N940  1  0.883520  0.374900  0.995660  1.0  0.0209
  N  N941  1  0.876120  0.308460  0.043820  1.0  -0.2364
  N  N942  1  0.899630  0.319470  0.056250  1.0  -0.2408
  N  N943  1  0.870400  0.602840  0.845680  1.0  -0.2875
  N  N944  1  0.914280  0.583840  0.818580  1.0  -0.2029
  N  N945  1  0.912070  0.643870  0.820610  1.0  0.0078
  N  N946  1  0.926320  0.679040  0.811940  1.0  0.0025
  N  N947  1  0.959020  0.715600  0.813620  1.0  -0.2496
  N  N948  1  0.933540  0.745780  0.784520  1.0  -0.1998
  N  N949  1  0.239410  0.918190  0.487730  1.0  -0.2344
  N  N950  1  0.242710  0.891130  0.467350  1.0  -0.2845
  N  N951  1  0.243910  0.958990  0.416330  1.0  0.0171
  N  N952  1  0.245920  0.995660  0.374900  1.0  0.0205
  N  N953  1  0.271600  0.043820  0.308460  1.0  -0.236
  N  N954  1  0.224650  0.056250  0.319470  1.0  -0.2432
  N  N955  1  0.181080  0.845680  0.602840  1.0  -0.2881
  N  N956  1  0.183300  0.818580  0.583840  1.0  -0.2019
  N  N957  1  0.123450  0.820610  0.643870  1.0  0.0083
  N  N958  1  0.082700  0.811940  0.679040  1.0  0.004
  N  N959  1  0.011760  0.813620  0.715600  1.0  -0.2467
  N  N960  1  0.036160  0.784520  0.745780  1.0  -0.2001
  N  N961  1  0.987730  0.739410  0.918190  1.0  -0.2292
  N  N962  1  0.967350  0.742710  0.891130  1.0  -0.2854
  N  N963  1  0.916330  0.743910  0.958990  1.0  0.0187
  N  N964  1  0.874900  0.745920  0.995660  1.0  0.023
  N  N965  1  0.808460  0.771600  0.043820  1.0  -0.236
  N  N966  1  0.819470  0.724650  0.056250  1.0  -0.2399
  N  N967  1  0.102840  0.681080  0.845680  1.0  -0.2845
  N  N968  1  0.083840  0.683300  0.818580  1.0  -0.2061
  N  N969  1  0.143870  0.623450  0.820610  1.0  0.0079
  N  N970  1  0.179040  0.582700  0.811940  1.0  0.0022
  N  N971  1  0.215600  0.511760  0.813620  1.0  -0.2489
  N  N972  1  0.245780  0.536160  0.784520  1.0  -0.1982
  N  N973  1  0.418190  0.354670  0.487730  1.0  -0.2328
  N  N974  1  0.391130  0.398810  0.467350  1.0  -0.2862
  N  N975  1  0.458990  0.380770  0.416330  1.0  0.0177
  N  N976  1  0.495660  0.383520  0.374900  1.0  0.0221
  N  N977  1  0.543820  0.376120  0.308460  1.0  -0.2388
  N  N978  1  0.556250  0.399630  0.319470  1.0  -0.241
  N  N979  1  0.345680  0.370400  0.602840  1.0  -0.2851
  N  N980  1  0.318580  0.414280  0.583840  1.0  -0.2006
  N  N981  1  0.320610  0.412070  0.643870  1.0  0.0085
  N  N982  1  0.311940  0.426320  0.679040  1.0  0.0035
  N  N983  1  0.313620  0.459020  0.715600  1.0  -0.2478
  N  N984  1  0.284520  0.433540  0.745780  1.0  -0.1992
  N  N985  1  0.854670  0.918190  0.739410  1.0  -0.2319
  N  N986  1  0.898810  0.891130  0.742710  1.0  -0.2855
  N  N987  1  0.880770  0.958990  0.743910  1.0  0.0173
  N  N988  1  0.883520  0.995660  0.745920  1.0  0.0216
  N  N989  1  0.876120  0.043820  0.771600  1.0  -0.238
  N  N990  1  0.899630  0.056250  0.724650  1.0  -0.2418
  N  N991  1  0.870400  0.845680  0.681080  1.0  -0.2865
  N  N992  1  0.914280  0.818580  0.683300  1.0  -0.2015
  N  N993  1  0.912070  0.820610  0.623450  1.0  0.0083
  N  N994  1  0.926320  0.811940  0.582700  1.0  0.0028
  N  N995  1  0.959020  0.813620  0.511760  1.0  -0.2493
  N  N996  1  0.933540  0.784520  0.536160  1.0  -0.1976
  N  N997  1  0.239410  0.487730  0.354670  1.0  -0.233
  N  N998  1  0.242710  0.467350  0.398810  1.0  -0.2855
  N  N999  1  0.243910  0.416330  0.380770  1.0  0.0173
  N  N1000  1  0.245920  0.374900  0.383520  1.0  0.0211
  N  N1001  1  0.271600  0.308460  0.376120  1.0  -0.2363
  N  N1002  1  0.224650  0.319470  0.399630  1.0  -0.2397
  N  N1003  1  0.181080  0.602840  0.370400  1.0  -0.2879
  N  N1004  1  0.183300  0.583840  0.414280  1.0  -0.2017
  N  N1005  1  0.123450  0.643870  0.412070  1.0  0.0075
  N  N1006  1  0.082700  0.679040  0.426320  1.0  0.0027
  N  N1007  1  0.011760  0.715600  0.459020  1.0  -0.248
  N  N1008  1  0.036160  0.745780  0.433540  1.0  -0.2004
  N  N1009  1  0.081810  0.012270  0.145330  1.0  -0.2311
  N  N1010  1  0.108870  0.032650  0.101190  1.0  -0.2851
  N  N1011  1  0.041010  0.083670  0.119230  1.0  0.0171
  N  N1012  1  0.004340  0.125100  0.116480  1.0  0.0206
  N  N1013  1  0.956180  0.191540  0.123880  1.0  -0.2399
  N  N1014  1  0.943750  0.180530  0.100370  1.0  -0.2408
  N  N1015  1  0.154320  0.897160  0.129600  1.0  -0.2843
  N  N1016  1  0.181420  0.916160  0.085720  1.0  -0.2035
  N  N1017  1  0.179390  0.856130  0.087930  1.0  0.009
  N  N1018  1  0.188060  0.820960  0.073680  1.0  0.003
  N  N1019  1  0.186380  0.784400  0.040980  1.0  -0.2476
  N  N1020  1  0.215480  0.754220  0.066460  1.0  -0.2014
  N  N1021  1  0.512270  0.581810  0.760590  1.0  -0.2328
  N  N1022  1  0.532650  0.608870  0.757290  1.0  -0.286
  N  N1023  1  0.583670  0.541010  0.756090  1.0  0.0175
  N  N1024  1  0.625100  0.504340  0.754080  1.0  0.0204
  N  N1025  1  0.691540  0.456180  0.728400  1.0  -0.2323
  N  N1026  1  0.680530  0.443750  0.775350  1.0  -0.2409
  N  N1027  1  0.397160  0.654320  0.818920  1.0  -0.2844
  N  N1028  1  0.416160  0.681420  0.816700  1.0  -0.2029
  N  N1029  1  0.356130  0.679390  0.876550  1.0  0.0082
  N  N1030  1  0.320960  0.688060  0.917300  1.0  0.0034
  N  N1031  1  0.284400  0.686380  0.988240  1.0  -0.2474
  N  N1032  1  0.254220  0.715480  0.963840  1.0  -0.1979
  N  N1033  1  0.260590  0.145330  0.012270  1.0  -0.2319
  N  N1034  1  0.257290  0.101190  0.032650  1.0  -0.2842
  N  N1035  1  0.256090  0.119230  0.083670  1.0  0.0178
  N  N1036  1  0.254080  0.116480  0.125100  1.0  0.0225
  N  N1037  1  0.228400  0.123880  0.191540  1.0  -0.238
  N  N1038  1  0.275350  0.100370  0.180530  1.0  -0.2379
  N  N1039  1  0.318920  0.129600  0.897160  1.0  -0.2866
  N  N1040  1  0.316700  0.085720  0.916160  1.0  -0.2019
  N  N1041  1  0.376550  0.087930  0.856130  1.0  0.0086
  N  N1042  1  0.417300  0.073680  0.820960  1.0  0.0024
  N  N1043  1  0.488240  0.040980  0.784400  1.0  -0.2484
  N  N1044  1  0.463840  0.066460  0.754220  1.0  -0.2005
  N  N1045  1  0.645330  0.760590  0.581810  1.0  -0.2326
  N  N1046  1  0.601190  0.757290  0.608870  1.0  -0.2847
  N  N1047  1  0.619230  0.756090  0.541010  1.0  0.0202
  N  N1048  1  0.616480  0.754080  0.504340  1.0  0.0214
  N  N1049  1  0.623880  0.728400  0.456180  1.0  -0.2368
  N  N1050  1  0.600370  0.775350  0.443750  1.0  -0.2375
  N  N1051  1  0.629600  0.818920  0.654320  1.0  -0.2861
  N  N1052  1  0.585720  0.816700  0.681420  1.0  -0.2039
  N  N1053  1  0.587930  0.876550  0.679390  1.0  0.0084
  N  N1054  1  0.573680  0.917300  0.688060  1.0  0.0031
  N  N1055  1  0.540980  0.988240  0.686380  1.0  -0.2487
  N  N1056  1  0.566460  0.963840  0.715480  1.0  -0.2021
  N  N1057  1  0.645330  0.012270  0.760590  1.0  -0.2306
  N  N1058  1  0.601190  0.032650  0.757290  1.0  -0.2861
  N  N1059  1  0.619230  0.083670  0.756090  1.0  0.0172
  N  N1060  1  0.616480  0.125100  0.754080  1.0  0.0218
  N  N1061  1  0.623880  0.191540  0.728400  1.0  -0.2395
  N  N1062  1  0.600370  0.180530  0.775350  1.0  -0.2411
  N  N1063  1  0.629600  0.897160  0.818920  1.0  -0.2872
  N  N1064  1  0.585720  0.916160  0.816700  1.0  -0.2033
  N  N1065  1  0.587930  0.856130  0.876550  1.0  0.0076
  N  N1066  1  0.573680  0.820960  0.917300  1.0  0.0029
  N  N1067  1  0.540980  0.784400  0.988240  1.0  -0.2494
  N  N1068  1  0.566460  0.754220  0.963840  1.0  -0.2003
  N  N1069  1  0.260590  0.581810  0.145330  1.0  -0.2352
  N  N1070  1  0.257290  0.608870  0.101190  1.0  -0.2859
  N  N1071  1  0.256090  0.541010  0.119230  1.0  0.0172
  N  N1072  1  0.254080  0.504340  0.116480  1.0  0.0209
  N  N1073  1  0.228400  0.456180  0.123880  1.0  -0.2341
  N  N1074  1  0.275350  0.443750  0.100370  1.0  -0.2419
  N  N1075  1  0.318920  0.654320  0.129600  1.0  -0.2876
  N  N1076  1  0.316700  0.681420  0.085720  1.0  -0.1994
  N  N1077  1  0.376550  0.679390  0.087930  1.0  0.0083
  N  N1078  1  0.417300  0.688060  0.073680  1.0  0.0029
  N  N1079  1  0.488240  0.686380  0.040980  1.0  -0.2446
  N  N1080  1  0.463840  0.715480  0.066460  1.0  -0.2008
  N  N1081  1  0.512270  0.145330  0.581810  1.0  -0.2332
  N  N1082  1  0.532650  0.101190  0.608870  1.0  -0.2855
  N  N1083  1  0.583670  0.119230  0.541010  1.0  0.0187
  N  N1084  1  0.625100  0.116480  0.504340  1.0  0.0214
  N  N1085  1  0.691540  0.123880  0.456180  1.0  -0.2321
  N  N1086  1  0.680530  0.100370  0.443750  1.0  -0.2418
  N  N1087  1  0.397160  0.129600  0.654320  1.0  -0.2855
  N  N1088  1  0.416160  0.085720  0.681420  1.0  -0.2018
  N  N1089  1  0.356130  0.087930  0.679390  1.0  0.0079
  N  N1090  1  0.320960  0.073680  0.688060  1.0  0.0035
  N  N1091  1  0.284400  0.040980  0.686380  1.0  -0.2484
  N  N1092  1  0.254220  0.066460  0.715480  1.0  -0.1962
  N  N1093  1  0.081810  0.760590  0.012270  1.0  -0.2313
  N  N1094  1  0.108870  0.757290  0.032650  1.0  -0.2851
  N  N1095  1  0.041010  0.756090  0.083670  1.0  0.0183
  N  N1096  1  0.004340  0.754080  0.125100  1.0  0.0219
  N  N1097  1  0.956180  0.728400  0.191540  1.0  -0.2344
  N  N1098  1  0.943750  0.775350  0.180530  1.0  -0.2406
  N  N1099  1  0.154320  0.818920  0.897160  1.0  -0.289
  N  N1100  1  0.181420  0.816700  0.916160  1.0  -0.2047
  N  N1101  1  0.179390  0.876550  0.856130  1.0  0.0076
  N  N1102  1  0.188060  0.917300  0.820960  1.0  0.0022
  N  N1103  1  0.186380  0.988240  0.784400  1.0  -0.249
  N  N1104  1  0.215480  0.963840  0.754220  1.0  -0.2016
  N  N1105  1  0.260590  0.012270  0.581810  1.0  -0.2334
  N  N1106  1  0.257290  0.032650  0.608870  1.0  -0.2854
  N  N1107  1  0.256090  0.083670  0.541010  1.0  0.0164
  N  N1108  1  0.254080  0.125100  0.504340  1.0  0.0217
  N  N1109  1  0.228400  0.191540  0.456180  1.0  -0.2394
  N  N1110  1  0.275350  0.180530  0.443750  1.0  -0.2401
  N  N1111  1  0.318920  0.897160  0.654320  1.0  -0.2874
  N  N1112  1  0.316700  0.916160  0.681420  1.0  -0.2046
  N  N1113  1  0.376550  0.856130  0.679390  1.0  0.0082
  N  N1114  1  0.417300  0.820960  0.688060  1.0  0.0029
  N  N1115  1  0.488240  0.784400  0.686380  1.0  -0.2494
  N  N1116  1  0.463840  0.754220  0.715480  1.0  -0.1998
  N  N1117  1  0.645330  0.581810  0.012270  1.0  -0.2332
  N  N1118  1  0.601190  0.608870  0.032650  1.0  -0.2857
  N  N1119  1  0.619230  0.541010  0.083670  1.0  0.018
  N  N1120  1  0.616480  0.504340  0.125100  1.0  0.0217
  N  N1121  1  0.623880  0.456180  0.191540  1.0  -0.2363
  N  N1122  1  0.600370  0.443750  0.180530  1.0  -0.2424
  N  N1123  1  0.629600  0.654320  0.897160  1.0  -0.2861
  N  N1124  1  0.585720  0.681420  0.916160  1.0  -0.202
  N  N1125  1  0.587930  0.679390  0.856130  1.0  0.0082
  N  N1126  1  0.573680  0.688060  0.820960  1.0  0.0023
  N  N1127  1  0.540980  0.686380  0.784400  1.0  -0.2481
  N  N1128  1  0.566460  0.715480  0.754220  1.0  -0.1978
  N  N1129  1  0.081810  0.145330  0.760590  1.0  -0.2341
  N  N1130  1  0.108870  0.101190  0.757290  1.0  -0.2823
  N  N1131  1  0.041010  0.119230  0.756090  1.0  0.0184
  N  N1132  1  0.004340  0.116480  0.754080  1.0  0.0223
  N  N1133  1  0.956180  0.123880  0.728400  1.0  -0.2368
  N  N1134  1  0.943750  0.100370  0.775350  1.0  -0.2397
  N  N1135  1  0.154320  0.129600  0.818920  1.0  -0.2849
  N  N1136  1  0.181420  0.085720  0.816700  1.0  -0.2012
  N  N1137  1  0.179390  0.087930  0.876550  1.0  0.0081
  N  N1138  1  0.188060  0.073680  0.917300  1.0  0.0037
  N  N1139  1  0.186380  0.040980  0.988240  1.0  -0.2475
  N  N1140  1  0.215480  0.066460  0.963840  1.0  -0.1985
  N  N1141  1  0.512270  0.760590  0.145330  1.0  -0.2312
  N  N1142  1  0.532650  0.757290  0.101190  1.0  -0.2843
  N  N1143  1  0.583670  0.756090  0.119230  1.0  0.0183
  N  N1144  1  0.625100  0.754080  0.116480  1.0  0.0217
  N  N1145  1  0.691540  0.728400  0.123880  1.0  -0.234
  N  N1146  1  0.680530  0.775350  0.100370  1.0  -0.2412
  N  N1147  1  0.397160  0.818920  0.129600  1.0  -0.2844
  N  N1148  1  0.416160  0.816700  0.085720  1.0  -0.2043
  N  N1149  1  0.356130  0.876550  0.087930  1.0  0.008
  N  N1150  1  0.320960  0.917300  0.073680  1.0  0.0027
  N  N1151  1  0.284400  0.988240  0.040980  1.0  -0.2488
  N  N1152  1  0.254220  0.963840  0.066460  1.0  -0.1973
  N  N1153  1  0.012270  0.081810  0.645330  1.0  -0.2336
  N  N1154  1  0.032650  0.108870  0.601190  1.0  -0.2855
  N  N1155  1  0.083670  0.041010  0.619230  1.0  0.0176
  N  N1156  1  0.125100  0.004340  0.616480  1.0  0.0204
  N  N1157  1  0.191540  0.956180  0.623880  1.0  -0.2328
  N  N1158  1  0.180530  0.943750  0.600370  1.0  -0.2407
  N  N1159  1  0.897160  0.154320  0.629600  1.0  -0.2822
  N  N1160  1  0.916160  0.181420  0.585720  1.0  -0.2028
  N  N1161  1  0.856130  0.179390  0.587930  1.0  0.0088
  N  N1162  1  0.820960  0.188060  0.573680  1.0  0.0028
  N  N1163  1  0.784400  0.186380  0.540980  1.0  -0.2472
  N  N1164  1  0.754220  0.215480  0.566460  1.0  -0.1967
  N  N1165  1  0.581810  0.512270  0.260590  1.0  -0.2311
  N  N1166  1  0.608870  0.532650  0.257290  1.0  -0.2847
  N  N1167  1  0.541010  0.583670  0.256090  1.0  0.017
  N  N1168  1  0.504340  0.625100  0.254080  1.0  0.0204
  N  N1169  1  0.456180  0.691540  0.228400  1.0  -0.2384
  N  N1170  1  0.443750  0.680530  0.275350  1.0  -0.2417
  N  N1171  1  0.654320  0.397160  0.318920  1.0  -0.2843
  N  N1172  1  0.681420  0.416160  0.316700  1.0  -0.2029
  N  N1173  1  0.679390  0.356130  0.376550  1.0  0.0085
  N  N1174  1  0.688060  0.320960  0.417300  1.0  0.0037
  N  N1175  1  0.686380  0.284400  0.488240  1.0  -0.2473
  N  N1176  1  0.715480  0.254220  0.463840  1.0  -0.2015
  N  N1177  1  0.145330  0.260590  0.512270  1.0  -0.2303
  N  N1178  1  0.101190  0.257290  0.532650  1.0  -0.2835
  N  N1179  1  0.119230  0.256090  0.583670  1.0  0.0192
  N  N1180  1  0.116480  0.254080  0.625100  1.0  0.0227
  N  N1181  1  0.123880  0.228400  0.691540  1.0  -0.2356
  N  N1182  1  0.100370  0.275350  0.680530  1.0  -0.2391
  N  N1183  1  0.129600  0.318920  0.397160  1.0  -0.2855
  N  N1184  1  0.085720  0.316700  0.416160  1.0  -0.2039
  N  N1185  1  0.087930  0.376550  0.356130  1.0  0.0084
  N  N1186  1  0.073680  0.417300  0.320960  1.0  0.0028
  N  N1187  1  0.040980  0.488240  0.284400  1.0  -0.2483
  N  N1188  1  0.066460  0.463840  0.254220  1.0  -0.2004
  N  N1189  1  0.760590  0.645330  0.081810  1.0  -0.2343
  N  N1190  1  0.757290  0.601190  0.108870  1.0  -0.284
  N  N1191  1  0.756090  0.619230  0.041010  1.0  0.0189
  N  N1192  1  0.754080  0.616480  0.004340  1.0  0.0212
  N  N1193  1  0.728400  0.623880  0.956180  1.0  -0.239
  N  N1194  1  0.775350  0.600370  0.943750  1.0  -0.2368
  N  N1195  1  0.818920  0.629600  0.154320  1.0  -0.2869
  N  N1196  1  0.816700  0.585720  0.181420  1.0  -0.2012
  N  N1197  1  0.876550  0.587930  0.179390  1.0  0.0084
  N  N1198  1  0.917300  0.573680  0.188060  1.0  0.0027
  N  N1199  1  0.988240  0.540980  0.186380  1.0  -0.2482
  N  N1200  1  0.963840  0.566460  0.215480  1.0  -0.2009
  N  N1201  1  0.012270  0.645330  0.260590  1.0  -0.2318
  N  N1202  1  0.032650  0.601190  0.257290  1.0  -0.2862
  N  N1203  1  0.083670  0.619230  0.256090  1.0  0.018
  N  N1204  1  0.125100  0.616480  0.254080  1.0  0.021
  N  N1205  1  0.191540  0.623880  0.228400  1.0  -0.2321
  N  N1206  1  0.180530  0.600370  0.275350  1.0  -0.2401
  N  N1207  1  0.897160  0.629600  0.318920  1.0  -0.2847
  N  N1208  1  0.916160  0.585720  0.316700  1.0  -0.202
  N  N1209  1  0.856130  0.587930  0.376550  1.0  0.0076
  N  N1210  1  0.820960  0.573680  0.417300  1.0  0.0034
  N  N1211  1  0.784400  0.540980  0.488240  1.0  -0.2487
  N  N1212  1  0.754220  0.566460  0.463840  1.0  -0.1961
  N  N1213  1  0.581810  0.260590  0.645330  1.0  -0.2344
  N  N1214  1  0.608870  0.257290  0.601190  1.0  -0.2854
  N  N1215  1  0.541010  0.256090  0.619230  1.0  0.0187
  N  N1216  1  0.504340  0.254080  0.616480  1.0  0.0216
  N  N1217  1  0.456180  0.228400  0.623880  1.0  -0.2334
  N  N1218  1  0.443750  0.275350  0.600370  1.0  -0.241
  N  N1219  1  0.654320  0.318920  0.629600  1.0  -0.2891
  N  N1220  1  0.681420  0.316700  0.585720  1.0  -0.2042
  N  N1221  1  0.679390  0.376550  0.587930  1.0  0.0076
  N  N1222  1  0.688060  0.417300  0.573680  1.0  0.0023
  N  N1223  1  0.686380  0.488240  0.540980  1.0  -0.2492
  N  N1224  1  0.715480  0.463840  0.566460  1.0  -0.1999
  N  N1225  1  0.145330  0.512270  0.081810  1.0  -0.2311
  N  N1226  1  0.101190  0.532650  0.108870  1.0  -0.285
  N  N1227  1  0.119230  0.583670  0.041010  1.0  0.0179
  N  N1228  1  0.116480  0.625100  0.004340  1.0  0.0219
  N  N1229  1  0.123880  0.691540  0.956180  1.0  -0.2392
  N  N1230  1  0.100370  0.680530  0.943750  1.0  -0.2414
  N  N1231  1  0.129600  0.397160  0.154320  1.0  -0.2879
  N  N1232  1  0.085720  0.416160  0.181420  1.0  -0.2038
  N  N1233  1  0.087930  0.356130  0.179390  1.0  0.0078
  N  N1234  1  0.073680  0.320960  0.188060  1.0  0.003
  N  N1235  1  0.040980  0.284400  0.186380  1.0  -0.2493
  N  N1236  1  0.066460  0.254220  0.215480  1.0  -0.2003
  N  N1237  1  0.760590  0.081810  0.512270  1.0  -0.2319
  N  N1238  1  0.757290  0.108870  0.532650  1.0  -0.2854
  N  N1239  1  0.756090  0.041010  0.583670  1.0  0.0168
  N  N1240  1  0.754080  0.004340  0.625100  1.0  0.0212
  N  N1241  1  0.728400  0.956180  0.691540  1.0  -0.236
  N  N1242  1  0.775350  0.943750  0.680530  1.0  -0.2407
  N  N1243  1  0.818920  0.154320  0.397160  1.0  -0.2882
  N  N1244  1  0.816700  0.181420  0.416160  1.0  -0.2004
  N  N1245  1  0.876550  0.179390  0.356130  1.0  0.0083
  N  N1246  1  0.917300  0.188060  0.320960  1.0  0.0028
  N  N1247  1  0.988240  0.186380  0.284400  1.0  -0.2448
  N  N1248  1  0.963840  0.215480  0.254220  1.0  -0.2021
  N  N1249  1  0.012270  0.260590  0.081810  1.0  -0.2314
  N  N1250  1  0.032650  0.257290  0.108870  1.0  -0.2843
  N  N1251  1  0.083670  0.256090  0.041010  1.0  0.0185
  N  N1252  1  0.125100  0.254080  0.004340  1.0  0.0221
  N  N1253  1  0.191540  0.228400  0.956180  1.0  -0.2345
  N  N1254  1  0.180530  0.275350  0.943750  1.0  -0.2405
  N  N1255  1  0.897160  0.318920  0.154320  1.0  -0.2858
  N  N1256  1  0.916160  0.316700  0.181420  1.0  -0.2039
  N  N1257  1  0.856130  0.376550  0.179390  1.0  0.0079
  N  N1258  1  0.820960  0.417300  0.188060  1.0  0.0031
  N  N1259  1  0.784400  0.488240  0.186380  1.0  -0.2492
  N  N1260  1  0.754220  0.463840  0.215480  1.0  -0.1975
  N  N1261  1  0.581810  0.645330  0.512270  1.0  -0.2322
  N  N1262  1  0.608870  0.601190  0.532650  1.0  -0.2832
  N  N1263  1  0.541010  0.619230  0.583670  1.0  0.0185
  N  N1264  1  0.504340  0.616480  0.625100  1.0  0.0225
  N  N1265  1  0.456180  0.623880  0.691540  1.0  -0.2396
  N  N1266  1  0.443750  0.600370  0.680530  1.0  -0.24
  N  N1267  1  0.654320  0.629600  0.397160  1.0  -0.2842
  N  N1268  1  0.681420  0.585720  0.416160  1.0  -0.1999
  N  N1269  1  0.679390  0.587930  0.356130  1.0  0.0085
  N  N1270  1  0.688060  0.573680  0.320960  1.0  0.0025
  N  N1271  1  0.686380  0.540980  0.284400  1.0  -0.2481
  N  N1272  1  0.715480  0.566460  0.254220  1.0  -0.1965
  N  N1273  1  0.145330  0.081810  0.260590  1.0  -0.2349
  N  N1274  1  0.101190  0.108870  0.257290  1.0  -0.2866
  N  N1275  1  0.119230  0.041010  0.256090  1.0  0.0181
  N  N1276  1  0.116480  0.004340  0.254080  1.0  0.0216
  N  N1277  1  0.123880  0.956180  0.228400  1.0  -0.234
  N  N1278  1  0.100370  0.943750  0.275350  1.0  -0.2424
  N  N1279  1  0.129600  0.154320  0.318920  1.0  -0.2878
  N  N1280  1  0.085720  0.181420  0.316700  1.0  -0.202
  N  N1281  1  0.087930  0.179390  0.376550  1.0  0.0078
  N  N1282  1  0.073680  0.188060  0.417300  1.0  0.0034
  N  N1283  1  0.040980  0.186380  0.488240  1.0  -0.2484
  N  N1284  1  0.066460  0.215480  0.463840  1.0  -0.2004
  N  N1285  1  0.760590  0.512270  0.645330  1.0  -0.2333
  N  N1286  1  0.757290  0.532650  0.601190  1.0  -0.2867
  N  N1287  1  0.756090  0.583670  0.619230  1.0  0.0162
  N  N1288  1  0.754080  0.625100  0.616480  1.0  0.0215
  N  N1289  1  0.728400  0.691540  0.623880  1.0  -0.2384
  N  N1290  1  0.775350  0.680530  0.600370  1.0  -0.2412
  N  N1291  1  0.818920  0.397160  0.629600  1.0  -0.2879
  N  N1292  1  0.816700  0.416160  0.585720  1.0  -0.2051
  N  N1293  1  0.876550  0.356130  0.587930  1.0  0.0083
  N  N1294  1  0.917300  0.320960  0.573680  1.0  0.0026
  N  N1295  1  0.988240  0.284400  0.540980  1.0  -0.2494
  N  N1296  1  0.963840  0.254220  0.566460  1.0  -0.1998
  N  N1297  1  0.918190  0.987730  0.854670  1.0  -0.2326
  N  N1298  1  0.891130  0.967350  0.898810  1.0  -0.286
  N  N1299  1  0.958990  0.916330  0.880770  1.0  0.0171
  N  N1300  1  0.995660  0.874900  0.883520  1.0  0.0206
  N  N1301  1  0.043820  0.808460  0.876120  1.0  -0.2354
  N  N1302  1  0.056250  0.819470  0.899630  1.0  -0.2399
  N  N1303  1  0.845680  0.102840  0.870400  1.0  -0.285
  N  N1304  1  0.818580  0.083840  0.914280  1.0  -0.2035
  N  N1305  1  0.820610  0.143870  0.912070  1.0  0.0085
  N  N1306  1  0.811940  0.179040  0.926320  1.0  0.0036
  N  N1307  1  0.813620  0.215600  0.959020  1.0  -0.2473
  N  N1308  1  0.784520  0.245780  0.933540  1.0  -0.2014
  N  N1309  1  0.487730  0.418190  0.239410  1.0  -0.2333
  N  N1310  1  0.467350  0.391130  0.242710  1.0  -0.2845
  N  N1311  1  0.416330  0.458990  0.243910  1.0  0.0176
  N  N1312  1  0.374900  0.495660  0.245920  1.0  0.0202
  N  N1313  1  0.308460  0.543820  0.271600  1.0  -0.2336
  N  N1314  1  0.319470  0.556250  0.224650  1.0  -0.243
  N  N1315  1  0.602840  0.345680  0.181080  1.0  -0.2831
  N  N1316  1  0.583840  0.318580  0.183300  1.0  -0.2017
  N  N1317  1  0.643870  0.320610  0.123450  1.0  0.0085
  N  N1318  1  0.679040  0.311940  0.082700  1.0  0.0023
  N  N1319  1  0.715600  0.313620  0.011760  1.0  -0.2482
  N  N1320  1  0.745780  0.284520  0.036160  1.0  -0.1999
  N  N1321  1  0.739410  0.854670  0.987730  1.0  -0.233
  N  N1322  1  0.742710  0.898810  0.967350  1.0  -0.2856
  N  N1323  1  0.743910  0.880770  0.916330  1.0  0.0196
  N  N1324  1  0.745920  0.883520  0.874900  1.0  0.0214
  N  N1325  1  0.771600  0.876120  0.808460  1.0  -0.2377
  N  N1326  1  0.724650  0.899630  0.819470  1.0  -0.2372
  N  N1327  1  0.681080  0.870400  0.102840  1.0  -0.2863
  N  N1328  1  0.683300  0.914280  0.083840  1.0  -0.2024
  N  N1329  1  0.623450  0.912070  0.143870  1.0  0.0078
  N  N1330  1  0.582700  0.926320  0.179040  1.0  0.003
  N  N1331  1  0.511760  0.959020  0.215600  1.0  -0.2486
  N  N1332  1  0.536160  0.933540  0.245780  1.0  -0.2002
  N  N1333  1  0.354670  0.239410  0.418190  1.0  -0.2298
  N  N1334  1  0.398810  0.242710  0.391130  1.0  -0.284
  N  N1335  1  0.380770  0.243910  0.458990  1.0  0.0196
  N  N1336  1  0.383520  0.245920  0.495660  1.0  0.0234
  N  N1337  1  0.376120  0.271600  0.543820  1.0  -0.2393
  N  N1338  1  0.399630  0.224650  0.556250  1.0  -0.239
  N  N1339  1  0.370400  0.181080  0.345680  1.0  -0.2868
  N  N1340  1  0.414280  0.183300  0.318580  1.0  -0.2049
  N  N1341  1  0.412070  0.123450  0.320610  1.0  0.0086
  N  N1342  1  0.426320  0.082700  0.311940  1.0  0.0031
  N  N1343  1  0.459020  0.011760  0.313620  1.0  -0.2481
  N  N1344  1  0.433540  0.036160  0.284520  1.0  -0.1988
  N  N1345  1  0.354670  0.987730  0.239410  1.0  -0.2317
  N  N1346  1  0.398810  0.967350  0.242710  1.0  -0.2852
  N  N1347  1  0.380770  0.916330  0.243910  1.0  0.019
  N  N1348  1  0.383520  0.874900  0.245920  1.0  0.0211
  N  N1349  1  0.376120  0.808460  0.271600  1.0  -0.2373
  N  N1350  1  0.399630  0.819470  0.224650  1.0  -0.2408
  N  N1351  1  0.370400  0.102840  0.181080  1.0  -0.2878
  N  N1352  1  0.414280  0.083840  0.183300  1.0  -0.203
  N  N1353  1  0.412070  0.143870  0.123450  1.0  0.0079
  N  N1354  1  0.426320  0.179040  0.082700  1.0  0.0024
  N  N1355  1  0.459020  0.215600  0.011760  1.0  -0.2498
  N  N1356  1  0.433540  0.245780  0.036160  1.0  -0.2002
  N  N1357  1  0.739410  0.418190  0.854670  1.0  -0.2306
  N  N1358  1  0.742710  0.391130  0.898810  1.0  -0.2837
  N  N1359  1  0.743910  0.458990  0.880770  1.0  0.0167
  N  N1360  1  0.745920  0.495660  0.883520  1.0  0.0209
  N  N1361  1  0.771600  0.543820  0.876120  1.0  -0.2361
  N  N1362  1  0.724650  0.556250  0.899630  1.0  -0.2413
  N  N1363  1  0.681080  0.345680  0.870400  1.0  -0.2873
  N  N1364  1  0.683300  0.318580  0.914280  1.0  -0.2016
  N  N1365  1  0.623450  0.320610  0.912070  1.0  0.0084
  N  N1366  1  0.582700  0.311940  0.926320  1.0  0.0038
  N  N1367  1  0.511760  0.313620  0.959020  1.0  -0.2462
  N  N1368  1  0.536160  0.284520  0.933540  1.0  -0.2003
  N  N1369  1  0.487730  0.854670  0.418190  1.0  -0.2323
  N  N1370  1  0.467350  0.898810  0.391130  1.0  -0.2861
  N  N1371  1  0.416330  0.880770  0.458990  1.0  0.0188
  N  N1372  1  0.374900  0.883520  0.495660  1.0  0.021
  N  N1373  1  0.308460  0.876120  0.543820  1.0  -0.2332
  N  N1374  1  0.319470  0.899630  0.556250  1.0  -0.2399
  N  N1375  1  0.602840  0.870400  0.345680  1.0  -0.2856
  N  N1376  1  0.583840  0.914280  0.318580  1.0  -0.2009
  N  N1377  1  0.643870  0.912070  0.320610  1.0  0.009
  N  N1378  1  0.679040  0.926320  0.311940  1.0  0.0023
  N  N1379  1  0.715600  0.959020  0.313620  1.0  -0.2493
  N  N1380  1  0.745780  0.933540  0.284520  1.0  -0.1947
  N  N1381  1  0.918190  0.239410  0.987730  1.0  -0.2337
  N  N1382  1  0.891130  0.242710  0.967350  1.0  -0.2839
  N  N1383  1  0.958990  0.243910  0.916330  1.0  0.019
  N  N1384  1  0.995660  0.245920  0.874900  1.0  0.0226
  N  N1385  1  0.043820  0.271600  0.808460  1.0  -0.2354
  N  N1386  1  0.056250  0.224650  0.819470  1.0  -0.2414
  N  N1387  1  0.845680  0.181080  0.102840  1.0  -0.2886
  N  N1388  1  0.818580  0.183300  0.083840  1.0  -0.2046
  N  N1389  1  0.820610  0.123450  0.143870  1.0  0.0082
  N  N1390  1  0.811940  0.082700  0.179040  1.0  0.0027
  N  N1391  1  0.813620  0.011760  0.215600  1.0  -0.2482
  N  N1392  1  0.784520  0.036160  0.245780  1.0  -0.2001
  N  N1393  1  0.739410  0.987730  0.418190  1.0  -0.2331
  N  N1394  1  0.742710  0.967350  0.391130  1.0  -0.2855
  N  N1395  1  0.743910  0.916330  0.458990  1.0  0.0172
  N  N1396  1  0.745920  0.874900  0.495660  1.0  0.0208
  N  N1397  1  0.771600  0.808460  0.543820  1.0  -0.237
  N  N1398  1  0.724650  0.819470  0.556250  1.0  -0.2405
  N  N1399  1  0.681080  0.102840  0.345680  1.0  -0.2867
  N  N1400  1  0.683300  0.083840  0.318580  1.0  -0.2021
  N  N1401  1  0.623450  0.143870  0.320610  1.0  0.0075
  N  N1402  1  0.582700  0.179040  0.311940  1.0  0.0023
  N  N1403  1  0.511760  0.215600  0.313620  1.0  -0.2476
  N  N1404  1  0.536160  0.245780  0.284520  1.0  -0.2002
  N  N1405  1  0.354670  0.418190  0.987730  1.0  -0.2334
  N  N1406  1  0.398810  0.391130  0.967350  1.0  -0.2847
  N  N1407  1  0.380770  0.458990  0.916330  1.0  0.0172
  N  N1408  1  0.383520  0.495660  0.874900  1.0  0.0212
  N  N1409  1  0.376120  0.543820  0.808460  1.0  -0.2365
  N  N1410  1  0.399630  0.556250  0.819470  1.0  -0.242
  N  N1411  1  0.370400  0.345680  0.102840  1.0  -0.2866
  N  N1412  1  0.414280  0.318580  0.083840  1.0  -0.2022
  N  N1413  1  0.412070  0.320610  0.143870  1.0  0.0081
  N  N1414  1  0.426320  0.311940  0.179040  1.0  0.0039
  N  N1415  1  0.459020  0.313620  0.215600  1.0  -0.2486
  N  N1416  1  0.433540  0.284520  0.245780  1.0  -0.1998
  N  N1417  1  0.918190  0.854670  0.239410  1.0  -0.2315
  N  N1418  1  0.891130  0.898810  0.242710  1.0  -0.285
  N  N1419  1  0.958990  0.880770  0.243910  1.0  0.0177
  N  N1420  1  0.995660  0.883520  0.245920  1.0  0.0224
  N  N1421  1  0.043820  0.876120  0.271600  1.0  -0.2392
  N  N1422  1  0.056250  0.899630  0.224650  1.0  -0.241
  N  N1423  1  0.845680  0.870400  0.181080  1.0  -0.284
  N  N1424  1  0.818580  0.914280  0.183300  1.0  -0.2005
  N  N1425  1  0.820610  0.912070  0.123450  1.0  0.0089
  N  N1426  1  0.811940  0.926320  0.082700  1.0  0.0024
  N  N1427  1  0.813620  0.959020  0.011760  1.0  -0.248
  N  N1428  1  0.784520  0.933540  0.036160  1.0  -0.1962
  N  N1429  1  0.487730  0.239410  0.854670  1.0  -0.2293
  N  N1430  1  0.467350  0.242710  0.898810  1.0  -0.2838
  N  N1431  1  0.416330  0.243910  0.880770  1.0  0.0189
  N  N1432  1  0.374900  0.245920  0.883520  1.0  0.0232
  N  N1433  1  0.308460  0.271600  0.876120  1.0  -0.235
  N  N1434  1  0.319470  0.224650  0.899630  1.0  -0.2397
  N  N1435  1  0.602840  0.181080  0.870400  1.0  -0.2858
  N  N1436  1  0.583840  0.183300  0.914280  1.0  -0.2055
  N  N1437  1  0.643870  0.123450  0.912070  1.0  0.0077
  N  N1438  1  0.679040  0.082700  0.926320  1.0  0.0025
  N  N1439  1  0.715600  0.011760  0.959020  1.0  -0.2491
  N  N1440  1  0.745780  0.036160  0.933540  1.0  -0.1979
