# generated using pymatgen
data_AgH4(C2N3)2
_symmetry_space_group_name_H-M   'P 1'
_cell_length_a   35.26270000
_cell_length_b   35.26270000
_cell_length_c   35.26270000
_cell_angle_alpha   60.00000000
_cell_angle_beta   60.00000000
_cell_angle_gamma   60.00000000
_symmetry_Int_Tables_number   1
_chemical_formula_structural   AgH4(C2N3)2
_chemical_formula_sum   'Ag96 H384 C384 N576'
_cell_volume   31004.99668603
_cell_formula_units_Z   96
loop_
 _symmetry_equiv_pos_site_id
 _symmetry_equiv_pos_as_xyz
  1  'x, y, z'
loop_
 _atom_site_type_symbol
 _atom_site_label
 _atom_site_symmetry_multiplicity
 _atom_site_fract_x
 _atom_site_fract_y
 _atom_site_fract_z
 _atom_site_occupancy
 _atom_site_charge
  Ag  Ag1  1  0.069070  0.883060  0.314980  1.0  0.3273
  Ag  Ag2  1  0.008310  0.816990  0.434910  1.0  0.3731
  Ag  Ag3  1  0.383060  0.569070  0.732890  1.0  0.3266
  Ag  Ag4  1  0.316990  0.508310  0.739790  1.0  0.3731
  Ag  Ag5  1  0.814980  0.732890  0.569070  1.0  0.3277
  Ag  Ag6  1  0.934910  0.739790  0.508310  1.0  0.3725
  Ag  Ag7  1  0.232890  0.314980  0.883060  1.0  0.3273
  Ag  Ag8  1  0.239790  0.434910  0.816990  1.0  0.3726
  Ag  Ag9  1  0.069070  0.314980  0.732890  1.0  0.3284
  Ag  Ag10  1  0.008310  0.434910  0.739790  1.0  0.3729
  Ag  Ag11  1  0.383060  0.732890  0.314980  1.0  0.325
  Ag  Ag12  1  0.316990  0.739790  0.434910  1.0  0.3724
  Ag  Ag13  1  0.814980  0.569070  0.883060  1.0  0.3257
  Ag  Ag14  1  0.934910  0.508310  0.816990  1.0  0.3718
  Ag  Ag15  1  0.232890  0.883060  0.569070  1.0  0.3302
  Ag  Ag16  1  0.239790  0.816990  0.508310  1.0  0.3723
  Ag  Ag17  1  0.069070  0.732890  0.883060  1.0  0.3263
  Ag  Ag18  1  0.008310  0.739790  0.816990  1.0  0.3727
  Ag  Ag19  1  0.383060  0.314980  0.569070  1.0  0.3268
  Ag  Ag20  1  0.316990  0.434910  0.508310  1.0  0.3731
  Ag  Ag21  1  0.814980  0.883060  0.732890  1.0  0.3271
  Ag  Ag22  1  0.934910  0.816990  0.739790  1.0  0.3728
  Ag  Ag23  1  0.232890  0.569070  0.314980  1.0  0.3266
  Ag  Ag24  1  0.239790  0.508310  0.434910  1.0  0.3723
  Ag  Ag25  1  0.116940  0.930930  0.185020  1.0  0.3272
  Ag  Ag26  1  0.183010  0.991690  0.065090  1.0  0.3731
  Ag  Ag27  1  0.430930  0.616940  0.767110  1.0  0.3258
  Ag  Ag28  1  0.491690  0.683010  0.760210  1.0  0.3731
  Ag  Ag29  1  0.267110  0.185020  0.930930  1.0  0.327
  Ag  Ag30  1  0.260210  0.065090  0.991690  1.0  0.3729
  Ag  Ag31  1  0.685020  0.767110  0.616940  1.0  0.3277
  Ag  Ag32  1  0.565090  0.760210  0.683010  1.0  0.3719
  Ag  Ag33  1  0.685020  0.930930  0.767110  1.0  0.3263
  Ag  Ag34  1  0.565090  0.991690  0.760210  1.0  0.3725
  Ag  Ag35  1  0.267110  0.616940  0.185020  1.0  0.33
  Ag  Ag36  1  0.260210  0.683010  0.065090  1.0  0.3724
  Ag  Ag37  1  0.430930  0.185020  0.616940  1.0  0.3276
  Ag  Ag38  1  0.491690  0.065090  0.683010  1.0  0.3725
  Ag  Ag39  1  0.116940  0.767110  0.930930  1.0  0.3254
  Ag  Ag40  1  0.183010  0.760210  0.991690  1.0  0.3724
  Ag  Ag41  1  0.267110  0.930930  0.616940  1.0  0.3278
  Ag  Ag42  1  0.260210  0.991690  0.683010  1.0  0.3728
  Ag  Ag43  1  0.685020  0.616940  0.930930  1.0  0.3268
  Ag  Ag44  1  0.565090  0.683010  0.991690  1.0  0.3727
  Ag  Ag45  1  0.116940  0.185020  0.767110  1.0  0.3271
  Ag  Ag46  1  0.183010  0.065090  0.760210  1.0  0.3732
  Ag  Ag47  1  0.430930  0.767110  0.185020  1.0  0.3258
  Ag  Ag48  1  0.491690  0.760210  0.065090  1.0  0.3726
  Ag  Ag49  1  0.930930  0.116940  0.685020  1.0  0.326
  Ag  Ag50  1  0.991690  0.183010  0.565090  1.0  0.3731
  Ag  Ag51  1  0.616940  0.430930  0.267110  1.0  0.3273
  Ag  Ag52  1  0.683010  0.491690  0.260210  1.0  0.3731
  Ag  Ag53  1  0.185020  0.267110  0.430930  1.0  0.3258
  Ag  Ag54  1  0.065090  0.260210  0.491690  1.0  0.3722
  Ag  Ag55  1  0.767110  0.685020  0.116940  1.0  0.3283
  Ag  Ag56  1  0.760210  0.565090  0.183010  1.0  0.3727
  Ag  Ag57  1  0.930930  0.685020  0.267110  1.0  0.3243
  Ag  Ag58  1  0.991690  0.565090  0.260210  1.0  0.3727
  Ag  Ag59  1  0.616940  0.267110  0.685020  1.0  0.3289
  Ag  Ag60  1  0.683010  0.260210  0.565090  1.0  0.3726
  Ag  Ag61  1  0.185020  0.430930  0.116940  1.0  0.3297
  Ag  Ag62  1  0.065090  0.491690  0.183010  1.0  0.3724
  Ag  Ag63  1  0.767110  0.116940  0.430930  1.0  0.3268
  Ag  Ag64  1  0.760210  0.183010  0.491690  1.0  0.3723
  Ag  Ag65  1  0.930930  0.267110  0.116940  1.0  0.3259
  Ag  Ag66  1  0.991690  0.260210  0.183010  1.0  0.3722
  Ag  Ag67  1  0.616940  0.685020  0.430930  1.0  0.3268
  Ag  Ag68  1  0.683010  0.565090  0.491690  1.0  0.3731
  Ag  Ag69  1  0.185020  0.116940  0.267110  1.0  0.327
  Ag  Ag70  1  0.065090  0.183010  0.260210  1.0  0.3728
  Ag  Ag71  1  0.767110  0.430930  0.685020  1.0  0.3278
  Ag  Ag72  1  0.760210  0.491690  0.565090  1.0  0.373
  Ag  Ag73  1  0.883060  0.069070  0.814980  1.0  0.3267
  Ag  Ag74  1  0.816990  0.008310  0.934910  1.0  0.3731
  Ag  Ag75  1  0.569070  0.383060  0.232890  1.0  0.3272
  Ag  Ag76  1  0.508310  0.316990  0.239790  1.0  0.3731
  Ag  Ag77  1  0.732890  0.814980  0.069070  1.0  0.3288
  Ag  Ag78  1  0.739790  0.934910  0.008310  1.0  0.3724
  Ag  Ag79  1  0.314980  0.232890  0.383060  1.0  0.3261
  Ag  Ag80  1  0.434910  0.239790  0.316990  1.0  0.3727
  Ag  Ag81  1  0.314980  0.069070  0.232890  1.0  0.3287
  Ag  Ag82  1  0.434910  0.008310  0.239790  1.0  0.3717
  Ag  Ag83  1  0.732890  0.383060  0.814980  1.0  0.3264
  Ag  Ag84  1  0.739790  0.316990  0.934910  1.0  0.3722
  Ag  Ag85  1  0.569070  0.814980  0.383060  1.0  0.3251
  Ag  Ag86  1  0.508310  0.934910  0.316990  1.0  0.373
  Ag  Ag87  1  0.883060  0.232890  0.069070  1.0  0.3283
  Ag  Ag88  1  0.816990  0.239790  0.008310  1.0  0.3724
  Ag  Ag89  1  0.732890  0.069070  0.383060  1.0  0.3266
  Ag  Ag90  1  0.739790  0.008310  0.316990  1.0  0.3726
  Ag  Ag91  1  0.314980  0.383060  0.069070  1.0  0.3272
  Ag  Ag92  1  0.434910  0.316990  0.008310  1.0  0.3729
  Ag  Ag93  1  0.883060  0.814980  0.232890  1.0  0.3267
  Ag  Ag94  1  0.816990  0.934910  0.239790  1.0  0.373
  Ag  Ag95  1  0.569070  0.232890  0.814980  1.0  0.3262
  Ag  Ag96  1  0.508310  0.239790  0.934910  1.0  0.3725
  H  H97  1  0.157600  0.864200  0.343200  1.0  0.062
  H  H98  1  0.103000  0.788000  0.471400  1.0  0.0744
  H  H99  1  0.961600  0.983000  0.320800  1.0  0.0633
  H  H100  1  0.902300  0.904300  0.443900  1.0  0.0647
  H  H101  1  0.150500  0.857300  0.461700  1.0  0.0623
  H  H102  1  0.234400  0.770400  0.392400  1.0  0.0633
  H  H103  1  0.874900  0.023100  0.423300  1.0  0.0631
  H  H104  1  0.844800  0.989400  0.352000  1.0  0.0787
  H  H105  1  0.364200  0.657600  0.635000  1.0  0.061
  H  H106  1  0.288000  0.603000  0.637600  1.0  0.0728
  H  H107  1  0.483000  0.461600  0.734600  1.0  0.0617
  H  H108  1  0.404300  0.402300  0.749500  1.0  0.0654
  H  H109  1  0.357300  0.650500  0.530500  1.0  0.0622
  H  H110  1  0.270400  0.734400  0.602800  1.0  0.0634
  H  H111  1  0.523100  0.374900  0.678700  1.0  0.065
  H  H112  1  0.489400  0.344800  0.813800  1.0  0.0783
  H  H113  1  0.843200  0.635000  0.657600  1.0  0.0623
  H  H114  1  0.971400  0.637600  0.603000  1.0  0.072
  H  H115  1  0.820800  0.734600  0.461600  1.0  0.0633
  H  H116  1  0.943900  0.749500  0.402300  1.0  0.0656
  H  H117  1  0.961700  0.530500  0.650500  1.0  0.0614
  H  H118  1  0.892400  0.602800  0.734400  1.0  0.0627
  H  H119  1  0.923300  0.678700  0.374900  1.0  0.0667
  H  H120  1  0.852000  0.813800  0.344800  1.0  0.0814
  H  H121  1  0.135000  0.343200  0.864200  1.0  0.062
  H  H122  1  0.137600  0.471400  0.788000  1.0  0.0759
  H  H123  1  0.234600  0.320800  0.983000  1.0  0.0647
  H  H124  1  0.249500  0.443900  0.904300  1.0  0.0667
  H  H125  1  0.030500  0.461700  0.857300  1.0  0.0613
  H  H126  1  0.102800  0.392400  0.770400  1.0  0.0627
  H  H127  1  0.178700  0.423300  0.023100  1.0  0.0663
  H  H128  1  0.313800  0.352000  0.989400  1.0  0.078
  H  H129  1  0.157600  0.343200  0.635000  1.0  0.0618
  H  H130  1  0.103000  0.471400  0.637600  1.0  0.0746
  H  H131  1  0.961600  0.320800  0.734600  1.0  0.064
  H  H132  1  0.902300  0.443900  0.749500  1.0  0.0662
  H  H133  1  0.150500  0.461700  0.530500  1.0  0.0608
  H  H134  1  0.234400  0.392400  0.602800  1.0  0.0645
  H  H135  1  0.874900  0.423300  0.678700  1.0  0.0646
  H  H136  1  0.844800  0.352000  0.813800  1.0  0.0776
  H  H137  1  0.364200  0.635000  0.343200  1.0  0.0605
  H  H138  1  0.288000  0.637600  0.471400  1.0  0.0732
  H  H139  1  0.483000  0.734600  0.320800  1.0  0.0617
  H  H140  1  0.404300  0.749500  0.443900  1.0  0.0648
  H  H141  1  0.357300  0.530500  0.461700  1.0  0.0609
  H  H142  1  0.270400  0.602800  0.392400  1.0  0.0636
  H  H143  1  0.523100  0.678700  0.423300  1.0  0.0675
  H  H144  1  0.489400  0.813800  0.352000  1.0  0.0807
  H  H145  1  0.843200  0.657600  0.864200  1.0  0.06
  H  H146  1  0.971400  0.603000  0.788000  1.0  0.0724
  H  H147  1  0.820800  0.461600  0.983000  1.0  0.0631
  H  H148  1  0.943900  0.402300  0.904300  1.0  0.0648
  H  H149  1  0.961700  0.650500  0.857300  1.0  0.0633
  H  H150  1  0.892400  0.734400  0.770400  1.0  0.0633
  H  H151  1  0.923300  0.374900  0.023100  1.0  0.0644
  H  H152  1  0.852000  0.344800  0.989400  1.0  0.0788
  H  H153  1  0.135000  0.864200  0.657600  1.0  0.0606
  H  H154  1  0.137600  0.788000  0.603000  1.0  0.0738
  H  H155  1  0.234600  0.983000  0.461600  1.0  0.0634
  H  H156  1  0.249500  0.904300  0.402300  1.0  0.0652
  H  H157  1  0.030500  0.857300  0.650500  1.0  0.063
  H  H158  1  0.102800  0.770400  0.734400  1.0  0.0634
  H  H159  1  0.178700  0.023100  0.374900  1.0  0.0657
  H  H160  1  0.313800  0.989400  0.344800  1.0  0.0793
  H  H161  1  0.157600  0.635000  0.864200  1.0  0.0602
  H  H162  1  0.103000  0.637600  0.788000  1.0  0.0735
  H  H163  1  0.961600  0.734600  0.983000  1.0  0.0618
  H  H164  1  0.902300  0.749500  0.904300  1.0  0.0648
  H  H165  1  0.150500  0.530500  0.857300  1.0  0.0614
  H  H166  1  0.234400  0.602800  0.770400  1.0  0.0638
  H  H167  1  0.874900  0.678700  0.023100  1.0  0.0662
  H  H168  1  0.844800  0.813800  0.989400  1.0  0.0811
  H  H169  1  0.364200  0.343200  0.657600  1.0  0.062
  H  H170  1  0.288000  0.471400  0.603000  1.0  0.0767
  H  H171  1  0.483000  0.320800  0.461600  1.0  0.0637
  H  H172  1  0.404300  0.443900  0.402300  1.0  0.0657
  H  H173  1  0.357300  0.461700  0.650500  1.0  0.0625
  H  H174  1  0.270400  0.392400  0.734400  1.0  0.0636
  H  H175  1  0.523100  0.423300  0.374900  1.0  0.0645
  H  H176  1  0.489400  0.352000  0.344800  1.0  0.0771
  H  H177  1  0.843200  0.864200  0.635000  1.0  0.0607
  H  H178  1  0.971400  0.788000  0.637600  1.0  0.0742
  H  H179  1  0.820800  0.983000  0.734600  1.0  0.0642
  H  H180  1  0.943900  0.904300  0.749500  1.0  0.0626
  H  H181  1  0.961700  0.857300  0.530500  1.0  0.0632
  H  H182  1  0.892400  0.770400  0.602800  1.0  0.0644
  H  H183  1  0.923300  0.023100  0.678700  1.0  0.0644
  H  H184  1  0.852000  0.989400  0.813800  1.0  0.0783
  H  H185  1  0.135000  0.657600  0.343200  1.0  0.061
  H  H186  1  0.137600  0.603000  0.471400  1.0  0.0731
  H  H187  1  0.234600  0.461600  0.320800  1.0  0.0611
  H  H188  1  0.249500  0.402300  0.443900  1.0  0.0678
  H  H189  1  0.030500  0.650500  0.461700  1.0  0.0624
  H  H190  1  0.102800  0.734400  0.392400  1.0  0.064
  H  H191  1  0.178700  0.374900  0.423300  1.0  0.0656
  H  H192  1  0.313800  0.344800  0.352000  1.0  0.0789
  H  H193  1  0.135800  0.842400  0.156800  1.0  0.0611
  H  H194  1  0.212000  0.897000  0.028600  1.0  0.0728
  H  H195  1  0.017000  0.038400  0.179200  1.0  0.0627
  H  H196  1  0.095700  0.097700  0.056100  1.0  0.0655
  H  H197  1  0.142700  0.849500  0.038300  1.0  0.0627
  H  H198  1  0.229600  0.765600  0.107600  1.0  0.0632
  H  H199  1  0.976900  0.125100  0.076700  1.0  0.0645
  H  H200  1  0.010600  0.155200  0.148000  1.0  0.0781
  H  H201  1  0.342400  0.635800  0.865000  1.0  0.0618
  H  H202  1  0.397000  0.712000  0.862400  1.0  0.0738
  H  H203  1  0.538400  0.517000  0.765400  1.0  0.0623
  H  H204  1  0.597700  0.595700  0.750500  1.0  0.0653
  H  H205  1  0.349500  0.642700  0.969500  1.0  0.062
  H  H206  1  0.265600  0.729600  0.897200  1.0  0.0634
  H  H207  1  0.625100  0.476900  0.821300  1.0  0.0637
  H  H208  1  0.655200  0.510600  0.686200  1.0  0.0783
  H  H209  1  0.365000  0.156800  0.842400  1.0  0.0621
  H  H210  1  0.362400  0.028600  0.897000  1.0  0.0768
  H  H211  1  0.265400  0.179200  0.038400  1.0  0.0649
  H  H212  1  0.250500  0.056100  0.097700  1.0  0.0672
  H  H213  1  0.469500  0.038300  0.849500  1.0  0.0612
  H  H214  1  0.397200  0.107600  0.765600  1.0  0.063
  H  H215  1  0.321300  0.076700  0.125100  1.0  0.0651
  H  H216  1  0.186200  0.148000  0.155200  1.0  0.0796
  H  H217  1  0.656800  0.865000  0.635800  1.0  0.0617
  H  H218  1  0.528600  0.862400  0.712000  1.0  0.0726
  H  H219  1  0.679200  0.765400  0.517000  1.0  0.0623
  H  H220  1  0.556100  0.750500  0.595700  1.0  0.0666
  H  H221  1  0.538300  0.969500  0.642700  1.0  0.0611
  H  H222  1  0.607600  0.897200  0.729600  1.0  0.0627
  H  H223  1  0.576700  0.821300  0.476900  1.0  0.0679
  H  H224  1  0.648000  0.686200  0.510600  1.0  0.0808
  H  H225  1  0.656800  0.842400  0.865000  1.0  0.0603
  H  H226  1  0.528600  0.897000  0.862400  1.0  0.0731
  H  H227  1  0.679200  0.038400  0.765400  1.0  0.0624
  H  H228  1  0.556100  0.097700  0.750500  1.0  0.0642
  H  H229  1  0.538300  0.849500  0.969500  1.0  0.0634
  H  H230  1  0.607600  0.765600  0.897200  1.0  0.0632
  H  H231  1  0.576700  0.125100  0.821300  1.0  0.0648
  H  H232  1  0.648000  0.155200  0.686200  1.0  0.078
  H  H233  1  0.365000  0.635800  0.156800  1.0  0.061
  H  H234  1  0.362400  0.712000  0.028600  1.0  0.074
  H  H235  1  0.265400  0.517000  0.179200  1.0  0.063
  H  H236  1  0.250500  0.595700  0.056100  1.0  0.0651
  H  H237  1  0.469500  0.642700  0.038300  1.0  0.0627
  H  H238  1  0.397200  0.729600  0.107600  1.0  0.0633
  H  H239  1  0.321300  0.476900  0.076700  1.0  0.0646
  H  H240  1  0.186200  0.510600  0.148000  1.0  0.08
  H  H241  1  0.342400  0.156800  0.635800  1.0  0.0618
  H  H242  1  0.397000  0.028600  0.712000  1.0  0.0757
  H  H243  1  0.538400  0.179200  0.517000  1.0  0.0643
  H  H244  1  0.597700  0.056100  0.595700  1.0  0.0662
  H  H245  1  0.349500  0.038300  0.642700  1.0  0.0606
  H  H246  1  0.265600  0.107600  0.729600  1.0  0.0642
  H  H247  1  0.625100  0.076700  0.476900  1.0  0.0639
  H  H248  1  0.655200  0.148000  0.510600  1.0  0.0779
  H  H249  1  0.135800  0.865000  0.842400  1.0  0.0608
  H  H250  1  0.212000  0.862400  0.897000  1.0  0.0724
  H  H251  1  0.017000  0.765400  0.038400  1.0  0.0615
  H  H252  1  0.095700  0.750500  0.097700  1.0  0.065
  H  H253  1  0.142700  0.969500  0.849500  1.0  0.0608
  H  H254  1  0.229600  0.897200  0.765600  1.0  0.0635
  H  H255  1  0.976900  0.821300  0.125100  1.0  0.068
  H  H256  1  0.010600  0.686200  0.155200  1.0  0.08
  H  H257  1  0.365000  0.842400  0.635800  1.0  0.0609
  H  H258  1  0.362400  0.897000  0.712000  1.0  0.0721
  H  H259  1  0.265400  0.038400  0.517000  1.0  0.061
  H  H260  1  0.250500  0.097700  0.595700  1.0  0.0669
  H  H261  1  0.469500  0.849500  0.642700  1.0  0.0625
  H  H262  1  0.397200  0.765600  0.729600  1.0  0.0643
  H  H263  1  0.321300  0.125100  0.476900  1.0  0.0646
  H  H264  1  0.186200  0.155200  0.510600  1.0  0.0797
  H  H265  1  0.656800  0.635800  0.842400  1.0  0.0615
  H  H266  1  0.528600  0.712000  0.897000  1.0  0.075
  H  H267  1  0.679200  0.517000  0.038400  1.0  0.0634
  H  H268  1  0.556100  0.595700  0.097700  1.0  0.0619
  H  H269  1  0.538300  0.642700  0.849500  1.0  0.0634
  H  H270  1  0.607600  0.729600  0.765600  1.0  0.0641
  H  H271  1  0.576700  0.476900  0.125100  1.0  0.0643
  H  H272  1  0.648000  0.510600  0.155200  1.0  0.0774
  H  H273  1  0.135800  0.156800  0.865000  1.0  0.0618
  H  H274  1  0.212000  0.028600  0.862400  1.0  0.0766
  H  H275  1  0.017000  0.179200  0.765400  1.0  0.0645
  H  H276  1  0.095700  0.056100  0.750500  1.0  0.0656
  H  H277  1  0.142700  0.038300  0.969500  1.0  0.0624
  H  H278  1  0.229600  0.107600  0.897200  1.0  0.0638
  H  H279  1  0.976900  0.076700  0.821300  1.0  0.0644
  H  H280  1  0.010600  0.148000  0.686200  1.0  0.0782
  H  H281  1  0.342400  0.865000  0.156800  1.0  0.061
  H  H282  1  0.397000  0.862400  0.028600  1.0  0.074
  H  H283  1  0.538400  0.765400  0.179200  1.0  0.0608
  H  H284  1  0.597700  0.750500  0.056100  1.0  0.0653
  H  H285  1  0.349500  0.969500  0.038300  1.0  0.0607
  H  H286  1  0.265600  0.897200  0.107600  1.0  0.0638
  H  H287  1  0.625100  0.821300  0.076700  1.0  0.0677
  H  H288  1  0.655200  0.686200  0.148000  1.0  0.0812
  H  H289  1  0.842400  0.135800  0.656800  1.0  0.0618
  H  H290  1  0.897000  0.212000  0.528600  1.0  0.0742
  H  H291  1  0.038400  0.017000  0.679200  1.0  0.0628
  H  H292  1  0.097700  0.095700  0.556100  1.0  0.0647
  H  H293  1  0.849500  0.142700  0.538300  1.0  0.0616
  H  H294  1  0.765600  0.229600  0.607600  1.0  0.0635
  H  H295  1  0.125100  0.976900  0.576700  1.0  0.0643
  H  H296  1  0.155200  0.010600  0.648000  1.0  0.0774
  H  H297  1  0.635800  0.342400  0.365000  1.0  0.0609
  H  H298  1  0.712000  0.397000  0.362400  1.0  0.0721
  H  H299  1  0.517000  0.538400  0.265400  1.0  0.0622
  H  H300  1  0.595700  0.597700  0.250500  1.0  0.0661
  H  H301  1  0.642700  0.349500  0.469500  1.0  0.0634
  H  H302  1  0.729600  0.265600  0.397200  1.0  0.0633
  H  H303  1  0.476900  0.625100  0.321300  1.0  0.0639
  H  H304  1  0.510600  0.655200  0.186200  1.0  0.0788
  H  H305  1  0.156800  0.365000  0.342400  1.0  0.0615
  H  H306  1  0.028600  0.362400  0.397000  1.0  0.0731
  H  H307  1  0.179200  0.265400  0.538400  1.0  0.062
  H  H308  1  0.056100  0.250500  0.597700  1.0  0.0664
  H  H309  1  0.038300  0.469500  0.349500  1.0  0.0613
  H  H310  1  0.107600  0.397200  0.265600  1.0  0.0628
  H  H311  1  0.076700  0.321300  0.625100  1.0  0.0679
  H  H312  1  0.148000  0.186200  0.655200  1.0  0.0803
  H  H313  1  0.865000  0.656800  0.135800  1.0  0.0624
  H  H314  1  0.862400  0.528600  0.212000  1.0  0.0765
  H  H315  1  0.765400  0.679200  0.017000  1.0  0.0652
  H  H316  1  0.750500  0.556100  0.095700  1.0  0.0674
  H  H317  1  0.969500  0.538300  0.142700  1.0  0.0608
  H  H318  1  0.897200  0.607600  0.229600  1.0  0.0625
  H  H319  1  0.821300  0.576700  0.976900  1.0  0.0652
  H  H320  1  0.686200  0.648000  0.010600  1.0  0.0797
  H  H321  1  0.842400  0.656800  0.365000  1.0  0.0615
  H  H322  1  0.897000  0.528600  0.362400  1.0  0.0764
  H  H323  1  0.038400  0.679200  0.265400  1.0  0.0642
  H  H324  1  0.097700  0.556100  0.250500  1.0  0.0668
  H  H325  1  0.849500  0.538300  0.469500  1.0  0.0613
  H  H326  1  0.765600  0.607600  0.397200  1.0  0.0634
  H  H327  1  0.125100  0.576700  0.321300  1.0  0.0646
  H  H328  1  0.155200  0.648000  0.186200  1.0  0.0787
  H  H329  1  0.635800  0.365000  0.656800  1.0  0.0608
  H  H330  1  0.712000  0.362400  0.528600  1.0  0.0731
  H  H331  1  0.517000  0.265400  0.679200  1.0  0.0613
  H  H332  1  0.595700  0.250500  0.556100  1.0  0.0662
  H  H333  1  0.642700  0.469500  0.538300  1.0  0.0604
  H  H334  1  0.729600  0.397200  0.607600  1.0  0.0639
  H  H335  1  0.476900  0.321300  0.576700  1.0  0.0678
  H  H336  1  0.510600  0.186200  0.648000  1.0  0.0809
  H  H337  1  0.156800  0.342400  0.135800  1.0  0.0607
  H  H338  1  0.028600  0.397000  0.212000  1.0  0.0724
  H  H339  1  0.179200  0.538400  0.017000  1.0  0.0619
  H  H340  1  0.056100  0.597700  0.095700  1.0  0.0636
  H  H341  1  0.038300  0.349500  0.142700  1.0  0.0629
  H  H342  1  0.107600  0.265600  0.229600  1.0  0.0637
  H  H343  1  0.076700  0.625100  0.976900  1.0  0.0642
  H  H344  1  0.148000  0.655200  0.010600  1.0  0.0774
  H  H345  1  0.865000  0.135800  0.342400  1.0  0.0608
  H  H346  1  0.862400  0.212000  0.397000  1.0  0.0735
  H  H347  1  0.765400  0.017000  0.538400  1.0  0.0626
  H  H348  1  0.750500  0.095700  0.597700  1.0  0.0638
  H  H349  1  0.969500  0.142700  0.349500  1.0  0.0636
  H  H350  1  0.897200  0.229600  0.265600  1.0  0.0633
  H  H351  1  0.821300  0.976900  0.625100  1.0  0.065
  H  H352  1  0.686200  0.010600  0.655200  1.0  0.0796
  H  H353  1  0.842400  0.365000  0.135800  1.0  0.0605
  H  H354  1  0.897000  0.362400  0.212000  1.0  0.0726
  H  H355  1  0.038400  0.265400  0.017000  1.0  0.0609
  H  H356  1  0.097700  0.250500  0.095700  1.0  0.066
  H  H357  1  0.849500  0.469500  0.142700  1.0  0.0613
  H  H358  1  0.765600  0.397200  0.229600  1.0  0.0637
  H  H359  1  0.125100  0.321300  0.976900  1.0  0.068
  H  H360  1  0.155200  0.186200  0.010600  1.0  0.0803
  H  H361  1  0.635800  0.656800  0.342400  1.0  0.0618
  H  H362  1  0.712000  0.528600  0.397000  1.0  0.077
  H  H363  1  0.517000  0.679200  0.538400  1.0  0.0645
  H  H364  1  0.595700  0.556100  0.597700  1.0  0.065
  H  H365  1  0.642700  0.538300  0.349500  1.0  0.0635
  H  H366  1  0.729600  0.607600  0.265600  1.0  0.0641
  H  H367  1  0.476900  0.576700  0.625100  1.0  0.0646
  H  H368  1  0.510600  0.648000  0.655200  1.0  0.0781
  H  H369  1  0.156800  0.135800  0.365000  1.0  0.0614
  H  H370  1  0.028600  0.212000  0.362400  1.0  0.0748
  H  H371  1  0.179200  0.017000  0.265400  1.0  0.0634
  H  H372  1  0.056100  0.095700  0.250500  1.0  0.0631
  H  H373  1  0.038300  0.142700  0.469500  1.0  0.0624
  H  H374  1  0.107600  0.229600  0.397200  1.0  0.0638
  H  H375  1  0.076700  0.976900  0.321300  1.0  0.0639
  H  H376  1  0.148000  0.010600  0.186200  1.0  0.0776
  H  H377  1  0.865000  0.342400  0.656800  1.0  0.0613
  H  H378  1  0.862400  0.397000  0.528600  1.0  0.0737
  H  H379  1  0.765400  0.538400  0.679200  1.0  0.0614
  H  H380  1  0.750500  0.597700  0.556100  1.0  0.066
  H  H381  1  0.969500  0.349500  0.538300  1.0  0.0622
  H  H382  1  0.897200  0.265600  0.607600  1.0  0.0644
  H  H383  1  0.821300  0.625100  0.576700  1.0  0.0643
  H  H384  1  0.686200  0.655200  0.648000  1.0  0.0801
  H  H385  1  0.864200  0.157600  0.843200  1.0  0.0615
  H  H386  1  0.788000  0.103000  0.971400  1.0  0.0731
  H  H387  1  0.983000  0.961600  0.820800  1.0  0.0619
  H  H388  1  0.904300  0.902300  0.943900  1.0  0.0662
  H  H389  1  0.857300  0.150500  0.961700  1.0  0.0627
  H  H390  1  0.770400  0.234400  0.892400  1.0  0.0634
  H  H391  1  0.023100  0.874900  0.923300  1.0  0.064
  H  H392  1  0.989400  0.844800  0.852000  1.0  0.0792
  H  H393  1  0.657600  0.364200  0.135000  1.0  0.0613
  H  H394  1  0.603000  0.288000  0.137600  1.0  0.0737
  H  H395  1  0.461600  0.483000  0.234600  1.0  0.063
  H  H396  1  0.402300  0.404300  0.249500  1.0  0.0641
  H  H397  1  0.650500  0.357300  0.030500  1.0  0.0617
  H  H398  1  0.734400  0.270400  0.102800  1.0  0.0633
  H  H399  1  0.374900  0.523100  0.178700  1.0  0.0647
  H  H400  1  0.344800  0.489400  0.313800  1.0  0.0785
  H  H401  1  0.635000  0.843200  0.157600  1.0  0.0623
  H  H402  1  0.637600  0.971400  0.103000  1.0  0.0752
  H  H403  1  0.734600  0.820800  0.961600  1.0  0.0643
  H  H404  1  0.749500  0.943900  0.902300  1.0  0.0671
  H  H405  1  0.530500  0.961700  0.150500  1.0  0.0614
  H  H406  1  0.602800  0.892400  0.234400  1.0  0.0626
  H  H407  1  0.678700  0.923300  0.874900  1.0  0.0665
  H  H408  1  0.813800  0.852000  0.844800  1.0  0.0785
  H  H409  1  0.343200  0.135000  0.364200  1.0  0.0621
  H  H410  1  0.471400  0.137600  0.288000  1.0  0.0723
  H  H411  1  0.320800  0.234600  0.483000  1.0  0.0634
  H  H412  1  0.443900  0.249500  0.404300  1.0  0.0648
  H  H413  1  0.461700  0.030500  0.357300  1.0  0.0615
  H  H414  1  0.392400  0.102800  0.270400  1.0  0.0633
  H  H415  1  0.423300  0.178700  0.523100  1.0  0.0665
  H  H416  1  0.352000  0.313800  0.489400  1.0  0.0811
  H  H417  1  0.343200  0.157600  0.135000  1.0  0.0606
  H  H418  1  0.471400  0.103000  0.137600  1.0  0.0718
  H  H419  1  0.320800  0.961600  0.234600  1.0  0.0629
  H  H420  1  0.443900  0.902300  0.249500  1.0  0.0643
  H  H421  1  0.461700  0.150500  0.030500  1.0  0.0624
  H  H422  1  0.392400  0.234400  0.102800  1.0  0.0642
  H  H423  1  0.423300  0.874900  0.178700  1.0  0.0646
  H  H424  1  0.352000  0.844800  0.313800  1.0  0.0782
  H  H425  1  0.635000  0.364200  0.843200  1.0  0.0605
  H  H426  1  0.637600  0.288000  0.971400  1.0  0.0744
  H  H427  1  0.734600  0.483000  0.820800  1.0  0.0636
  H  H428  1  0.749500  0.404300  0.943900  1.0  0.064
  H  H429  1  0.530500  0.357300  0.961700  1.0  0.0633
  H  H430  1  0.602800  0.270400  0.892400  1.0  0.0632
  H  H431  1  0.678700  0.523100  0.923300  1.0  0.0661
  H  H432  1  0.813800  0.489400  0.852000  1.0  0.0784
  H  H433  1  0.657600  0.843200  0.364200  1.0  0.0614
  H  H434  1  0.603000  0.971400  0.288000  1.0  0.0753
  H  H435  1  0.461600  0.820800  0.483000  1.0  0.0647
  H  H436  1  0.402300  0.943900  0.404300  1.0  0.0668
  H  H437  1  0.650500  0.961700  0.357300  1.0  0.0614
  H  H438  1  0.734400  0.892400  0.270400  1.0  0.0635
  H  H439  1  0.374900  0.923300  0.523100  1.0  0.0643
  H  H440  1  0.344800  0.852000  0.489400  1.0  0.0778
  H  H441  1  0.864200  0.135000  0.157600  1.0  0.0605
  H  H442  1  0.788000  0.137600  0.103000  1.0  0.0728
  H  H443  1  0.983000  0.234600  0.961600  1.0  0.0617
  H  H444  1  0.904300  0.249500  0.902300  1.0  0.0658
  H  H445  1  0.857300  0.030500  0.150500  1.0  0.0606
  H  H446  1  0.770400  0.102800  0.234400  1.0  0.0638
  H  H447  1  0.023100  0.178700  0.874900  1.0  0.0673
  H  H448  1  0.989400  0.313800  0.844800  1.0  0.0815
  H  H449  1  0.635000  0.157600  0.364200  1.0  0.0614
  H  H450  1  0.637600  0.103000  0.288000  1.0  0.0733
  H  H451  1  0.734600  0.961600  0.483000  1.0  0.0611
  H  H452  1  0.749500  0.902300  0.404300  1.0  0.0669
  H  H453  1  0.530500  0.150500  0.357300  1.0  0.0629
  H  H454  1  0.602800  0.234400  0.270400  1.0  0.0639
  H  H455  1  0.678700  0.874900  0.523100  1.0  0.0656
  H  H456  1  0.813800  0.844800  0.489400  1.0  0.0791
  H  H457  1  0.343200  0.364200  0.157600  1.0  0.0606
  H  H458  1  0.471400  0.288000  0.103000  1.0  0.0736
  H  H459  1  0.320800  0.483000  0.961600  1.0  0.0642
  H  H460  1  0.443900  0.404300  0.902300  1.0  0.0636
  H  H461  1  0.461700  0.357300  0.150500  1.0  0.0626
  H  H462  1  0.392400  0.270400  0.234400  1.0  0.0637
  H  H463  1  0.423300  0.523100  0.874900  1.0  0.0635
  H  H464  1  0.352000  0.489400  0.844800  1.0  0.0777
  H  H465  1  0.864200  0.843200  0.135000  1.0  0.0619
  H  H466  1  0.788000  0.971400  0.137600  1.0  0.0767
  H  H467  1  0.983000  0.820800  0.234600  1.0  0.0638
  H  H468  1  0.904300  0.943900  0.249500  1.0  0.0652
  H  H469  1  0.857300  0.961700  0.030500  1.0  0.0624
  H  H470  1  0.770400  0.892400  0.102800  1.0  0.0644
  H  H471  1  0.023100  0.923300  0.178700  1.0  0.0648
  H  H472  1  0.989400  0.852000  0.313800  1.0  0.0777
  H  H473  1  0.657600  0.135000  0.843200  1.0  0.0606
  H  H474  1  0.603000  0.137600  0.971400  1.0  0.0732
  H  H475  1  0.461600  0.234600  0.820800  1.0  0.061
  H  H476  1  0.402300  0.249500  0.943900  1.0  0.0653
  H  H477  1  0.650500  0.030500  0.961700  1.0  0.0609
  H  H478  1  0.734400  0.102800  0.892400  1.0  0.064
  H  H479  1  0.374900  0.178700  0.923300  1.0  0.0665
  H  H480  1  0.344800  0.313800  0.852000  1.0  0.0812
  C  C481  1  0.137900  0.847960  0.369780  1.0  0.0791
  C  C482  1  0.107820  0.806920  0.439700  1.0  0.1326
  C  C483  1  0.956970  0.957310  0.348450  1.0  0.0859
  C  C484  1  0.924740  0.914720  0.415160  1.0  0.0758
  C  C485  1  0.177310  0.834490  0.449430  1.0  0.1124
  C  C486  1  0.222140  0.787940  0.411920  1.0  0.1193
  C  C487  1  0.859300  0.023380  0.407640  1.0  0.1126
  C  C488  1  0.842620  0.005000  0.368840  1.0  0.0683
  C  C489  1  0.347960  0.637900  0.644360  1.0  0.0797
  C  C490  1  0.306920  0.607820  0.645560  1.0  0.1342
  C  C491  1  0.457310  0.456970  0.737270  1.0  0.0871
  C  C492  1  0.414720  0.424740  0.745380  1.0  0.0747
  C  C493  1  0.334490  0.677310  0.538770  1.0  0.113
  C  C494  1  0.287940  0.722140  0.578000  1.0  0.1152
  C  C495  1  0.523380  0.359300  0.709680  1.0  0.113
  C  C496  1  0.505000  0.342620  0.783540  1.0  0.0667
  C  C497  1  0.869780  0.644360  0.637900  1.0  0.0767
  C  C498  1  0.939700  0.645560  0.607820  1.0  0.1353
  C  C499  1  0.848450  0.737270  0.456970  1.0  0.0816
  C  C500  1  0.915160  0.745380  0.424740  1.0  0.0741
  C  C501  1  0.949430  0.538770  0.677310  1.0  0.1111
  C  C502  1  0.911920  0.578000  0.722140  1.0  0.1162
  C  C503  1  0.907640  0.709680  0.359300  1.0  0.1114
  C  C504  1  0.868840  0.783540  0.342620  1.0  0.0708
  C  C505  1  0.144360  0.369780  0.847960  1.0  0.0793
  C  C506  1  0.145560  0.439700  0.806920  1.0  0.136
  C  C507  1  0.237270  0.348450  0.957310  1.0  0.0852
  C  C508  1  0.245380  0.415160  0.914720  1.0  0.0744
  C  C509  1  0.038770  0.449430  0.834490  1.0  0.1121
  C  C510  1  0.078000  0.411920  0.787940  1.0  0.1171
  C  C511  1  0.209680  0.407640  0.023380  1.0  0.1098
  C  C512  1  0.283540  0.368840  0.005000  1.0  0.0672
  C  C513  1  0.137900  0.369780  0.644360  1.0  0.0788
  C  C514  1  0.107820  0.439700  0.645560  1.0  0.1345
  C  C515  1  0.956970  0.348450  0.737270  1.0  0.0842
  C  C516  1  0.924740  0.415160  0.745380  1.0  0.0756
  C  C517  1  0.177310  0.449430  0.538770  1.0  0.1128
  C  C518  1  0.222140  0.411920  0.578000  1.0  0.1193
  C  C519  1  0.859300  0.407640  0.709680  1.0  0.1125
  C  C520  1  0.842620  0.368840  0.783540  1.0  0.0674
  C  C521  1  0.347960  0.644360  0.369780  1.0  0.0799
  C  C522  1  0.306920  0.645560  0.439700  1.0  0.1352
  C  C523  1  0.457310  0.737270  0.348450  1.0  0.0859
  C  C524  1  0.414720  0.745380  0.415160  1.0  0.0758
  C  C525  1  0.334490  0.538770  0.449430  1.0  0.1132
  C  C526  1  0.287940  0.578000  0.411920  1.0  0.1189
  C  C527  1  0.523380  0.709680  0.407640  1.0  0.1116
  C  C528  1  0.505000  0.783540  0.368840  1.0  0.0717
  C  C529  1  0.869780  0.637900  0.847960  1.0  0.0766
  C  C530  1  0.939700  0.607820  0.806920  1.0  0.1351
  C  C531  1  0.848450  0.456970  0.957310  1.0  0.0842
  C  C532  1  0.915160  0.424740  0.914720  1.0  0.0776
  C  C533  1  0.949430  0.677310  0.834490  1.0  0.1136
  C  C534  1  0.911920  0.722140  0.787940  1.0  0.1157
  C  C535  1  0.907640  0.359300  0.023380  1.0  0.1138
  C  C536  1  0.868840  0.342620  0.005000  1.0  0.0686
  C  C537  1  0.144360  0.847960  0.637900  1.0  0.0788
  C  C538  1  0.145560  0.806920  0.607820  1.0  0.1347
  C  C539  1  0.237270  0.957310  0.456970  1.0  0.0843
  C  C540  1  0.245380  0.914720  0.424740  1.0  0.0752
  C  C541  1  0.038770  0.834490  0.677310  1.0  0.1127
  C  C542  1  0.078000  0.787940  0.722140  1.0  0.1179
  C  C543  1  0.209680  0.023380  0.359300  1.0  0.1084
  C  C544  1  0.283540  0.005000  0.342620  1.0  0.0675
  C  C545  1  0.137900  0.644360  0.847960  1.0  0.0799
  C  C546  1  0.107820  0.645560  0.806920  1.0  0.136
  C  C547  1  0.956970  0.737270  0.957310  1.0  0.0858
  C  C548  1  0.924740  0.745380  0.914720  1.0  0.0766
  C  C549  1  0.177310  0.538770  0.834490  1.0  0.112
  C  C550  1  0.222140  0.578000  0.787940  1.0  0.117
  C  C551  1  0.859300  0.709680  0.023380  1.0  0.112
  C  C552  1  0.842620  0.783540  0.005000  1.0  0.0714
  C  C553  1  0.347960  0.369780  0.637900  1.0  0.0784
  C  C554  1  0.306920  0.439700  0.607820  1.0  0.1346
  C  C555  1  0.457310  0.348450  0.456970  1.0  0.0844
  C  C556  1  0.414720  0.415160  0.424740  1.0  0.0756
  C  C557  1  0.334490  0.449430  0.677310  1.0  0.1108
  C  C558  1  0.287940  0.411920  0.722140  1.0  0.1161
  C  C559  1  0.523380  0.407640  0.359300  1.0  0.1123
  C  C560  1  0.505000  0.368840  0.342620  1.0  0.0656
  C  C561  1  0.869780  0.847960  0.644360  1.0  0.0772
  C  C562  1  0.939700  0.806920  0.645560  1.0  0.135
  C  C563  1  0.848450  0.957310  0.737270  1.0  0.0857
  C  C564  1  0.915160  0.914720  0.745380  1.0  0.076
  C  C565  1  0.949430  0.834490  0.538770  1.0  0.112
  C  C566  1  0.911920  0.787940  0.578000  1.0  0.1157
  C  C567  1  0.907640  0.023380  0.709680  1.0  0.1132
  C  C568  1  0.868840  0.005000  0.783540  1.0  0.0679
  C  C569  1  0.144360  0.637900  0.369780  1.0  0.0788
  C  C570  1  0.145560  0.607820  0.439700  1.0  0.1333
  C  C571  1  0.237270  0.456970  0.348450  1.0  0.0855
  C  C572  1  0.245380  0.424740  0.415160  1.0  0.0764
  C  C573  1  0.038770  0.677310  0.449430  1.0  0.111
  C  C574  1  0.078000  0.722140  0.411920  1.0  0.1173
  C  C575  1  0.209680  0.359300  0.407640  1.0  0.1087
  C  C576  1  0.283540  0.342620  0.368840  1.0  0.0659
  C  C577  1  0.152040  0.862100  0.130220  1.0  0.079
  C  C578  1  0.193080  0.892180  0.060300  1.0  0.1352
  C  C579  1  0.042690  0.043030  0.151550  1.0  0.0862
  C  C580  1  0.085280  0.075260  0.084840  1.0  0.0764
  C  C581  1  0.165510  0.822690  0.050570  1.0  0.1123
  C  C582  1  0.212060  0.777860  0.088080  1.0  0.1173
  C  C583  1  0.976620  0.140700  0.092360  1.0  0.1134
  C  C584  1  0.995000  0.157380  0.131160  1.0  0.0666
  C  C585  1  0.362100  0.652040  0.855640  1.0  0.0797
  C  C586  1  0.392180  0.693080  0.854440  1.0  0.1335
  C  C587  1  0.543030  0.542690  0.762730  1.0  0.0845
  C  C588  1  0.575260  0.585280  0.754620  1.0  0.076
  C  C589  1  0.322690  0.665510  0.961230  1.0  0.1139
  C  C590  1  0.277860  0.712060  0.922000  1.0  0.1178
  C  C591  1  0.640700  0.476620  0.790320  1.0  0.1125
  C  C592  1  0.657380  0.495000  0.716460  1.0  0.0677
  C  C593  1  0.355640  0.130220  0.862100  1.0  0.0814
  C  C594  1  0.354440  0.060300  0.892180  1.0  0.135
  C  C595  1  0.262730  0.151550  0.043030  1.0  0.0875
  C  C596  1  0.254620  0.084840  0.075260  1.0  0.0752
  C  C597  1  0.461230  0.050570  0.822690  1.0  0.1152
  C  C598  1  0.422000  0.088080  0.777860  1.0  0.1166
  C  C599  1  0.290320  0.092360  0.140700  1.0  0.1123
  C  C600  1  0.216460  0.131160  0.157380  1.0  0.0693
  C  C601  1  0.630220  0.855640  0.652040  1.0  0.0779
  C  C602  1  0.560300  0.854440  0.693080  1.0  0.1321
  C  C603  1  0.651550  0.762730  0.542690  1.0  0.0846
  C  C604  1  0.584840  0.754620  0.585280  1.0  0.0732
  C  C605  1  0.550570  0.961230  0.665510  1.0  0.1114
  C  C606  1  0.588080  0.922000  0.712060  1.0  0.1179
  C  C607  1  0.592360  0.790320  0.476620  1.0  0.1109
  C  C608  1  0.631160  0.716460  0.495000  1.0  0.0681
  C  C609  1  0.630220  0.862100  0.855640  1.0  0.0782
  C  C610  1  0.560300  0.892180  0.854440  1.0  0.134
  C  C611  1  0.651550  0.043030  0.762730  1.0  0.085
  C  C612  1  0.584840  0.075260  0.754620  1.0  0.0774
  C  C613  1  0.550570  0.822690  0.961230  1.0  0.1119
  C  C614  1  0.588080  0.777860  0.922000  1.0  0.1165
  C  C615  1  0.592360  0.140700  0.790320  1.0  0.1128
  C  C616  1  0.631160  0.157380  0.716460  1.0  0.068
  C  C617  1  0.355640  0.652040  0.130220  1.0  0.0791
  C  C618  1  0.354440  0.693080  0.060300  1.0  0.136
  C  C619  1  0.262730  0.542690  0.151550  1.0  0.085
  C  C620  1  0.254620  0.585280  0.084840  1.0  0.0752
  C  C621  1  0.461230  0.665510  0.050570  1.0  0.1125
  C  C622  1  0.422000  0.712060  0.088080  1.0  0.1158
  C  C623  1  0.290320  0.476620  0.092360  1.0  0.111
  C  C624  1  0.216460  0.495000  0.131160  1.0  0.0668
  C  C625  1  0.362100  0.130220  0.652040  1.0  0.0801
  C  C626  1  0.392180  0.060300  0.693080  1.0  0.134
  C  C627  1  0.543030  0.151550  0.542690  1.0  0.0871
  C  C628  1  0.575260  0.084840  0.585280  1.0  0.0765
  C  C629  1  0.322690  0.050570  0.665510  1.0  0.1127
  C  C630  1  0.277860  0.088080  0.712060  1.0  0.117
  C  C631  1  0.640700  0.092360  0.476620  1.0  0.1131
  C  C632  1  0.657380  0.131160  0.495000  1.0  0.0683
  C  C633  1  0.152040  0.855640  0.862100  1.0  0.0801
  C  C634  1  0.193080  0.854440  0.892180  1.0  0.1367
  C  C635  1  0.042690  0.762730  0.043030  1.0  0.0861
  C  C636  1  0.085280  0.754620  0.075260  1.0  0.0772
  C  C637  1  0.165510  0.961230  0.822690  1.0  0.1117
  C  C638  1  0.212060  0.922000  0.777860  1.0  0.1196
  C  C639  1  0.976620  0.790320  0.140700  1.0  0.1115
  C  C640  1  0.995000  0.716460  0.157380  1.0  0.0688
  C  C641  1  0.355640  0.862100  0.652040  1.0  0.0787
  C  C642  1  0.354440  0.892180  0.693080  1.0  0.1346
  C  C643  1  0.262730  0.043030  0.542690  1.0  0.0855
  C  C644  1  0.254620  0.075260  0.585280  1.0  0.0772
  C  C645  1  0.461230  0.822690  0.665510  1.0  0.1114
  C  C646  1  0.422000  0.777860  0.712060  1.0  0.1169
  C  C647  1  0.290320  0.140700  0.476620  1.0  0.1124
  C  C648  1  0.216460  0.157380  0.495000  1.0  0.065
  C  C649  1  0.630220  0.652040  0.862100  1.0  0.0776
  C  C650  1  0.560300  0.693080  0.892180  1.0  0.132
  C  C651  1  0.651550  0.542690  0.043030  1.0  0.0854
  C  C652  1  0.584840  0.585280  0.075260  1.0  0.0755
  C  C653  1  0.550570  0.665510  0.822690  1.0  0.1119
  C  C654  1  0.588080  0.712060  0.777860  1.0  0.1157
  C  C655  1  0.592360  0.476620  0.140700  1.0  0.1111
  C  C656  1  0.631160  0.495000  0.157380  1.0  0.0679
  C  C657  1  0.152040  0.130220  0.855640  1.0  0.0804
  C  C658  1  0.193080  0.060300  0.854440  1.0  0.134
  C  C659  1  0.042690  0.151550  0.762730  1.0  0.0861
  C  C660  1  0.085280  0.084840  0.754620  1.0  0.0754
  C  C661  1  0.165510  0.050570  0.961230  1.0  0.1118
  C  C662  1  0.212060  0.088080  0.922000  1.0  0.117
  C  C663  1  0.976620  0.092360  0.790320  1.0  0.1118
  C  C664  1  0.995000  0.131160  0.716460  1.0  0.0678
  C  C665  1  0.362100  0.855640  0.130220  1.0  0.079
  C  C666  1  0.392180  0.854440  0.060300  1.0  0.1359
  C  C667  1  0.543030  0.762730  0.151550  1.0  0.0861
  C  C668  1  0.575260  0.754620  0.084840  1.0  0.0757
  C  C669  1  0.322690  0.961230  0.050570  1.0  0.1122
  C  C670  1  0.277860  0.922000  0.088080  1.0  0.1153
  C  C671  1  0.640700  0.790320  0.092360  1.0  0.1118
  C  C672  1  0.657380  0.716460  0.131160  1.0  0.0685
  C  C673  1  0.862100  0.152040  0.630220  1.0  0.079
  C  C674  1  0.892180  0.193080  0.560300  1.0  0.1344
  C  C675  1  0.043030  0.042690  0.651550  1.0  0.0848
  C  C676  1  0.075260  0.085280  0.584840  1.0  0.0765
  C  C677  1  0.822690  0.165510  0.550570  1.0  0.113
  C  C678  1  0.777860  0.212060  0.588080  1.0  0.1163
  C  C679  1  0.140700  0.976620  0.592360  1.0  0.1134
  C  C680  1  0.157380  0.995000  0.631160  1.0  0.0677
  C  C681  1  0.652040  0.362100  0.355640  1.0  0.0793
  C  C682  1  0.693080  0.392180  0.354440  1.0  0.1344
  C  C683  1  0.542690  0.543030  0.262730  1.0  0.0859
  C  C684  1  0.585280  0.575260  0.254620  1.0  0.0763
  C  C685  1  0.665510  0.322690  0.461230  1.0  0.1119
  C  C686  1  0.712060  0.277860  0.422000  1.0  0.1174
  C  C687  1  0.476620  0.640700  0.290320  1.0  0.1128
  C  C688  1  0.495000  0.657380  0.216460  1.0  0.0675
  C  C689  1  0.130220  0.355640  0.362100  1.0  0.0779
  C  C690  1  0.060300  0.354440  0.392180  1.0  0.1319
  C  C691  1  0.151550  0.262730  0.543030  1.0  0.0847
  C  C692  1  0.084840  0.254620  0.575260  1.0  0.0734
  C  C693  1  0.050570  0.461230  0.322690  1.0  0.1112
  C  C694  1  0.088080  0.422000  0.277860  1.0  0.118
  C  C695  1  0.092360  0.290320  0.640700  1.0  0.1113
  C  C696  1  0.131160  0.216460  0.657380  1.0  0.0678
  C  C697  1  0.855640  0.630220  0.152040  1.0  0.0813
  C  C698  1  0.854440  0.560300  0.193080  1.0  0.1352
  C  C699  1  0.762730  0.651550  0.042690  1.0  0.0872
  C  C700  1  0.754620  0.584840  0.085280  1.0  0.0753
  C  C701  1  0.961230  0.550570  0.165510  1.0  0.1128
  C  C702  1  0.922000  0.588080  0.212060  1.0  0.115
  C  C703  1  0.790320  0.592360  0.976620  1.0  0.1121
  C  C704  1  0.716460  0.631160  0.995000  1.0  0.0691
  C  C705  1  0.862100  0.630220  0.355640  1.0  0.0802
  C  C706  1  0.892180  0.560300  0.354440  1.0  0.1341
  C  C707  1  0.043030  0.651550  0.262730  1.0  0.0863
  C  C708  1  0.075260  0.584840  0.254620  1.0  0.0764
  C  C709  1  0.822690  0.550570  0.461230  1.0  0.1145
  C  C710  1  0.777860  0.588080  0.422000  1.0  0.1184
  C  C711  1  0.140700  0.592360  0.290320  1.0  0.1129
  C  C712  1  0.157380  0.631160  0.216460  1.0  0.0697
  C  C713  1  0.652040  0.355640  0.630220  1.0  0.0804
  C  C714  1  0.693080  0.354440  0.560300  1.0  0.1366
  C  C715  1  0.542690  0.262730  0.651550  1.0  0.0855
  C  C716  1  0.585280  0.254620  0.584840  1.0  0.0758
  C  C717  1  0.665510  0.461230  0.550570  1.0  0.1121
  C  C718  1  0.712060  0.422000  0.588080  1.0  0.1203
  C  C719  1  0.476620  0.290320  0.592360  1.0  0.1111
  C  C720  1  0.495000  0.216460  0.631160  1.0  0.07
  C  C721  1  0.130220  0.362100  0.152040  1.0  0.078
  C  C722  1  0.060300  0.392180  0.193080  1.0  0.133
  C  C723  1  0.151550  0.543030  0.042690  1.0  0.0851
  C  C724  1  0.084840  0.575260  0.085280  1.0  0.0767
  C  C725  1  0.050570  0.322690  0.165510  1.0  0.112
  C  C726  1  0.088080  0.277860  0.212060  1.0  0.1161
  C  C727  1  0.092360  0.640700  0.976620  1.0  0.1129
  C  C728  1  0.131160  0.657380  0.995000  1.0  0.0676
  C  C729  1  0.855640  0.152040  0.362100  1.0  0.0789
  C  C730  1  0.854440  0.193080  0.392180  1.0  0.1351
  C  C731  1  0.762730  0.042690  0.543030  1.0  0.0851
  C  C732  1  0.754620  0.085280  0.575260  1.0  0.0753
  C  C733  1  0.961230  0.165510  0.322690  1.0  0.1141
  C  C734  1  0.922000  0.212060  0.277860  1.0  0.117
  C  C735  1  0.790320  0.976620  0.640700  1.0  0.1123
  C  C736  1  0.716460  0.995000  0.657380  1.0  0.0657
  C  C737  1  0.862100  0.355640  0.152040  1.0  0.0797
  C  C738  1  0.892180  0.354440  0.193080  1.0  0.1352
  C  C739  1  0.043030  0.262730  0.042690  1.0  0.0861
  C  C740  1  0.075260  0.254620  0.085280  1.0  0.0763
  C  C741  1  0.822690  0.461230  0.165510  1.0  0.1125
  C  C742  1  0.777860  0.422000  0.212060  1.0  0.1154
  C  C743  1  0.140700  0.290320  0.976620  1.0  0.1113
  C  C744  1  0.157380  0.216460  0.995000  1.0  0.0679
  C  C745  1  0.652040  0.630220  0.362100  1.0  0.0805
  C  C746  1  0.693080  0.560300  0.392180  1.0  0.1342
  C  C747  1  0.542690  0.651550  0.543030  1.0  0.0872
  C  C748  1  0.585280  0.584840  0.575260  1.0  0.0754
  C  C749  1  0.665510  0.550570  0.322690  1.0  0.1119
  C  C750  1  0.712060  0.588080  0.277860  1.0  0.1156
  C  C751  1  0.476620  0.592360  0.640700  1.0  0.1124
  C  C752  1  0.495000  0.631160  0.657380  1.0  0.0675
  C  C753  1  0.130220  0.152040  0.355640  1.0  0.0784
  C  C754  1  0.060300  0.193080  0.354440  1.0  0.1326
  C  C755  1  0.151550  0.042690  0.262730  1.0  0.085
  C  C756  1  0.084840  0.085280  0.254620  1.0  0.0758
  C  C757  1  0.050570  0.165510  0.461230  1.0  0.1117
  C  C758  1  0.088080  0.212060  0.422000  1.0  0.1171
  C  C759  1  0.092360  0.976620  0.290320  1.0  0.1108
  C  C760  1  0.131160  0.995000  0.216460  1.0  0.0675
  C  C761  1  0.855640  0.362100  0.630220  1.0  0.0784
  C  C762  1  0.854440  0.392180  0.560300  1.0  0.1363
  C  C763  1  0.762730  0.543030  0.651550  1.0  0.0857
  C  C764  1  0.754620  0.575260  0.584840  1.0  0.0772
  C  C765  1  0.961230  0.322690  0.550570  1.0  0.1111
  C  C766  1  0.922000  0.277860  0.588080  1.0  0.1167
  C  C767  1  0.790320  0.640700  0.592360  1.0  0.1127
  C  C768  1  0.716460  0.657380  0.631160  1.0  0.0652
  C  C769  1  0.847960  0.137900  0.869780  1.0  0.0799
  C  C770  1  0.806920  0.107820  0.939700  1.0  0.1343
  C  C771  1  0.957310  0.956970  0.848450  1.0  0.0873
  C  C772  1  0.914720  0.924740  0.915160  1.0  0.0753
  C  C773  1  0.834490  0.177310  0.949430  1.0  0.1142
  C  C774  1  0.787940  0.222140  0.911920  1.0  0.1164
  C  C775  1  0.023380  0.859300  0.907640  1.0  0.1122
  C  C776  1  0.005000  0.842620  0.868840  1.0  0.0678
  C  C777  1  0.637900  0.347960  0.144360  1.0  0.0788
  C  C778  1  0.607820  0.306920  0.145560  1.0  0.1323
  C  C779  1  0.456970  0.457310  0.237270  1.0  0.0855
  C  C780  1  0.424740  0.414720  0.245380  1.0  0.0755
  C  C781  1  0.677310  0.334490  0.038770  1.0  0.1133
  C  C782  1  0.722140  0.287940  0.078000  1.0  0.1192
  C  C783  1  0.359300  0.523380  0.209680  1.0  0.1133
  C  C784  1  0.342620  0.505000  0.283540  1.0  0.067
  C  C785  1  0.644360  0.869780  0.137900  1.0  0.0791
  C  C786  1  0.645560  0.939700  0.107820  1.0  0.1359
  C  C787  1  0.737270  0.848450  0.956970  1.0  0.085
  C  C788  1  0.745380  0.915160  0.924740  1.0  0.0743
  C  C789  1  0.538770  0.949430  0.177310  1.0  0.1121
  C  C790  1  0.578000  0.911920  0.222140  1.0  0.1169
  C  C791  1  0.709680  0.907640  0.859300  1.0  0.1093
  C  C792  1  0.783540  0.868840  0.842620  1.0  0.0674
  C  C793  1  0.369780  0.144360  0.347960  1.0  0.0766
  C  C794  1  0.439700  0.145560  0.306920  1.0  0.1348
  C  C795  1  0.348450  0.237270  0.457310  1.0  0.0818
  C  C796  1  0.415160  0.245380  0.414720  1.0  0.0743
  C  C797  1  0.449430  0.038770  0.334490  1.0  0.1133
  C  C798  1  0.411920  0.078000  0.287940  1.0  0.1169
  C  C799  1  0.407640  0.209680  0.523380  1.0  0.1117
  C  C800  1  0.368840  0.283540  0.505000  1.0  0.0709
  C  C801  1  0.369780  0.137900  0.144360  1.0  0.0767
  C  C802  1  0.439700  0.107820  0.145560  1.0  0.1358
  C  C803  1  0.348450  0.956970  0.237270  1.0  0.0853
  C  C804  1  0.415160  0.924740  0.245380  1.0  0.0773
  C  C805  1  0.449430  0.177310  0.038770  1.0  0.112
  C  C806  1  0.411920  0.222140  0.078000  1.0  0.1138
  C  C807  1  0.407640  0.859300  0.209680  1.0  0.1136
  C  C808  1  0.368840  0.842620  0.283540  1.0  0.0676
  C  C809  1  0.644360  0.347960  0.869780  1.0  0.0776
  C  C810  1  0.645560  0.306920  0.939700  1.0  0.1344
  C  C811  1  0.737270  0.457310  0.848450  1.0  0.0849
  C  C812  1  0.745380  0.414720  0.915160  1.0  0.0752
  C  C813  1  0.538770  0.334490  0.949430  1.0  0.1123
  C  C814  1  0.578000  0.287940  0.911920  1.0  0.1173
  C  C815  1  0.709680  0.523380  0.907640  1.0  0.1089
  C  C816  1  0.783540  0.505000  0.868840  1.0  0.0665
  C  C817  1  0.637900  0.869780  0.347960  1.0  0.0789
  C  C818  1  0.607820  0.939700  0.306920  1.0  0.1355
  C  C819  1  0.456970  0.848450  0.457310  1.0  0.084
  C  C820  1  0.424740  0.915160  0.414720  1.0  0.0765
  C  C821  1  0.677310  0.949430  0.334490  1.0  0.1122
  C  C822  1  0.722140  0.911920  0.287940  1.0  0.1189
  C  C823  1  0.359300  0.907640  0.523380  1.0  0.112
  C  C824  1  0.342620  0.868840  0.505000  1.0  0.0675
  C  C825  1  0.847960  0.144360  0.137900  1.0  0.0814
  C  C826  1  0.806920  0.145560  0.107820  1.0  0.1364
  C  C827  1  0.957310  0.237270  0.956970  1.0  0.086
  C  C828  1  0.914720  0.245380  0.924740  1.0  0.0757
  C  C829  1  0.834490  0.038770  0.177310  1.0  0.1117
  C  C830  1  0.787940  0.078000  0.222140  1.0  0.1189
  C  C831  1  0.023380  0.209680  0.859300  1.0  0.1105
  C  C832  1  0.005000  0.283540  0.842620  1.0  0.0725
  C  C833  1  0.644360  0.137900  0.347960  1.0  0.0786
  C  C834  1  0.645560  0.107820  0.306920  1.0  0.1349
  C  C835  1  0.737270  0.956970  0.457310  1.0  0.0851
  C  C836  1  0.745380  0.924740  0.414720  1.0  0.077
  C  C837  1  0.538770  0.177310  0.334490  1.0  0.1111
  C  C838  1  0.578000  0.222140  0.287940  1.0  0.117
  C  C839  1  0.709680  0.859300  0.523380  1.0  0.109
  C  C840  1  0.783540  0.842620  0.505000  1.0  0.0666
  C  C841  1  0.369780  0.347960  0.137900  1.0  0.0772
  C  C842  1  0.439700  0.306920  0.107820  1.0  0.1345
  C  C843  1  0.348450  0.457310  0.956970  1.0  0.0843
  C  C844  1  0.415160  0.414720  0.924740  1.0  0.0761
  C  C845  1  0.449430  0.334490  0.177310  1.0  0.1118
  C  C846  1  0.411920  0.287940  0.222140  1.0  0.1164
  C  C847  1  0.407640  0.523380  0.859300  1.0  0.1131
  C  C848  1  0.368840  0.505000  0.842620  1.0  0.0683
  C  C849  1  0.847960  0.869780  0.144360  1.0  0.0781
  C  C850  1  0.806920  0.939700  0.145560  1.0  0.1343
  C  C851  1  0.957310  0.848450  0.237270  1.0  0.0848
  C  C852  1  0.914720  0.915160  0.245380  1.0  0.0755
  C  C853  1  0.834490  0.949430  0.038770  1.0  0.1109
  C  C854  1  0.787940  0.911920  0.078000  1.0  0.1154
  C  C855  1  0.023380  0.907640  0.209680  1.0  0.1131
  C  C856  1  0.005000  0.868840  0.283540  1.0  0.066
  C  C857  1  0.637900  0.144360  0.869780  1.0  0.0797
  C  C858  1  0.607820  0.145560  0.939700  1.0  0.1339
  C  C859  1  0.456970  0.237270  0.848450  1.0  0.0852
  C  C860  1  0.424740  0.245380  0.915160  1.0  0.0755
  C  C861  1  0.677310  0.038770  0.949430  1.0  0.1119
  C  C862  1  0.722140  0.078000  0.911920  1.0  0.1173
  C  C863  1  0.359300  0.209680  0.907640  1.0  0.1118
  C  C864  1  0.342620  0.283540  0.868840  1.0  0.0712
  N  N865  1  0.967350  0.890190  0.400710  1.0  -0.2396
  N  N866  1  0.988740  0.917580  0.357500  1.0  -0.2633
  N  N867  1  0.080760  0.820640  0.416500  1.0  -0.3174
  N  N868  1  0.102170  0.845690  0.371050  1.0  -0.2176
  N  N869  1  0.216410  0.818030  0.455970  1.0  -0.3136
  N  N870  1  0.245820  0.787620  0.430820  1.0  -0.2494
  N  N871  1  0.808520  0.040980  0.378900  1.0  -0.2321
  N  N872  1  0.818690  0.053910  0.403290  1.0  -0.3027
  N  N873  1  0.143310  0.823950  0.411650  1.0  0.0266
  N  N874  1  0.178940  0.815700  0.423400  1.0  0.0367
  N  N875  1  0.916800  0.957420  0.383300  1.0  0.0296
  N  N876  1  0.875020  0.993440  0.386960  1.0  0.0295
  N  N877  1  0.390190  0.467350  0.741750  1.0  -0.2401
  N  N878  1  0.417580  0.488740  0.736180  1.0  -0.2631
  N  N879  1  0.320640  0.580760  0.682100  1.0  -0.319
  N  N880  1  0.345690  0.602170  0.681090  1.0  -0.2155
  N  N881  1  0.318030  0.716410  0.509590  1.0  -0.3126
  N  N882  1  0.287620  0.745820  0.535740  1.0  -0.2527
  N  N883  1  0.540980  0.308520  0.771600  1.0  -0.2356
  N  N884  1  0.553910  0.318690  0.724110  1.0  -0.3014
  N  N885  1  0.323950  0.643310  0.621090  1.0  0.0278
  N  N886  1  0.315700  0.678940  0.581960  1.0  0.0376
  N  N887  1  0.457420  0.416800  0.742480  1.0  0.0291
  N  N888  1  0.493440  0.375020  0.744580  1.0  0.0299
  N  N889  1  0.900710  0.741750  0.467350  1.0  -0.2389
  N  N890  1  0.857500  0.736180  0.488740  1.0  -0.2596
  N  N891  1  0.916500  0.682100  0.580760  1.0  -0.3199
  N  N892  1  0.871050  0.681090  0.602170  1.0  -0.2198
  N  N893  1  0.955970  0.509590  0.716410  1.0  -0.3164
  N  N894  1  0.930820  0.535740  0.745820  1.0  -0.2483
  N  N895  1  0.878900  0.771600  0.308520  1.0  -0.2335
  N  N896  1  0.903290  0.724110  0.318690  1.0  -0.2997
  N  N897  1  0.911650  0.621090  0.643310  1.0  0.027
  N  N898  1  0.923400  0.581960  0.678940  1.0  0.0383
  N  N899  1  0.883300  0.742480  0.416800  1.0  0.0317
  N  N900  1  0.886960  0.744580  0.375020  1.0  0.0305
  N  N901  1  0.241750  0.400710  0.890190  1.0  -0.2382
  N  N902  1  0.236180  0.357500  0.917580  1.0  -0.2584
  N  N903  1  0.182100  0.416500  0.820640  1.0  -0.3194
  N  N904  1  0.181090  0.371050  0.845690  1.0  -0.2171
  N  N905  1  0.009590  0.455970  0.818030  1.0  -0.3145
  N  N906  1  0.035740  0.430820  0.787620  1.0  -0.2484
  N  N907  1  0.271600  0.378900  0.040980  1.0  -0.2312
  N  N908  1  0.224110  0.403290  0.053910  1.0  -0.299
  N  N909  1  0.121090  0.411650  0.823950  1.0  0.0262
  N  N910  1  0.081960  0.423400  0.815700  1.0  0.0375
  N  N911  1  0.242480  0.383300  0.957420  1.0  0.0295
  N  N912  1  0.244580  0.386960  0.993440  1.0  0.0299
  N  N913  1  0.967350  0.400710  0.741750  1.0  -0.2425
  N  N914  1  0.988740  0.357500  0.736180  1.0  -0.264
  N  N915  1  0.080760  0.416500  0.682100  1.0  -0.3172
  N  N916  1  0.102170  0.371050  0.681090  1.0  -0.2165
  N  N917  1  0.216410  0.455970  0.509590  1.0  -0.3185
  N  N918  1  0.245820  0.430820  0.535740  1.0  -0.2444
  N  N919  1  0.808520  0.378900  0.771600  1.0  -0.2325
  N  N920  1  0.818690  0.403290  0.724110  1.0  -0.3007
  N  N921  1  0.143310  0.411650  0.621090  1.0  0.0259
  N  N922  1  0.178940  0.423400  0.581960  1.0  0.0364
  N  N923  1  0.916800  0.383300  0.742480  1.0  0.0305
  N  N924  1  0.875020  0.386960  0.744580  1.0  0.0309
  N  N925  1  0.390190  0.741750  0.400710  1.0  -0.2391
  N  N926  1  0.417580  0.736180  0.357500  1.0  -0.2576
  N  N927  1  0.320640  0.682100  0.416500  1.0  -0.3204
  N  N928  1  0.345690  0.681090  0.371050  1.0  -0.2197
  N  N929  1  0.318030  0.509590  0.455970  1.0  -0.3162
  N  N930  1  0.287620  0.535740  0.430820  1.0  -0.252
  N  N931  1  0.540980  0.771600  0.378900  1.0  -0.2376
  N  N932  1  0.553910  0.724110  0.403290  1.0  -0.3024
  N  N933  1  0.323950  0.621090  0.411650  1.0  0.0261
  N  N934  1  0.315700  0.581960  0.423400  1.0  0.0373
  N  N935  1  0.457420  0.742480  0.383300  1.0  0.0308
  N  N936  1  0.493440  0.744580  0.386960  1.0  0.0307
  N  N937  1  0.900710  0.467350  0.890190  1.0  -0.2434
  N  N938  1  0.857500  0.488740  0.917580  1.0  -0.2621
  N  N939  1  0.916500  0.580760  0.820640  1.0  -0.3205
  N  N940  1  0.871050  0.602170  0.845690  1.0  -0.2182
  N  N941  1  0.955970  0.716410  0.818030  1.0  -0.317
  N  N942  1  0.930820  0.745820  0.787620  1.0  -0.2512
  N  N943  1  0.878900  0.308520  0.040980  1.0  -0.2352
  N  N944  1  0.903290  0.318690  0.053910  1.0  -0.3002
  N  N945  1  0.911650  0.643310  0.823950  1.0  0.0265
  N  N946  1  0.923400  0.678940  0.815700  1.0  0.0373
  N  N947  1  0.883300  0.416800  0.957420  1.0  0.03
  N  N948  1  0.886960  0.375020  0.993440  1.0  0.0295
  N  N949  1  0.241750  0.890190  0.467350  1.0  -0.2409
  N  N950  1  0.236180  0.917580  0.488740  1.0  -0.2601
  N  N951  1  0.182100  0.820640  0.580760  1.0  -0.3204
  N  N952  1  0.181090  0.845690  0.602170  1.0  -0.2201
  N  N953  1  0.009590  0.818030  0.716410  1.0  -0.3138
  N  N954  1  0.035740  0.787620  0.745820  1.0  -0.2498
  N  N955  1  0.271600  0.040980  0.308520  1.0  -0.2373
  N  N956  1  0.224110  0.053910  0.318690  1.0  -0.3016
  N  N957  1  0.121090  0.823950  0.643310  1.0  0.0263
  N  N958  1  0.081960  0.815700  0.678940  1.0  0.038
  N  N959  1  0.242480  0.957420  0.416800  1.0  0.0292
  N  N960  1  0.244580  0.993440  0.375020  1.0  0.0304
  N  N961  1  0.967350  0.741750  0.890190  1.0  -0.2426
  N  N962  1  0.988740  0.736180  0.917580  1.0  -0.2585
  N  N963  1  0.080760  0.682100  0.820640  1.0  -0.3209
  N  N964  1  0.102170  0.681090  0.845690  1.0  -0.2198
  N  N965  1  0.216410  0.509590  0.818030  1.0  -0.3167
  N  N966  1  0.245820  0.535740  0.787620  1.0  -0.2477
  N  N967  1  0.808520  0.771600  0.040980  1.0  -0.2332
  N  N968  1  0.818690  0.724110  0.053910  1.0  -0.3041
  N  N969  1  0.143310  0.621090  0.823950  1.0  0.0263
  N  N970  1  0.178940  0.581960  0.815700  1.0  0.0364
  N  N971  1  0.916800  0.742480  0.957420  1.0  0.0299
  N  N972  1  0.875020  0.744580  0.993440  1.0  0.0306
  N  N973  1  0.390190  0.400710  0.467350  1.0  -0.2401
  N  N974  1  0.417580  0.357500  0.488740  1.0  -0.2611
  N  N975  1  0.320640  0.416500  0.580760  1.0  -0.3169
  N  N976  1  0.345690  0.371050  0.602170  1.0  -0.2174
  N  N977  1  0.318030  0.455970  0.716410  1.0  -0.3153
  N  N978  1  0.287620  0.430820  0.745820  1.0  -0.2506
  N  N979  1  0.540980  0.378900  0.308520  1.0  -0.2389
  N  N980  1  0.553910  0.403290  0.318690  1.0  -0.3034
  N  N981  1  0.323950  0.411650  0.643310  1.0  0.0271
  N  N982  1  0.315700  0.423400  0.678940  1.0  0.0384
  N  N983  1  0.457420  0.383300  0.416800  1.0  0.0294
  N  N984  1  0.493440  0.386960  0.375020  1.0  0.0306
  N  N985  1  0.900710  0.890190  0.741750  1.0  -0.2429
  N  N986  1  0.857500  0.917580  0.736180  1.0  -0.2602
  N  N987  1  0.916500  0.820640  0.682100  1.0  -0.3172
  N  N988  1  0.871050  0.845690  0.681090  1.0  -0.2204
  N  N989  1  0.955970  0.818030  0.509590  1.0  -0.3164
  N  N990  1  0.930820  0.787620  0.535740  1.0  -0.2482
  N  N991  1  0.878900  0.040980  0.771600  1.0  -0.2328
  N  N992  1  0.903290  0.053910  0.724110  1.0  -0.3028
  N  N993  1  0.911650  0.823950  0.621090  1.0  0.0281
  N  N994  1  0.923400  0.815700  0.581960  1.0  0.0382
  N  N995  1  0.883300  0.957420  0.742480  1.0  0.0295
  N  N996  1  0.886960  0.993440  0.744580  1.0  0.0302
  N  N997  1  0.241750  0.467350  0.400710  1.0  -0.2423
  N  N998  1  0.236180  0.488740  0.357500  1.0  -0.2648
  N  N999  1  0.182100  0.580760  0.416500  1.0  -0.3186
  N  N1000  1  0.181090  0.602170  0.371050  1.0  -0.221
  N  N1001  1  0.009590  0.716410  0.455970  1.0  -0.315
  N  N1002  1  0.035740  0.745820  0.430820  1.0  -0.2524
  N  N1003  1  0.271600  0.308520  0.378900  1.0  -0.2379
  N  N1004  1  0.224110  0.318690  0.403290  1.0  -0.3023
  N  N1005  1  0.121090  0.643310  0.411650  1.0  0.0261
  N  N1006  1  0.081960  0.678940  0.423400  1.0  0.0373
  N  N1007  1  0.242480  0.416800  0.383300  1.0  0.0293
  N  N1008  1  0.244580  0.375020  0.386960  1.0  0.03
  N  N1009  1  0.109810  0.032650  0.099290  1.0  -0.24
  N  N1010  1  0.082420  0.011260  0.142500  1.0  -0.2636
  N  N1011  1  0.179360  0.919240  0.083500  1.0  -0.3222
  N  N1012  1  0.154310  0.897830  0.128950  1.0  -0.2164
  N  N1013  1  0.181970  0.783590  0.044030  1.0  -0.3134
  N  N1014  1  0.212380  0.754180  0.069180  1.0  -0.2507
  N  N1015  1  0.959020  0.191480  0.121100  1.0  -0.2368
  N  N1016  1  0.946090  0.181310  0.096710  1.0  -0.3022
  N  N1017  1  0.176050  0.856690  0.088350  1.0  0.0276
  N  N1018  1  0.184300  0.821060  0.076600  1.0  0.0381
  N  N1019  1  0.042580  0.083200  0.116700  1.0  0.0294
  N  N1020  1  0.006560  0.124980  0.113040  1.0  0.0299
  N  N1021  1  0.532650  0.609810  0.758250  1.0  -0.2426
  N  N1022  1  0.511260  0.582420  0.763820  1.0  -0.2592
  N  N1023  1  0.419240  0.679360  0.817900  1.0  -0.3195
  N  N1024  1  0.397830  0.654310  0.818910  1.0  -0.2189
  N  N1025  1  0.283590  0.681970  0.990410  1.0  -0.313
  N  N1026  1  0.254180  0.712380  0.964260  1.0  -0.2507
  N  N1027  1  0.691480  0.459020  0.728400  1.0  -0.2322
  N  N1028  1  0.681310  0.446090  0.775890  1.0  -0.2999
  N  N1029  1  0.356690  0.676050  0.878910  1.0  0.0266
  N  N1030  1  0.321060  0.684300  0.918040  1.0  0.036
  N  N1031  1  0.583200  0.542580  0.757520  1.0  0.0292
  N  N1032  1  0.624980  0.506560  0.755420  1.0  0.0292
  N  N1033  1  0.258250  0.099290  0.032650  1.0  -0.2381
  N  N1034  1  0.263820  0.142500  0.011260  1.0  -0.259
  N  N1035  1  0.317900  0.083500  0.919240  1.0  -0.319
  N  N1036  1  0.318910  0.128950  0.897830  1.0  -0.218
  N  N1037  1  0.490410  0.044030  0.783590  1.0  -0.316
  N  N1038  1  0.464260  0.069180  0.754180  1.0  -0.2501
  N  N1039  1  0.228400  0.121100  0.191480  1.0  -0.2318
  N  N1040  1  0.275890  0.096710  0.181310  1.0  -0.2983
  N  N1041  1  0.378910  0.088350  0.856690  1.0  0.0263
  N  N1042  1  0.418040  0.076600  0.821060  1.0  0.0372
  N  N1043  1  0.257520  0.116700  0.083200  1.0  0.0294
  N  N1044  1  0.255420  0.113040  0.124980  1.0  0.0307
  N  N1045  1  0.599290  0.758250  0.609810  1.0  -0.2402
  N  N1046  1  0.642500  0.763820  0.582420  1.0  -0.2603
  N  N1047  1  0.583500  0.817900  0.679360  1.0  -0.318
  N  N1048  1  0.628950  0.818910  0.654310  1.0  -0.2173
  N  N1049  1  0.544030  0.990410  0.681970  1.0  -0.3175
  N  N1050  1  0.569180  0.964260  0.712380  1.0  -0.2495
  N  N1051  1  0.621100  0.728400  0.459020  1.0  -0.2343
  N  N1052  1  0.596710  0.775890  0.446090  1.0  -0.2996
  N  N1053  1  0.588350  0.878910  0.676050  1.0  0.0267
  N  N1054  1  0.576600  0.918040  0.684300  1.0  0.0378
  N  N1055  1  0.616700  0.757520  0.542580  1.0  0.0321
  N  N1056  1  0.613040  0.755420  0.506560  1.0  0.0313
  N  N1057  1  0.599290  0.032650  0.758250  1.0  -0.2423
  N  N1058  1  0.642500  0.011260  0.763820  1.0  -0.2635
  N  N1059  1  0.583500  0.919240  0.817900  1.0  -0.3228
  N  N1060  1  0.628950  0.897830  0.818910  1.0  -0.2187
  N  N1061  1  0.544030  0.783590  0.990410  1.0  -0.3157
  N  N1062  1  0.569180  0.754180  0.964260  1.0  -0.2499
  N  N1063  1  0.621100  0.191480  0.728400  1.0  -0.2388
  N  N1064  1  0.596710  0.181310  0.775890  1.0  -0.3014
  N  N1065  1  0.588350  0.856690  0.878910  1.0  0.0258
  N  N1066  1  0.576600  0.821060  0.918040  1.0  0.0372
  N  N1067  1  0.616700  0.083200  0.757520  1.0  0.0293
  N  N1068  1  0.613040  0.124980  0.755420  1.0  0.0304
  N  N1069  1  0.258250  0.609810  0.099290  1.0  -0.2421
  N  N1070  1  0.263820  0.582420  0.142500  1.0  -0.261
  N  N1071  1  0.317900  0.679360  0.083500  1.0  -0.3181
  N  N1072  1  0.318910  0.654310  0.128950  1.0  -0.2171
  N  N1073  1  0.490410  0.681970  0.044030  1.0  -0.3127
  N  N1074  1  0.464260  0.712380  0.069180  1.0  -0.2492
  N  N1075  1  0.228400  0.459020  0.121100  1.0  -0.2315
  N  N1076  1  0.275890  0.446090  0.096710  1.0  -0.3018
  N  N1077  1  0.378910  0.676050  0.088350  1.0  0.0278
  N  N1078  1  0.418040  0.684300  0.076600  1.0  0.0369
  N  N1079  1  0.257520  0.542580  0.116700  1.0  0.0292
  N  N1080  1  0.255420  0.506560  0.113040  1.0  0.0306
  N  N1081  1  0.532650  0.099290  0.609810  1.0  -0.2425
  N  N1082  1  0.511260  0.142500  0.582420  1.0  -0.2601
  N  N1083  1  0.419240  0.083500  0.679360  1.0  -0.3179
  N  N1084  1  0.397830  0.128950  0.654310  1.0  -0.2176
  N  N1085  1  0.283590  0.044030  0.681970  1.0  -0.3165
  N  N1086  1  0.254180  0.069180  0.712380  1.0  -0.2488
  N  N1087  1  0.691480  0.121100  0.459020  1.0  -0.2394
  N  N1088  1  0.681310  0.096710  0.446090  1.0  -0.3005
  N  N1089  1  0.356690  0.088350  0.676050  1.0  0.0265
  N  N1090  1  0.321060  0.076600  0.684300  1.0  0.037
  N  N1091  1  0.583200  0.116700  0.542580  1.0  0.0313
  N  N1092  1  0.624980  0.113040  0.506560  1.0  0.031
  N  N1093  1  0.109810  0.758250  0.032650  1.0  -0.2414
  N  N1094  1  0.082420  0.763820  0.011260  1.0  -0.2599
  N  N1095  1  0.179360  0.817900  0.919240  1.0  -0.3188
  N  N1096  1  0.154310  0.818910  0.897830  1.0  -0.2184
  N  N1097  1  0.181970  0.990410  0.783590  1.0  -0.3164
  N  N1098  1  0.212380  0.964260  0.754180  1.0  -0.2526
  N  N1099  1  0.959020  0.728400  0.191480  1.0  -0.2335
  N  N1100  1  0.946090  0.775890  0.181310  1.0  -0.3039
  N  N1101  1  0.176050  0.878910  0.856690  1.0  0.0265
  N  N1102  1  0.184300  0.918040  0.821060  1.0  0.0369
  N  N1103  1  0.042580  0.757520  0.083200  1.0  0.0295
  N  N1104  1  0.006560  0.755420  0.124980  1.0  0.0303
  N  N1105  1  0.258250  0.032650  0.609810  1.0  -0.242
  N  N1106  1  0.263820  0.011260  0.582420  1.0  -0.2652
  N  N1107  1  0.317900  0.919240  0.679360  1.0  -0.321
  N  N1108  1  0.318910  0.897830  0.654310  1.0  -0.2191
  N  N1109  1  0.490410  0.783590  0.681970  1.0  -0.3161
  N  N1110  1  0.464260  0.754180  0.712380  1.0  -0.2491
  N  N1111  1  0.228400  0.191480  0.459020  1.0  -0.238
  N  N1112  1  0.275890  0.181310  0.446090  1.0  -0.3023
  N  N1113  1  0.378910  0.856690  0.676050  1.0  0.026
  N  N1114  1  0.418040  0.821060  0.684300  1.0  0.0374
  N  N1115  1  0.257520  0.083200  0.542580  1.0  0.0291
  N  N1116  1  0.255420  0.124980  0.506560  1.0  0.0308
  N  N1117  1  0.599290  0.609810  0.032650  1.0  -0.243
  N  N1118  1  0.642500  0.582420  0.011260  1.0  -0.2628
  N  N1119  1  0.583500  0.679360  0.919240  1.0  -0.3163
  N  N1120  1  0.628950  0.654310  0.897830  1.0  -0.2201
  N  N1121  1  0.544030  0.681970  0.783590  1.0  -0.314
  N  N1122  1  0.569180  0.712380  0.754180  1.0  -0.2488
  N  N1123  1  0.621100  0.459020  0.191480  1.0  -0.2327
  N  N1124  1  0.596710  0.446090  0.181310  1.0  -0.3029
  N  N1125  1  0.588350  0.676050  0.856690  1.0  0.0277
  N  N1126  1  0.576600  0.684300  0.821060  1.0  0.0377
  N  N1127  1  0.616700  0.542580  0.083200  1.0  0.0295
  N  N1128  1  0.613040  0.506560  0.124980  1.0  0.0305
  N  N1129  1  0.109810  0.099290  0.758250  1.0  -0.2412
  N  N1130  1  0.082420  0.142500  0.763820  1.0  -0.262
  N  N1131  1  0.179360  0.083500  0.817900  1.0  -0.3168
  N  N1132  1  0.154310  0.128950  0.818910  1.0  -0.2185
  N  N1133  1  0.181970  0.044030  0.990410  1.0  -0.3148
  N  N1134  1  0.212380  0.069180  0.964260  1.0  -0.2475
  N  N1135  1  0.959020  0.121100  0.728400  1.0  -0.2348
  N  N1136  1  0.946090  0.096710  0.775890  1.0  -0.3029
  N  N1137  1  0.176050  0.088350  0.878910  1.0  0.0269
  N  N1138  1  0.184300  0.076600  0.918040  1.0  0.0382
  N  N1139  1  0.042580  0.116700  0.757520  1.0  0.0295
  N  N1140  1  0.006560  0.113040  0.755420  1.0  0.0301
  N  N1141  1  0.532650  0.758250  0.099290  1.0  -0.2411
  N  N1142  1  0.511260  0.763820  0.142500  1.0  -0.2588
  N  N1143  1  0.419240  0.817900  0.083500  1.0  -0.3186
  N  N1144  1  0.397830  0.818910  0.128950  1.0  -0.2187
  N  N1145  1  0.283590  0.990410  0.044030  1.0  -0.3158
  N  N1146  1  0.254180  0.964260  0.069180  1.0  -0.2507
  N  N1147  1  0.691480  0.728400  0.121100  1.0  -0.2334
  N  N1148  1  0.681310  0.775890  0.096710  1.0  -0.3031
  N  N1149  1  0.356690  0.878910  0.088350  1.0  0.0268
  N  N1150  1  0.321060  0.918040  0.076600  1.0  0.0359
  N  N1151  1  0.583200  0.757520  0.116700  1.0  0.0307
  N  N1152  1  0.624980  0.755420  0.113040  1.0  0.0306
  N  N1153  1  0.032650  0.109810  0.599290  1.0  -0.2421
  N  N1154  1  0.011260  0.082420  0.642500  1.0  -0.2596
  N  N1155  1  0.919240  0.179360  0.583500  1.0  -0.3197
  N  N1156  1  0.897830  0.154310  0.628950  1.0  -0.2173
  N  N1157  1  0.783590  0.181970  0.544030  1.0  -0.3133
  N  N1158  1  0.754180  0.212380  0.569180  1.0  -0.2503
  N  N1159  1  0.191480  0.959020  0.621100  1.0  -0.2317
  N  N1160  1  0.181310  0.946090  0.596710  1.0  -0.2999
  N  N1161  1  0.856690  0.176050  0.588350  1.0  0.0274
  N  N1162  1  0.821060  0.184300  0.576600  1.0  0.036
  N  N1163  1  0.083200  0.042580  0.616700  1.0  0.0294
  N  N1164  1  0.124980  0.006560  0.613040  1.0  0.0294
  N  N1165  1  0.609810  0.532650  0.258250  1.0  -0.2407
  N  N1166  1  0.582420  0.511260  0.263820  1.0  -0.2636
  N  N1167  1  0.679360  0.419240  0.317900  1.0  -0.321
  N  N1168  1  0.654310  0.397830  0.318910  1.0  -0.2159
  N  N1169  1  0.681970  0.283590  0.490410  1.0  -0.3135
  N  N1170  1  0.712380  0.254180  0.464260  1.0  -0.2505
  N  N1171  1  0.459020  0.691480  0.228400  1.0  -0.2358
  N  N1172  1  0.446090  0.681310  0.275890  1.0  -0.3032
  N  N1173  1  0.676050  0.356690  0.378910  1.0  0.0267
  N  N1174  1  0.684300  0.321060  0.418040  1.0  0.0381
  N  N1175  1  0.542580  0.583200  0.257520  1.0  0.0291
  N  N1176  1  0.506560  0.624980  0.255420  1.0  0.0297
  N  N1177  1  0.099290  0.258250  0.532650  1.0  -0.2378
  N  N1178  1  0.142500  0.263820  0.511260  1.0  -0.2592
  N  N1179  1  0.083500  0.317900  0.419240  1.0  -0.3175
  N  N1180  1  0.128950  0.318910  0.397830  1.0  -0.2166
  N  N1181  1  0.044030  0.490410  0.283590  1.0  -0.3165
  N  N1182  1  0.069180  0.464260  0.254180  1.0  -0.2509
  N  N1183  1  0.121100  0.228400  0.691480  1.0  -0.2316
  N  N1184  1  0.096710  0.275890  0.681310  1.0  -0.2996
  N  N1185  1  0.088350  0.378910  0.356690  1.0  0.0263
  N  N1186  1  0.076600  0.418040  0.321060  1.0  0.0373
  N  N1187  1  0.116700  0.257520  0.583200  1.0  0.0306
  N  N1188  1  0.113040  0.255420  0.624980  1.0  0.0309
  N  N1189  1  0.758250  0.599290  0.109810  1.0  -0.2391
  N  N1190  1  0.763820  0.642500  0.082420  1.0  -0.2601
  N  N1191  1  0.817900  0.583500  0.179360  1.0  -0.3194
  N  N1192  1  0.818910  0.628950  0.154310  1.0  -0.2175
  N  N1193  1  0.990410  0.544030  0.181970  1.0  -0.3162
  N  N1194  1  0.964260  0.569180  0.212380  1.0  -0.248
  N  N1195  1  0.728400  0.621100  0.959020  1.0  -0.2343
  N  N1196  1  0.775890  0.596710  0.946090  1.0  -0.2989
  N  N1197  1  0.878910  0.588350  0.176050  1.0  0.0267
  N  N1198  1  0.918040  0.576600  0.184300  1.0  0.0375
  N  N1199  1  0.757520  0.616700  0.042580  1.0  0.0308
  N  N1200  1  0.755420  0.613040  0.006560  1.0  0.031
  N  N1201  1  0.032650  0.599290  0.258250  1.0  -0.2425
  N  N1202  1  0.011260  0.642500  0.263820  1.0  -0.259
  N  N1203  1  0.919240  0.583500  0.317900  1.0  -0.3193
  N  N1204  1  0.897830  0.628950  0.318910  1.0  -0.2171
  N  N1205  1  0.783590  0.544030  0.490410  1.0  -0.3157
  N  N1206  1  0.754180  0.569180  0.464260  1.0  -0.2491
  N  N1207  1  0.191480  0.621100  0.228400  1.0  -0.239
  N  N1208  1  0.181310  0.596710  0.275890  1.0  -0.3008
  N  N1209  1  0.856690  0.588350  0.378910  1.0  0.0265
  N  N1210  1  0.821060  0.576600  0.418040  1.0  0.0369
  N  N1211  1  0.083200  0.616700  0.257520  1.0  0.0307
  N  N1212  1  0.124980  0.613040  0.255420  1.0  0.0299
  N  N1213  1  0.609810  0.258250  0.599290  1.0  -0.2415
  N  N1214  1  0.582420  0.263820  0.642500  1.0  -0.2615
  N  N1215  1  0.679360  0.317900  0.583500  1.0  -0.3188
  N  N1216  1  0.654310  0.318910  0.628950  1.0  -0.2181
  N  N1217  1  0.681970  0.490410  0.544030  1.0  -0.3171
  N  N1218  1  0.712380  0.464260  0.569180  1.0  -0.2491
  N  N1219  1  0.459020  0.228400  0.621100  1.0  -0.2318
  N  N1220  1  0.446090  0.275890  0.596710  1.0  -0.3034
  N  N1221  1  0.676050  0.378910  0.588350  1.0  0.0263
  N  N1222  1  0.684300  0.418040  0.576600  1.0  0.0369
  N  N1223  1  0.542580  0.257520  0.616700  1.0  0.0297
  N  N1224  1  0.506560  0.255420  0.613040  1.0  0.0305
  N  N1225  1  0.099290  0.532650  0.109810  1.0  -0.2421
  N  N1226  1  0.142500  0.511260  0.082420  1.0  -0.2638
  N  N1227  1  0.083500  0.419240  0.179360  1.0  -0.3227
  N  N1228  1  0.128950  0.397830  0.154310  1.0  -0.2194
  N  N1229  1  0.044030  0.283590  0.181970  1.0  -0.3166
  N  N1230  1  0.069180  0.254180  0.212380  1.0  -0.2494
  N  N1231  1  0.121100  0.691480  0.959020  1.0  -0.2393
  N  N1232  1  0.096710  0.681310  0.946090  1.0  -0.3003
  N  N1233  1  0.088350  0.356690  0.176050  1.0  0.0259
  N  N1234  1  0.076600  0.321060  0.184300  1.0  0.0373
  N  N1235  1  0.116700  0.583200  0.042580  1.0  0.0299
  N  N1236  1  0.113040  0.624980  0.006560  1.0  0.0312
  N  N1237  1  0.758250  0.109810  0.532650  1.0  -0.2414
  N  N1238  1  0.763820  0.082420  0.511260  1.0  -0.2594
  N  N1239  1  0.817900  0.179360  0.419240  1.0  -0.3189
  N  N1240  1  0.818910  0.154310  0.397830  1.0  -0.2177
  N  N1241  1  0.990410  0.181970  0.283590  1.0  -0.3123
  N  N1242  1  0.964260  0.212380  0.254180  1.0  -0.2523
  N  N1243  1  0.728400  0.959020  0.691480  1.0  -0.2333
  N  N1244  1  0.775890  0.946090  0.681310  1.0  -0.3011
  N  N1245  1  0.878910  0.176050  0.356690  1.0  0.0279
  N  N1246  1  0.918040  0.184300  0.321060  1.0  0.037
  N  N1247  1  0.757520  0.042580  0.583200  1.0  0.0289
  N  N1248  1  0.755420  0.006560  0.624980  1.0  0.0304
  N  N1249  1  0.032650  0.258250  0.109810  1.0  -0.2421
  N  N1250  1  0.011260  0.263820  0.082420  1.0  -0.2593
  N  N1251  1  0.919240  0.317900  0.179360  1.0  -0.3183
  N  N1252  1  0.897830  0.318910  0.154310  1.0  -0.2202
  N  N1253  1  0.783590  0.490410  0.181970  1.0  -0.3165
  N  N1254  1  0.754180  0.464260  0.212380  1.0  -0.2513
  N  N1255  1  0.191480  0.228400  0.959020  1.0  -0.2367
  N  N1256  1  0.181310  0.275890  0.946090  1.0  -0.3018
  N  N1257  1  0.856690  0.378910  0.176050  1.0  0.0266
  N  N1258  1  0.821060  0.418040  0.184300  1.0  0.0361
  N  N1259  1  0.083200  0.257520  0.042580  1.0  0.0312
  N  N1260  1  0.124980  0.255420  0.006560  1.0  0.0311
  N  N1261  1  0.609810  0.599290  0.532650  1.0  -0.243
  N  N1262  1  0.582420  0.642500  0.511260  1.0  -0.2617
  N  N1263  1  0.679360  0.583500  0.419240  1.0  -0.3158
  N  N1264  1  0.654310  0.628950  0.397830  1.0  -0.2187
  N  N1265  1  0.681970  0.544030  0.283590  1.0  -0.3139
  N  N1266  1  0.712380  0.569180  0.254180  1.0  -0.2475
  N  N1267  1  0.459020  0.621100  0.691480  1.0  -0.2345
  N  N1268  1  0.446090  0.596710  0.681310  1.0  -0.3031
  N  N1269  1  0.676050  0.588350  0.356690  1.0  0.0282
  N  N1270  1  0.684300  0.576600  0.321060  1.0  0.0379
  N  N1271  1  0.542580  0.616700  0.583200  1.0  0.0295
  N  N1272  1  0.506560  0.613040  0.624980  1.0  0.0304
  N  N1273  1  0.099290  0.109810  0.258250  1.0  -0.2435
  N  N1274  1  0.142500  0.082420  0.263820  1.0  -0.2629
  N  N1275  1  0.083500  0.179360  0.317900  1.0  -0.3165
  N  N1276  1  0.128950  0.154310  0.318910  1.0  -0.2212
  N  N1277  1  0.044030  0.181970  0.490410  1.0  -0.3153
  N  N1278  1  0.069180  0.212380  0.464260  1.0  -0.2493
  N  N1279  1  0.121100  0.959020  0.228400  1.0  -0.2343
  N  N1280  1  0.096710  0.946090  0.275890  1.0  -0.3026
  N  N1281  1  0.088350  0.176050  0.378910  1.0  0.0266
  N  N1282  1  0.076600  0.184300  0.418040  1.0  0.0381
  N  N1283  1  0.116700  0.042580  0.257520  1.0  0.0297
  N  N1284  1  0.113040  0.006560  0.255420  1.0  0.0305
  N  N1285  1  0.758250  0.532650  0.599290  1.0  -0.2412
  N  N1286  1  0.763820  0.511260  0.642500  1.0  -0.2648
  N  N1287  1  0.817900  0.419240  0.583500  1.0  -0.3214
  N  N1288  1  0.818910  0.397830  0.628950  1.0  -0.2185
  N  N1289  1  0.990410  0.283590  0.544030  1.0  -0.3163
  N  N1290  1  0.964260  0.254180  0.569180  1.0  -0.2488
  N  N1291  1  0.728400  0.691480  0.621100  1.0  -0.2357
  N  N1292  1  0.775890  0.681310  0.596710  1.0  -0.3037
  N  N1293  1  0.878910  0.356690  0.588350  1.0  0.0261
  N  N1294  1  0.918040  0.321060  0.576600  1.0  0.0374
  N  N1295  1  0.757520  0.583200  0.616700  1.0  0.0286
  N  N1296  1  0.755420  0.624980  0.613040  1.0  0.0304
  N  N1297  1  0.890190  0.967350  0.900710  1.0  -0.2403
  N  N1298  1  0.917580  0.988740  0.857500  1.0  -0.2628
  N  N1299  1  0.820640  0.080760  0.916500  1.0  -0.3183
  N  N1300  1  0.845690  0.102170  0.871050  1.0  -0.217
  N  N1301  1  0.818030  0.216410  0.955970  1.0  -0.3125
  N  N1302  1  0.787620  0.245820  0.930820  1.0  -0.253
  N  N1303  1  0.040980  0.808520  0.878900  1.0  -0.2363
  N  N1304  1  0.053910  0.818690  0.903290  1.0  -0.3019
  N  N1305  1  0.823950  0.143310  0.911650  1.0  0.0269
  N  N1306  1  0.815700  0.178940  0.923400  1.0  0.0378
  N  N1307  1  0.957420  0.916800  0.883300  1.0  0.0289
  N  N1308  1  0.993440  0.875020  0.886960  1.0  0.0297
  N  N1309  1  0.467350  0.390190  0.241750  1.0  -0.2395
  N  N1310  1  0.488740  0.417580  0.236180  1.0  -0.2635
  N  N1311  1  0.580760  0.320640  0.182100  1.0  -0.3187
  N  N1312  1  0.602170  0.345690  0.181090  1.0  -0.2174
  N  N1313  1  0.716410  0.318030  0.009590  1.0  -0.3143
  N  N1314  1  0.745820  0.287620  0.035740  1.0  -0.2503
  N  N1315  1  0.308520  0.540980  0.271600  1.0  -0.2323
  N  N1316  1  0.318690  0.553910  0.224110  1.0  -0.3018
  N  N1317  1  0.643310  0.323950  0.121090  1.0  0.0273
  N  N1318  1  0.678940  0.315700  0.081960  1.0  0.0367
  N  N1319  1  0.416800  0.457420  0.242480  1.0  0.0299
  N  N1320  1  0.375020  0.493440  0.244580  1.0  0.0297
  N  N1321  1  0.741750  0.900710  0.967350  1.0  -0.2396
  N  N1322  1  0.736180  0.857500  0.988740  1.0  -0.2595
  N  N1323  1  0.682100  0.916500  0.080760  1.0  -0.3202
  N  N1324  1  0.681090  0.871050  0.102170  1.0  -0.218
  N  N1325  1  0.509590  0.955970  0.216410  1.0  -0.3152
  N  N1326  1  0.535740  0.930820  0.245820  1.0  -0.2482
  N  N1327  1  0.771600  0.878900  0.808520  1.0  -0.2341
  N  N1328  1  0.724110  0.903290  0.818690  1.0  -0.2986
  N  N1329  1  0.621090  0.911650  0.143310  1.0  0.0267
  N  N1330  1  0.581960  0.923400  0.178940  1.0  0.0379
  N  N1331  1  0.742480  0.883300  0.916800  1.0  0.0308
  N  N1332  1  0.744580  0.886960  0.875020  1.0  0.0304
  N  N1333  1  0.400710  0.241750  0.390190  1.0  -0.2377
  N  N1334  1  0.357500  0.236180  0.417580  1.0  -0.2582
  N  N1335  1  0.416500  0.182100  0.320640  1.0  -0.3192
  N  N1336  1  0.371050  0.181090  0.345690  1.0  -0.2195
  N  N1337  1  0.455970  0.009590  0.318030  1.0  -0.3164
  N  N1338  1  0.430820  0.035740  0.287620  1.0  -0.2492
  N  N1339  1  0.378900  0.271600  0.540980  1.0  -0.2324
  N  N1340  1  0.403290  0.224110  0.553910  1.0  -0.2991
  N  N1341  1  0.411650  0.121090  0.323950  1.0  0.0265
  N  N1342  1  0.423400  0.081960  0.315700  1.0  0.0379
  N  N1343  1  0.383300  0.242480  0.457420  1.0  0.0305
  N  N1344  1  0.386960  0.244580  0.493440  1.0  0.03
  N  N1345  1  0.400710  0.967350  0.241750  1.0  -0.2422
  N  N1346  1  0.357500  0.988740  0.236180  1.0  -0.2631
  N  N1347  1  0.416500  0.080760  0.182100  1.0  -0.3197
  N  N1348  1  0.371050  0.102170  0.181090  1.0  -0.2189
  N  N1349  1  0.455970  0.216410  0.009590  1.0  -0.3185
  N  N1350  1  0.430820  0.245820  0.035740  1.0  -0.251
  N  N1351  1  0.378900  0.808520  0.271600  1.0  -0.2367
  N  N1352  1  0.403290  0.818690  0.224110  1.0  -0.2992
  N  N1353  1  0.411650  0.143310  0.121090  1.0  0.0266
  N  N1354  1  0.423400  0.178940  0.081960  1.0  0.0373
  N  N1355  1  0.383300  0.916800  0.242480  1.0  0.0308
  N  N1356  1  0.386960  0.875020  0.244580  1.0  0.0304
  N  N1357  1  0.741750  0.390190  0.900710  1.0  -0.241
  N  N1358  1  0.736180  0.417580  0.857500  1.0  -0.2587
  N  N1359  1  0.682100  0.320640  0.916500  1.0  -0.3195
  N  N1360  1  0.681090  0.345690  0.871050  1.0  -0.2201
  N  N1361  1  0.509590  0.318030  0.955970  1.0  -0.3133
  N  N1362  1  0.535740  0.287620  0.930820  1.0  -0.2508
  N  N1363  1  0.771600  0.540980  0.878900  1.0  -0.2373
  N  N1364  1  0.724110  0.553910  0.903290  1.0  -0.301
  N  N1365  1  0.621090  0.323950  0.911650  1.0  0.0264
  N  N1366  1  0.581960  0.315700  0.923400  1.0  0.0381
  N  N1367  1  0.742480  0.457420  0.883300  1.0  0.0289
  N  N1368  1  0.744580  0.493440  0.886960  1.0  0.0302
  N  N1369  1  0.467350  0.900710  0.390190  1.0  -0.2438
  N  N1370  1  0.488740  0.857500  0.417580  1.0  -0.2632
  N  N1371  1  0.580760  0.916500  0.320640  1.0  -0.3169
  N  N1372  1  0.602170  0.871050  0.345690  1.0  -0.2164
  N  N1373  1  0.716410  0.955970  0.318030  1.0  -0.3166
  N  N1374  1  0.745820  0.930820  0.287620  1.0  -0.2448
  N  N1375  1  0.308520  0.878900  0.540980  1.0  -0.2311
  N  N1376  1  0.318690  0.903290  0.553910  1.0  -0.3018
  N  N1377  1  0.643310  0.911650  0.323950  1.0  0.0259
  N  N1378  1  0.678940  0.923400  0.315700  1.0  0.0363
  N  N1379  1  0.416800  0.883300  0.457420  1.0  0.0299
  N  N1380  1  0.375020  0.886960  0.493440  1.0  0.03
  N  N1381  1  0.890190  0.241750  0.967350  1.0  -0.2397
  N  N1382  1  0.917580  0.236180  0.988740  1.0  -0.2592
  N  N1383  1  0.820640  0.182100  0.080760  1.0  -0.3211
  N  N1384  1  0.845690  0.181090  0.102170  1.0  -0.2197
  N  N1385  1  0.818030  0.009590  0.216410  1.0  -0.3167
  N  N1386  1  0.787620  0.035740  0.245820  1.0  -0.2504
  N  N1387  1  0.040980  0.271600  0.808520  1.0  -0.2372
  N  N1388  1  0.053910  0.224110  0.818690  1.0  -0.3028
  N  N1389  1  0.823950  0.121090  0.143310  1.0  0.0259
  N  N1390  1  0.815700  0.081960  0.178940  1.0  0.0371
  N  N1391  1  0.957420  0.242480  0.916800  1.0  0.031
  N  N1392  1  0.993440  0.244580  0.875020  1.0  0.0309
  N  N1393  1  0.741750  0.967350  0.390190  1.0  -0.2425
  N  N1394  1  0.736180  0.988740  0.417580  1.0  -0.2646
  N  N1395  1  0.682100  0.080760  0.320640  1.0  -0.319
  N  N1396  1  0.681090  0.102170  0.345690  1.0  -0.2195
  N  N1397  1  0.509590  0.216410  0.318030  1.0  -0.3144
  N  N1398  1  0.535740  0.245820  0.287620  1.0  -0.2511
  N  N1399  1  0.771600  0.808520  0.540980  1.0  -0.235
  N  N1400  1  0.724110  0.818690  0.553910  1.0  -0.3034
  N  N1401  1  0.621090  0.143310  0.323950  1.0  0.0263
  N  N1402  1  0.581960  0.178940  0.315700  1.0  0.0372
  N  N1403  1  0.742480  0.916800  0.457420  1.0  0.0288
  N  N1404  1  0.744580  0.875020  0.493440  1.0  0.0295
  N  N1405  1  0.400710  0.390190  0.967350  1.0  -0.2416
  N  N1406  1  0.357500  0.417580  0.988740  1.0  -0.2605
  N  N1407  1  0.416500  0.320640  0.080760  1.0  -0.3174
  N  N1408  1  0.371050  0.345690  0.102170  1.0  -0.2185
  N  N1409  1  0.455970  0.318030  0.216410  1.0  -0.3164
  N  N1410  1  0.430820  0.287620  0.245820  1.0  -0.2492
  N  N1411  1  0.378900  0.540980  0.808520  1.0  -0.2348
  N  N1412  1  0.403290  0.553910  0.818690  1.0  -0.3023
  N  N1413  1  0.411650  0.323950  0.143310  1.0  0.0269
  N  N1414  1  0.423400  0.315700  0.178940  1.0  0.0385
  N  N1415  1  0.383300  0.457420  0.916800  1.0  0.0295
  N  N1416  1  0.386960  0.493440  0.875020  1.0  0.0301
  N  N1417  1  0.890190  0.900710  0.241750  1.0  -0.2398
  N  N1418  1  0.917580  0.857500  0.236180  1.0  -0.2607
  N  N1419  1  0.820640  0.916500  0.182100  1.0  -0.3165
  N  N1420  1  0.845690  0.871050  0.181090  1.0  -0.218
  N  N1421  1  0.818030  0.955970  0.009590  1.0  -0.3148
  N  N1422  1  0.787620  0.930820  0.035740  1.0  -0.2486
  N  N1423  1  0.040980  0.878900  0.271600  1.0  -0.2369
  N  N1424  1  0.053910  0.903290  0.224110  1.0  -0.304
  N  N1425  1  0.823950  0.911650  0.121090  1.0  0.0285
  N  N1426  1  0.815700  0.923400  0.081960  1.0  0.038
  N  N1427  1  0.957420  0.883300  0.242480  1.0  0.0294
  N  N1428  1  0.993440  0.886960  0.244580  1.0  0.0305
  N  N1429  1  0.467350  0.241750  0.900710  1.0  -0.2415
  N  N1430  1  0.488740  0.236180  0.857500  1.0  -0.2589
  N  N1431  1  0.580760  0.182100  0.916500  1.0  -0.3206
  N  N1432  1  0.602170  0.181090  0.871050  1.0  -0.2213
  N  N1433  1  0.716410  0.009590  0.955970  1.0  -0.3161
  N  N1434  1  0.745820  0.035740  0.930820  1.0  -0.2477
  N  N1435  1  0.308520  0.271600  0.878900  1.0  -0.2349
  N  N1436  1  0.318690  0.224110  0.903290  1.0  -0.3033
  N  N1437  1  0.643310  0.121090  0.911650  1.0  0.0261
  N  N1438  1  0.678940  0.081960  0.923400  1.0  0.0364
  N  N1439  1  0.416800  0.242480  0.883300  1.0  0.0303
  N  N1440  1  0.375020  0.244580  0.886960  1.0  0.031
