# generated using pymatgen
data_Mn2CuB2H42C44(N11O2)2
_symmetry_space_group_name_H-M   'P 1'
_cell_length_a   35.99780000
_cell_length_b   35.99780000
_cell_length_c   9.90810000
_cell_angle_alpha   90.00000000
_cell_angle_beta   90.00000000
_cell_angle_gamma   90.00000000
_symmetry_Int_Tables_number   1
_chemical_formula_structural   Mn2CuB2H42C44(N11O2)2
_chemical_formula_sum   'Mn16 Cu8 B16 H336 C352 N176 O32'
_cell_volume   12839.32820492
_cell_formula_units_Z   8
loop_
 _symmetry_equiv_pos_site_id
 _symmetry_equiv_pos_as_xyz
  1  'x, y, z'
loop_
 _atom_site_type_symbol
 _atom_site_label
 _atom_site_symmetry_multiplicity
 _atom_site_fract_x
 _atom_site_fract_y
 _atom_site_fract_z
 _atom_site_occupancy
 _atom_site_charge
  Mn  Mn1  1  0.136310  0.129100  0.055500  1.0  0.8498
  Mn  Mn2  1  0.636310  0.629100  0.555500  1.0  0.8498
  Mn  Mn3  1  0.363690  0.870900  0.555500  1.0  0.8493
  Mn  Mn4  1  0.863690  0.370900  0.055500  1.0  0.8493
  Mn  Mn5  1  0.620900  0.386310  0.305500  1.0  0.8509
  Mn  Mn6  1  0.120900  0.886310  0.805500  1.0  0.8509
  Mn  Mn7  1  0.879100  0.613690  0.805500  1.0  0.8503
  Mn  Mn8  1  0.379100  0.113690  0.305500  1.0  0.8503
  Mn  Mn9  1  0.863690  0.870900  0.944500  1.0  0.8489
  Mn  Mn10  1  0.363690  0.370900  0.444500  1.0  0.8489
  Mn  Mn11  1  0.636310  0.129100  0.444500  1.0  0.8499
  Mn  Mn12  1  0.136310  0.629100  0.944500  1.0  0.8499
  Mn  Mn13  1  0.379100  0.613690  0.694500  1.0  0.8505
  Mn  Mn14  1  0.879100  0.113690  0.194500  1.0  0.8505
  Mn  Mn15  1  0.120900  0.386310  0.194500  1.0  0.8503
  Mn  Mn16  1  0.620900  0.886310  0.694500  1.0  0.8503
  Cu  Cu17  1  0.000000  0.000000  0.000000  1.0  0.5731
  Cu  Cu18  1  0.500000  0.500000  0.500000  1.0  0.5731
  Cu  Cu19  1  0.500000  0.000000  0.500000  1.0  0.5731
  Cu  Cu20  1  0.000000  0.500000  0.000000  1.0  0.5733
  Cu  Cu21  1  0.750000  0.250000  0.250000  1.0  0.5731
  Cu  Cu22  1  0.750000  0.750000  0.750000  1.0  0.5731
  Cu  Cu23  1  0.250000  0.750000  0.750000  1.0  0.5731
  Cu  Cu24  1  0.250000  0.250000  0.250000  1.0  0.5731
  B  B25  1  0.025500  0.036650  0.283700  1.0  0.4257
  B  B26  1  0.525500  0.536650  0.783700  1.0  0.4257
  B  B27  1  0.474500  0.963350  0.783700  1.0  0.4229
  B  B28  1  0.974500  0.463350  0.283700  1.0  0.4229
  B  B29  1  0.713350  0.275500  0.533700  1.0  0.4229
  B  B30  1  0.213350  0.775500  0.033700  1.0  0.4229
  B  B31  1  0.786650  0.724500  0.033700  1.0  0.4268
  B  B32  1  0.286650  0.224500  0.533700  1.0  0.4268
  B  B33  1  0.974500  0.963350  0.716300  1.0  0.4228
  B  B34  1  0.474500  0.463350  0.216300  1.0  0.4228
  B  B35  1  0.525500  0.036650  0.216300  1.0  0.4244
  B  B36  1  0.025500  0.536650  0.716300  1.0  0.4244
  B  B37  1  0.286650  0.724500  0.466300  1.0  0.4256
  B  B38  1  0.786650  0.224500  0.966300  1.0  0.4256
  B  B39  1  0.213350  0.275500  0.966300  1.0  0.4226
  B  B40  1  0.713350  0.775500  0.466300  1.0  0.4226
  H  H41  1  0.086100  0.052200  0.898000  1.0  0.0709
  H  H42  1  0.091200  0.081800  0.272700  1.0  0.0957
  H  H43  1  0.926000  0.050400  0.024800  1.0  0.07
  H  H44  1  0.965600  0.086900  0.361100  1.0  0.0867
  H  H45  1  0.011000  0.919100  0.166800  1.0  0.0397
  H  H46  1  0.040500  0.977800  0.473100  1.0  0.0928
  H  H47  1  0.031000  0.047000  0.373000  1.0  0.0973
  H  H48  1  0.094700  0.139000  0.711200  1.0  0.0771
  H  H49  1  0.028700  0.146800  0.709300  1.0  0.1214
  H  H50  1  0.974200  0.158500  0.824700  1.0  0.0922
  H  H51  1  0.973400  0.169300  0.051000  1.0  0.0954
  H  H52  1  0.027500  0.166600  0.172400  1.0  0.1047
  H  H53  1  0.226400  0.076600  0.028500  1.0  0.0786
  H  H54  1  0.261300  0.073100  0.227900  1.0  0.0881
  H  H55  1  0.270200  0.084600  0.455200  1.0  0.1136
  H  H56  1  0.223900  0.113800  0.574300  1.0  0.0883
  H  H57  1  0.170200  0.130500  0.474700  1.0  0.0913
  H  H58  1  0.176400  0.144800  0.773000  1.0  0.0876
  H  H59  1  0.153200  0.115700  0.689900  1.0  0.07
  H  H60  1  0.168100  0.069000  0.831100  1.0  0.0951
  H  H61  1  0.205700  0.090900  0.815000  1.0  0.0671
  H  H62  1  0.586100  0.552200  0.398000  1.0  0.0709
  H  H63  1  0.591200  0.581800  0.772700  1.0  0.0958
  H  H64  1  0.426000  0.550400  0.524800  1.0  0.07
  H  H65  1  0.465600  0.586900  0.861100  1.0  0.0867
  H  H66  1  0.511000  0.419100  0.666800  1.0  0.0397
  H  H67  1  0.540500  0.477800  0.973100  1.0  0.0928
  H  H68  1  0.531000  0.547000  0.873000  1.0  0.0973
  H  H69  1  0.594700  0.639000  0.211200  1.0  0.0771
  H  H70  1  0.528700  0.646800  0.209300  1.0  0.1214
  H  H71  1  0.474200  0.658500  0.324700  1.0  0.0922
  H  H72  1  0.473400  0.669300  0.551000  1.0  0.0958
  H  H73  1  0.527500  0.666667  0.672400  1.0  0.1045
  H  H74  1  0.726400  0.576600  0.528500  1.0  0.0786
  H  H75  1  0.761300  0.573100  0.727900  1.0  0.0881
  H  H76  1  0.770200  0.584600  0.955200  1.0  0.1136
  H  H77  1  0.723900  0.613800  0.074300  1.0  0.0883
  H  H78  1  0.670200  0.630500  0.974700  1.0  0.0913
  H  H79  1  0.676400  0.644800  0.273000  1.0  0.0876
  H  H80  1  0.653200  0.615700  0.189900  1.0  0.07
  H  H81  1  0.668100  0.569000  0.331100  1.0  0.0951
  H  H82  1  0.705700  0.590900  0.315000  1.0  0.0671
  H  H83  1  0.413900  0.947800  0.398000  1.0  0.0711
  H  H84  1  0.408800  0.918200  0.772700  1.0  0.0956
  H  H85  1  0.574000  0.949600  0.524800  1.0  0.0702
  H  H86  1  0.534400  0.913100  0.861100  1.0  0.087
  H  H87  1  0.489000  0.080900  0.666800  1.0  0.0402
  H  H88  1  0.459500  0.022200  0.973100  1.0  0.093
  H  H89  1  0.469000  0.953000  0.873000  1.0  0.0977
  H  H90  1  0.405300  0.861000  0.211200  1.0  0.0772
  H  H91  1  0.471300  0.853200  0.209300  1.0  0.1214
  H  H92  1  0.525800  0.841500  0.324700  1.0  0.092
  H  H93  1  0.526600  0.830700  0.551000  1.0  0.0959
  H  H94  1  0.472500  0.833400  0.672400  1.0  0.1046
  H  H95  1  0.273600  0.923400  0.528500  1.0  0.0782
  H  H96  1  0.238700  0.926900  0.727900  1.0  0.0882
  H  H97  1  0.229800  0.915400  0.955200  1.0  0.1123
  H  H98  1  0.276100  0.886200  0.074300  1.0  0.0879
  H  H99  1  0.329800  0.869500  0.974700  1.0  0.0913
  H  H100  1  0.323600  0.855200  0.273000  1.0  0.0875
  H  H101  1  0.346800  0.884300  0.189900  1.0  0.0708
  H  H102  1  0.331900  0.931000  0.331100  1.0  0.0957
  H  H103  1  0.294300  0.909100  0.315000  1.0  0.0672
  H  H104  1  0.913900  0.447800  0.898000  1.0  0.0711
  H  H105  1  0.908800  0.418200  0.272700  1.0  0.0956
  H  H106  1  0.074000  0.449600  0.024800  1.0  0.0702
  H  H107  1  0.034400  0.413100  0.361100  1.0  0.087
  H  H108  1  0.989000  0.580900  0.166800  1.0  0.0402
  H  H109  1  0.959500  0.522200  0.473100  1.0  0.093
  H  H110  1  0.969000  0.453000  0.373000  1.0  0.0977
  H  H111  1  0.905300  0.361000  0.711200  1.0  0.0772
  H  H112  1  0.971300  0.353200  0.709300  1.0  0.1214
  H  H113  1  0.025800  0.341500  0.824700  1.0  0.092
  H  H114  1  0.026600  0.330700  0.051000  1.0  0.0959
  H  H115  1  0.972500  0.333400  0.172400  1.0  0.1046
  H  H116  1  0.773600  0.423400  0.028500  1.0  0.0782
  H  H117  1  0.738700  0.426900  0.227900  1.0  0.0882
  H  H118  1  0.729800  0.415400  0.455200  1.0  0.1123
  H  H119  1  0.776100  0.386200  0.574300  1.0  0.0879
  H  H120  1  0.829800  0.369500  0.474700  1.0  0.0913
  H  H121  1  0.823600  0.355200  0.773000  1.0  0.0875
  H  H122  1  0.846800  0.384300  0.689900  1.0  0.0708
  H  H123  1  0.831900  0.431000  0.831100  1.0  0.0957
  H  H124  1  0.794300  0.409100  0.815000  1.0  0.0672
  H  H125  1  0.697800  0.336100  0.148000  1.0  0.0714
  H  H126  1  0.668200  0.341200  0.522700  1.0  0.0952
  H  H127  1  0.699600  0.176000  0.274800  1.0  0.0696
  H  H128  1  0.663100  0.215600  0.611100  1.0  0.0859
  H  H129  1  0.830900  0.261000  0.416800  1.0  0.0412
  H  H130  1  0.772200  0.290500  0.723100  1.0  0.0927
  H  H131  1  0.703000  0.281000  0.623000  1.0  0.0972
  H  H132  1  0.611000  0.344700  0.961200  1.0  0.0767
  H  H133  1  0.603200  0.278700  0.959300  1.0  0.1212
  H  H134  1  0.591500  0.224200  0.074700  1.0  0.0915
  H  H135  1  0.580700  0.223400  0.301000  1.0  0.0953
  H  H136  1  0.583400  0.277500  0.422400  1.0  0.1053
  H  H137  1  0.673400  0.476400  0.278500  1.0  0.0784
  H  H138  1  0.676900  0.511300  0.477900  1.0  0.0881
  H  H139  1  0.665400  0.520200  0.705200  1.0  0.1147
  H  H140  1  0.636200  0.473900  0.824300  1.0  0.0877
  H  H141  1  0.619500  0.420200  0.724700  1.0  0.0902
  H  H142  1  0.605200  0.426400  0.023000  1.0  0.0829
  H  H143  1  0.634300  0.403200  0.939900  1.0  0.0699
  H  H144  1  0.681000  0.418100  0.081100  1.0  0.0995
  H  H145  1  0.659100  0.455700  0.065000  1.0  0.0651
  H  H146  1  0.197800  0.836100  0.648000  1.0  0.0714
  H  H147  1  0.168200  0.841200  0.022700  1.0  0.0952
  H  H148  1  0.199600  0.676000  0.774800  1.0  0.0696
  H  H149  1  0.163100  0.715600  0.111100  1.0  0.0859
  H  H150  1  0.330900  0.761000  0.916800  1.0  0.0412
  H  H151  1  0.272200  0.790500  0.223100  1.0  0.0927
  H  H152  1  0.203000  0.781000  0.123000  1.0  0.0972
  H  H153  1  0.111000  0.844700  0.461200  1.0  0.0767
  H  H154  1  0.103200  0.778700  0.459300  1.0  0.1212
  H  H155  1  0.091500  0.724200  0.574700  1.0  0.0915
  H  H156  1  0.080700  0.723400  0.801000  1.0  0.0954
  H  H157  1  0.083400  0.777500  0.922400  1.0  0.1053
  H  H158  1  0.173400  0.976400  0.778500  1.0  0.0784
  H  H159  1  0.176900  0.011300  0.977900  1.0  0.0881
  H  H160  1  0.165400  0.020200  0.205200  1.0  0.1147
  H  H161  1  0.136200  0.973900  0.324300  1.0  0.0877
  H  H162  1  0.119500  0.920200  0.224700  1.0  0.0902
  H  H163  1  0.105200  0.926400  0.523000  1.0  0.0829
  H  H164  1  0.134300  0.903200  0.439900  1.0  0.0699
  H  H165  1  0.181000  0.918100  0.581100  1.0  0.0995
  H  H166  1  0.159100  0.955700  0.565000  1.0  0.0651
  H  H167  1  0.802200  0.663900  0.648000  1.0  0.0712
  H  H168  1  0.831800  0.658800  0.022700  1.0  0.095
  H  H169  1  0.800400  0.824000  0.774800  1.0  0.0699
  H  H170  1  0.836900  0.784400  0.111100  1.0  0.0857
  H  H171  1  0.669100  0.739000  0.916800  1.0  0.0408
  H  H172  1  0.727800  0.709500  0.223100  1.0  0.0928
  H  H173  1  0.797000  0.719000  0.123000  1.0  0.0969
  H  H174  1  0.889000  0.655300  0.461200  1.0  0.0771
  H  H175  1  0.896800  0.721300  0.459300  1.0  0.1209
  H  H176  1  0.908500  0.775800  0.574700  1.0  0.0928
  H  H177  1  0.919300  0.776600  0.801000  1.0  0.0955
  H  H178  1  0.916600  0.722500  0.922400  1.0  0.1048
  H  H179  1  0.826600  0.523600  0.778500  1.0  0.078
  H  H180  1  0.823100  0.488700  0.977900  1.0  0.0874
  H  H181  1  0.834600  0.479800  0.205200  1.0  0.1149
  H  H182  1  0.863800  0.526100  0.324300  1.0  0.0879
  H  H183  1  0.880500  0.579800  0.224700  1.0  0.0905
  H  H184  1  0.894800  0.573600  0.523000  1.0  0.0841
  H  H185  1  0.865700  0.596800  0.439900  1.0  0.0704
  H  H186  1  0.819000  0.581900  0.581100  1.0  0.0948
  H  H187  1  0.840900  0.544300  0.565000  1.0  0.0632
  H  H188  1  0.302200  0.163900  0.148000  1.0  0.0712
  H  H189  1  0.331800  0.158800  0.522700  1.0  0.095
  H  H190  1  0.300400  0.324000  0.274800  1.0  0.0699
  H  H191  1  0.336900  0.284400  0.611100  1.0  0.0857
  H  H192  1  0.169100  0.239000  0.416800  1.0  0.0408
  H  H193  1  0.227800  0.209500  0.723100  1.0  0.0928
  H  H194  1  0.297000  0.219000  0.623000  1.0  0.0969
  H  H195  1  0.389000  0.155300  0.961200  1.0  0.0771
  H  H196  1  0.396800  0.221300  0.959300  1.0  0.1209
  H  H197  1  0.408500  0.275800  0.074700  1.0  0.0928
  H  H198  1  0.419300  0.276600  0.301000  1.0  0.0955
  H  H199  1  0.416600  0.222500  0.422400  1.0  0.1048
  H  H200  1  0.326600  0.023600  0.278500  1.0  0.078
  H  H201  1  0.323100  0.988700  0.477900  1.0  0.0874
  H  H202  1  0.334600  0.979800  0.705200  1.0  0.1149
  H  H203  1  0.363800  0.026100  0.824300  1.0  0.0879
  H  H204  1  0.380500  0.079800  0.724700  1.0  0.0905
  H  H205  1  0.394800  0.073600  0.023000  1.0  0.0841
  H  H206  1  0.365700  0.096800  0.939900  1.0  0.0704
  H  H207  1  0.319000  0.081900  0.081100  1.0  0.0948
  H  H208  1  0.340900  0.044300  0.065000  1.0  0.0632
  H  H209  1  0.913900  0.947800  0.102000  1.0  0.0709
  H  H210  1  0.908800  0.918200  0.727300  1.0  0.096
  H  H211  1  0.074000  0.949600  0.975200  1.0  0.0712
  H  H212  1  0.034400  0.913100  0.638900  1.0  0.0867
  H  H213  1  0.989000  0.080900  0.833200  1.0  0.0393
  H  H214  1  0.959500  0.022200  0.526900  1.0  0.0928
  H  H215  1  0.969000  0.953000  0.627000  1.0  0.0982
  H  H216  1  0.905300  0.861000  0.288800  1.0  0.0769
  H  H217  1  0.971300  0.853200  0.290700  1.0  0.1217
  H  H218  1  0.025800  0.841500  0.175300  1.0  0.0929
  H  H219  1  0.026600  0.830700  0.949000  1.0  0.0954
  H  H220  1  0.972500  0.833400  0.827600  1.0  0.105
  H  H221  1  0.773600  0.923400  0.971500  1.0  0.0782
  H  H222  1  0.738700  0.926900  0.772100  1.0  0.0879
  H  H223  1  0.729800  0.915400  0.544800  1.0  0.1124
  H  H224  1  0.776100  0.886200  0.425700  1.0  0.0879
  H  H225  1  0.829800  0.869500  0.525300  1.0  0.0908
  H  H226  1  0.823600  0.855200  0.227000  1.0  0.0877
  H  H227  1  0.846800  0.884300  0.310100  1.0  0.0699
  H  H228  1  0.831900  0.931000  0.168900  1.0  0.0962
  H  H229  1  0.794300  0.909100  0.185000  1.0  0.0675
  H  H230  1  0.413900  0.447800  0.602000  1.0  0.0709
  H  H231  1  0.408800  0.418200  0.227300  1.0  0.096
  H  H232  1  0.574000  0.449600  0.475200  1.0  0.0712
  H  H233  1  0.534400  0.413100  0.138900  1.0  0.0867
  H  H234  1  0.489000  0.580900  0.333200  1.0  0.0393
  H  H235  1  0.459500  0.522200  0.026900  1.0  0.0928
  H  H236  1  0.469000  0.453000  0.127000  1.0  0.0982
  H  H237  1  0.405300  0.361000  0.788800  1.0  0.0769
  H  H238  1  0.471300  0.353200  0.790700  1.0  0.1217
  H  H239  1  0.525800  0.341500  0.675300  1.0  0.0929
  H  H240  1  0.526600  0.330700  0.449000  1.0  0.0954
  H  H241  1  0.472500  0.333400  0.327600  1.0  0.105
  H  H242  1  0.273600  0.423400  0.471500  1.0  0.0782
  H  H243  1  0.238700  0.426900  0.272100  1.0  0.0879
  H  H244  1  0.229800  0.415400  0.044800  1.0  0.1124
  H  H245  1  0.276100  0.386200  0.925700  1.0  0.0879
  H  H246  1  0.329800  0.369500  0.025300  1.0  0.0908
  H  H247  1  0.323600  0.355200  0.727000  1.0  0.0877
  H  H248  1  0.346800  0.384300  0.810100  1.0  0.0699
  H  H249  1  0.331900  0.431000  0.668900  1.0  0.0962
  H  H250  1  0.294300  0.409100  0.685000  1.0  0.0675
  H  H251  1  0.586100  0.052200  0.602000  1.0  0.0708
  H  H252  1  0.591200  0.081800  0.227300  1.0  0.096
  H  H253  1  0.426000  0.050400  0.475200  1.0  0.0708
  H  H254  1  0.465600  0.086900  0.138900  1.0  0.0871
  H  H255  1  0.511000  0.919100  0.333200  1.0  0.0392
  H  H256  1  0.540500  0.977800  0.026900  1.0  0.0932
  H  H257  1  0.531000  0.047000  0.127000  1.0  0.0986
  H  H258  1  0.594700  0.139000  0.788800  1.0  0.0771
  H  H259  1  0.528700  0.146800  0.790700  1.0  0.1215
  H  H260  1  0.474200  0.158500  0.675300  1.0  0.0931
  H  H261  1  0.473400  0.169300  0.449000  1.0  0.0956
  H  H262  1  0.527500  0.166600  0.327600  1.0  0.1052
  H  H263  1  0.726400  0.076600  0.471500  1.0  0.0788
  H  H264  1  0.761300  0.073100  0.272100  1.0  0.0882
  H  H265  1  0.770200  0.084600  0.044800  1.0  0.113
  H  H266  1  0.723900  0.113800  0.925700  1.0  0.0882
  H  H267  1  0.670200  0.130500  0.025300  1.0  0.0911
  H  H268  1  0.676400  0.144800  0.727000  1.0  0.0868
  H  H269  1  0.653200  0.115700  0.810100  1.0  0.0702
  H  H270  1  0.668100  0.069000  0.668900  1.0  0.0959
  H  H271  1  0.705700  0.090900  0.685000  1.0  0.0671
  H  H272  1  0.086100  0.552200  0.102000  1.0  0.0708
  H  H273  1  0.091200  0.581800  0.727300  1.0  0.0961
  H  H274  1  0.926000  0.550400  0.975200  1.0  0.0708
  H  H275  1  0.965600  0.586900  0.638900  1.0  0.0871
  H  H276  1  0.011000  0.419100  0.833200  1.0  0.0392
  H  H277  1  0.040500  0.477800  0.526900  1.0  0.0932
  H  H278  1  0.031000  0.547000  0.627000  1.0  0.0986
  H  H279  1  0.094700  0.639000  0.288800  1.0  0.0771
  H  H280  1  0.028700  0.646800  0.290700  1.0  0.1215
  H  H281  1  0.974200  0.658500  0.175300  1.0  0.0931
  H  H282  1  0.973400  0.669300  0.949000  1.0  0.096
  H  H283  1  0.027500  0.666667  0.827600  1.0  0.1051
  H  H284  1  0.226400  0.576600  0.971500  1.0  0.0788
  H  H285  1  0.261300  0.573100  0.772100  1.0  0.0882
  H  H286  1  0.270200  0.584600  0.544800  1.0  0.113
  H  H287  1  0.223900  0.613800  0.425700  1.0  0.0882
  H  H288  1  0.170200  0.630500  0.525300  1.0  0.0911
  H  H289  1  0.176400  0.644800  0.227000  1.0  0.0868
  H  H290  1  0.153200  0.615700  0.310100  1.0  0.0702
  H  H291  1  0.168100  0.569000  0.168900  1.0  0.0959
  H  H292  1  0.205700  0.590900  0.185000  1.0  0.0671
  H  H293  1  0.302200  0.663900  0.852000  1.0  0.0712
  H  H294  1  0.331800  0.658800  0.477300  1.0  0.0955
  H  H295  1  0.300400  0.824000  0.725200  1.0  0.0707
  H  H296  1  0.336900  0.784400  0.388900  1.0  0.0863
  H  H297  1  0.169100  0.739000  0.583200  1.0  0.0399
  H  H298  1  0.227800  0.709500  0.276900  1.0  0.0928
  H  H299  1  0.297000  0.719000  0.377000  1.0  0.0982
  H  H300  1  0.389000  0.655300  0.038800  1.0  0.0767
  H  H301  1  0.396800  0.721300  0.040700  1.0  0.1209
  H  H302  1  0.408500  0.775800  0.925300  1.0  0.0926
  H  H303  1  0.419300  0.776600  0.699000  1.0  0.0955
  H  H304  1  0.416600  0.722500  0.577600  1.0  0.1054
  H  H305  1  0.326600  0.523600  0.721500  1.0  0.0783
  H  H306  1  0.323100  0.488700  0.522100  1.0  0.0874
  H  H307  1  0.334600  0.479800  0.294800  1.0  0.1145
  H  H308  1  0.363800  0.526100  0.175700  1.0  0.0872
  H  H309  1  0.380500  0.579800  0.275300  1.0  0.0902
  H  H310  1  0.394800  0.573600  0.977000  1.0  0.0841
  H  H311  1  0.365700  0.596800  0.060100  1.0  0.0695
  H  H312  1  0.319000  0.581900  0.918900  1.0  0.0969
  H  H313  1  0.340900  0.544300  0.935000  1.0  0.0638
  H  H314  1  0.802200  0.163900  0.352000  1.0  0.0712
  H  H315  1  0.831800  0.158800  0.977300  1.0  0.0955
  H  H316  1  0.800400  0.324000  0.225200  1.0  0.0707
  H  H317  1  0.836900  0.284400  0.888900  1.0  0.0863
  H  H318  1  0.669100  0.239000  0.083200  1.0  0.0399
  H  H319  1  0.727800  0.209500  0.776900  1.0  0.0928
  H  H320  1  0.797000  0.219000  0.877000  1.0  0.0982
  H  H321  1  0.889000  0.155300  0.538800  1.0  0.0767
  H  H322  1  0.896800  0.221300  0.540700  1.0  0.1209
  H  H323  1  0.908500  0.275800  0.425300  1.0  0.0926
  H  H324  1  0.919300  0.276600  0.199000  1.0  0.0955
  H  H325  1  0.916600  0.222500  0.077600  1.0  0.1054
  H  H326  1  0.826600  0.023600  0.221500  1.0  0.0783
  H  H327  1  0.823100  0.988700  0.022100  1.0  0.0874
  H  H328  1  0.834600  0.979800  0.794800  1.0  0.1145
  H  H329  1  0.863800  0.026100  0.675700  1.0  0.0872
  H  H330  1  0.880500  0.079800  0.775300  1.0  0.0902
  H  H331  1  0.894800  0.073600  0.477000  1.0  0.0841
  H  H332  1  0.865700  0.096800  0.560100  1.0  0.0695
  H  H333  1  0.819000  0.081900  0.418900  1.0  0.0969
  H  H334  1  0.840900  0.044300  0.435000  1.0  0.0638
  H  H335  1  0.197800  0.336100  0.352000  1.0  0.0714
  H  H336  1  0.168200  0.341200  0.977300  1.0  0.0953
  H  H337  1  0.199600  0.176000  0.225200  1.0  0.0706
  H  H338  1  0.163100  0.215600  0.888900  1.0  0.0859
  H  H339  1  0.330900  0.261000  0.083200  1.0  0.0407
  H  H340  1  0.272200  0.290500  0.776900  1.0  0.0928
  H  H341  1  0.203000  0.281000  0.877000  1.0  0.0981
  H  H342  1  0.111000  0.344700  0.538800  1.0  0.077
  H  H343  1  0.103200  0.278700  0.540700  1.0  0.122
  H  H344  1  0.091500  0.224200  0.425300  1.0  0.093
  H  H345  1  0.080700  0.223400  0.199000  1.0  0.0951
  H  H346  1  0.083400  0.277500  0.077600  1.0  0.1058
  H  H347  1  0.173400  0.476400  0.221500  1.0  0.0787
  H  H348  1  0.176900  0.511300  0.022100  1.0  0.0876
  H  H349  1  0.165400  0.520200  0.794800  1.0  0.1149
  H  H350  1  0.136200  0.473900  0.675700  1.0  0.0878
  H  H351  1  0.119500  0.420200  0.775300  1.0  0.0897
  H  H352  1  0.105200  0.426400  0.477000  1.0  0.0823
  H  H353  1  0.134300  0.403200  0.560100  1.0  0.0703
  H  H354  1  0.181000  0.418100  0.418900  1.0  0.099
  H  H355  1  0.159100  0.455700  0.435000  1.0  0.0649
  H  H356  1  0.697800  0.836100  0.852000  1.0  0.0714
  H  H357  1  0.668200  0.841200  0.477300  1.0  0.0953
  H  H358  1  0.699600  0.676000  0.725200  1.0  0.0706
  H  H359  1  0.663100  0.715600  0.388900  1.0  0.0859
  H  H360  1  0.830900  0.761000  0.583200  1.0  0.0407
  H  H361  1  0.772200  0.790500  0.276900  1.0  0.0928
  H  H362  1  0.703000  0.781000  0.377000  1.0  0.0981
  H  H363  1  0.611000  0.844700  0.038800  1.0  0.077
  H  H364  1  0.603200  0.778700  0.040700  1.0  0.122
  H  H365  1  0.591500  0.724200  0.925300  1.0  0.093
  H  H366  1  0.580700  0.723400  0.699000  1.0  0.0952
  H  H367  1  0.583400  0.777500  0.577600  1.0  0.1058
  H  H368  1  0.673400  0.976400  0.721500  1.0  0.0787
  H  H369  1  0.676900  0.011300  0.522100  1.0  0.0876
  H  H370  1  0.665400  0.020200  0.294800  1.0  0.1149
  H  H371  1  0.636200  0.973900  0.175700  1.0  0.0878
  H  H372  1  0.619500  0.920200  0.275300  1.0  0.0897
  H  H373  1  0.605200  0.926400  0.977000  1.0  0.0823
  H  H374  1  0.634300  0.903200  0.060100  1.0  0.0703
  H  H375  1  0.681000  0.918100  0.918900  1.0  0.099
  H  H376  1  0.659100  0.955700  0.935000  1.0  0.0649
  C  C377  1  0.080550  0.054720  0.989200  1.0  0.2947
  C  C378  1  0.083660  0.071090  0.191800  1.0  0.1634
  C  C379  1  0.941500  0.054190  0.098500  1.0  0.2489
  C  C380  1  0.962720  0.074040  0.280200  1.0  0.1838
  C  C381  1  0.016700  0.939380  0.221100  1.0  0.2846
  C  C382  1  0.032590  0.970690  0.387600  1.0  0.1831
  C  C383  1  0.096000  0.139700  0.804900  1.0  0.0963
  C  C384  1  0.062700  0.148800  0.876700  1.0  -0.0839
  C  C385  1  0.029000  0.150500  0.802200  1.0  -0.1895
  C  C386  1  0.996500  0.157800  0.872000  1.0  -0.0943
  C  C387  1  0.995800  0.164000  0.008000  1.0  -0.1187
  C  C388  1  0.028100  0.162600  0.079700  1.0  -0.1777
  C  C389  1  0.061800  0.155200  0.016700  1.0  0.2917
  C  C390  1  0.207090  0.089300  0.070200  1.0  0.0385
  C  C391  1  0.209800  0.094300  0.213800  1.0  -0.0707
  C  C392  1  0.242600  0.084600  0.277500  1.0  -0.1306
  C  C393  1  0.248200  0.091500  0.412800  1.0  -0.15
  C  C394  1  0.220500  0.108800  0.483000  1.0  -0.1178
  C  C395  1  0.188400  0.118800  0.423400  1.0  -0.2186
  C  C396  1  0.181500  0.112000  0.287300  1.0  0.3498
  C  C397  1  0.160300  0.123300  0.780200  1.0  -0.0542
  C  C398  1  0.180500  0.092500  0.848400  1.0  -0.0386
  C  C399  1  0.580550  0.554720  0.489200  1.0  0.2947
  C  C400  1  0.583660  0.571090  0.691800  1.0  0.1635
  C  C401  1  0.441500  0.554190  0.598500  1.0  0.249
  C  C402  1  0.462720  0.574040  0.780200  1.0  0.1838
  C  C403  1  0.516700  0.439380  0.721100  1.0  0.2846
  C  C404  1  0.532590  0.470690  0.887600  1.0  0.1831
  C  C405  1  0.596000  0.639700  0.304900  1.0  0.0963
  C  C406  1  0.562700  0.648800  0.376700  1.0  -0.0839
  C  C407  1  0.529000  0.650500  0.302200  1.0  -0.1894
  C  C408  1  0.496500  0.657800  0.372000  1.0  -0.0943
  C  C409  1  0.495800  0.664000  0.508000  1.0  -0.1186
  C  C410  1  0.528100  0.662600  0.579700  1.0  -0.1782
  C  C411  1  0.561800  0.655200  0.516700  1.0  0.2917
  C  C412  1  0.707090  0.589300  0.570200  1.0  0.0385
  C  C413  1  0.709800  0.594300  0.713800  1.0  -0.0707
  C  C414  1  0.742600  0.584600  0.777500  1.0  -0.1306
  C  C415  1  0.748200  0.591500  0.912800  1.0  -0.15
  C  C416  1  0.720500  0.608800  0.983000  1.0  -0.1178
  C  C417  1  0.688400  0.618800  0.923400  1.0  -0.2186
  C  C418  1  0.681500  0.612000  0.787300  1.0  0.3498
  C  C419  1  0.660300  0.623300  0.280200  1.0  -0.0542
  C  C420  1  0.680500  0.592500  0.348400  1.0  -0.0386
  C  C421  1  0.419450  0.945280  0.489200  1.0  0.2948
  C  C422  1  0.416340  0.928910  0.691800  1.0  0.1636
  C  C423  1  0.558500  0.945810  0.598500  1.0  0.2489
  C  C424  1  0.537280  0.925960  0.780200  1.0  0.1848
  C  C425  1  0.483300  0.060620  0.721100  1.0  0.2842
  C  C426  1  0.467410  0.029310  0.887600  1.0  0.183
  C  C427  1  0.404000  0.860300  0.304900  1.0  0.0964
  C  C428  1  0.437300  0.851200  0.376700  1.0  -0.0845
  C  C429  1  0.471000  0.849500  0.302200  1.0  -0.1899
  C  C430  1  0.503500  0.842200  0.372000  1.0  -0.093
  C  C431  1  0.504200  0.836000  0.508000  1.0  -0.1169
  C  C432  1  0.471900  0.837400  0.579700  1.0  -0.1784
  C  C433  1  0.438200  0.844800  0.516700  1.0  0.2921
  C  C434  1  0.292910  0.910700  0.570200  1.0  0.0353
  C  C435  1  0.290200  0.905700  0.713800  1.0  -0.07
  C  C436  1  0.257400  0.915400  0.777500  1.0  -0.1315
  C  C437  1  0.251800  0.908500  0.912800  1.0  -0.152
  C  C438  1  0.279500  0.891200  0.983000  1.0  -0.1182
  C  C439  1  0.311600  0.881200  0.923400  1.0  -0.2174
  C  C440  1  0.318500  0.888000  0.787300  1.0  0.3492
  C  C441  1  0.339700  0.876700  0.280200  1.0  -0.0547
  C  C442  1  0.319500  0.907500  0.348400  1.0  -0.0375
  C  C443  1  0.919450  0.445280  0.989200  1.0  0.2948
  C  C444  1  0.916340  0.428910  0.191800  1.0  0.1636
  C  C445  1  0.058500  0.445810  0.098500  1.0  0.2489
  C  C446  1  0.037280  0.425960  0.280200  1.0  0.1848
  C  C447  1  0.983300  0.560620  0.221100  1.0  0.2842
  C  C448  1  0.967410  0.529310  0.387600  1.0  0.183
  C  C449  1  0.904000  0.360300  0.804900  1.0  0.0964
  C  C450  1  0.937300  0.351200  0.876700  1.0  -0.0845
  C  C451  1  0.971000  0.349500  0.802200  1.0  -0.1899
  C  C452  1  0.003500  0.342200  0.872000  1.0  -0.093
  C  C453  1  0.004200  0.336000  0.008000  1.0  -0.1169
  C  C454  1  0.971900  0.337400  0.079700  1.0  -0.1784
  C  C455  1  0.938200  0.344800  0.016700  1.0  0.2921
  C  C456  1  0.792910  0.410700  0.070200  1.0  0.0353
  C  C457  1  0.790200  0.405700  0.213800  1.0  -0.07
  C  C458  1  0.757400  0.415400  0.277500  1.0  -0.1315
  C  C459  1  0.751800  0.408500  0.412800  1.0  -0.152
  C  C460  1  0.779500  0.391200  0.483000  1.0  -0.1182
  C  C461  1  0.811600  0.381200  0.423400  1.0  -0.2174
  C  C462  1  0.818500  0.388000  0.287300  1.0  0.3492
  C  C463  1  0.839700  0.376700  0.780200  1.0  -0.0547
  C  C464  1  0.819500  0.407500  0.848400  1.0  -0.0375
  C  C465  1  0.695280  0.330550  0.239200  1.0  0.2947
  C  C466  1  0.678910  0.333660  0.441800  1.0  0.1616
  C  C467  1  0.695810  0.191500  0.348500  1.0  0.2494
  C  C468  1  0.675960  0.212720  0.530200  1.0  0.1849
  C  C469  1  0.810620  0.266700  0.471100  1.0  0.2875
  C  C470  1  0.779310  0.282590  0.637600  1.0  0.1828
  C  C471  1  0.610300  0.346000  0.054900  1.0  0.0961
  C  C472  1  0.601200  0.312700  0.126700  1.0  -0.084
  C  C473  1  0.599500  0.279000  0.052200  1.0  -0.1881
  C  C474  1  0.592200  0.246500  0.122000  1.0  -0.0912
  C  C475  1  0.586000  0.245800  0.258000  1.0  -0.1152
  C  C476  1  0.587400  0.278100  0.329700  1.0  -0.1773
  C  C477  1  0.594800  0.311800  0.266700  1.0  0.2895
  C  C478  1  0.660700  0.457090  0.320200  1.0  0.0384
  C  C479  1  0.655700  0.459800  0.463800  1.0  -0.0692
  C  C480  1  0.665400  0.492600  0.527500  1.0  -0.1333
  C  C481  1  0.658500  0.498200  0.662800  1.0  -0.1492
  C  C482  1  0.641200  0.470500  0.733000  1.0  -0.1197
  C  C483  1  0.631200  0.438400  0.673400  1.0  -0.2191
  C  C484  1  0.638000  0.431500  0.537300  1.0  0.3479
  C  C485  1  0.626700  0.410300  0.030200  1.0  -0.0563
  C  C486  1  0.657500  0.430500  0.098400  1.0  -0.038
  C  C487  1  0.195280  0.830550  0.739200  1.0  0.2947
  C  C488  1  0.178910  0.833660  0.941800  1.0  0.1616
  C  C489  1  0.195810  0.691500  0.848500  1.0  0.2494
  C  C490  1  0.175960  0.712720  0.030200  1.0  0.1849
  C  C491  1  0.310620  0.766700  0.971100  1.0  0.2875
  C  C492  1  0.279310  0.782590  0.137600  1.0  0.1828
  C  C493  1  0.110300  0.846000  0.554900  1.0  0.0961
  C  C494  1  0.101200  0.812700  0.626700  1.0  -0.084
  C  C495  1  0.099500  0.779000  0.552200  1.0  -0.1881
  C  C496  1  0.092200  0.746500  0.622000  1.0  -0.0912
  C  C497  1  0.086000  0.745800  0.758000  1.0  -0.1147
  C  C498  1  0.087400  0.778100  0.829700  1.0  -0.1772
  C  C499  1  0.094800  0.811800  0.766700  1.0  0.2895
  C  C500  1  0.160700  0.957090  0.820200  1.0  0.0384
  C  C501  1  0.155700  0.959800  0.963800  1.0  -0.0692
  C  C502  1  0.165400  0.992600  0.027500  1.0  -0.1333
  C  C503  1  0.158500  0.998200  0.162800  1.0  -0.1492
  C  C504  1  0.141200  0.970500  0.233000  1.0  -0.1197
  C  C505  1  0.131200  0.938400  0.173400  1.0  -0.2191
  C  C506  1  0.138000  0.931500  0.037300  1.0  0.3479
  C  C507  1  0.126700  0.910300  0.530200  1.0  -0.0563
  C  C508  1  0.157500  0.930500  0.598400  1.0  -0.038
  C  C509  1  0.804720  0.669450  0.739200  1.0  0.2949
  C  C510  1  0.821090  0.666340  0.941800  1.0  0.1625
  C  C511  1  0.804190  0.808500  0.848500  1.0  0.2483
  C  C512  1  0.824040  0.787280  0.030200  1.0  0.1855
  C  C513  1  0.689380  0.733300  0.971100  1.0  0.2885
  C  C514  1  0.720690  0.717410  0.137600  1.0  0.1828
  C  C515  1  0.889700  0.654000  0.554900  1.0  0.0961
  C  C516  1  0.898800  0.687300  0.626700  1.0  -0.0847
  C  C517  1  0.900500  0.721000  0.552200  1.0  -0.1884
  C  C518  1  0.907800  0.753500  0.622000  1.0  -0.0883
  C  C519  1  0.914000  0.754200  0.758000  1.0  -0.115
  C  C520  1  0.912600  0.721900  0.829700  1.0  -0.1776
  C  C521  1  0.905200  0.688200  0.766700  1.0  0.2921
  C  C522  1  0.839300  0.542910  0.820200  1.0  0.0353
  C  C523  1  0.844300  0.540200  0.963800  1.0  -0.0689
  C  C524  1  0.834600  0.507400  0.027500  1.0  -0.1325
  C  C525  1  0.841500  0.501800  0.162800  1.0  -0.1504
  C  C526  1  0.858800  0.529500  0.233000  1.0  -0.1196
  C  C527  1  0.868800  0.561600  0.173400  1.0  -0.2193
  C  C528  1  0.862000  0.568500  0.037300  1.0  0.3463
  C  C529  1  0.873300  0.589700  0.530200  1.0  -0.055
  C  C530  1  0.842500  0.569500  0.598400  1.0  -0.0366
  C  C531  1  0.304720  0.169450  0.239200  1.0  0.2949
  C  C532  1  0.321090  0.166340  0.441800  1.0  0.1625
  C  C533  1  0.304190  0.308500  0.348500  1.0  0.2483
  C  C534  1  0.324040  0.287280  0.530200  1.0  0.1855
  C  C535  1  0.189380  0.233300  0.471100  1.0  0.2885
  C  C536  1  0.220690  0.217410  0.637600  1.0  0.1828
  C  C537  1  0.389700  0.154000  0.054900  1.0  0.0961
  C  C538  1  0.398800  0.187300  0.126700  1.0  -0.0847
  C  C539  1  0.400500  0.221000  0.052200  1.0  -0.1884
  C  C540  1  0.407800  0.253500  0.122000  1.0  -0.0884
  C  C541  1  0.414000  0.254200  0.258000  1.0  -0.1151
  C  C542  1  0.412600  0.221900  0.329700  1.0  -0.1776
  C  C543  1  0.405200  0.188200  0.266700  1.0  0.2921
  C  C544  1  0.339300  0.042910  0.320200  1.0  0.0353
  C  C545  1  0.344300  0.040200  0.463800  1.0  -0.0689
  C  C546  1  0.334600  0.007400  0.527500  1.0  -0.1325
  C  C547  1  0.341500  0.001800  0.662800  1.0  -0.1504
  C  C548  1  0.358800  0.029500  0.733000  1.0  -0.1196
  C  C549  1  0.368800  0.061600  0.673400  1.0  -0.2193
  C  C550  1  0.362000  0.068500  0.537300  1.0  0.3463
  C  C551  1  0.373300  0.089700  0.030200  1.0  -0.055
  C  C552  1  0.342500  0.069500  0.098400  1.0  -0.0366
  C  C553  1  0.919450  0.945280  0.010800  1.0  0.2947
  C  C554  1  0.916340  0.928910  0.808200  1.0  0.1647
  C  C555  1  0.058500  0.945810  0.901500  1.0  0.249
  C  C556  1  0.037280  0.925960  0.719800  1.0  0.1838
  C  C557  1  0.983300  0.060620  0.778900  1.0  0.2818
  C  C558  1  0.967410  0.029310  0.612400  1.0  0.1832
  C  C559  1  0.904000  0.860300  0.195100  1.0  0.0952
  C  C560  1  0.937300  0.851200  0.123300  1.0  -0.0856
  C  C561  1  0.971000  0.849500  0.197800  1.0  -0.1881
  C  C562  1  0.003500  0.842200  0.128000  1.0  -0.0924
  C  C563  1  0.004200  0.836000  0.992000  1.0  -0.1185
  C  C564  1  0.971900  0.837400  0.920300  1.0  -0.1768
  C  C565  1  0.938200  0.844800  0.983300  1.0  0.2923
  C  C566  1  0.792910  0.910700  0.929800  1.0  0.0354
  C  C567  1  0.790200  0.905700  0.786200  1.0  -0.0703
  C  C568  1  0.757400  0.915400  0.722500  1.0  -0.1319
  C  C569  1  0.751800  0.908500  0.587200  1.0  -0.1514
  C  C570  1  0.779500  0.891200  0.517000  1.0  -0.119
  C  C571  1  0.811600  0.881200  0.576600  1.0  -0.218
  C  C572  1  0.818500  0.888000  0.712700  1.0  0.3493
  C  C573  1  0.839700  0.876700  0.219800  1.0  -0.0551
  C  C574  1  0.819500  0.907500  0.151600  1.0  -0.0373
  C  C575  1  0.419450  0.445280  0.510800  1.0  0.2947
  C  C576  1  0.416340  0.428910  0.308200  1.0  0.1647
  C  C577  1  0.558500  0.445810  0.401500  1.0  0.249
  C  C578  1  0.537280  0.425960  0.219800  1.0  0.1838
  C  C579  1  0.483300  0.560620  0.278900  1.0  0.2818
  C  C580  1  0.467410  0.529310  0.112400  1.0  0.1832
  C  C581  1  0.404000  0.360300  0.695100  1.0  0.0952
  C  C582  1  0.437300  0.351200  0.623300  1.0  -0.0856
  C  C583  1  0.471000  0.349500  0.697800  1.0  -0.1881
  C  C584  1  0.503500  0.342200  0.628000  1.0  -0.0924
  C  C585  1  0.504200  0.336000  0.492000  1.0  -0.1185
  C  C586  1  0.471900  0.337400  0.420300  1.0  -0.1768
  C  C587  1  0.438200  0.344800  0.483300  1.0  0.2923
  C  C588  1  0.292910  0.410700  0.429800  1.0  0.0354
  C  C589  1  0.290200  0.405700  0.286200  1.0  -0.0703
  C  C590  1  0.257400  0.415400  0.222500  1.0  -0.1319
  C  C591  1  0.251800  0.408500  0.087200  1.0  -0.1514
  C  C592  1  0.279500  0.391200  0.017000  1.0  -0.119
  C  C593  1  0.311600  0.381200  0.076600  1.0  -0.218
  C  C594  1  0.318500  0.388000  0.212700  1.0  0.3493
  C  C595  1  0.339700  0.376700  0.719800  1.0  -0.0551
  C  C596  1  0.319500  0.407500  0.651600  1.0  -0.0373
  C  C597  1  0.580550  0.054720  0.510800  1.0  0.2953
  C  C598  1  0.583660  0.071090  0.308200  1.0  0.1641
  C  C599  1  0.441500  0.054190  0.401500  1.0  0.2489
  C  C600  1  0.462720  0.074040  0.219800  1.0  0.1841
  C  C601  1  0.516700  0.939380  0.278900  1.0  0.2823
  C  C602  1  0.532590  0.970690  0.112400  1.0  0.1827
  C  C603  1  0.596000  0.139700  0.695100  1.0  0.0958
  C  C604  1  0.562700  0.148800  0.623300  1.0  -0.0851
  C  C605  1  0.529000  0.150500  0.697800  1.0  -0.1874
  C  C606  1  0.496500  0.157800  0.628000  1.0  -0.0941
  C  C607  1  0.495800  0.164000  0.492000  1.0  -0.1198
  C  C608  1  0.528100  0.162600  0.420300  1.0  -0.176
  C  C609  1  0.561800  0.155200  0.483300  1.0  0.292
  C  C610  1  0.707090  0.089300  0.429800  1.0  0.0382
  C  C611  1  0.709800  0.094300  0.286200  1.0  -0.071
  C  C612  1  0.742600  0.084600  0.222500  1.0  -0.1307
  C  C613  1  0.748200  0.091500  0.087200  1.0  -0.1503
  C  C614  1  0.720500  0.108800  0.017000  1.0  -0.1188
  C  C615  1  0.688400  0.118800  0.076600  1.0  -0.2193
  C  C616  1  0.681500  0.112000  0.212700  1.0  0.3495
  C  C617  1  0.660300  0.123300  0.719800  1.0  -0.0543
  C  C618  1  0.680500  0.092500  0.651600  1.0  -0.0373
  C  C619  1  0.080550  0.554720  0.010800  1.0  0.2953
  C  C620  1  0.083660  0.571090  0.808200  1.0  0.1642
  C  C621  1  0.941500  0.554190  0.901500  1.0  0.2491
  C  C622  1  0.962720  0.574040  0.719800  1.0  0.1841
  C  C623  1  0.016700  0.439380  0.778900  1.0  0.2823
  C  C624  1  0.032590  0.470690  0.612400  1.0  0.1827
  C  C625  1  0.096000  0.639700  0.195100  1.0  0.0958
  C  C626  1  0.062700  0.648800  0.123300  1.0  -0.0851
  C  C627  1  0.029000  0.650500  0.197800  1.0  -0.1874
  C  C628  1  0.996500  0.657800  0.128000  1.0  -0.0941
  C  C629  1  0.995800  0.664000  0.992000  1.0  -0.1197
  C  C630  1  0.028100  0.662600  0.920300  1.0  -0.1764
  C  C631  1  0.061800  0.655200  0.983300  1.0  0.292
  C  C632  1  0.207090  0.589300  0.929800  1.0  0.0382
  C  C633  1  0.209800  0.594300  0.786200  1.0  -0.071
  C  C634  1  0.242600  0.584600  0.722500  1.0  -0.1307
  C  C635  1  0.248200  0.591500  0.587200  1.0  -0.1503
  C  C636  1  0.220500  0.608800  0.517000  1.0  -0.1188
  C  C637  1  0.188400  0.618800  0.576600  1.0  -0.2193
  C  C638  1  0.181500  0.612000  0.712700  1.0  0.3495
  C  C639  1  0.160300  0.623300  0.219800  1.0  -0.0543
  C  C640  1  0.180500  0.592500  0.151600  1.0  -0.0373
  C  C641  1  0.304720  0.669450  0.760800  1.0  0.2949
  C  C642  1  0.321090  0.666340  0.558200  1.0  0.1629
  C  C643  1  0.304190  0.808500  0.651500  1.0  0.2484
  C  C644  1  0.324040  0.787280  0.469800  1.0  0.1853
  C  C645  1  0.189380  0.733300  0.528900  1.0  0.2857
  C  C646  1  0.220690  0.717410  0.362400  1.0  0.1825
  C  C647  1  0.389700  0.654000  0.945100  1.0  0.096
  C  C648  1  0.398800  0.687300  0.873300  1.0  -0.0855
  C  C649  1  0.400500  0.721000  0.947800  1.0  -0.1859
  C  C650  1  0.407800  0.753500  0.878000  1.0  -0.0883
  C  C651  1  0.414000  0.754200  0.742000  1.0  -0.116
  C  C652  1  0.412600  0.721900  0.670300  1.0  -0.176
  C  C653  1  0.405200  0.688200  0.733300  1.0  0.292
  C  C654  1  0.339300  0.542910  0.679800  1.0  0.0352
  C  C655  1  0.344300  0.540200  0.536200  1.0  -0.0692
  C  C656  1  0.334600  0.507400  0.472500  1.0  -0.1332
  C  C657  1  0.341500  0.501800  0.337200  1.0  -0.1503
  C  C658  1  0.358800  0.529500  0.267000  1.0  -0.1209
  C  C659  1  0.368800  0.561600  0.326600  1.0  -0.2199
  C  C660  1  0.362000  0.568500  0.462700  1.0  0.3465
  C  C661  1  0.373300  0.589700  0.969800  1.0  -0.0559
  C  C662  1  0.342500  0.569500  0.901600  1.0  -0.0361
  C  C663  1  0.804720  0.169450  0.260800  1.0  0.2949
  C  C664  1  0.821090  0.166340  0.058200  1.0  0.1629
  C  C665  1  0.804190  0.308500  0.151500  1.0  0.2484
  C  C666  1  0.824040  0.287280  0.969800  1.0  0.1853
  C  C667  1  0.689380  0.233300  0.028900  1.0  0.2857
  C  C668  1  0.720690  0.217410  0.862400  1.0  0.1825
  C  C669  1  0.889700  0.154000  0.445100  1.0  0.096
  C  C670  1  0.898800  0.187300  0.373300  1.0  -0.0855
  C  C671  1  0.900500  0.221000  0.447800  1.0  -0.1859
  C  C672  1  0.907800  0.253500  0.378000  1.0  -0.0884
  C  C673  1  0.914000  0.254200  0.242000  1.0  -0.1161
  C  C674  1  0.912600  0.221900  0.170300  1.0  -0.1761
  C  C675  1  0.905200  0.188200  0.233300  1.0  0.292
  C  C676  1  0.839300  0.042910  0.179800  1.0  0.0352
  C  C677  1  0.844300  0.040200  0.036200  1.0  -0.0692
  C  C678  1  0.834600  0.007400  0.972500  1.0  -0.1332
  C  C679  1  0.841500  0.001800  0.837200  1.0  -0.1503
  C  C680  1  0.858800  0.029500  0.767000  1.0  -0.1209
  C  C681  1  0.868800  0.061600  0.826600  1.0  -0.2199
  C  C682  1  0.862000  0.068500  0.962700  1.0  0.3465
  C  C683  1  0.873300  0.089700  0.469800  1.0  -0.0559
  C  C684  1  0.842500  0.069500  0.401600  1.0  -0.0361
  C  C685  1  0.195280  0.330550  0.260800  1.0  0.2952
  C  C686  1  0.178910  0.333660  0.058200  1.0  0.1634
  C  C687  1  0.195810  0.191500  0.151500  1.0  0.2493
  C  C688  1  0.175960  0.212720  0.969800  1.0  0.1848
  C  C689  1  0.310620  0.266700  0.028900  1.0  0.285
  C  C690  1  0.279310  0.282590  0.862400  1.0  0.1828
  C  C691  1  0.110300  0.346000  0.445100  1.0  0.0956
  C  C692  1  0.101200  0.312700  0.373300  1.0  -0.0845
  C  C693  1  0.099500  0.279000  0.447800  1.0  -0.1862
  C  C694  1  0.092200  0.246500  0.378000  1.0  -0.0909
  C  C695  1  0.086000  0.245800  0.242000  1.0  -0.1158
  C  C696  1  0.087400  0.278100  0.170300  1.0  -0.1749
  C  C697  1  0.094800  0.311800  0.233300  1.0  0.29
  C  C698  1  0.160700  0.457090  0.179800  1.0  0.038
  C  C699  1  0.155700  0.459800  0.036200  1.0  -0.0694
  C  C700  1  0.165400  0.492600  0.972500  1.0  -0.1333
  C  C701  1  0.158500  0.498200  0.837200  1.0  -0.1499
  C  C702  1  0.141200  0.470500  0.767000  1.0  -0.1208
  C  C703  1  0.131200  0.438400  0.826600  1.0  -0.2205
  C  C704  1  0.138000  0.431500  0.962700  1.0  0.3481
  C  C705  1  0.126700  0.410300  0.469800  1.0  -0.0559
  C  C706  1  0.157500  0.430500  0.401600  1.0  -0.037
  C  C707  1  0.695280  0.830550  0.760800  1.0  0.2952
  C  C708  1  0.678910  0.833660  0.558200  1.0  0.1634
  C  C709  1  0.695810  0.691500  0.651500  1.0  0.2493
  C  C710  1  0.675960  0.712720  0.469800  1.0  0.1848
  C  C711  1  0.810620  0.766700  0.528900  1.0  0.285
  C  C712  1  0.779310  0.782590  0.362400  1.0  0.1828
  C  C713  1  0.610300  0.846000  0.945100  1.0  0.0956
  C  C714  1  0.601200  0.812700  0.873300  1.0  -0.0845
  C  C715  1  0.599500  0.779000  0.947800  1.0  -0.1862
  C  C716  1  0.592200  0.746500  0.878000  1.0  -0.0909
  C  C717  1  0.586000  0.745800  0.742000  1.0  -0.1153
  C  C718  1  0.587400  0.778100  0.670300  1.0  -0.1748
  C  C719  1  0.594800  0.811800  0.733300  1.0  0.29
  C  C720  1  0.660700  0.957090  0.679800  1.0  0.038
  C  C721  1  0.655700  0.959800  0.536200  1.0  -0.0694
  C  C722  1  0.665400  0.992600  0.472500  1.0  -0.1333
  C  C723  1  0.658500  0.998200  0.337200  1.0  -0.1499
  C  C724  1  0.641200  0.970500  0.267000  1.0  -0.1208
  C  C725  1  0.631200  0.938400  0.326600  1.0  -0.2205
  C  C726  1  0.638000  0.931500  0.462700  1.0  0.3481
  C  C727  1  0.626700  0.910300  0.969800  1.0  -0.0559
  C  C728  1  0.657500  0.930500  0.901600  1.0  -0.037
  N  N729  1  0.052690  0.037640  0.046400  1.0  -0.3443
  N  N730  1  0.054890  0.048720  0.179600  1.0  -0.0082
  N  N731  1  0.100640  0.076470  0.073500  1.0  -0.4447
  N  N732  1  0.973140  0.037450  0.113100  1.0  -0.3034
  N  N733  1  0.987150  0.050310  0.231600  1.0  0.0132
  N  N734  1  0.933300  0.077480  0.199500  1.0  -0.4428
  N  N735  1  0.014120  0.973650  0.178000  1.0  -0.316
  N  N736  1  0.024210  0.994270  0.288200  1.0  0.0072
  N  N737  1  0.028070  0.935640  0.348600  1.0  -0.4006
  N  N738  1  0.127220  0.132640  0.858900  1.0  -0.3269
  N  N739  1  0.180450  0.100640  0.993900  1.0  -0.3696
  N  N740  1  0.552690  0.537640  0.546400  1.0  -0.3443
  N  N741  1  0.554890  0.548720  0.679600  1.0  -0.0081
  N  N742  1  0.600640  0.576470  0.573500  1.0  -0.4447
  N  N743  1  0.473140  0.537450  0.613100  1.0  -0.3034
  N  N744  1  0.487150  0.550310  0.731600  1.0  0.0132
  N  N745  1  0.433300  0.577480  0.699500  1.0  -0.4428
  N  N746  1  0.514120  0.473650  0.678000  1.0  -0.316
  N  N747  1  0.524210  0.494270  0.788200  1.0  0.0072
  N  N748  1  0.528070  0.435640  0.848600  1.0  -0.4006
  N  N749  1  0.627220  0.632640  0.358900  1.0  -0.3269
  N  N750  1  0.680450  0.600640  0.493900  1.0  -0.3696
  N  N751  1  0.447310  0.962360  0.546400  1.0  -0.343
  N  N752  1  0.445110  0.951280  0.679600  1.0  -0.0089
  N  N753  1  0.399360  0.923530  0.573500  1.0  -0.4433
  N  N754  1  0.526860  0.962550  0.613100  1.0  -0.3035
  N  N755  1  0.512850  0.949690  0.731600  1.0  0.0124
  N  N756  1  0.566700  0.922520  0.699500  1.0  -0.4424
  N  N757  1  0.485880  0.026350  0.678000  1.0  -0.3151
  N  N758  1  0.475790  0.005730  0.788200  1.0  0.0073
  N  N759  1  0.471930  0.064360  0.848600  1.0  -0.4028
  N  N760  1  0.372780  0.867360  0.358900  1.0  -0.3277
  N  N761  1  0.319550  0.899360  0.493900  1.0  -0.3699
  N  N762  1  0.947310  0.462360  0.046400  1.0  -0.343
  N  N763  1  0.945110  0.451280  0.179600  1.0  -0.0089
  N  N764  1  0.899360  0.423530  0.073500  1.0  -0.4433
  N  N765  1  0.026860  0.462550  0.113100  1.0  -0.3035
  N  N766  1  0.012850  0.449690  0.231600  1.0  0.0124
  N  N767  1  0.066700  0.422520  0.199500  1.0  -0.4424
  N  N768  1  0.985880  0.526350  0.178000  1.0  -0.3151
  N  N769  1  0.975790  0.505730  0.288200  1.0  0.0073
  N  N770  1  0.971930  0.564360  0.348600  1.0  -0.4028
  N  N771  1  0.872780  0.367360  0.858900  1.0  -0.3277
  N  N772  1  0.819550  0.399360  0.993900  1.0  -0.3699
  N  N773  1  0.712360  0.302690  0.296400  1.0  -0.3435
  N  N774  1  0.701280  0.304890  0.429600  1.0  -0.0093
  N  N775  1  0.673530  0.350640  0.323500  1.0  -0.4446
  N  N776  1  0.712550  0.223140  0.363100  1.0  -0.3036
  N  N777  1  0.699690  0.237150  0.481600  1.0  0.0128
  N  N778  1  0.672520  0.183300  0.449500  1.0  -0.4432
  N  N779  1  0.776350  0.264120  0.428000  1.0  -0.3162
  N  N780  1  0.755730  0.274210  0.538200  1.0  0.0063
  N  N781  1  0.814360  0.278070  0.598600  1.0  -0.4
  N  N782  1  0.617360  0.377220  0.108900  1.0  -0.3282
  N  N783  1  0.649360  0.430450  0.243900  1.0  -0.3718
  N  N784  1  0.212360  0.802690  0.796400  1.0  -0.3435
  N  N785  1  0.201280  0.804890  0.929600  1.0  -0.0093
  N  N786  1  0.173530  0.850640  0.823500  1.0  -0.4446
  N  N787  1  0.212550  0.723140  0.863100  1.0  -0.3036
  N  N788  1  0.199690  0.737150  0.981600  1.0  0.0128
  N  N789  1  0.172520  0.683300  0.949500  1.0  -0.4432
  N  N790  1  0.276350  0.764120  0.928000  1.0  -0.3162
  N  N791  1  0.255730  0.774210  0.038200  1.0  0.0063
  N  N792  1  0.314360  0.778070  0.098600  1.0  -0.4
  N  N793  1  0.117360  0.877220  0.608900  1.0  -0.3282
  N  N794  1  0.149360  0.930450  0.743900  1.0  -0.3718
  N  N795  1  0.787640  0.697310  0.796400  1.0  -0.3443
  N  N796  1  0.798720  0.695110  0.929600  1.0  -0.0083
  N  N797  1  0.826470  0.649360  0.823500  1.0  -0.4449
  N  N798  1  0.787450  0.776860  0.863100  1.0  -0.3043
  N  N799  1  0.800310  0.762850  0.981600  1.0  0.0128
  N  N800  1  0.827480  0.816700  0.949500  1.0  -0.4433
  N  N801  1  0.723650  0.735880  0.928000  1.0  -0.3168
  N  N802  1  0.744270  0.725790  0.038200  1.0  0.0069
  N  N803  1  0.685640  0.721930  0.098600  1.0  -0.4008
  N  N804  1  0.882640  0.622780  0.608900  1.0  -0.3289
  N  N805  1  0.850640  0.569550  0.743900  1.0  -0.3722
  N  N806  1  0.287640  0.197310  0.296400  1.0  -0.3443
  N  N807  1  0.298720  0.195110  0.429600  1.0  -0.0083
  N  N808  1  0.326470  0.149360  0.323500  1.0  -0.4449
  N  N809  1  0.287450  0.276860  0.363100  1.0  -0.3043
  N  N810  1  0.300310  0.262850  0.481600  1.0  0.0128
  N  N811  1  0.327480  0.316700  0.449500  1.0  -0.4433
  N  N812  1  0.223650  0.235880  0.428000  1.0  -0.3168
  N  N813  1  0.244270  0.225790  0.538200  1.0  0.0069
  N  N814  1  0.185640  0.221930  0.598600  1.0  -0.4008
  N  N815  1  0.382640  0.122780  0.108900  1.0  -0.3289
  N  N816  1  0.350640  0.069550  0.243900  1.0  -0.3722
  N  N817  1  0.947310  0.962360  0.953600  1.0  -0.3436
  N  N818  1  0.945110  0.951280  0.820400  1.0  -0.01
  N  N819  1  0.899360  0.923530  0.926500  1.0  -0.4435
  N  N820  1  0.026860  0.962550  0.886900  1.0  -0.3035
  N  N821  1  0.012850  0.949690  0.768400  1.0  0.0122
  N  N822  1  0.066700  0.922520  0.800500  1.0  -0.4425
  N  N823  1  0.985880  0.026350  0.822000  1.0  -0.3144
  N  N824  1  0.975790  0.005730  0.711800  1.0  0.0067
  N  N825  1  0.971930  0.064360  0.651400  1.0  -0.4027
  N  N826  1  0.872780  0.867360  0.141100  1.0  -0.3269
  N  N827  1  0.819550  0.899360  0.006100  1.0  -0.369
  N  N828  1  0.447310  0.462360  0.453600  1.0  -0.3436
  N  N829  1  0.445110  0.451280  0.320400  1.0  -0.01
  N  N830  1  0.399360  0.423530  0.426500  1.0  -0.4435
  N  N831  1  0.526860  0.462550  0.386900  1.0  -0.3035
  N  N832  1  0.512850  0.449690  0.268400  1.0  0.0122
  N  N833  1  0.566700  0.422520  0.300500  1.0  -0.4425
  N  N834  1  0.485880  0.526350  0.322000  1.0  -0.3144
  N  N835  1  0.475790  0.505730  0.211800  1.0  0.0067
  N  N836  1  0.471930  0.564360  0.151400  1.0  -0.4027
  N  N837  1  0.372780  0.367360  0.641100  1.0  -0.3269
  N  N838  1  0.319550  0.399360  0.506100  1.0  -0.369
  N  N839  1  0.552690  0.037640  0.453600  1.0  -0.3442
  N  N840  1  0.554890  0.048720  0.320400  1.0  -0.0099
  N  N841  1  0.600640  0.076470  0.426500  1.0  -0.4448
  N  N842  1  0.473140  0.037450  0.386900  1.0  -0.3029
  N  N843  1  0.487150  0.050310  0.268400  1.0  0.0133
  N  N844  1  0.433300  0.077480  0.300500  1.0  -0.4429
  N  N845  1  0.514120  0.973650  0.322000  1.0  -0.3157
  N  N846  1  0.524210  0.994270  0.211800  1.0  0.0065
  N  N847  1  0.528070  0.935640  0.151400  1.0  -0.4002
  N  N848  1  0.627220  0.132640  0.641100  1.0  -0.3272
  N  N849  1  0.680450  0.100640  0.506100  1.0  -0.3689
  N  N850  1  0.052690  0.537640  0.953600  1.0  -0.3442
  N  N851  1  0.054890  0.548720  0.820400  1.0  -0.0098
  N  N852  1  0.100640  0.576470  0.926500  1.0  -0.4448
  N  N853  1  0.973140  0.537450  0.886900  1.0  -0.3029
  N  N854  1  0.987150  0.550310  0.768400  1.0  0.0133
  N  N855  1  0.933300  0.577480  0.800500  1.0  -0.4429
  N  N856  1  0.014120  0.473650  0.822000  1.0  -0.3157
  N  N857  1  0.024210  0.494270  0.711800  1.0  0.0064
  N  N858  1  0.028070  0.435640  0.651400  1.0  -0.4002
  N  N859  1  0.127220  0.632640  0.141100  1.0  -0.3272
  N  N860  1  0.180450  0.600640  0.006100  1.0  -0.3689
  N  N861  1  0.287640  0.697310  0.703600  1.0  -0.3448
  N  N862  1  0.298720  0.695110  0.570400  1.0  -0.0097
  N  N863  1  0.326470  0.649360  0.676500  1.0  -0.4448
  N  N864  1  0.287450  0.776860  0.636900  1.0  -0.3039
  N  N865  1  0.300310  0.762850  0.518400  1.0  0.0131
  N  N866  1  0.327480  0.816700  0.550500  1.0  -0.4435
  N  N867  1  0.223650  0.735880  0.572000  1.0  -0.3167
  N  N868  1  0.244270  0.725790  0.461800  1.0  0.0065
  N  N869  1  0.185640  0.721930  0.401400  1.0  -0.4005
  N  N870  1  0.382640  0.622780  0.891100  1.0  -0.3277
  N  N871  1  0.350640  0.569550  0.756100  1.0  -0.3711
  N  N872  1  0.787640  0.197310  0.203600  1.0  -0.3448
  N  N873  1  0.798720  0.195110  0.070400  1.0  -0.0097
  N  N874  1  0.826470  0.149360  0.176500  1.0  -0.4448
  N  N875  1  0.787450  0.276860  0.136900  1.0  -0.3039
  N  N876  1  0.800310  0.262850  0.018400  1.0  0.0131
  N  N877  1  0.827480  0.316700  0.050500  1.0  -0.4435
  N  N878  1  0.723650  0.235880  0.072000  1.0  -0.3167
  N  N879  1  0.744270  0.225790  0.961800  1.0  0.0065
  N  N880  1  0.685640  0.221930  0.901400  1.0  -0.4005
  N  N881  1  0.882640  0.122780  0.391100  1.0  -0.3277
  N  N882  1  0.850640  0.069550  0.256100  1.0  -0.3711
  N  N883  1  0.212360  0.302690  0.203600  1.0  -0.3436
  N  N884  1  0.201280  0.304890  0.070400  1.0  -0.0107
  N  N885  1  0.173530  0.350640  0.176500  1.0  -0.4448
  N  N886  1  0.212550  0.223140  0.136900  1.0  -0.3033
  N  N887  1  0.199690  0.237150  0.018400  1.0  0.0123
  N  N888  1  0.172520  0.183300  0.050500  1.0  -0.4432
  N  N889  1  0.276350  0.264120  0.072000  1.0  -0.3155
  N  N890  1  0.255730  0.274210  0.961800  1.0  0.0057
  N  N891  1  0.314360  0.278070  0.901400  1.0  -0.4006
  N  N892  1  0.117360  0.377220  0.391100  1.0  -0.328
  N  N893  1  0.149360  0.430450  0.256100  1.0  -0.3708
  N  N894  1  0.712360  0.802690  0.703600  1.0  -0.3436
  N  N895  1  0.701280  0.804890  0.570400  1.0  -0.0107
  N  N896  1  0.673530  0.850640  0.676500  1.0  -0.4448
  N  N897  1  0.712550  0.723140  0.636900  1.0  -0.3033
  N  N898  1  0.699690  0.737150  0.518400  1.0  0.0123
  N  N899  1  0.672520  0.683300  0.550500  1.0  -0.4432
  N  N900  1  0.776350  0.764120  0.572000  1.0  -0.3155
  N  N901  1  0.755730  0.774210  0.461800  1.0  0.0057
  N  N902  1  0.814360  0.778070  0.401400  1.0  -0.4006
  N  N903  1  0.617360  0.877220  0.891100  1.0  -0.328
  N  N904  1  0.649360  0.930450  0.756100  1.0  -0.3708
  O  O905  1  0.092710  0.155670  0.092300  1.0  -0.5699
  O  O906  1  0.149800  0.123740  0.236700  1.0  -0.5641
  O  O907  1  0.592710  0.655670  0.592300  1.0  -0.5697
  O  O908  1  0.649800  0.623740  0.736700  1.0  -0.5641
  O  O909  1  0.407290  0.844330  0.592300  1.0  -0.5715
  O  O910  1  0.350200  0.876260  0.736700  1.0  -0.5623
  O  O911  1  0.907290  0.344330  0.092300  1.0  -0.5715
  O  O912  1  0.850200  0.376260  0.236700  1.0  -0.5623
  O  O913  1  0.594330  0.342710  0.342300  1.0  -0.5705
  O  O914  1  0.626260  0.399800  0.486700  1.0  -0.5646
  O  O915  1  0.094330  0.842710  0.842300  1.0  -0.5705
  O  O916  1  0.126260  0.899800  0.986700  1.0  -0.5646
  O  O917  1  0.905670  0.657290  0.842300  1.0  -0.569
  O  O918  1  0.873740  0.600200  0.986700  1.0  -0.5645
  O  O919  1  0.405670  0.157290  0.342300  1.0  -0.569
  O  O920  1  0.373740  0.100200  0.486700  1.0  -0.5645
  O  O921  1  0.907290  0.844330  0.907700  1.0  -0.5714
  O  O922  1  0.850200  0.876260  0.763300  1.0  -0.5627
  O  O923  1  0.407290  0.344330  0.407700  1.0  -0.5714
  O  O924  1  0.350200  0.376260  0.263300  1.0  -0.5627
  O  O925  1  0.592710  0.155670  0.407700  1.0  -0.5699
  O  O926  1  0.649800  0.123740  0.263300  1.0  -0.5634
  O  O927  1  0.092710  0.655670  0.907700  1.0  -0.5697
  O  O928  1  0.149800  0.623740  0.763300  1.0  -0.5634
  O  O929  1  0.405670  0.657290  0.657700  1.0  -0.5688
  O  O930  1  0.373740  0.600200  0.513300  1.0  -0.564
  O  O931  1  0.905670  0.157290  0.157700  1.0  -0.5688
  O  O932  1  0.873740  0.100200  0.013300  1.0  -0.564
  O  O933  1  0.094330  0.342710  0.157700  1.0  -0.5704
  O  O934  1  0.126260  0.399800  0.013300  1.0  -0.5647
  O  O935  1  0.594330  0.842710  0.657700  1.0  -0.5704
  O  O936  1  0.626260  0.899800  0.513300  1.0  -0.5647
