# generated using pymatgen
data_Mn2CuB2H42C44(N11O2)2
_symmetry_space_group_name_H-M   'P 1'
_cell_length_a   36.10200000
_cell_length_b   36.10200000
_cell_length_c   9.93000000
_cell_angle_alpha   90.00000000
_cell_angle_beta   90.00000000
_cell_angle_gamma   90.00000000
_symmetry_Int_Tables_number   1
_chemical_formula_structural   Mn2CuB2H42C44(N11O2)2
_chemical_formula_sum   'Mn16 Cu8 B16 H336 C352 N176 O32'
_cell_volume   12942.30923172
_cell_formula_units_Z   8
loop_
 _symmetry_equiv_pos_site_id
 _symmetry_equiv_pos_as_xyz
  1  'x, y, z'
loop_
 _atom_site_type_symbol
 _atom_site_label
 _atom_site_symmetry_multiplicity
 _atom_site_fract_x
 _atom_site_fract_y
 _atom_site_fract_z
 _atom_site_occupancy
 _atom_site_charge
  Mn  Mn1  1  0.864140  0.371650  0.078450  1.0  0.8552
  Mn  Mn2  1  0.364140  0.871650  0.578450  1.0  0.8552
  Mn  Mn3  1  0.635860  0.628350  0.578450  1.0  0.8568
  Mn  Mn4  1  0.135860  0.128350  0.078450  1.0  0.8568
  Mn  Mn5  1  0.378350  0.114140  0.328450  1.0  0.8548
  Mn  Mn6  1  0.878350  0.614140  0.828450  1.0  0.8548
  Mn  Mn7  1  0.121650  0.885860  0.828450  1.0  0.857
  Mn  Mn8  1  0.621650  0.385860  0.328450  1.0  0.857
  Mn  Mn9  1  0.135860  0.628350  0.921550  1.0  0.8566
  Mn  Mn10  1  0.635860  0.128350  0.421550  1.0  0.8566
  Mn  Mn11  1  0.364140  0.371650  0.421550  1.0  0.8544
  Mn  Mn12  1  0.864140  0.871650  0.921550  1.0  0.8544
  Mn  Mn13  1  0.621650  0.885860  0.671550  1.0  0.8562
  Mn  Mn14  1  0.121650  0.385860  0.171550  1.0  0.8562
  Mn  Mn15  1  0.878350  0.114140  0.171550  1.0  0.8545
  Mn  Mn16  1  0.378350  0.614140  0.671550  1.0  0.8545
  Cu  Cu17  1  0.000000  0.500000  0.000000  1.0  0.7105
  Cu  Cu18  1  0.500000  0.000000  0.500000  1.0  0.7105
  Cu  Cu19  1  0.500000  0.500000  0.500000  1.0  0.7105
  Cu  Cu20  1  0.000000  0.000000  0.000000  1.0  0.7105
  Cu  Cu21  1  0.250000  0.250000  0.250000  1.0  0.7105
  Cu  Cu22  1  0.250000  0.750000  0.750000  1.0  0.7105
  Cu  Cu23  1  0.750000  0.750000  0.750000  1.0  0.7105
  Cu  Cu24  1  0.750000  0.250000  0.250000  1.0  0.7105
  B  B25  1  0.977700  0.462490  0.288900  1.0  0.4275
  B  B26  1  0.477700  0.962490  0.788900  1.0  0.4275
  B  B27  1  0.522300  0.537510  0.788900  1.0  0.4294
  B  B28  1  0.022300  0.037510  0.288900  1.0  0.4294
  B  B29  1  0.287510  0.227700  0.538900  1.0  0.43
  B  B30  1  0.787510  0.727700  0.038900  1.0  0.43
  B  B31  1  0.212490  0.772300  0.038900  1.0  0.4261
  B  B32  1  0.712490  0.272300  0.538900  1.0  0.4261
  B  B33  1  0.022300  0.537510  0.711100  1.0  0.4263
  B  B34  1  0.522300  0.037510  0.211100  1.0  0.4263
  B  B35  1  0.477700  0.462490  0.211100  1.0  0.4252
  B  B36  1  0.977700  0.962490  0.711100  1.0  0.4252
  B  B37  1  0.712490  0.772300  0.461100  1.0  0.4239
  B  B38  1  0.212490  0.272300  0.961100  1.0  0.4239
  B  B39  1  0.787510  0.227700  0.961100  1.0  0.427
  B  B40  1  0.287510  0.727700  0.461100  1.0  0.427
  H  H41  1  0.912000  0.447400  0.913300  1.0  0.0744
  H  H42  1  0.912000  0.417800  0.290800  1.0  0.1021
  H  H43  1  0.073800  0.449700  0.011800  1.0  0.0665
  H  H44  1  0.037900  0.411300  0.352900  1.0  0.0924
  H  H45  1  0.989500  0.580400  0.164100  1.0  0.0752
  H  H46  1  0.962300  0.521600  0.474300  1.0  0.0886
  H  H47  1  0.973500  0.452300  0.379100  1.0  0.106
  H  H48  1  0.908100  0.362800  0.733300  1.0  0.0871
  H  H49  1  0.973500  0.354700  0.743200  1.0  0.1014
  H  H50  1  0.027500  0.342700  0.858500  1.0  0.1055
  H  H51  1  0.026600  0.334400  0.083700  1.0  0.0763
  H  H52  1  0.971800  0.334800  0.202400  1.0  0.1143
  H  H53  1  0.776500  0.427800  0.049600  1.0  0.0806
  H  H54  1  0.740400  0.431100  0.249200  1.0  0.0946
  H  H55  1  0.729100  0.417300  0.471100  1.0  0.0865
  H  H56  1  0.771800  0.384000  0.595200  1.0  0.1017
  H  H57  1  0.827000  0.366800  0.498800  1.0  0.0857
  H  H58  1  0.826000  0.358700  0.786400  1.0  0.0954
  H  H59  1  0.850500  0.388000  0.709900  1.0  0.0791
  H  H60  1  0.835600  0.433600  0.857000  1.0  0.0988
  H  H61  1  0.797600  0.413200  0.833900  1.0  0.0724
  H  H62  1  0.412000  0.947400  0.413300  1.0  0.0744
  H  H63  1  0.412000  0.917800  0.790800  1.0  0.1021
  H  H64  1  0.573800  0.949700  0.511800  1.0  0.0665
  H  H65  1  0.537900  0.911300  0.852900  1.0  0.0924
  H  H66  1  0.489500  0.080400  0.664100  1.0  0.0752
  H  H67  1  0.462300  0.021600  0.974300  1.0  0.0886
  H  H68  1  0.473500  0.952300  0.879100  1.0  0.106
  H  H69  1  0.408100  0.862800  0.233300  1.0  0.0871
  H  H70  1  0.473500  0.854700  0.243200  1.0  0.1014
  H  H71  1  0.527500  0.842700  0.358500  1.0  0.1055
  H  H72  1  0.526600  0.834400  0.583700  1.0  0.0763
  H  H73  1  0.471800  0.834800  0.702400  1.0  0.1143
  H  H74  1  0.276500  0.927800  0.549600  1.0  0.0806
  H  H75  1  0.240400  0.931100  0.749200  1.0  0.0946
  H  H76  1  0.229100  0.917300  0.971100  1.0  0.0865
  H  H77  1  0.271800  0.884000  0.095200  1.0  0.1017
  H  H78  1  0.327000  0.866800  0.998800  1.0  0.0857
  H  H79  1  0.326000  0.858700  0.286400  1.0  0.0954
  H  H80  1  0.350500  0.888000  0.209900  1.0  0.0791
  H  H81  1  0.335600  0.933600  0.357000  1.0  0.0988
  H  H82  1  0.297600  0.913200  0.333900  1.0  0.0724
  H  H83  1  0.588000  0.552600  0.413300  1.0  0.0748
  H  H84  1  0.588000  0.582200  0.790800  1.0  0.1025
  H  H85  1  0.426200  0.550300  0.511800  1.0  0.0658
  H  H86  1  0.462100  0.588700  0.852900  1.0  0.0921
  H  H87  1  0.510500  0.419600  0.664100  1.0  0.0756
  H  H88  1  0.537700  0.478400  0.974300  1.0  0.0888
  H  H89  1  0.526500  0.547700  0.879100  1.0  0.1055
  H  H90  1  0.591900  0.637200  0.233300  1.0  0.0877
  H  H91  1  0.526500  0.645300  0.243200  1.0  0.1009
  H  H92  1  0.472500  0.657300  0.358500  1.0  0.1059
  H  H93  1  0.473400  0.665600  0.583700  1.0  0.0759
  H  H94  1  0.528200  0.665200  0.702400  1.0  0.1143
  H  H95  1  0.723500  0.572200  0.549600  1.0  0.0813
  H  H96  1  0.759600  0.568900  0.749200  1.0  0.0944
  H  H97  1  0.770900  0.582700  0.971100  1.0  0.0868
  H  H98  1  0.728200  0.616000  0.095200  1.0  0.1021
  H  H99  1  0.673000  0.633200  0.998800  1.0  0.0854
  H  H100  1  0.674000  0.641300  0.286400  1.0  0.095
  H  H101  1  0.649500  0.612000  0.209900  1.0  0.0787
  H  H102  1  0.664400  0.566400  0.357000  1.0  0.1008
  H  H103  1  0.702400  0.586800  0.333900  1.0  0.072
  H  H104  1  0.088000  0.052600  0.913300  1.0  0.0748
  H  H105  1  0.088000  0.082200  0.290800  1.0  0.1025
  H  H106  1  0.926200  0.050300  0.011800  1.0  0.0658
  H  H107  1  0.962100  0.088700  0.352900  1.0  0.0921
  H  H108  1  0.010500  0.919600  0.164100  1.0  0.0756
  H  H109  1  0.037700  0.978400  0.474300  1.0  0.0888
  H  H110  1  0.026500  0.047700  0.379100  1.0  0.1055
  H  H111  1  0.091900  0.137200  0.733300  1.0  0.0877
  H  H112  1  0.026500  0.145300  0.743200  1.0  0.1009
  H  H113  1  0.972500  0.157300  0.858500  1.0  0.1059
  H  H114  1  0.973400  0.165600  0.083700  1.0  0.0759
  H  H115  1  0.028200  0.165200  0.202400  1.0  0.1143
  H  H116  1  0.223500  0.072200  0.049600  1.0  0.0813
  H  H117  1  0.259600  0.068900  0.249200  1.0  0.0944
  H  H118  1  0.270900  0.082700  0.471100  1.0  0.0868
  H  H119  1  0.228200  0.116000  0.595200  1.0  0.1021
  H  H120  1  0.173000  0.133200  0.498800  1.0  0.0854
  H  H121  1  0.174000  0.141300  0.786400  1.0  0.095
  H  H122  1  0.149500  0.112000  0.709900  1.0  0.0787
  H  H123  1  0.164400  0.066400  0.857000  1.0  0.1008
  H  H124  1  0.202400  0.086800  0.833900  1.0  0.072
  H  H125  1  0.302600  0.162000  0.163300  1.0  0.0745
  H  H126  1  0.332200  0.162000  0.540800  1.0  0.1021
  H  H127  1  0.300300  0.323800  0.261800  1.0  0.0661
  H  H128  1  0.338700  0.287900  0.602900  1.0  0.0917
  H  H129  1  0.169600  0.239500  0.414100  1.0  0.0768
  H  H130  1  0.228400  0.212300  0.724300  1.0  0.0884
  H  H131  1  0.297700  0.223500  0.629100  1.0  0.1056
  H  H132  1  0.387200  0.158100  0.983300  1.0  0.0871
  H  H133  1  0.395300  0.223500  0.993200  1.0  0.1018
  H  H134  1  0.407300  0.277500  0.108500  1.0  0.1067
  H  H135  1  0.415600  0.276600  0.333700  1.0  0.0752
  H  H136  1  0.415200  0.221800  0.452400  1.0  0.1141
  H  H137  1  0.322200  0.026500  0.299600  1.0  0.0809
  H  H138  1  0.318900  0.990400  0.499200  1.0  0.0943
  H  H139  1  0.332700  0.979100  0.721100  1.0  0.0884
  H  H140  1  0.366000  0.021800  0.845200  1.0  0.1021
  H  H141  1  0.383200  0.077000  0.748800  1.0  0.0847
  H  H142  1  0.391300  0.076000  0.036400  1.0  0.0935
  H  H143  1  0.362000  0.100500  0.959900  1.0  0.0789
  H  H144  1  0.316400  0.085600  0.107000  1.0  0.0957
  H  H145  1  0.336800  0.047600  0.083900  1.0  0.0698
  H  H146  1  0.802600  0.662000  0.663300  1.0  0.0745
  H  H147  1  0.832200  0.662000  0.040800  1.0  0.1021
  H  H148  1  0.800300  0.823800  0.761800  1.0  0.0661
  H  H149  1  0.838700  0.787900  0.102900  1.0  0.0917
  H  H150  1  0.669600  0.739500  0.914100  1.0  0.0768
  H  H151  1  0.728400  0.712300  0.224300  1.0  0.0884
  H  H152  1  0.797700  0.723500  0.129100  1.0  0.1056
  H  H153  1  0.887200  0.658100  0.483300  1.0  0.0871
  H  H154  1  0.895300  0.723500  0.493200  1.0  0.1018
  H  H155  1  0.907300  0.777500  0.608500  1.0  0.1067
  H  H156  1  0.915600  0.776600  0.833700  1.0  0.0752
  H  H157  1  0.915200  0.721800  0.952400  1.0  0.1141
  H  H158  1  0.822200  0.526500  0.799600  1.0  0.0809
  H  H159  1  0.818900  0.490400  0.999200  1.0  0.0943
  H  H160  1  0.832700  0.479100  0.221100  1.0  0.0884
  H  H161  1  0.866000  0.521800  0.345200  1.0  0.1021
  H  H162  1  0.883200  0.577000  0.248800  1.0  0.0847
  H  H163  1  0.891300  0.576000  0.536400  1.0  0.0935
  H  H164  1  0.862000  0.600500  0.459900  1.0  0.0789
  H  H165  1  0.816400  0.585600  0.607000  1.0  0.0957
  H  H166  1  0.836800  0.547600  0.583900  1.0  0.0698
  H  H167  1  0.197400  0.838000  0.663300  1.0  0.0751
  H  H168  1  0.167800  0.838000  0.040800  1.0  0.1021
  H  H169  1  0.199700  0.676200  0.761800  1.0  0.0656
  H  H170  1  0.161300  0.712100  0.102900  1.0  0.092
  H  H171  1  0.330400  0.760500  0.914100  1.0  0.0755
  H  H172  1  0.271600  0.787700  0.224300  1.0  0.0881
  H  H173  1  0.202300  0.776500  0.129100  1.0  0.106
  H  H174  1  0.112800  0.841900  0.483300  1.0  0.0872
  H  H175  1  0.104700  0.776500  0.493200  1.0  0.1011
  H  H176  1  0.092700  0.722500  0.608500  1.0  0.1062
  H  H177  1  0.084400  0.723400  0.833700  1.0  0.0759
  H  H178  1  0.084800  0.778200  0.952400  1.0  0.1146
  H  H179  1  0.177800  0.973500  0.799600  1.0  0.0809
  H  H180  1  0.181100  0.009600  0.999200  1.0  0.0947
  H  H181  1  0.167300  0.020900  0.221100  1.0  0.0879
  H  H182  1  0.134000  0.978200  0.345200  1.0  0.1019
  H  H183  1  0.116800  0.923000  0.248800  1.0  0.0852
  H  H184  1  0.108700  0.924000  0.536400  1.0  0.0957
  H  H185  1  0.138000  0.899500  0.459900  1.0  0.0786
  H  H186  1  0.183600  0.914400  0.607000  1.0  0.096
  H  H187  1  0.163200  0.952400  0.583900  1.0  0.0693
  H  H188  1  0.697400  0.338000  0.163300  1.0  0.0751
  H  H189  1  0.667800  0.338000  0.540800  1.0  0.1021
  H  H190  1  0.699700  0.176200  0.261800  1.0  0.0656
  H  H191  1  0.661300  0.212100  0.602900  1.0  0.092
  H  H192  1  0.830400  0.260500  0.414100  1.0  0.0755
  H  H193  1  0.771600  0.287700  0.724300  1.0  0.0881
  H  H194  1  0.702300  0.276500  0.629100  1.0  0.106
  H  H195  1  0.612800  0.341900  0.983300  1.0  0.0872
  H  H196  1  0.604700  0.276500  0.993200  1.0  0.1011
  H  H197  1  0.592700  0.222500  0.108500  1.0  0.1062
  H  H198  1  0.584400  0.223400  0.333700  1.0  0.0759
  H  H199  1  0.584800  0.278200  0.452400  1.0  0.1146
  H  H200  1  0.677800  0.473500  0.299600  1.0  0.0809
  H  H201  1  0.681100  0.509600  0.499200  1.0  0.0947
  H  H202  1  0.667300  0.520900  0.721100  1.0  0.0879
  H  H203  1  0.634000  0.478200  0.845200  1.0  0.1019
  H  H204  1  0.616800  0.423000  0.748800  1.0  0.0852
  H  H205  1  0.608700  0.424000  0.036400  1.0  0.0957
  H  H206  1  0.638000  0.399500  0.959900  1.0  0.0786
  H  H207  1  0.683600  0.414400  0.107000  1.0  0.096
  H  H208  1  0.663200  0.452400  0.083900  1.0  0.0693
  H  H209  1  0.088000  0.552600  0.086700  1.0  0.0737
  H  H210  1  0.088000  0.582200  0.709200  1.0  0.103
  H  H211  1  0.926200  0.550300  0.988200  1.0  0.0657
  H  H212  1  0.962100  0.588700  0.647100  1.0  0.0928
  H  H213  1  0.010500  0.419600  0.835900  1.0  0.0753
  H  H214  1  0.037700  0.478400  0.525700  1.0  0.0911
  H  H215  1  0.026500  0.547700  0.620900  1.0  0.1069
  H  H216  1  0.091900  0.637200  0.266700  1.0  0.0873
  H  H217  1  0.026500  0.645300  0.256800  1.0  0.101
  H  H218  1  0.972500  0.657300  0.141500  1.0  0.1075
  H  H219  1  0.973400  0.665600  0.916300  1.0  0.0763
  H  H220  1  0.028200  0.665200  0.797600  1.0  0.1143
  H  H221  1  0.223500  0.572200  0.950400  1.0  0.0814
  H  H222  1  0.259600  0.568900  0.750800  1.0  0.0945
  H  H223  1  0.270900  0.582700  0.528900  1.0  0.0863
  H  H224  1  0.228200  0.616000  0.404800  1.0  0.1017
  H  H225  1  0.173000  0.633200  0.501200  1.0  0.0853
  H  H226  1  0.174000  0.641300  0.213600  1.0  0.0948
  H  H227  1  0.149500  0.612000  0.290100  1.0  0.0802
  H  H228  1  0.164400  0.566400  0.143000  1.0  0.1014
  H  H229  1  0.202400  0.586800  0.166100  1.0  0.0712
  H  H230  1  0.588000  0.052600  0.586700  1.0  0.0737
  H  H231  1  0.588000  0.082200  0.209200  1.0  0.103
  H  H232  1  0.426200  0.050300  0.488200  1.0  0.0657
  H  H233  1  0.462100  0.088700  0.147100  1.0  0.0928
  H  H234  1  0.510500  0.919600  0.335900  1.0  0.0753
  H  H235  1  0.537700  0.978400  0.025700  1.0  0.0911
  H  H236  1  0.526500  0.047700  0.120900  1.0  0.1069
  H  H237  1  0.591900  0.137200  0.766700  1.0  0.0873
  H  H238  1  0.526500  0.145300  0.756800  1.0  0.101
  H  H239  1  0.472500  0.157300  0.641500  1.0  0.1075
  H  H240  1  0.473400  0.165600  0.416300  1.0  0.0763
  H  H241  1  0.528200  0.165200  0.297600  1.0  0.1143
  H  H242  1  0.723500  0.072200  0.450400  1.0  0.0814
  H  H243  1  0.759600  0.068900  0.250800  1.0  0.0945
  H  H244  1  0.770900  0.082700  0.028900  1.0  0.0863
  H  H245  1  0.728200  0.116000  0.904800  1.0  0.1017
  H  H246  1  0.673000  0.133200  0.001200  1.0  0.0853
  H  H247  1  0.674000  0.141300  0.713600  1.0  0.0948
  H  H248  1  0.649500  0.112000  0.790100  1.0  0.0802
  H  H249  1  0.664400  0.066400  0.643000  1.0  0.1014
  H  H250  1  0.702400  0.086800  0.666100  1.0  0.0712
  H  H251  1  0.412000  0.447400  0.586700  1.0  0.0733
  H  H252  1  0.412000  0.417800  0.209200  1.0  0.1023
  H  H253  1  0.573800  0.449700  0.488200  1.0  0.066
  H  H254  1  0.537900  0.411300  0.147100  1.0  0.093
  H  H255  1  0.489500  0.580400  0.335900  1.0  0.0752
  H  H256  1  0.462300  0.521600  0.025700  1.0  0.0906
  H  H257  1  0.473500  0.452300  0.120900  1.0  0.1066
  H  H258  1  0.408100  0.362800  0.766700  1.0  0.0871
  H  H259  1  0.473500  0.354700  0.756800  1.0  0.1012
  H  H260  1  0.527500  0.342700  0.641500  1.0  0.1067
  H  H261  1  0.526600  0.334400  0.416300  1.0  0.0764
  H  H262  1  0.471800  0.334800  0.297600  1.0  0.1141
  H  H263  1  0.276500  0.427800  0.450400  1.0  0.0806
  H  H264  1  0.240400  0.431100  0.250800  1.0  0.0942
  H  H265  1  0.229100  0.417300  0.028900  1.0  0.0865
  H  H266  1  0.271800  0.384000  0.904800  1.0  0.1016
  H  H267  1  0.327000  0.366800  0.001200  1.0  0.0854
  H  H268  1  0.326000  0.358700  0.713600  1.0  0.0959
  H  H269  1  0.350500  0.388000  0.790100  1.0  0.0797
  H  H270  1  0.335600  0.433600  0.643000  1.0  0.0988
  H  H271  1  0.297600  0.413200  0.666100  1.0  0.0719
  H  H272  1  0.912000  0.947400  0.086700  1.0  0.0733
  H  H273  1  0.912000  0.917800  0.709200  1.0  0.1023
  H  H274  1  0.073800  0.949700  0.988200  1.0  0.066
  H  H275  1  0.037900  0.911300  0.647100  1.0  0.093
  H  H276  1  0.989500  0.080400  0.835900  1.0  0.0752
  H  H277  1  0.962300  0.021600  0.525700  1.0  0.0906
  H  H278  1  0.973500  0.952300  0.620900  1.0  0.1066
  H  H279  1  0.908100  0.862800  0.266700  1.0  0.0871
  H  H280  1  0.973500  0.854700  0.256800  1.0  0.1012
  H  H281  1  0.027500  0.842700  0.141500  1.0  0.1067
  H  H282  1  0.026600  0.834400  0.916300  1.0  0.0764
  H  H283  1  0.971800  0.834800  0.797600  1.0  0.1141
  H  H284  1  0.776500  0.927800  0.950400  1.0  0.0806
  H  H285  1  0.740400  0.931100  0.750800  1.0  0.0942
  H  H286  1  0.729100  0.917300  0.528900  1.0  0.0865
  H  H287  1  0.771800  0.884000  0.404800  1.0  0.1016
  H  H288  1  0.827000  0.866800  0.501200  1.0  0.0854
  H  H289  1  0.826000  0.858700  0.213600  1.0  0.0959
  H  H290  1  0.850500  0.888000  0.290100  1.0  0.0797
  H  H291  1  0.835600  0.933600  0.143000  1.0  0.0988
  H  H292  1  0.797600  0.913200  0.166100  1.0  0.0719
  H  H293  1  0.697400  0.838000  0.836700  1.0  0.0737
  H  H294  1  0.667800  0.838000  0.459200  1.0  0.1018
  H  H295  1  0.699700  0.676200  0.738200  1.0  0.0656
  H  H296  1  0.661300  0.712100  0.397100  1.0  0.0929
  H  H297  1  0.830400  0.760500  0.585900  1.0  0.0754
  H  H298  1  0.771600  0.787700  0.275700  1.0  0.0904
  H  H299  1  0.702300  0.776500  0.370900  1.0  0.1072
  H  H300  1  0.612800  0.841900  0.016700  1.0  0.0872
  H  H301  1  0.604700  0.776500  0.006800  1.0  0.1014
  H  H302  1  0.592700  0.722500  0.891500  1.0  0.1078
  H  H303  1  0.584400  0.723400  0.666300  1.0  0.0761
  H  H304  1  0.584800  0.778200  0.547600  1.0  0.1139
  H  H305  1  0.677800  0.973500  0.700400  1.0  0.0811
  H  H306  1  0.681100  0.009600  0.500800  1.0  0.0942
  H  H307  1  0.667300  0.020900  0.278900  1.0  0.088
  H  H308  1  0.634000  0.978200  0.154800  1.0  0.1018
  H  H309  1  0.616800  0.923000  0.251200  1.0  0.0849
  H  H310  1  0.608700  0.924000  0.963600  1.0  0.095
  H  H311  1  0.638000  0.899500  0.040100  1.0  0.0799
  H  H312  1  0.683600  0.914400  0.893000  1.0  0.0952
  H  H313  1  0.663200  0.952400  0.916100  1.0  0.0683
  H  H314  1  0.197400  0.338000  0.336700  1.0  0.0737
  H  H315  1  0.167800  0.338000  0.959200  1.0  0.1018
  H  H316  1  0.199700  0.176200  0.238200  1.0  0.0656
  H  H317  1  0.161300  0.212100  0.897100  1.0  0.0929
  H  H318  1  0.330400  0.260500  0.085900  1.0  0.0754
  H  H319  1  0.271600  0.287700  0.775700  1.0  0.0904
  H  H320  1  0.202300  0.276500  0.870900  1.0  0.1072
  H  H321  1  0.112800  0.341900  0.516700  1.0  0.0872
  H  H322  1  0.104700  0.276500  0.506800  1.0  0.1014
  H  H323  1  0.092700  0.222500  0.391500  1.0  0.1078
  H  H324  1  0.084400  0.223400  0.166300  1.0  0.0761
  H  H325  1  0.084800  0.278200  0.047600  1.0  0.1139
  H  H326  1  0.177800  0.473500  0.200400  1.0  0.0811
  H  H327  1  0.181100  0.509600  0.000800  1.0  0.0942
  H  H328  1  0.167300  0.520900  0.778900  1.0  0.088
  H  H329  1  0.134000  0.478200  0.654800  1.0  0.1018
  H  H330  1  0.116800  0.423000  0.751200  1.0  0.0849
  H  H331  1  0.108700  0.424000  0.463600  1.0  0.095
  H  H332  1  0.138000  0.399500  0.540100  1.0  0.0799
  H  H333  1  0.183600  0.414400  0.393000  1.0  0.0952
  H  H334  1  0.163200  0.452400  0.416100  1.0  0.0683
  H  H335  1  0.802600  0.162000  0.336700  1.0  0.0737
  H  H336  1  0.832200  0.162000  0.959200  1.0  0.1027
  H  H337  1  0.800300  0.323800  0.238200  1.0  0.0657
  H  H338  1  0.838700  0.287900  0.897100  1.0  0.093
  H  H339  1  0.669600  0.239500  0.085900  1.0  0.0763
  H  H340  1  0.728400  0.212300  0.775700  1.0  0.0906
  H  H341  1  0.797700  0.223500  0.870900  1.0  0.1068
  H  H342  1  0.887200  0.158100  0.516700  1.0  0.0868
  H  H343  1  0.895300  0.223500  0.506800  1.0  0.1007
  H  H344  1  0.907300  0.277500  0.391500  1.0  0.1079
  H  H345  1  0.915600  0.276600  0.166300  1.0  0.0756
  H  H346  1  0.915200  0.221800  0.047600  1.0  0.1141
  H  H347  1  0.822200  0.026500  0.200400  1.0  0.0811
  H  H348  1  0.818900  0.990400  0.000800  1.0  0.0944
  H  H349  1  0.832700  0.979100  0.778900  1.0  0.0879
  H  H350  1  0.866000  0.021800  0.654800  1.0  0.1018
  H  H351  1  0.883200  0.077000  0.751200  1.0  0.0844
  H  H352  1  0.891300  0.076000  0.463600  1.0  0.0936
  H  H353  1  0.862000  0.100500  0.540100  1.0  0.0795
  H  H354  1  0.816400  0.085600  0.393000  1.0  0.0966
  H  H355  1  0.836800  0.047600  0.416100  1.0  0.0699
  H  H356  1  0.302600  0.662000  0.836700  1.0  0.0737
  H  H357  1  0.332200  0.662000  0.459200  1.0  0.1027
  H  H358  1  0.300300  0.823800  0.738200  1.0  0.0657
  H  H359  1  0.338700  0.787900  0.397100  1.0  0.093
  H  H360  1  0.169600  0.739500  0.585900  1.0  0.0763
  H  H361  1  0.228400  0.712300  0.275700  1.0  0.0906
  H  H362  1  0.297700  0.723500  0.370900  1.0  0.1068
  H  H363  1  0.387200  0.658100  0.016700  1.0  0.0868
  H  H364  1  0.395300  0.723500  0.006800  1.0  0.1007
  H  H365  1  0.407300  0.777500  0.891500  1.0  0.1079
  H  H366  1  0.415600  0.776600  0.666300  1.0  0.0756
  H  H367  1  0.415200  0.721800  0.547600  1.0  0.1141
  H  H368  1  0.322200  0.526500  0.700400  1.0  0.0811
  H  H369  1  0.318900  0.490400  0.500800  1.0  0.0944
  H  H370  1  0.332700  0.479100  0.278900  1.0  0.0879
  H  H371  1  0.366000  0.521800  0.154800  1.0  0.1018
  H  H372  1  0.383200  0.577000  0.251200  1.0  0.0844
  H  H373  1  0.391300  0.576000  0.963600  1.0  0.0936
  H  H374  1  0.362000  0.600500  0.040100  1.0  0.0795
  H  H375  1  0.316400  0.585600  0.893000  1.0  0.0966
  H  H376  1  0.336800  0.547600  0.916100  1.0  0.0699
  C  C377  1  0.918610  0.445250  0.003500  1.0  0.3134
  C  C378  1  0.918330  0.428750  0.209200  1.0  0.1771
  C  C379  1  0.059060  0.445450  0.087000  1.0  0.2791
  C  C380  1  0.039890  0.424490  0.272700  1.0  0.1872
  C  C381  1  0.984900  0.560170  0.219800  1.0  0.2932
  C  C382  1  0.970250  0.528770  0.389200  1.0  0.1888
  C  C383  1  0.906230  0.362150  0.826700  1.0  0.0713
  C  C384  1  0.938930  0.353090  0.904600  1.0  -0.0796
  C  C385  1  0.972800  0.351100  0.835900  1.0  -0.1264
  C  C386  1  0.005200  0.343900  0.904700  1.0  -0.1053
  C  C387  1  0.004500  0.338600  0.038200  1.0  -0.1041
  C  C388  1  0.971600  0.339200  0.110100  1.0  -0.2173
  C  C389  1  0.938720  0.346380  0.044700  1.0  0.2866
  C  C390  1  0.794590  0.413330  0.090400  1.0  0.0321
  C  C391  1  0.791040  0.406580  0.233600  1.0  -0.0662
  C  C392  1  0.757900  0.417800  0.297900  1.0  -0.1629
  C  C393  1  0.751100  0.409600  0.431200  1.0  -0.0771
  C  C394  1  0.776800  0.390000  0.505900  1.0  -0.1082
  C  C395  1  0.809600  0.379500  0.447400  1.0  -0.1873
  C  C396  1  0.817710  0.387480  0.312900  1.0  0.3008
  C  C397  1  0.842330  0.379770  0.798100  1.0  -0.0332
  C  C398  1  0.822470  0.410440  0.869600  1.0  -0.051
  C  C399  1  0.418610  0.945250  0.503500  1.0  0.3134
  C  C400  1  0.418330  0.928750  0.709200  1.0  0.1771
  C  C401  1  0.559060  0.945450  0.587000  1.0  0.2791
  C  C402  1  0.539890  0.924490  0.772700  1.0  0.1872
  C  C403  1  0.484900  0.060170  0.719800  1.0  0.2932
  C  C404  1  0.470250  0.028770  0.889200  1.0  0.1888
  C  C405  1  0.406230  0.862150  0.326700  1.0  0.0713
  C  C406  1  0.438930  0.853090  0.404600  1.0  -0.0796
  C  C407  1  0.472800  0.851100  0.335900  1.0  -0.1264
  C  C408  1  0.505200  0.843900  0.404700  1.0  -0.1053
  C  C409  1  0.504500  0.838600  0.538200  1.0  -0.1041
  C  C410  1  0.471600  0.839200  0.610100  1.0  -0.2173
  C  C411  1  0.438720  0.846380  0.544700  1.0  0.2866
  C  C412  1  0.294590  0.913330  0.590400  1.0  0.0321
  C  C413  1  0.291040  0.906580  0.733600  1.0  -0.0662
  C  C414  1  0.257900  0.917800  0.797900  1.0  -0.1629
  C  C415  1  0.251100  0.909600  0.931200  1.0  -0.0771
  C  C416  1  0.276800  0.890000  0.005900  1.0  -0.1082
  C  C417  1  0.309600  0.879500  0.947400  1.0  -0.1873
  C  C418  1  0.317710  0.887480  0.812900  1.0  0.3008
  C  C419  1  0.342330  0.879770  0.298100  1.0  -0.0332
  C  C420  1  0.322470  0.910440  0.369600  1.0  -0.051
  C  C421  1  0.581390  0.554750  0.503500  1.0  0.3135
  C  C422  1  0.581670  0.571250  0.709200  1.0  0.1769
  C  C423  1  0.440940  0.554550  0.587000  1.0  0.2794
  C  C424  1  0.460110  0.575510  0.772700  1.0  0.1871
  C  C425  1  0.515100  0.439830  0.719800  1.0  0.2927
  C  C426  1  0.529750  0.471230  0.889200  1.0  0.1891
  C  C427  1  0.593770  0.637850  0.326700  1.0  0.072
  C  C428  1  0.561070  0.646910  0.404600  1.0  -0.0787
  C  C429  1  0.527200  0.648900  0.335900  1.0  -0.1261
  C  C430  1  0.494800  0.656100  0.404700  1.0  -0.1066
  C  C431  1  0.495500  0.661400  0.538200  1.0  -0.1052
  C  C432  1  0.528400  0.660800  0.610100  1.0  -0.2168
  C  C433  1  0.561280  0.653620  0.544700  1.0  0.2869
  C  C434  1  0.705410  0.586670  0.590400  1.0  0.0343
  C  C435  1  0.708960  0.593420  0.733600  1.0  -0.0661
  C  C436  1  0.742100  0.582200  0.797900  1.0  -0.162
  C  C437  1  0.748900  0.590400  0.931200  1.0  -0.0761
  C  C438  1  0.723200  0.610000  0.005900  1.0  -0.1077
  C  C439  1  0.690400  0.620500  0.947400  1.0  -0.1879
  C  C440  1  0.682290  0.612520  0.812900  1.0  0.3001
  C  C441  1  0.657670  0.620230  0.298100  1.0  -0.0331
  C  C442  1  0.677530  0.589560  0.369600  1.0  -0.0522
  C  C443  1  0.081390  0.054750  0.003500  1.0  0.3135
  C  C444  1  0.081670  0.071250  0.209200  1.0  0.1769
  C  C445  1  0.940940  0.054550  0.087000  1.0  0.2794
  C  C446  1  0.960110  0.075510  0.272700  1.0  0.1871
  C  C447  1  0.015100  0.939830  0.219800  1.0  0.2927
  C  C448  1  0.029750  0.971230  0.389200  1.0  0.1891
  C  C449  1  0.093770  0.137850  0.826700  1.0  0.072
  C  C450  1  0.061070  0.146910  0.904600  1.0  -0.0787
  C  C451  1  0.027200  0.148900  0.835900  1.0  -0.1261
  C  C452  1  0.994800  0.156100  0.904700  1.0  -0.1066
  C  C453  1  0.995500  0.161400  0.038200  1.0  -0.1052
  C  C454  1  0.028400  0.160800  0.110100  1.0  -0.2168
  C  C455  1  0.061280  0.153620  0.044700  1.0  0.2869
  C  C456  1  0.205410  0.086670  0.090400  1.0  0.0343
  C  C457  1  0.208960  0.093420  0.233600  1.0  -0.0661
  C  C458  1  0.242100  0.082200  0.297900  1.0  -0.162
  C  C459  1  0.248900  0.090400  0.431200  1.0  -0.0761
  C  C460  1  0.223200  0.110000  0.505900  1.0  -0.1077
  C  C461  1  0.190400  0.120500  0.447400  1.0  -0.1879
  C  C462  1  0.182290  0.112520  0.312900  1.0  0.3001
  C  C463  1  0.157670  0.120230  0.798100  1.0  -0.0331
  C  C464  1  0.177530  0.089560  0.869600  1.0  -0.0522
  C  C465  1  0.304750  0.168610  0.253500  1.0  0.3132
  C  C466  1  0.321250  0.168330  0.459200  1.0  0.177
  C  C467  1  0.304550  0.309060  0.337000  1.0  0.2794
  C  C468  1  0.325510  0.289890  0.522700  1.0  0.1888
  C  C469  1  0.189830  0.234900  0.469800  1.0  0.2959
  C  C470  1  0.221230  0.220250  0.639200  1.0  0.1889
  C  C471  1  0.387850  0.156230  0.076700  1.0  0.0714
  C  C472  1  0.396910  0.188930  0.154600  1.0  -0.0794
  C  C473  1  0.398900  0.222800  0.085900  1.0  -0.1215
  C  C474  1  0.406100  0.255200  0.154700  1.0  -0.1039
  C  C475  1  0.411400  0.254500  0.288200  1.0  -0.1026
  C  C476  1  0.410800  0.221600  0.360100  1.0  -0.2166
  C  C477  1  0.403620  0.188720  0.294700  1.0  0.2869
  C  C478  1  0.336670  0.044590  0.340400  1.0  0.031
  C  C479  1  0.343420  0.041040  0.483600  1.0  -0.0643
  C  C480  1  0.332200  0.007900  0.547900  1.0  -0.1624
  C  C481  1  0.340400  0.001100  0.681200  1.0  -0.0755
  C  C482  1  0.360000  0.026800  0.755900  1.0  -0.11
  C  C483  1  0.370500  0.059600  0.697400  1.0  -0.1889
  C  C484  1  0.362520  0.067710  0.562900  1.0  0.2968
  C  C485  1  0.370230  0.092330  0.048100  1.0  -0.0334
  C  C486  1  0.339560  0.072470  0.119600  1.0  -0.047
  C  C487  1  0.804750  0.668610  0.753500  1.0  0.3132
  C  C488  1  0.821250  0.668330  0.959200  1.0  0.177
  C  C489  1  0.804550  0.809060  0.837000  1.0  0.2794
  C  C490  1  0.825510  0.789890  0.022700  1.0  0.1888
  C  C491  1  0.689830  0.734900  0.969800  1.0  0.2959
  C  C492  1  0.721230  0.720250  0.139200  1.0  0.1889
  C  C493  1  0.887850  0.656230  0.576700  1.0  0.0714
  C  C494  1  0.896910  0.688930  0.654600  1.0  -0.0794
  C  C495  1  0.898900  0.722800  0.585900  1.0  -0.1215
  C  C496  1  0.906100  0.755200  0.654700  1.0  -0.1039
  C  C497  1  0.911400  0.754500  0.788200  1.0  -0.1026
  C  C498  1  0.910800  0.721600  0.860100  1.0  -0.2166
  C  C499  1  0.903620  0.688720  0.794700  1.0  0.2869
  C  C500  1  0.836670  0.544590  0.840400  1.0  0.031
  C  C501  1  0.843420  0.541040  0.983600  1.0  -0.0643
  C  C502  1  0.832200  0.507900  0.047900  1.0  -0.1624
  C  C503  1  0.840400  0.501100  0.181200  1.0  -0.0755
  C  C504  1  0.860000  0.526800  0.255900  1.0  -0.11
  C  C505  1  0.870500  0.559600  0.197400  1.0  -0.1889
  C  C506  1  0.862520  0.567710  0.062900  1.0  0.2968
  C  C507  1  0.870230  0.592330  0.548100  1.0  -0.0334
  C  C508  1  0.839560  0.572470  0.619600  1.0  -0.047
  C  C509  1  0.195250  0.831390  0.753500  1.0  0.3127
  C  C510  1  0.178750  0.831670  0.959200  1.0  0.176
  C  C511  1  0.195450  0.690940  0.837000  1.0  0.2796
  C  C512  1  0.174490  0.710110  0.022700  1.0  0.1885
  C  C513  1  0.310170  0.765100  0.969800  1.0  0.2958
  C  C514  1  0.278770  0.779750  0.139200  1.0  0.1889
  C  C515  1  0.112150  0.843770  0.576700  1.0  0.0714
  C  C516  1  0.103090  0.811070  0.654600  1.0  -0.0784
  C  C517  1  0.101100  0.777200  0.585900  1.0  -0.1219
  C  C518  1  0.093900  0.744800  0.654700  1.0  -0.1042
  C  C519  1  0.088600  0.745500  0.788200  1.0  -0.1035
  C  C520  1  0.089200  0.778400  0.860100  1.0  -0.2164
  C  C521  1  0.096380  0.811280  0.794700  1.0  0.2851
  C  C522  1  0.163330  0.955410  0.840400  1.0  0.0344
  C  C523  1  0.156580  0.958960  0.983600  1.0  -0.0651
  C  C524  1  0.167800  0.992100  0.047900  1.0  -0.1637
  C  C525  1  0.159600  0.998900  0.181200  1.0  -0.0754
  C  C526  1  0.140000  0.973200  0.255900  1.0  -0.1103
  C  C527  1  0.129500  0.940400  0.197400  1.0  -0.1886
  C  C528  1  0.137480  0.932290  0.062900  1.0  0.3
  C  C529  1  0.129770  0.907670  0.548100  1.0  -0.0355
  C  C530  1  0.160440  0.927530  0.619600  1.0  -0.0494
  C  C531  1  0.695250  0.331390  0.253500  1.0  0.3127
  C  C532  1  0.678750  0.331670  0.459200  1.0  0.176
  C  C533  1  0.695450  0.190940  0.337000  1.0  0.2796
  C  C534  1  0.674490  0.210110  0.522700  1.0  0.1885
  C  C535  1  0.810170  0.265100  0.469800  1.0  0.2958
  C  C536  1  0.778770  0.279750  0.639200  1.0  0.1889
  C  C537  1  0.612150  0.343770  0.076700  1.0  0.0714
  C  C538  1  0.603090  0.311070  0.154600  1.0  -0.0784
  C  C539  1  0.601100  0.277200  0.085900  1.0  -0.1219
  C  C540  1  0.593900  0.244800  0.154700  1.0  -0.1042
  C  C541  1  0.588600  0.245500  0.288200  1.0  -0.1035
  C  C542  1  0.589200  0.278400  0.360100  1.0  -0.2164
  C  C543  1  0.596380  0.311280  0.294700  1.0  0.2851
  C  C544  1  0.663330  0.455410  0.340400  1.0  0.0344
  C  C545  1  0.656580  0.458960  0.483600  1.0  -0.0651
  C  C546  1  0.667800  0.492100  0.547900  1.0  -0.1637
  C  C547  1  0.659600  0.498900  0.681200  1.0  -0.0754
  C  C548  1  0.640000  0.473200  0.755900  1.0  -0.1103
  C  C549  1  0.629500  0.440400  0.697400  1.0  -0.1886
  C  C550  1  0.637480  0.432290  0.562900  1.0  0.3
  C  C551  1  0.629770  0.407670  0.048100  1.0  -0.0355
  C  C552  1  0.660440  0.427530  0.119600  1.0  -0.0494
  C  C553  1  0.081390  0.554750  0.996500  1.0  0.3144
  C  C554  1  0.081670  0.571250  0.790800  1.0  0.1759
  C  C555  1  0.940940  0.554550  0.913000  1.0  0.2798
  C  C556  1  0.960110  0.575510  0.727300  1.0  0.1868
  C  C557  1  0.015100  0.439830  0.780200  1.0  0.2916
  C  C558  1  0.029750  0.471230  0.610800  1.0  0.1889
  C  C559  1  0.093770  0.637850  0.173300  1.0  0.0714
  C  C560  1  0.061070  0.646910  0.095400  1.0  -0.0795
  C  C561  1  0.027200  0.648900  0.164100  1.0  -0.1238
  C  C562  1  0.994800  0.656100  0.095300  1.0  -0.1071
  C  C563  1  0.995500  0.661400  0.961800  1.0  -0.1049
  C  C564  1  0.028400  0.660800  0.889900  1.0  -0.2155
  C  C565  1  0.061280  0.653620  0.955300  1.0  0.2871
  C  C566  1  0.205410  0.586670  0.909600  1.0  0.0345
  C  C567  1  0.208960  0.593420  0.766400  1.0  -0.0663
  C  C568  1  0.242100  0.582200  0.702100  1.0  -0.1624
  C  C569  1  0.248900  0.590400  0.568800  1.0  -0.0768
  C  C570  1  0.223200  0.610000  0.494100  1.0  -0.106
  C  C571  1  0.190400  0.620500  0.552600  1.0  -0.1878
  C  C572  1  0.182290  0.612520  0.687100  1.0  0.3014
  C  C573  1  0.157670  0.620230  0.201900  1.0  -0.0345
  C  C574  1  0.177530  0.589560  0.130400  1.0  -0.05
  C  C575  1  0.581390  0.054750  0.496500  1.0  0.3144
  C  C576  1  0.581670  0.071250  0.290800  1.0  0.1759
  C  C577  1  0.440940  0.054550  0.413000  1.0  0.2798
  C  C578  1  0.460110  0.075510  0.227300  1.0  0.1868
  C  C579  1  0.515100  0.939830  0.280200  1.0  0.2916
  C  C580  1  0.529750  0.971230  0.110800  1.0  0.1889
  C  C581  1  0.593770  0.137850  0.673300  1.0  0.0714
  C  C582  1  0.561070  0.146910  0.595400  1.0  -0.0795
  C  C583  1  0.527200  0.148900  0.664100  1.0  -0.1238
  C  C584  1  0.494800  0.156100  0.595300  1.0  -0.1071
  C  C585  1  0.495500  0.161400  0.461800  1.0  -0.1049
  C  C586  1  0.528400  0.160800  0.389900  1.0  -0.2155
  C  C587  1  0.561280  0.153620  0.455300  1.0  0.2871
  C  C588  1  0.705410  0.086670  0.409600  1.0  0.0345
  C  C589  1  0.708960  0.093420  0.266400  1.0  -0.0663
  C  C590  1  0.742100  0.082200  0.202100  1.0  -0.1624
  C  C591  1  0.748900  0.090400  0.068800  1.0  -0.0768
  C  C592  1  0.723200  0.110000  0.994100  1.0  -0.106
  C  C593  1  0.690400  0.120500  0.052600  1.0  -0.1878
  C  C594  1  0.682290  0.112520  0.187100  1.0  0.3014
  C  C595  1  0.657670  0.120230  0.701900  1.0  -0.0345
  C  C596  1  0.677530  0.089560  0.630400  1.0  -0.05
  C  C597  1  0.418610  0.445250  0.496500  1.0  0.3134
  C  C598  1  0.418330  0.428750  0.290800  1.0  0.1766
  C  C599  1  0.559060  0.445450  0.413000  1.0  0.2795
  C  C600  1  0.539890  0.424490  0.227300  1.0  0.1863
  C  C601  1  0.484900  0.560170  0.280200  1.0  0.2912
  C  C602  1  0.470250  0.528770  0.110800  1.0  0.1894
  C  C603  1  0.406230  0.362150  0.673300  1.0  0.072
  C  C604  1  0.438930  0.353090  0.595400  1.0  -0.0799
  C  C605  1  0.472800  0.351100  0.664100  1.0  -0.1258
  C  C606  1  0.505200  0.343900  0.595300  1.0  -0.1059
  C  C607  1  0.504500  0.338600  0.461800  1.0  -0.1044
  C  C608  1  0.471600  0.339200  0.389900  1.0  -0.2146
  C  C609  1  0.438720  0.346380  0.455300  1.0  0.2865
  C  C610  1  0.294590  0.413330  0.409600  1.0  0.0326
  C  C611  1  0.291040  0.406580  0.266400  1.0  -0.0663
  C  C612  1  0.257900  0.417800  0.202100  1.0  -0.1634
  C  C613  1  0.251100  0.409600  0.068800  1.0  -0.0761
  C  C614  1  0.276800  0.390000  0.994100  1.0  -0.1065
  C  C615  1  0.309600  0.379500  0.052600  1.0  -0.1869
  C  C616  1  0.317710  0.387480  0.187100  1.0  0.303
  C  C617  1  0.342330  0.379770  0.701900  1.0  -0.0358
  C  C618  1  0.322470  0.410440  0.630400  1.0  -0.0509
  C  C619  1  0.918610  0.945250  0.996500  1.0  0.3134
  C  C620  1  0.918330  0.928750  0.790800  1.0  0.1766
  C  C621  1  0.059060  0.945450  0.913000  1.0  0.2795
  C  C622  1  0.039890  0.924490  0.727300  1.0  0.1863
  C  C623  1  0.984900  0.060170  0.780200  1.0  0.2912
  C  C624  1  0.970250  0.028770  0.610800  1.0  0.1894
  C  C625  1  0.906230  0.862150  0.173300  1.0  0.072
  C  C626  1  0.938930  0.853090  0.095400  1.0  -0.0799
  C  C627  1  0.972800  0.851100  0.164100  1.0  -0.1258
  C  C628  1  0.005200  0.843900  0.095300  1.0  -0.1059
  C  C629  1  0.004500  0.838600  0.961800  1.0  -0.1044
  C  C630  1  0.971600  0.839200  0.889900  1.0  -0.2146
  C  C631  1  0.938720  0.846380  0.955300  1.0  0.2865
  C  C632  1  0.794590  0.913330  0.909600  1.0  0.0326
  C  C633  1  0.791040  0.906580  0.766400  1.0  -0.0663
  C  C634  1  0.757900  0.917800  0.702100  1.0  -0.1634
  C  C635  1  0.751100  0.909600  0.568800  1.0  -0.0761
  C  C636  1  0.776800  0.890000  0.494100  1.0  -0.1065
  C  C637  1  0.809600  0.879500  0.552600  1.0  -0.1869
  C  C638  1  0.817710  0.887480  0.687100  1.0  0.303
  C  C639  1  0.842330  0.879770  0.201900  1.0  -0.0358
  C  C640  1  0.822470  0.910440  0.130400  1.0  -0.0509
  C  C641  1  0.695250  0.831390  0.746500  1.0  0.3135
  C  C642  1  0.678750  0.831670  0.540800  1.0  0.1767
  C  C643  1  0.695450  0.690940  0.663000  1.0  0.28
  C  C644  1  0.674490  0.710110  0.477300  1.0  0.1881
  C  C645  1  0.810170  0.765100  0.530200  1.0  0.2943
  C  C646  1  0.778770  0.779750  0.360800  1.0  0.1893
  C  C647  1  0.612150  0.843770  0.923300  1.0  0.0705
  C  C648  1  0.603090  0.811070  0.845400  1.0  -0.0785
  C  C649  1  0.601100  0.777200  0.914100  1.0  -0.121
  C  C650  1  0.593900  0.744800  0.845300  1.0  -0.1047
  C  C651  1  0.588600  0.745500  0.711800  1.0  -0.1029
  C  C652  1  0.589200  0.778400  0.639900  1.0  -0.2142
  C  C653  1  0.596380  0.811280  0.705300  1.0  0.2853
  C  C654  1  0.663330  0.955410  0.659600  1.0  0.0343
  C  C655  1  0.656580  0.958960  0.516400  1.0  -0.0652
  C  C656  1  0.667800  0.992100  0.452100  1.0  -0.1637
  C  C657  1  0.659600  0.998900  0.318800  1.0  -0.0759
  C  C658  1  0.640000  0.973200  0.244100  1.0  -0.1092
  C  C659  1  0.629500  0.940400  0.302600  1.0  -0.1894
  C  C660  1  0.637480  0.932290  0.437100  1.0  0.3021
  C  C661  1  0.629770  0.907670  0.951900  1.0  -0.0372
  C  C662  1  0.660440  0.927530  0.880400  1.0  -0.0486
  C  C663  1  0.195250  0.331390  0.246500  1.0  0.3135
  C  C664  1  0.178750  0.331670  0.040800  1.0  0.1767
  C  C665  1  0.195450  0.190940  0.163000  1.0  0.28
  C  C666  1  0.174490  0.210110  0.977300  1.0  0.1881
  C  C667  1  0.310170  0.265100  0.030200  1.0  0.2943
  C  C668  1  0.278770  0.279750  0.860800  1.0  0.1893
  C  C669  1  0.112150  0.343770  0.423300  1.0  0.0705
  C  C670  1  0.103090  0.311070  0.345400  1.0  -0.0785
  C  C671  1  0.101100  0.277200  0.414100  1.0  -0.121
  C  C672  1  0.093900  0.244800  0.345300  1.0  -0.1047
  C  C673  1  0.088600  0.245500  0.211800  1.0  -0.1029
  C  C674  1  0.089200  0.278400  0.139900  1.0  -0.2142
  C  C675  1  0.096380  0.311280  0.205300  1.0  0.2853
  C  C676  1  0.163330  0.455410  0.159600  1.0  0.0343
  C  C677  1  0.156580  0.458960  0.016400  1.0  -0.0652
  C  C678  1  0.167800  0.492100  0.952100  1.0  -0.1637
  C  C679  1  0.159600  0.498900  0.818800  1.0  -0.0759
  C  C680  1  0.140000  0.473200  0.744100  1.0  -0.1092
  C  C681  1  0.129500  0.440400  0.802600  1.0  -0.1894
  C  C682  1  0.137480  0.432290  0.937100  1.0  0.3021
  C  C683  1  0.129770  0.407670  0.451900  1.0  -0.0372
  C  C684  1  0.160440  0.427530  0.380400  1.0  -0.0486
  C  C685  1  0.804750  0.168610  0.246500  1.0  0.3136
  C  C686  1  0.821250  0.168330  0.040800  1.0  0.1756
  C  C687  1  0.804550  0.309060  0.163000  1.0  0.2795
  C  C688  1  0.825510  0.289890  0.977300  1.0  0.188
  C  C689  1  0.689830  0.234900  0.030200  1.0  0.2942
  C  C690  1  0.721230  0.220250  0.860800  1.0  0.1891
  C  C691  1  0.887850  0.156230  0.423300  1.0  0.0724
  C  C692  1  0.896910  0.188930  0.345400  1.0  -0.0787
  C  C693  1  0.898900  0.222800  0.414100  1.0  -0.12
  C  C694  1  0.906100  0.255200  0.345300  1.0  -0.1039
  C  C695  1  0.911400  0.254500  0.211800  1.0  -0.1027
  C  C696  1  0.910800  0.221600  0.139900  1.0  -0.2153
  C  C697  1  0.903620  0.188720  0.205300  1.0  0.2867
  C  C698  1  0.836670  0.044590  0.159600  1.0  0.0319
  C  C699  1  0.843420  0.041040  0.016400  1.0  -0.0644
  C  C700  1  0.832200  0.007900  0.952100  1.0  -0.163
  C  C701  1  0.840400  0.001100  0.818800  1.0  -0.075
  C  C702  1  0.860000  0.026800  0.744100  1.0  -0.108
  C  C703  1  0.870500  0.059600  0.802600  1.0  -0.188
  C  C704  1  0.862520  0.067710  0.937100  1.0  0.2987
  C  C705  1  0.870230  0.092330  0.451900  1.0  -0.0359
  C  C706  1  0.839560  0.072470  0.380400  1.0  -0.0458
  C  C707  1  0.304750  0.668610  0.746500  1.0  0.3136
  C  C708  1  0.321250  0.668330  0.540800  1.0  0.1756
  C  C709  1  0.304550  0.809060  0.663000  1.0  0.2795
  C  C710  1  0.325510  0.789890  0.477300  1.0  0.188
  C  C711  1  0.189830  0.734900  0.530200  1.0  0.2942
  C  C712  1  0.221230  0.720250  0.360800  1.0  0.1891
  C  C713  1  0.387850  0.656230  0.923300  1.0  0.0724
  C  C714  1  0.396910  0.688930  0.845400  1.0  -0.0787
  C  C715  1  0.398900  0.722800  0.914100  1.0  -0.12
  C  C716  1  0.406100  0.755200  0.845300  1.0  -0.1039
  C  C717  1  0.411400  0.754500  0.711800  1.0  -0.1027
  C  C718  1  0.410800  0.721600  0.639900  1.0  -0.2153
  C  C719  1  0.403620  0.688720  0.705300  1.0  0.2867
  C  C720  1  0.336670  0.544590  0.659600  1.0  0.0319
  C  C721  1  0.343420  0.541040  0.516400  1.0  -0.0644
  C  C722  1  0.332200  0.507900  0.452100  1.0  -0.163
  C  C723  1  0.340400  0.501100  0.318800  1.0  -0.075
  C  C724  1  0.360000  0.526800  0.244100  1.0  -0.108
  C  C725  1  0.370500  0.559600  0.302600  1.0  -0.188
  C  C726  1  0.362520  0.567710  0.437100  1.0  0.2987
  C  C727  1  0.370230  0.592330  0.951900  1.0  -0.0359
  C  C728  1  0.339560  0.572470  0.880400  1.0  -0.0458
  N  N729  1  0.947330  0.462180  0.056700  1.0  -0.3645
  N  N730  1  0.947210  0.450930  0.190900  1.0  -0.0373
  N  N731  1  0.899480  0.424230  0.093900  1.0  -0.4653
  N  N732  1  0.027800  0.462460  0.107600  1.0  -0.3071
  N  N733  1  0.015070  0.449340  0.229200  1.0  -0.0719
  N  N734  1  0.068080  0.421160  0.184900  1.0  -0.4656
  N  N735  1  0.988480  0.525450  0.178500  1.0  -0.346
  N  N736  1  0.979290  0.505200  0.291200  1.0  -0.0095
  N  N737  1  0.974020  0.563940  0.350200  1.0  -0.4065
  N  N738  1  0.874600  0.369310  0.881600  1.0  -0.357
  N  N739  1  0.820980  0.400820  0.014600  1.0  -0.3733
  N  N740  1  0.447330  0.962180  0.556700  1.0  -0.3645
  N  N741  1  0.447210  0.950930  0.690900  1.0  -0.0373
  N  N742  1  0.399480  0.924230  0.593900  1.0  -0.4653
  N  N743  1  0.527800  0.962460  0.607600  1.0  -0.3071
  N  N744  1  0.515070  0.949340  0.729200  1.0  -0.0719
  N  N745  1  0.568080  0.921160  0.684900  1.0  -0.4656
  N  N746  1  0.488480  0.025450  0.678500  1.0  -0.346
  N  N747  1  0.479290  0.005200  0.791200  1.0  -0.0095
  N  N748  1  0.474020  0.063940  0.850200  1.0  -0.4065
  N  N749  1  0.374600  0.869310  0.381600  1.0  -0.357
  N  N750  1  0.320980  0.900820  0.514600  1.0  -0.3733
  N  N751  1  0.552670  0.537820  0.556700  1.0  -0.3655
  N  N752  1  0.552790  0.549070  0.690900  1.0  -0.0375
  N  N753  1  0.600520  0.575770  0.593900  1.0  -0.466
  N  N754  1  0.472200  0.537540  0.607600  1.0  -0.3066
  N  N755  1  0.484930  0.550660  0.729200  1.0  -0.0726
  N  N756  1  0.431920  0.578840  0.684900  1.0  -0.4667
  N  N757  1  0.511520  0.474550  0.678500  1.0  -0.3462
  N  N758  1  0.520710  0.494800  0.791200  1.0  -0.01
  N  N759  1  0.525980  0.436060  0.850200  1.0  -0.4058
  N  N760  1  0.625400  0.630690  0.381600  1.0  -0.3569
  N  N761  1  0.679020  0.599180  0.514600  1.0  -0.3709
  N  N762  1  0.052670  0.037820  0.056700  1.0  -0.3655
  N  N763  1  0.052790  0.049070  0.190900  1.0  -0.0375
  N  N764  1  0.100520  0.075770  0.093900  1.0  -0.466
  N  N765  1  0.972200  0.037540  0.107600  1.0  -0.3066
  N  N766  1  0.984930  0.050660  0.229200  1.0  -0.0726
  N  N767  1  0.931920  0.078840  0.184900  1.0  -0.4667
  N  N768  1  0.011520  0.974550  0.178500  1.0  -0.3462
  N  N769  1  0.020710  0.994800  0.291200  1.0  -0.01
  N  N770  1  0.025980  0.936060  0.350200  1.0  -0.4058
  N  N771  1  0.125400  0.130690  0.881600  1.0  -0.3569
  N  N772  1  0.179020  0.099180  0.014600  1.0  -0.3709
  N  N773  1  0.287820  0.197330  0.306700  1.0  -0.3647
  N  N774  1  0.299070  0.197210  0.440900  1.0  -0.0363
  N  N775  1  0.325770  0.149480  0.343900  1.0  -0.4673
  N  N776  1  0.287540  0.277800  0.357600  1.0  -0.3072
  N  N777  1  0.300660  0.265070  0.479200  1.0  -0.0732
  N  N778  1  0.328840  0.318080  0.434900  1.0  -0.4664
  N  N779  1  0.224550  0.238480  0.428500  1.0  -0.3461
  N  N780  1  0.244800  0.229290  0.541200  1.0  -0.0105
  N  N781  1  0.186060  0.224020  0.600200  1.0  -0.4076
  N  N782  1  0.380690  0.124600  0.131600  1.0  -0.3582
  N  N783  1  0.349180  0.070980  0.264600  1.0  -0.3743
  N  N784  1  0.787820  0.697330  0.806700  1.0  -0.3647
  N  N785  1  0.799070  0.697210  0.940900  1.0  -0.0363
  N  N786  1  0.825770  0.649480  0.843900  1.0  -0.4673
  N  N787  1  0.787540  0.777800  0.857600  1.0  -0.3072
  N  N788  1  0.800660  0.765070  0.979200  1.0  -0.0732
  N  N789  1  0.828840  0.818080  0.934900  1.0  -0.4664
  N  N790  1  0.724550  0.738480  0.928500  1.0  -0.3461
  N  N791  1  0.744800  0.729290  0.041200  1.0  -0.0105
  N  N792  1  0.686060  0.724020  0.100200  1.0  -0.4076
  N  N793  1  0.880690  0.624600  0.631600  1.0  -0.3582
  N  N794  1  0.849180  0.570980  0.764600  1.0  -0.3743
  N  N795  1  0.212180  0.802670  0.806700  1.0  -0.364
  N  N796  1  0.200930  0.802790  0.940900  1.0  -0.0379
  N  N797  1  0.174230  0.850520  0.843900  1.0  -0.4666
  N  N798  1  0.212460  0.722200  0.857600  1.0  -0.3065
  N  N799  1  0.199340  0.734930  0.979200  1.0  -0.073
  N  N800  1  0.171160  0.681920  0.934900  1.0  -0.4663
  N  N801  1  0.275450  0.761520  0.928500  1.0  -0.3457
  N  N802  1  0.255200  0.770710  0.041200  1.0  -0.0107
  N  N803  1  0.313940  0.775980  0.100200  1.0  -0.4055
  N  N804  1  0.119310  0.875400  0.631600  1.0  -0.3589
  N  N805  1  0.150820  0.929020  0.764600  1.0  -0.3728
  N  N806  1  0.712180  0.302670  0.306700  1.0  -0.364
  N  N807  1  0.700930  0.302790  0.440900  1.0  -0.0379
  N  N808  1  0.674230  0.350520  0.343900  1.0  -0.4666
  N  N809  1  0.712460  0.222200  0.357600  1.0  -0.3065
  N  N810  1  0.699340  0.234930  0.479200  1.0  -0.073
  N  N811  1  0.671160  0.181920  0.434900  1.0  -0.4663
  N  N812  1  0.775450  0.261520  0.428500  1.0  -0.3457
  N  N813  1  0.755200  0.270710  0.541200  1.0  -0.0107
  N  N814  1  0.813940  0.275980  0.600200  1.0  -0.4055
  N  N815  1  0.619310  0.375400  0.131600  1.0  -0.3589
  N  N816  1  0.650820  0.429020  0.264600  1.0  -0.3728
  N  N817  1  0.052670  0.537820  0.943300  1.0  -0.3655
  N  N818  1  0.052790  0.549070  0.809100  1.0  -0.039
  N  N819  1  0.100520  0.575770  0.906100  1.0  -0.4664
  N  N820  1  0.972200  0.537540  0.892400  1.0  -0.3063
  N  N821  1  0.984930  0.550660  0.770800  1.0  -0.0725
  N  N822  1  0.931920  0.578840  0.815100  1.0  -0.4669
  N  N823  1  0.011520  0.474550  0.821500  1.0  -0.3458
  N  N824  1  0.020710  0.494800  0.708800  1.0  -0.0098
  N  N825  1  0.025980  0.436060  0.649800  1.0  -0.4065
  N  N826  1  0.125400  0.630690  0.118400  1.0  -0.3566
  N  N827  1  0.179020  0.599180  0.985400  1.0  -0.3705
  N  N828  1  0.552670  0.037820  0.443300  1.0  -0.3655
  N  N829  1  0.552790  0.049070  0.309100  1.0  -0.039
  N  N830  1  0.600520  0.075770  0.406100  1.0  -0.4664
  N  N831  1  0.472200  0.037540  0.392400  1.0  -0.3063
  N  N832  1  0.484930  0.050660  0.270800  1.0  -0.0725
  N  N833  1  0.431920  0.078840  0.315100  1.0  -0.4669
  N  N834  1  0.511520  0.974550  0.321500  1.0  -0.3458
  N  N835  1  0.520710  0.994800  0.208800  1.0  -0.0098
  N  N836  1  0.525980  0.936060  0.149800  1.0  -0.4065
  N  N837  1  0.625400  0.130690  0.618400  1.0  -0.3566
  N  N838  1  0.679020  0.099180  0.485400  1.0  -0.3705
  N  N839  1  0.447330  0.462180  0.443300  1.0  -0.3651
  N  N840  1  0.447210  0.450930  0.309100  1.0  -0.0376
  N  N841  1  0.399480  0.424230  0.406100  1.0  -0.4658
  N  N842  1  0.527800  0.462460  0.392400  1.0  -0.307
  N  N843  1  0.515070  0.449340  0.270800  1.0  -0.0724
  N  N844  1  0.568080  0.421160  0.315100  1.0  -0.4659
  N  N845  1  0.488480  0.525450  0.321500  1.0  -0.3453
  N  N846  1  0.479290  0.505200  0.208800  1.0  -0.0088
  N  N847  1  0.474020  0.563940  0.149800  1.0  -0.408
  N  N848  1  0.374600  0.369310  0.618400  1.0  -0.3565
  N  N849  1  0.320980  0.400820  0.485400  1.0  -0.3729
  N  N850  1  0.947330  0.962180  0.943300  1.0  -0.3651
  N  N851  1  0.947210  0.950930  0.809100  1.0  -0.0376
  N  N852  1  0.899480  0.924230  0.906100  1.0  -0.4658
  N  N853  1  0.027800  0.962460  0.892400  1.0  -0.307
  N  N854  1  0.015070  0.949340  0.770800  1.0  -0.0724
  N  N855  1  0.068080  0.921160  0.815100  1.0  -0.4659
  N  N856  1  0.988480  0.025450  0.821500  1.0  -0.3453
  N  N857  1  0.979290  0.005200  0.708800  1.0  -0.0088
  N  N858  1  0.974020  0.063940  0.649800  1.0  -0.408
  N  N859  1  0.874600  0.869310  0.118400  1.0  -0.3565
  N  N860  1  0.820980  0.900820  0.985400  1.0  -0.3729
  N  N861  1  0.712180  0.802670  0.693300  1.0  -0.3639
  N  N862  1  0.700930  0.802790  0.559100  1.0  -0.0388
  N  N863  1  0.674230  0.850520  0.656100  1.0  -0.4669
  N  N864  1  0.712460  0.722200  0.642400  1.0  -0.3058
  N  N865  1  0.699340  0.734930  0.520800  1.0  -0.0732
  N  N866  1  0.671160  0.681920  0.565100  1.0  -0.4666
  N  N867  1  0.775450  0.761520  0.571500  1.0  -0.3447
  N  N868  1  0.755200  0.770710  0.458800  1.0  -0.0102
  N  N869  1  0.813940  0.775980  0.399800  1.0  -0.4076
  N  N870  1  0.619310  0.875400  0.868400  1.0  -0.3583
  N  N871  1  0.650820  0.929020  0.735400  1.0  -0.3723
  N  N872  1  0.212180  0.302670  0.193300  1.0  -0.3639
  N  N873  1  0.200930  0.302790  0.059100  1.0  -0.0388
  N  N874  1  0.174230  0.350520  0.156100  1.0  -0.4669
  N  N875  1  0.212460  0.222200  0.142400  1.0  -0.3058
  N  N876  1  0.199340  0.234930  0.020800  1.0  -0.0732
  N  N877  1  0.171160  0.181920  0.065100  1.0  -0.4666
  N  N878  1  0.275450  0.261520  0.071500  1.0  -0.3447
  N  N879  1  0.255200  0.270710  0.958800  1.0  -0.0102
  N  N880  1  0.313940  0.275980  0.899800  1.0  -0.4076
  N  N881  1  0.119310  0.375400  0.368400  1.0  -0.3583
  N  N882  1  0.150820  0.429020  0.235400  1.0  -0.3723
  N  N883  1  0.787820  0.197330  0.193300  1.0  -0.3653
  N  N884  1  0.799070  0.197210  0.059100  1.0  -0.0374
  N  N885  1  0.825770  0.149480  0.156100  1.0  -0.4675
  N  N886  1  0.787540  0.277800  0.142400  1.0  -0.307
  N  N887  1  0.800660  0.265070  0.020800  1.0  -0.0735
  N  N888  1  0.828840  0.318080  0.065100  1.0  -0.4666
  N  N889  1  0.724550  0.238480  0.071500  1.0  -0.3457
  N  N890  1  0.744800  0.229290  0.958800  1.0  -0.01
  N  N891  1  0.686060  0.224020  0.899800  1.0  -0.4092
  N  N892  1  0.880690  0.124600  0.368400  1.0  -0.3576
  N  N893  1  0.849180  0.070980  0.235400  1.0  -0.3737
  N  N894  1  0.287820  0.697330  0.693300  1.0  -0.3653
  N  N895  1  0.299070  0.697210  0.559100  1.0  -0.0374
  N  N896  1  0.325770  0.649480  0.656100  1.0  -0.4675
  N  N897  1  0.287540  0.777800  0.642400  1.0  -0.307
  N  N898  1  0.300660  0.765070  0.520800  1.0  -0.0735
  N  N899  1  0.328840  0.818080  0.565100  1.0  -0.4666
  N  N900  1  0.224550  0.738480  0.571500  1.0  -0.3457
  N  N901  1  0.244800  0.729290  0.458800  1.0  -0.01
  N  N902  1  0.186060  0.724020  0.399800  1.0  -0.4092
  N  N903  1  0.380690  0.624600  0.868400  1.0  -0.3576
  N  N904  1  0.349180  0.570980  0.735400  1.0  -0.3737
  O  O905  1  0.907450  0.345470  0.120400  1.0  -0.5758
  O  O906  1  0.849660  0.375780  0.261400  1.0  -0.5568
  O  O907  1  0.407450  0.845470  0.620400  1.0  -0.5758
  O  O908  1  0.349660  0.875780  0.761400  1.0  -0.5568
  O  O909  1  0.592550  0.654530  0.620400  1.0  -0.5749
  O  O910  1  0.650340  0.624220  0.761400  1.0  -0.5598
  O  O911  1  0.092550  0.154530  0.120400  1.0  -0.5749
  O  O912  1  0.150340  0.124220  0.261400  1.0  -0.5598
  O  O913  1  0.404530  0.157450  0.370400  1.0  -0.5749
  O  O914  1  0.374220  0.099660  0.511400  1.0  -0.5587
  O  O915  1  0.904530  0.657450  0.870400  1.0  -0.5749
  O  O916  1  0.874220  0.599660  0.011400  1.0  -0.5587
  O  O917  1  0.095470  0.842550  0.870400  1.0  -0.5748
  O  O918  1  0.125780  0.900340  0.011400  1.0  -0.5597
  O  O919  1  0.595470  0.342550  0.370400  1.0  -0.5748
  O  O920  1  0.625780  0.400340  0.511400  1.0  -0.5597
  O  O921  1  0.092550  0.654530  0.879600  1.0  -0.5735
  O  O922  1  0.150340  0.624220  0.738600  1.0  -0.5593
  O  O923  1  0.592550  0.154530  0.379600  1.0  -0.5735
  O  O924  1  0.650340  0.124220  0.238600  1.0  -0.5593
  O  O925  1  0.407450  0.345470  0.379600  1.0  -0.5746
  O  O926  1  0.349660  0.375780  0.238600  1.0  -0.5574
  O  O927  1  0.907450  0.845470  0.879600  1.0  -0.5746
  O  O928  1  0.849660  0.875780  0.738600  1.0  -0.5574
  O  O929  1  0.595470  0.842550  0.629600  1.0  -0.5734
  O  O930  1  0.625780  0.900340  0.488600  1.0  -0.5603
  O  O931  1  0.095470  0.342550  0.129600  1.0  -0.5734
  O  O932  1  0.125780  0.400340  0.988600  1.0  -0.5603
  O  O933  1  0.904530  0.157450  0.129600  1.0  -0.5734
  O  O934  1  0.874220  0.099660  0.988600  1.0  -0.5581
  O  O935  1  0.404530  0.657450  0.629600  1.0  -0.5734
  O  O936  1  0.374220  0.599660  0.488600  1.0  -0.5581
