# generated using pymatgen
data_Zn6H17C45O22
_symmetry_space_group_name_H-M   'P 1'
_cell_length_a   20.13080000
_cell_length_b   27.40990000
_cell_length_c   45.33380000
_cell_angle_alpha   90.00000000
_cell_angle_beta   90.00000000
_cell_angle_gamma   90.00000000
_symmetry_Int_Tables_number   1
_chemical_formula_structural   Zn6H17C45O22
_chemical_formula_sum   'Zn48 H136 C360 O176'
_cell_volume   25014.42990854
_cell_formula_units_Z   8
loop_
 _symmetry_equiv_pos_site_id
 _symmetry_equiv_pos_as_xyz
  1  'x, y, z'
loop_
 _atom_site_type_symbol
 _atom_site_label
 _atom_site_symmetry_multiplicity
 _atom_site_fract_x
 _atom_site_fract_y
 _atom_site_fract_z
 _atom_site_occupancy
 _atom_site_charge
  Zn  Zn1  1  0.686360  0.249030  0.590190  1.0  0.9618
  Zn  Zn2  1  0.728980  0.128980  0.584010  1.0  1.072
  Zn  Zn3  1  0.740380  0.186390  0.647210  1.0  1.0708
  Zn  Zn4  1  0.025360  0.680000  0.650810  1.0  1.0937
  Zn  Zn5  1  0.459180  0.787520  0.584840  1.0  1.0613
  Zn  Zn6  1  0.576080  0.866580  0.587030  1.0  0.9635
  Zn  Zn7  1  0.090780  0.750940  0.914830  1.0  0.9913
  Zn  Zn8  1  0.568420  0.871870  0.917030  1.0  1.0475
  Zn  Zn9  1  0.543950  0.811500  0.855990  1.0  1.0603
  Zn  Zn10  1  0.252580  0.323840  0.850810  1.0  1.1157
  Zn  Zn11  1  0.327250  0.314170  0.917490  1.0  1.0903
  Zn  Zn12  1  0.670610  0.188580  0.915280  1.0  1.0369
  Zn  Zn13  1  0.186360  0.750970  0.409810  1.0  0.9631
  Zn  Zn14  1  0.228980  0.871020  0.415990  1.0  1.0711
  Zn  Zn15  1  0.240380  0.813610  0.352790  1.0  1.0704
  Zn  Zn16  1  0.525360  0.320000  0.349190  1.0  1.0949
  Zn  Zn17  1  0.959180  0.212480  0.415160  1.0  1.0615
  Zn  Zn18  1  0.076080  0.133420  0.412970  1.0  0.9642
  Zn  Zn19  1  0.590780  0.249060  0.085170  1.0  0.9963
  Zn  Zn20  1  0.068420  0.128130  0.082970  1.0  1.0489
  Zn  Zn21  1  0.043950  0.188500  0.144010  1.0  1.0594
  Zn  Zn22  1  0.752580  0.676160  0.149190  1.0  1.1175
  Zn  Zn23  1  0.827250  0.685830  0.082510  1.0  1.0908
  Zn  Zn24  1  0.170610  0.811420  0.084720  1.0  1.036
  Zn  Zn25  1  0.686360  0.749030  0.409810  1.0  0.9784
  Zn  Zn26  1  0.728980  0.628980  0.415990  1.0  1.0716
  Zn  Zn27  1  0.740380  0.686390  0.352790  1.0  1.0706
  Zn  Zn28  1  0.025360  0.180000  0.349190  1.0  1.0937
  Zn  Zn29  1  0.459180  0.287520  0.415160  1.0  1.0612
  Zn  Zn30  1  0.576080  0.366580  0.412970  1.0  0.9629
  Zn  Zn31  1  0.090780  0.250940  0.085170  1.0  0.9969
  Zn  Zn32  1  0.568420  0.371870  0.082970  1.0  1.0477
  Zn  Zn33  1  0.543950  0.311500  0.144010  1.0  1.0601
  Zn  Zn34  1  0.252580  0.823840  0.149190  1.0  1.1167
  Zn  Zn35  1  0.327250  0.814170  0.082510  1.0  1.0901
  Zn  Zn36  1  0.670610  0.688580  0.084720  1.0  1.0362
  Zn  Zn37  1  0.186360  0.250970  0.590190  1.0  0.9774
  Zn  Zn38  1  0.228980  0.371020  0.584010  1.0  1.0712
  Zn  Zn39  1  0.240380  0.313610  0.647210  1.0  1.0709
  Zn  Zn40  1  0.525360  0.820000  0.650810  1.0  1.0944
  Zn  Zn41  1  0.959180  0.712480  0.584840  1.0  1.0616
  Zn  Zn42  1  0.076080  0.633420  0.587030  1.0  0.9646
  Zn  Zn43  1  0.590780  0.749060  0.914830  1.0  0.9951
  Zn  Zn44  1  0.068420  0.628130  0.917030  1.0  1.0487
  Zn  Zn45  1  0.043950  0.688500  0.855990  1.0  1.0602
  Zn  Zn46  1  0.752580  0.176160  0.850810  1.0  1.1171
  Zn  Zn47  1  0.827250  0.185830  0.917490  1.0  1.091
  Zn  Zn48  1  0.170610  0.311420  0.915280  1.0  1.0361
  H  H49  1  0.787600  0.199300  0.599800  1.0  0.3791
  H  H50  1  0.382600  0.785200  0.798700  1.0  0.1141
  H  H51  1  0.289500  0.762800  0.875600  1.0  0.1095
  H  H52  1  0.190600  0.744500  0.799600  1.0  0.1146
  H  H53  1  0.178900  0.748900  0.702100  1.0  0.109
  H  H54  1  0.266300  0.756900  0.623100  1.0  0.1074
  H  H55  1  0.375100  0.774400  0.696300  1.0  0.1192
  H  H56  1  0.697300  0.061700  0.699900  1.0  0.1194
  H  H57  1  0.657300  0.000600  0.621700  1.0  0.1092
  H  H58  1  0.617700  0.928400  0.696600  1.0  0.1164
  H  H59  1  0.603500  0.925900  0.798800  1.0  0.118
  H  H60  1  0.652700  0.992700  0.874300  1.0  0.102
  H  H61  1  0.700700  0.054100  0.797200  1.0  0.1191
  H  H62  1  0.589000  0.233700  0.704900  1.0  0.1158
  H  H63  1  0.490800  0.253700  0.628400  1.0  0.1105
  H  H64  1  0.401800  0.281700  0.705800  1.0  0.1193
  H  H65  1  0.414100  0.293700  0.805900  1.0  0.1052
  H  H66  1  0.508400  0.262700  0.881200  1.0  0.1086
  H  H67  1  0.590600  0.227200  0.804600  1.0  0.1151
  H  H68  1  0.311400  0.160500  0.952400  1.0  0.1004
  H  H69  1  0.180100  0.235500  0.000800  1.0  0.1138
  H  H70  1  0.236000  0.101100  0.026100  1.0  0.1171
  H  H71  1  0.311300  0.978400  0.025300  1.0  0.115
  H  H72  1  0.430300  0.867100  0.005000  1.0  0.1071
  H  H73  1  0.424600  0.984100  0.952000  1.0  0.1161
  H  H74  1  0.567700  0.786600  0.603800  1.0  0.4116
  H  H75  1  0.484100  0.963800  0.530800  1.0  0.1159
  H  H76  1  0.364900  0.852800  0.509200  1.0  0.107
  H  H77  1  0.368900  0.973200  0.458800  1.0  0.1133
  H  H78  1  0.469200  0.145800  0.459300  1.0  0.1145
  H  H79  1  0.592300  0.231900  0.505100  1.0  0.1088
  H  H80  1  0.561500  0.094300  0.530900  1.0  0.1159
  H  H81  1  0.998100  0.693700  0.903800  1.0  0.3984
  H  H82  1  0.247900  0.368100  0.898000  1.0  0.3919
  H  H83  1  0.287600  0.800700  0.400200  1.0  0.3797
  H  H84  1  0.882600  0.214800  0.201300  1.0  0.1131
  H  H85  1  0.789500  0.237200  0.124400  1.0  0.1097
  H  H86  1  0.690600  0.255500  0.200400  1.0  0.1146
  H  H87  1  0.678900  0.251100  0.297900  1.0  0.1087
  H  H88  1  0.766300  0.243100  0.376900  1.0  0.1072
  H  H89  1  0.875100  0.225600  0.303700  1.0  0.1187
  H  H90  1  0.197300  0.938300  0.300100  1.0  0.1195
  H  H91  1  0.157300  0.999400  0.378300  1.0  0.1086
  H  H92  1  0.117700  0.071600  0.303400  1.0  0.1166
  H  H93  1  0.103500  0.074100  0.201200  1.0  0.1185
  H  H94  1  0.152700  0.007300  0.125700  1.0  0.1025
  H  H95  1  0.200700  0.945900  0.202800  1.0  0.1189
  H  H96  1  0.089000  0.766300  0.295100  1.0  0.1162
  H  H97  1  0.990800  0.746300  0.371600  1.0  0.1107
  H  H98  1  0.901800  0.718300  0.294200  1.0  0.1188
  H  H99  1  0.914100  0.706300  0.194100  1.0  0.1058
  H  H100  1  0.008400  0.737300  0.118800  1.0  0.1092
  H  H101  1  0.090600  0.772800  0.195400  1.0  0.1148
  H  H102  1  0.811400  0.839500  0.047600  1.0  0.1025
  H  H103  1  0.680100  0.764500  0.999200  1.0  0.1132
  H  H104  1  0.736000  0.898900  0.973900  1.0  0.1168
  H  H105  1  0.811300  0.021600  0.974700  1.0  0.1146
  H  H106  1  0.930300  0.132900  0.995000  1.0  0.1072
  H  H107  1  0.924600  0.015900  0.048000  1.0  0.1175
  H  H108  1  0.067700  0.213400  0.396200  1.0  0.409
  H  H109  1  0.984100  0.036200  0.469200  1.0  0.1164
  H  H110  1  0.864900  0.147200  0.490800  1.0  0.1074
  H  H111  1  0.868900  0.026800  0.541200  1.0  0.1135
  H  H112  1  0.969200  0.854200  0.540700  1.0  0.1146
  H  H113  1  0.092300  0.768100  0.494900  1.0  0.1094
  H  H114  1  0.061500  0.905700  0.469100  1.0  0.1158
  H  H115  1  0.498100  0.306300  0.096200  1.0  0.3988
  H  H116  1  0.747900  0.631900  0.102000  1.0  0.3926
  H  H117  1  0.787600  0.699300  0.400200  1.0  0.3792
  H  H118  1  0.382600  0.285200  0.201300  1.0  0.1134
  H  H119  1  0.289500  0.262800  0.124400  1.0  0.1098
  H  H120  1  0.190600  0.244500  0.200400  1.0  0.1146
  H  H121  1  0.178900  0.248900  0.297900  1.0  0.1105
  H  H122  1  0.266300  0.256900  0.376900  1.0  0.1074
  H  H123  1  0.375100  0.274400  0.303700  1.0  0.1192
  H  H124  1  0.697300  0.561700  0.300100  1.0  0.1182
  H  H125  1  0.657300  0.500600  0.378300  1.0  0.1089
  H  H126  1  0.617700  0.428400  0.303400  1.0  0.1159
  H  H127  1  0.603500  0.425900  0.201200  1.0  0.1166
  H  H128  1  0.652700  0.492700  0.125700  1.0  0.1025
  H  H129  1  0.700700  0.554100  0.202800  1.0  0.1188
  H  H130  1  0.589000  0.733700  0.295100  1.0  0.1161
  H  H131  1  0.490800  0.753700  0.371600  1.0  0.1108
  H  H132  1  0.401800  0.781700  0.294200  1.0  0.1199
  H  H133  1  0.414100  0.793700  0.194100  1.0  0.1066
  H  H134  1  0.508400  0.762700  0.118800  1.0  0.1093
  H  H135  1  0.590600  0.727200  0.195400  1.0  0.1141
  H  H136  1  0.311400  0.660500  0.047600  1.0  0.1002
  H  H137  1  0.180100  0.735500  0.999200  1.0  0.1136
  H  H138  1  0.236000  0.601100  0.973900  1.0  0.1162
  H  H139  1  0.311300  0.478400  0.974700  1.0  0.1148
  H  H140  1  0.430300  0.367100  0.995000  1.0  0.1071
  H  H141  1  0.424600  0.484100  0.048000  1.0  0.1167
  H  H142  1  0.567700  0.286600  0.396200  1.0  0.4109
  H  H143  1  0.484100  0.463800  0.469200  1.0  0.1159
  H  H144  1  0.364900  0.352800  0.490800  1.0  0.1067
  H  H145  1  0.368900  0.473200  0.541200  1.0  0.1148
  H  H146  1  0.469200  0.645800  0.540700  1.0  0.114
  H  H147  1  0.592300  0.731900  0.494900  1.0  0.1088
  H  H148  1  0.561500  0.594300  0.469100  1.0  0.1156
  H  H149  1  0.998100  0.193700  0.096200  1.0  0.3987
  H  H150  1  0.247900  0.868100  0.102000  1.0  0.393
  H  H151  1  0.287600  0.300700  0.599800  1.0  0.3794
  H  H152  1  0.882600  0.714800  0.798700  1.0  0.1135
  H  H153  1  0.789500  0.737200  0.875600  1.0  0.1094
  H  H154  1  0.690600  0.755500  0.799600  1.0  0.1146
  H  H155  1  0.678900  0.751100  0.702100  1.0  0.1098
  H  H156  1  0.766300  0.743100  0.623100  1.0  0.1074
  H  H157  1  0.875100  0.725600  0.696300  1.0  0.1191
  H  H158  1  0.197300  0.438300  0.699900  1.0  0.1181
  H  H159  1  0.157300  0.499400  0.621700  1.0  0.1091
  H  H160  1  0.117700  0.571600  0.696600  1.0  0.1169
  H  H161  1  0.103500  0.574100  0.798800  1.0  0.1174
  H  H162  1  0.152700  0.507300  0.874300  1.0  0.1021
  H  H163  1  0.200700  0.445900  0.797200  1.0  0.1191
  H  H164  1  0.089000  0.266300  0.704900  1.0  0.1169
  H  H165  1  0.990800  0.246300  0.628400  1.0  0.1107
  H  H166  1  0.901800  0.218300  0.705800  1.0  0.1204
  H  H167  1  0.914100  0.206300  0.805900  1.0  0.1055
  H  H168  1  0.008400  0.237300  0.881200  1.0  0.1089
  H  H169  1  0.090600  0.272800  0.804600  1.0  0.1148
  H  H170  1  0.811400  0.339500  0.952400  1.0  0.0999
  H  H171  1  0.680100  0.264500  0.000800  1.0  0.1136
  H  H172  1  0.736000  0.398900  0.026100  1.0  0.1174
  H  H173  1  0.811300  0.521600  0.025300  1.0  0.115
  H  H174  1  0.930300  0.632900  0.005000  1.0  0.107
  H  H175  1  0.924600  0.515900  0.952000  1.0  0.1162
  H  H176  1  0.067700  0.713400  0.603800  1.0  0.4108
  H  H177  1  0.984100  0.536200  0.530800  1.0  0.1159
  H  H178  1  0.864900  0.647200  0.509200  1.0  0.1074
  H  H179  1  0.868900  0.526800  0.458800  1.0  0.1142
  H  H180  1  0.969200  0.354200  0.459300  1.0  0.1134
  H  H181  1  0.092300  0.268100  0.505100  1.0  0.1093
  H  H182  1  0.061500  0.405700  0.530900  1.0  0.1161
  H  H183  1  0.498100  0.806300  0.903800  1.0  0.399
  H  H184  1  0.747900  0.131900  0.898000  1.0  0.3924
  C  C185  1  0.286500  0.764700  0.793870  1.0  -0.0002
  C  C186  1  0.344600  0.776700  0.809110  1.0  -0.0107
  C  C187  1  0.345900  0.775900  0.839340  1.0  -0.1611
  C  C188  1  0.288700  0.763200  0.855100  1.0  0.0246
  C  C189  1  0.230700  0.751000  0.840090  1.0  -0.1701
  C  C190  1  0.229500  0.752200  0.809640  1.0  -0.0994
  C  C191  1  0.408000  0.789300  0.855680  1.0  0.6663
  C  C192  1  0.169500  0.734700  0.856190  1.0  0.715
  C  C193  1  0.276800  0.762900  0.704690  1.0  0.0846
  C  C194  1  0.216600  0.753800  0.690650  1.0  -0.0919
  C  C195  1  0.211000  0.751800  0.660500  1.0  -0.1085
  C  C196  1  0.268700  0.758200  0.643520  1.0  0.0287
  C  C197  1  0.329000  0.766300  0.657000  1.0  -0.1596
  C  C198  1  0.334100  0.768800  0.687460  1.0  -0.0726
  C  C199  1  0.145700  0.740300  0.645940  1.0  0.7126
  C  C200  1  0.390700  0.771100  0.638790  1.0  0.7103
  C  C201  1  0.283700  0.767200  0.761900  1.0  -0.129
  C  C202  1  0.281100  0.764700  0.735840  1.0  -0.1066
  C  C203  1  0.655500  0.995000  0.703340  1.0  0.0792
  C  C204  1  0.680400  0.035900  0.688970  1.0  -0.0739
  C  C205  1  0.680200  0.038400  0.658780  1.0  -0.1497
  C  C206  1  0.656600  0.999000  0.642230  1.0  0.0319
  C  C207  1  0.632600  0.958000  0.655920  1.0  -0.1723
  C  C208  1  0.633000  0.956200  0.687050  1.0  -0.0565
  C  C209  1  0.704800  0.082800  0.642920  1.0  0.7263
  C  C210  1  0.609100  0.914200  0.639120  1.0  0.7201
  C  C211  1  0.651700  0.990600  0.792600  1.0  0.0431
  C  C212  1  0.623300  0.951900  0.808560  1.0  -0.0858
  C  C213  1  0.625300  0.953100  0.839230  1.0  -0.1585
  C  C214  1  0.652900  0.992200  0.853780  1.0  0.0204
  C  C215  1  0.680300  0.030200  0.838760  1.0  -0.1687
  C  C216  1  0.680700  0.028900  0.807720  1.0  -0.067
  C  C217  1  0.594400  0.910600  0.856570  1.0  0.7221
  C  C218  1  0.710000  0.074000  0.854690  1.0  0.6874
  C  C219  1  0.653200  0.992900  0.734570  1.0  -0.0746
  C  C220  1  0.651100  0.990400  0.761150  1.0  -0.1486
  C  C221  1  0.495700  0.258100  0.710450  1.0  0.0759
  C  C222  1  0.551000  0.243300  0.694830  1.0  -0.0701
  C  C223  1  0.550200  0.242600  0.664040  1.0  -0.1574
  C  C224  1  0.491900  0.255100  0.648860  1.0  0.0274
  C  C225  1  0.435600  0.269400  0.664510  1.0  -0.1727
  C  C226  1  0.438800  0.271300  0.695230  1.0  -0.0661
  C  C227  1  0.611800  0.226100  0.647330  1.0  0.7008
  C  C228  1  0.373000  0.283700  0.648550  1.0  0.6781
  C  C229  1  0.501200  0.262000  0.799830  1.0  0.0505
  C  C230  1  0.450800  0.281300  0.815800  1.0  -0.0403
  C  C231  1  0.451600  0.283200  0.846550  1.0  -0.1559
  C  C232  1  0.506100  0.262000  0.860720  1.0  0.0213
  C  C233  1  0.556000  0.240400  0.845170  1.0  -0.1098
  C  C234  1  0.555400  0.240800  0.815100  1.0  -0.0287
  C  C235  1  0.397500  0.304900  0.863360  1.0  0.7233
  C  C236  1  0.612000  0.216500  0.861460  1.0  0.7073
  C  C237  1  0.497300  0.260000  0.741550  1.0  -0.0336
  C  C238  1  0.499000  0.260100  0.768220  1.0  -0.0639
  C  C239  1  0.279700  0.122900  0.987580  1.0  0.0476
  C  C240  1  0.283200  0.162000  0.968570  1.0  -0.0216
  C  C241  1  0.246400  0.202800  0.973050  1.0  -0.1281
  C  C242  1  0.205300  0.207500  0.997910  1.0  0.0101
  C  C243  1  0.203200  0.169000  0.018340  1.0  -0.1643
  C  C244  1  0.238800  0.127000  0.012940  1.0  -0.0708
  C  C245  1  0.248100  0.245700  0.950940  1.0  0.6918
  C  C246  1  0.160200  0.173400  0.045250  1.0  0.7266
  C  C247  1  0.364500  0.990100  0.988110  1.0  0.0465
  C  C248  1  0.342400  0.964300  0.012710  1.0  -0.0684
  C  C249  1  0.366500  0.917900  0.018660  1.0  -0.1384
  C  C250  1  0.412700  0.897600  0.000510  1.0  0.0094
  C  C251  1  0.433800  0.922000  0.975320  1.0  -0.1505
  C  C252  1  0.410300  0.967900  0.968860  1.0  -0.0353
  C  C253  1  0.339100  0.889900  0.044240  1.0  0.7167
  C  C254  1  0.482700  0.896900  0.955390  1.0  0.6387
  C  C255  1  0.314000  0.077800  0.983580  1.0  0.082
  C  C256  1  0.338800  0.038700  0.983420  1.0  -0.0296
  C  C257  1  0.428300  0.977700  0.494100  1.0  0.0732
  C  C258  1  0.452500  0.950400  0.518250  1.0  -0.0676
  C  C259  1  0.429000  0.903700  0.523210  1.0  -0.1466
  C  C260  1  0.382400  0.883400  0.504920  1.0  0.0305
  C  C261  1  0.361400  0.908400  0.480000  1.0  -0.1673
  C  C262  1  0.384100  0.956000  0.475160  1.0  -0.0354
  C  C263  1  0.457900  0.876400  0.549280  1.0  0.7037
  C  C264  1  0.312500  0.885200  0.459530  1.0  0.6602
  C  C265  1  0.509700  0.112200  0.494940  1.0  0.0173
  C  C266  1  0.498000  0.150500  0.475090  1.0  -0.0327
  C  C267  1  0.528400  0.194900  0.478720  1.0  -0.1367
  C  C268  1  0.571500  0.201900  0.502560  1.0  0.0336
  C  C269  1  0.583200  0.164500  0.522340  1.0  -0.1723
  C  C270  1  0.552700  0.119800  0.517930  1.0  -0.0115
  C  C271  1  0.515200  0.236600  0.458210  1.0  0.6709
  C  C272  1  0.629500  0.172600  0.548080  1.0  0.7141
  C  C273  1  0.453900  0.025800  0.490600  1.0  -0.0949
  C  C274  1  0.477400  0.065400  0.491440  1.0  -0.1624
  C  C275  1  0.786500  0.235300  0.206130  1.0  0.0048
  C  C276  1  0.844600  0.223300  0.190890  1.0  -0.0094
  C  C277  1  0.845900  0.224100  0.160660  1.0  -0.1605
  C  C278  1  0.788700  0.236800  0.144900  1.0  0.0273
  C  C279  1  0.730700  0.249000  0.159910  1.0  -0.1675
  C  C280  1  0.729500  0.247800  0.190360  1.0  -0.0951
  C  C281  1  0.908000  0.210700  0.144320  1.0  0.6656
  C  C282  1  0.669500  0.265300  0.143810  1.0  0.7149
  C  C283  1  0.776800  0.237100  0.295310  1.0  0.0818
  C  C284  1  0.716600  0.246200  0.309350  1.0  -0.0921
  C  C285  1  0.711000  0.248200  0.339500  1.0  -0.1096
  C  C286  1  0.768700  0.241800  0.356480  1.0  0.03
  C  C287  1  0.829000  0.233700  0.343000  1.0  -0.1543
  C  C288  1  0.834100  0.231200  0.312540  1.0  -0.0768
  C  C289  1  0.645700  0.259700  0.354060  1.0  0.7096
  C  C290  1  0.890700  0.228900  0.361210  1.0  0.7109
  C  C291  1  0.783700  0.232800  0.238100  1.0  -0.1313
  C  C292  1  0.781100  0.235300  0.264160  1.0  -0.1056
  C  C293  1  0.155500  0.005000  0.296660  1.0  0.0777
  C  C294  1  0.180400  0.964100  0.311030  1.0  -0.0756
  C  C295  1  0.180200  0.961600  0.341220  1.0  -0.1498
  C  C296  1  0.156600  0.001000  0.357770  1.0  0.0313
  C  C297  1  0.132600  0.042000  0.344080  1.0  -0.1698
  C  C298  1  0.133000  0.043800  0.312950  1.0  -0.058
  C  C299  1  0.204800  0.917200  0.357080  1.0  0.7265
  C  C300  1  0.109100  0.085800  0.360880  1.0  0.7215
  C  C301  1  0.151700  0.009400  0.207400  1.0  0.0443
  C  C302  1  0.123300  0.048100  0.191440  1.0  -0.084
  C  C303  1  0.125300  0.046900  0.160770  1.0  -0.1587
  C  C304  1  0.152900  0.007800  0.146220  1.0  0.0195
  C  C305  1  0.180300  0.969800  0.161240  1.0  -0.1685
  C  C306  1  0.180700  0.971100  0.192280  1.0  -0.0646
  C  C307  1  0.094400  0.089400  0.143430  1.0  0.7228
  C  C308  1  0.210000  0.926000  0.145310  1.0  0.6869
  C  C309  1  0.153200  0.007100  0.265430  1.0  -0.0761
  C  C310  1  0.151100  0.009600  0.238850  1.0  -0.148
  C  C311  1  0.995700  0.741900  0.289550  1.0  0.0732
  C  C312  1  0.051000  0.756700  0.305170  1.0  -0.072
  C  C313  1  0.050200  0.757400  0.335960  1.0  -0.1575
  C  C314  1  0.991900  0.744900  0.351140  1.0  0.0292
  C  C315  1  0.935600  0.730600  0.335490  1.0  -0.1716
  C  C316  1  0.938800  0.728700  0.304770  1.0  -0.0671
  C  C317  1  0.111800  0.773900  0.352670  1.0  0.7015
  C  C318  1  0.873000  0.716300  0.351450  1.0  0.6801
  C  C319  1  0.001200  0.738000  0.200170  1.0  0.0512
  C  C320  1  0.950800  0.718700  0.184200  1.0  -0.0397
  C  C321  1  0.951600  0.716800  0.153450  1.0  -0.156
  C  C322  1  0.006100  0.738000  0.139280  1.0  0.0215
  C  C323  1  0.056000  0.759600  0.154830  1.0  -0.1097
  C  C324  1  0.055400  0.759200  0.184900  1.0  -0.0281
  C  C325  1  0.897500  0.695100  0.136640  1.0  0.7235
  C  C326  1  0.112000  0.783500  0.138540  1.0  0.7075
  C  C327  1  0.997300  0.740000  0.258450  1.0  -0.0341
  C  C328  1  0.999000  0.739900  0.231780  1.0  -0.0627
  C  C329  1  0.779700  0.877100  0.012420  1.0  0.048
  C  C330  1  0.783200  0.838000  0.031430  1.0  -0.0208
  C  C331  1  0.746400  0.797200  0.026950  1.0  -0.1278
  C  C332  1  0.705300  0.792500  0.002090  1.0  0.0102
  C  C333  1  0.703200  0.831000  0.981660  1.0  -0.1644
  C  C334  1  0.738800  0.873000  0.987060  1.0  -0.0709
  C  C335  1  0.748100  0.754300  0.049060  1.0  0.6926
  C  C336  1  0.660200  0.826600  0.954750  1.0  0.7269
  C  C337  1  0.864500  0.009900  0.011890  1.0  0.0467
  C  C338  1  0.842400  0.035700  0.987290  1.0  -0.0678
  C  C339  1  0.866500  0.082100  0.981340  1.0  -0.1377
  C  C340  1  0.912700  0.102400  0.999490  1.0  0.0081
  C  C341  1  0.933800  0.078000  0.024680  1.0  -0.1508
  C  C342  1  0.910300  0.032100  0.031140  1.0  -0.0324
  C  C343  1  0.839100  0.110100  0.955760  1.0  0.7165
  C  C344  1  0.982700  0.103100  0.044610  1.0  0.6392
  C  C345  1  0.814000  0.922200  0.016420  1.0  0.0826
  C  C346  1  0.838800  0.961300  0.016580  1.0  -0.0279
  C  C347  1  0.928300  0.022300  0.505900  1.0  0.0733
  C  C348  1  0.952500  0.049600  0.481750  1.0  -0.0678
  C  C349  1  0.929000  0.096300  0.476790  1.0  -0.1455
  C  C350  1  0.882400  0.116600  0.495080  1.0  0.0299
  C  C351  1  0.861400  0.091600  0.520000  1.0  -0.167
  C  C352  1  0.884100  0.044000  0.524840  1.0  -0.0347
  C  C353  1  0.957900  0.123600  0.450720  1.0  0.7046
  C  C354  1  0.812500  0.114800  0.540470  1.0  0.6606
  C  C355  1  0.009700  0.887800  0.505060  1.0  0.018
  C  C356  1  0.998000  0.849500  0.524910  1.0  -0.0327
  C  C357  1  0.028400  0.805100  0.521280  1.0  -0.1363
  C  C358  1  0.071500  0.798100  0.497440  1.0  0.0343
  C  C359  1  0.083200  0.835500  0.477660  1.0  -0.1722
  C  C360  1  0.052700  0.880200  0.482070  1.0  -0.0126
  C  C361  1  0.015200  0.763400  0.541790  1.0  0.6716
  C  C362  1  0.129500  0.827400  0.451920  1.0  0.7133
  C  C363  1  0.953900  0.974200  0.509400  1.0  -0.0948
  C  C364  1  0.977400  0.934600  0.508560  1.0  -0.1625
  C  C365  1  0.286500  0.264700  0.206130  1.0  0.0024
  C  C366  1  0.344600  0.276700  0.190890  1.0  -0.0097
  C  C367  1  0.345900  0.275900  0.160660  1.0  -0.1602
  C  C368  1  0.288700  0.263200  0.144900  1.0  0.0273
  C  C369  1  0.230700  0.251000  0.159910  1.0  -0.1698
  C  C370  1  0.229500  0.252200  0.190360  1.0  -0.0938
  C  C371  1  0.408000  0.289300  0.144320  1.0  0.6659
  C  C372  1  0.169500  0.234700  0.143810  1.0  0.7149
  C  C373  1  0.276800  0.262900  0.295310  1.0  0.0837
  C  C374  1  0.216600  0.253800  0.309350  1.0  -0.0916
  C  C375  1  0.211000  0.251800  0.339500  1.0  -0.1128
  C  C376  1  0.268700  0.258200  0.356480  1.0  0.0318
  C  C377  1  0.329000  0.266300  0.343000  1.0  -0.16
  C  C378  1  0.334100  0.268800  0.312540  1.0  -0.0727
  C  C379  1  0.145700  0.240300  0.354060  1.0  0.7097
  C  C380  1  0.390700  0.271100  0.361210  1.0  0.7109
  C  C381  1  0.283700  0.267200  0.238100  1.0  -0.1308
  C  C382  1  0.281100  0.264700  0.264160  1.0  -0.1089
  C  C383  1  0.655500  0.495000  0.296660  1.0  0.0778
  C  C384  1  0.680400  0.535900  0.311030  1.0  -0.0753
  C  C385  1  0.680200  0.538400  0.341220  1.0  -0.1501
  C  C386  1  0.656600  0.499000  0.357770  1.0  0.0315
  C  C387  1  0.632600  0.458000  0.344080  1.0  -0.1721
  C  C388  1  0.633000  0.456200  0.312950  1.0  -0.057
  C  C389  1  0.704800  0.582800  0.357080  1.0  0.7269
  C  C390  1  0.609100  0.414200  0.360880  1.0  0.7207
  C  C391  1  0.651700  0.490600  0.207400  1.0  0.0444
  C  C392  1  0.623300  0.451900  0.191440  1.0  -0.0854
  C  C393  1  0.625300  0.453100  0.160770  1.0  -0.1586
  C  C394  1  0.652900  0.492200  0.146220  1.0  0.0193
  C  C395  1  0.680300  0.530200  0.161240  1.0  -0.1704
  C  C396  1  0.680700  0.528900  0.192280  1.0  -0.0644
  C  C397  1  0.594400  0.410600  0.143430  1.0  0.7217
  C  C398  1  0.710000  0.574000  0.145310  1.0  0.687
  C  C399  1  0.653200  0.492900  0.265430  1.0  -0.0762
  C  C400  1  0.651100  0.490400  0.238850  1.0  -0.1484
  C  C401  1  0.495700  0.758100  0.289550  1.0  0.072
  C  C402  1  0.551000  0.743300  0.305170  1.0  -0.0727
  C  C403  1  0.550200  0.742600  0.335960  1.0  -0.1549
  C  C404  1  0.491900  0.755100  0.351140  1.0  0.0311
  C  C405  1  0.435600  0.769400  0.335490  1.0  -0.1723
  C  C406  1  0.438800  0.771300  0.304770  1.0  -0.0674
  C  C407  1  0.611800  0.726100  0.352670  1.0  0.7011
  C  C408  1  0.373000  0.783700  0.351450  1.0  0.6785
  C  C409  1  0.501200  0.762000  0.200170  1.0  0.0558
  C  C410  1  0.450800  0.781300  0.184200  1.0  -0.0435
  C  C411  1  0.451600  0.783200  0.153450  1.0  -0.1549
  C  C412  1  0.506100  0.762000  0.139280  1.0  0.0201
  C  C413  1  0.556000  0.740400  0.154830  1.0  -0.1096
  C  C414  1  0.555400  0.740800  0.184900  1.0  -0.0301
  C  C415  1  0.397500  0.804900  0.136640  1.0  0.7228
  C  C416  1  0.612000  0.716500  0.138540  1.0  0.7072
  C  C417  1  0.497300  0.760000  0.258450  1.0  -0.0334
  C  C418  1  0.499000  0.760100  0.231780  1.0  -0.0587
  C  C419  1  0.279700  0.622900  0.012420  1.0  0.0473
  C  C420  1  0.283200  0.662000  0.031430  1.0  -0.0206
  C  C421  1  0.246400  0.702800  0.026950  1.0  -0.1281
  C  C422  1  0.205300  0.707500  0.002090  1.0  0.0101
  C  C423  1  0.203200  0.669000  0.981660  1.0  -0.1642
  C  C424  1  0.238800  0.627000  0.987060  1.0  -0.0702
  C  C425  1  0.248100  0.745700  0.049060  1.0  0.6921
  C  C426  1  0.160200  0.673400  0.954750  1.0  0.7264
  C  C427  1  0.364500  0.490100  0.011890  1.0  0.046
  C  C428  1  0.342400  0.464300  0.987290  1.0  -0.068
  C  C429  1  0.366500  0.417900  0.981340  1.0  -0.1379
  C  C430  1  0.412700  0.397600  0.999490  1.0  0.0092
  C  C431  1  0.433800  0.422000  0.024680  1.0  -0.1508
  C  C432  1  0.410300  0.467900  0.031140  1.0  -0.034
  C  C433  1  0.339100  0.389900  0.955760  1.0  0.7161
  C  C434  1  0.482700  0.396900  0.044610  1.0  0.639
  C  C435  1  0.314000  0.577800  0.016420  1.0  0.0816
  C  C436  1  0.338800  0.538700  0.016580  1.0  -0.0312
  C  C437  1  0.428300  0.477700  0.505900  1.0  0.0733
  C  C438  1  0.452500  0.450400  0.481750  1.0  -0.0674
  C  C439  1  0.429000  0.403700  0.476790  1.0  -0.1455
  C  C440  1  0.382400  0.383400  0.495080  1.0  0.0307
  C  C441  1  0.361400  0.408400  0.520000  1.0  -0.1672
  C  C442  1  0.384100  0.456000  0.524840  1.0  -0.0354
  C  C443  1  0.457900  0.376400  0.450720  1.0  0.7044
  C  C444  1  0.312500  0.385200  0.540470  1.0  0.6605
  C  C445  1  0.509700  0.612200  0.505060  1.0  0.0173
  C  C446  1  0.498000  0.650500  0.524910  1.0  -0.0323
  C  C447  1  0.528400  0.694900  0.521280  1.0  -0.1369
  C  C448  1  0.571500  0.701900  0.497440  1.0  0.0337
  C  C449  1  0.583200  0.664500  0.477660  1.0  -0.1721
  C  C450  1  0.552700  0.619800  0.482070  1.0  -0.0118
  C  C451  1  0.515200  0.736600  0.541790  1.0  0.6711
  C  C452  1  0.629500  0.672600  0.451920  1.0  0.7134
  C  C453  1  0.453900  0.525800  0.509400  1.0  -0.0943
  C  C454  1  0.477400  0.565400  0.508560  1.0  -0.1625
  C  C455  1  0.786500  0.735300  0.793870  1.0  0.0032
  C  C456  1  0.844600  0.723300  0.809110  1.0  -0.0119
  C  C457  1  0.845900  0.724100  0.839340  1.0  -0.1604
  C  C458  1  0.788700  0.736800  0.855100  1.0  0.0288
  C  C459  1  0.730700  0.749000  0.840090  1.0  -0.1694
  C  C460  1  0.729500  0.747800  0.809640  1.0  -0.0953
  C  C461  1  0.908000  0.710700  0.855680  1.0  0.666
  C  C462  1  0.669500  0.765300  0.856190  1.0  0.7146
  C  C463  1  0.776800  0.737100  0.704690  1.0  0.0832
  C  C464  1  0.716600  0.746200  0.690650  1.0  -0.0905
  C  C465  1  0.711000  0.748200  0.660500  1.0  -0.1127
  C  C466  1  0.768700  0.741800  0.643520  1.0  0.0299
  C  C467  1  0.829000  0.733700  0.657000  1.0  -0.1594
  C  C468  1  0.834100  0.731200  0.687460  1.0  -0.0711
  C  C469  1  0.645700  0.759700  0.645940  1.0  0.7092
  C  C470  1  0.890700  0.728900  0.638790  1.0  0.7104
  C  C471  1  0.783700  0.732800  0.761900  1.0  -0.1319
  C  C472  1  0.781100  0.735300  0.735840  1.0  -0.1083
  C  C473  1  0.155500  0.505000  0.703340  1.0  0.0793
  C  C474  1  0.180400  0.464100  0.688970  1.0  -0.0746
  C  C475  1  0.180200  0.461600  0.658780  1.0  -0.1499
  C  C476  1  0.156600  0.501000  0.642230  1.0  0.0319
  C  C477  1  0.132600  0.542000  0.655920  1.0  -0.1724
  C  C478  1  0.133000  0.543800  0.687050  1.0  -0.0572
  C  C479  1  0.204800  0.417200  0.642920  1.0  0.7257
  C  C480  1  0.109100  0.585800  0.639120  1.0  0.7208
  C  C481  1  0.151700  0.509400  0.792600  1.0  0.0433
  C  C482  1  0.123300  0.548100  0.808560  1.0  -0.0848
  C  C483  1  0.125300  0.546900  0.839230  1.0  -0.1589
  C  C484  1  0.152900  0.507800  0.853780  1.0  0.0206
  C  C485  1  0.180300  0.469800  0.838760  1.0  -0.1699
  C  C486  1  0.180700  0.471100  0.807720  1.0  -0.066
  C  C487  1  0.094400  0.589400  0.856570  1.0  0.7232
  C  C488  1  0.210000  0.426000  0.854690  1.0  0.6871
  C  C489  1  0.153200  0.507100  0.734570  1.0  -0.0744
  C  C490  1  0.151100  0.509600  0.761150  1.0  -0.1481
  C  C491  1  0.995700  0.241900  0.710450  1.0  0.0758
  C  C492  1  0.051000  0.256700  0.694830  1.0  -0.0731
  C  C493  1  0.050200  0.257400  0.664040  1.0  -0.1545
  C  C494  1  0.991900  0.244900  0.648860  1.0  0.0283
  C  C495  1  0.935600  0.230600  0.664510  1.0  -0.1724
  C  C496  1  0.938800  0.228700  0.695230  1.0  -0.0662
  C  C497  1  0.111800  0.273900  0.647330  1.0  0.7011
  C  C498  1  0.873000  0.216300  0.648550  1.0  0.6782
  C  C499  1  0.001200  0.238000  0.799830  1.0  0.0543
  C  C500  1  0.950800  0.218700  0.815800  1.0  -0.0445
  C  C501  1  0.951600  0.216800  0.846550  1.0  -0.1536
  C  C502  1  0.006100  0.238000  0.860720  1.0  0.02
  C  C503  1  0.056000  0.259600  0.845170  1.0  -0.1098
  C  C504  1  0.055400  0.259200  0.815100  1.0  -0.0285
  C  C505  1  0.897500  0.195100  0.863360  1.0  0.724
  C  C506  1  0.112000  0.283500  0.861460  1.0  0.7077
  C  C507  1  0.997300  0.240000  0.741550  1.0  -0.0323
  C  C508  1  0.999000  0.239900  0.768220  1.0  -0.0591
  C  C509  1  0.779700  0.377100  0.987580  1.0  0.0483
  C  C510  1  0.783200  0.338000  0.968570  1.0  -0.0216
  C  C511  1  0.746400  0.297200  0.973050  1.0  -0.1279
  C  C512  1  0.705300  0.292500  0.997910  1.0  0.0102
  C  C513  1  0.703200  0.331000  0.018340  1.0  -0.1643
  C  C514  1  0.738800  0.373000  0.012940  1.0  -0.0716
  C  C515  1  0.748100  0.254300  0.950940  1.0  0.6923
  C  C516  1  0.660200  0.326600  0.045250  1.0  0.7274
  C  C517  1  0.864500  0.509900  0.988110  1.0  0.0472
  C  C518  1  0.842400  0.535700  0.012710  1.0  -0.0674
  C  C519  1  0.866500  0.582100  0.018660  1.0  -0.1382
  C  C520  1  0.912700  0.602400  0.000510  1.0  0.0083
  C  C521  1  0.933800  0.578000  0.975320  1.0  -0.1503
  C  C522  1  0.910300  0.532100  0.968860  1.0  -0.0344
  C  C523  1  0.839100  0.610100  0.044240  1.0  0.717
  C  C524  1  0.982700  0.603100  0.955390  1.0  0.639
  C  C525  1  0.814000  0.422200  0.983580  1.0  0.0804
  C  C526  1  0.838800  0.461300  0.983420  1.0  -0.0317
  C  C527  1  0.928300  0.522300  0.494100  1.0  0.0732
  C  C528  1  0.952500  0.549600  0.518250  1.0  -0.0672
  C  C529  1  0.929000  0.596300  0.523210  1.0  -0.1471
  C  C530  1  0.882400  0.616600  0.504920  1.0  0.0298
  C  C531  1  0.861400  0.591600  0.480000  1.0  -0.1667
  C  C532  1  0.884100  0.544000  0.475160  1.0  -0.0352
  C  C533  1  0.957900  0.623600  0.549280  1.0  0.704
  C  C534  1  0.812500  0.614800  0.459530  1.0  0.6604
  C  C535  1  0.009700  0.387800  0.494940  1.0  0.0176
  C  C536  1  0.998000  0.349500  0.475090  1.0  -0.0327
  C  C537  1  0.028400  0.305100  0.478720  1.0  -0.1366
  C  C538  1  0.071500  0.298100  0.502560  1.0  0.0341
  C  C539  1  0.083200  0.335500  0.522340  1.0  -0.1723
  C  C540  1  0.052700  0.380200  0.517930  1.0  -0.0128
  C  C541  1  0.015200  0.263400  0.458210  1.0  0.6714
  C  C542  1  0.129500  0.327400  0.548080  1.0  0.7142
  C  C543  1  0.953900  0.474200  0.490600  1.0  -0.0954
  C  C544  1  0.977400  0.434600  0.491440  1.0  -0.1623
  O  O545  1  0.407900  0.793100  0.882440  1.0  -0.4797
  O  O546  1  0.459700  0.795310  0.838600  1.0  -0.5967
  O  O547  1  0.170080  0.735760  0.883940  1.0  -0.6392
  O  O548  1  0.120800  0.722220  0.840260  1.0  -0.6029
  O  O549  1  0.143000  0.743000  0.618210  1.0  -0.5913
  O  O550  1  0.099400  0.727320  0.662250  1.0  -0.5436
  O  O551  1  0.383900  0.775600  0.611040  1.0  -0.5864
  O  O552  1  0.446500  0.771300  0.652360  1.0  -0.6377
  O  O553  1  0.747730  0.191460  0.603820  1.0  -1.0083
  O  O554  1  0.701800  0.082900  0.615530  1.0  -0.6159
  O  O555  1  0.727300  0.117020  0.658800  1.0  -0.6117
  O  O556  1  0.603400  0.920500  0.611510  1.0  -0.6199
  O  O557  1  0.596800  0.876900  0.652690  1.0  -0.5962
  O  O558  1  0.602800  0.912170  0.883700  1.0  -0.5953
  O  O559  1  0.566500  0.878210  0.842180  1.0  -0.5834
  O  O560  1  0.711900  0.072500  0.881710  1.0  -0.505
  O  O561  1  0.733400  0.107280  0.838090  1.0  -0.5921
  O  O562  1  0.610900  0.228100  0.620230  1.0  -0.6106
  O  O563  1  0.660500  0.213300  0.663790  1.0  -0.5797
  O  O564  1  0.374000  0.285300  0.620960  1.0  -0.5087
  O  O565  1  0.323100  0.293470  0.665100  1.0  -0.5697
  O  O566  1  0.398400  0.297400  0.890950  1.0  -0.5834
  O  O567  1  0.354400  0.329000  0.850210  1.0  -0.6174
  O  O568  1  0.611200  0.221800  0.889430  1.0  -0.5889
  O  O569  1  0.654900  0.194600  0.846600  1.0  -0.6314
  O  O570  1  0.194700  0.270050  0.948560  1.0  -0.6183
  O  O571  1  0.300300  0.252040  0.937010  1.0  -0.5841
  O  O572  1  0.139800  0.214260  0.051910  1.0  -0.6299
  O  O573  1  0.148900  0.134170  0.059130  1.0  -0.5815
  O  O574  1  0.364800  0.850050  0.050250  1.0  -0.5977
  O  O575  1  0.292100  0.907400  0.058000  1.0  -0.4754
  O  O576  1  0.503400  0.855100  0.961340  1.0  -0.6431
  O  O577  1  0.503300  0.920230  0.932770  1.0  -0.5711
  O  O578  1  0.539060  0.809190  0.605650  1.0  -0.9691
  O  O579  1  0.426000  0.839450  0.558230  1.0  -0.616
  O  O580  1  0.512200  0.891950  0.559190  1.0  -0.6271
  O  O581  1  0.292200  0.843700  0.464470  1.0  -0.5075
  O  O582  1  0.296300  0.909100  0.436480  1.0  -0.5968
  O  O583  1  0.547300  0.274520  0.460090  1.0  -0.4905
  O  O584  1  0.469200  0.229080  0.438920  1.0  -0.5804
  O  O585  1  0.646100  0.214240  0.554210  1.0  -0.6265
  O  O586  1  0.646400  0.133750  0.561760  1.0  -0.5872
  O  O587  1  0.038680  0.689860  0.899170  1.0  -1.0079
  O  O588  1  0.249100  0.337310  0.895880  1.0  -0.9768
  O  O589  1  0.907900  0.206900  0.117560  1.0  -0.475
  O  O590  1  0.959700  0.204690  0.161400  1.0  -0.5939
  O  O591  1  0.670080  0.264240  0.116060  1.0  -0.6397
  O  O592  1  0.620800  0.277780  0.159740  1.0  -0.6097
  O  O593  1  0.643000  0.257000  0.381790  1.0  -0.5927
  O  O594  1  0.599400  0.272680  0.337750  1.0  -0.5414
  O  O595  1  0.883900  0.224400  0.388960  1.0  -0.5866
  O  O596  1  0.946500  0.228700  0.347640  1.0  -0.6377
  O  O597  1  0.247730  0.808540  0.396180  1.0  -1.0079
  O  O598  1  0.201800  0.917100  0.384470  1.0  -0.6157
  O  O599  1  0.227300  0.882980  0.341200  1.0  -0.6127
  O  O600  1  0.103400  0.079500  0.388490  1.0  -0.6194
  O  O601  1  0.096800  0.123100  0.347310  1.0  -0.596
  O  O602  1  0.102800  0.087830  0.116300  1.0  -0.5942
  O  O603  1  0.066500  0.121790  0.157820  1.0  -0.583
  O  O604  1  0.211900  0.927500  0.118290  1.0  -0.5048
  O  O605  1  0.233400  0.892720  0.161910  1.0  -0.5915
  O  O606  1  0.110900  0.771900  0.379770  1.0  -0.6101
  O  O607  1  0.160500  0.786700  0.336210  1.0  -0.5806
  O  O608  1  0.874000  0.714700  0.379040  1.0  -0.5104
  O  O609  1  0.823100  0.706530  0.334900  1.0  -0.5733
  O  O610  1  0.898400  0.702600  0.109050  1.0  -0.5851
  O  O611  1  0.854400  0.671000  0.149790  1.0  -0.6172
  O  O612  1  0.111200  0.778200  0.110570  1.0  -0.5903
  O  O613  1  0.154900  0.805400  0.153400  1.0  -0.6317
  O  O614  1  0.694700  0.729950  0.051440  1.0  -0.6189
  O  O615  1  0.800300  0.747960  0.062990  1.0  -0.5844
  O  O616  1  0.639800  0.785740  0.948090  1.0  -0.6249
  O  O617  1  0.648900  0.865830  0.940870  1.0  -0.5797
  O  O618  1  0.864800  0.149950  0.949750  1.0  -0.5983
  O  O619  1  0.792100  0.092600  0.942000  1.0  -0.4757
  O  O620  1  0.003400  0.144900  0.038660  1.0  -0.646
  O  O621  1  0.003300  0.079770  0.067230  1.0  -0.5699
  O  O622  1  0.039060  0.190810  0.394350  1.0  -0.9703
  O  O623  1  0.926000  0.160550  0.441770  1.0  -0.6158
  O  O624  1  0.012200  0.108050  0.440810  1.0  -0.6266
  O  O625  1  0.792200  0.156300  0.535530  1.0  -0.506
  O  O626  1  0.796300  0.090900  0.563520  1.0  -0.5976
  O  O627  1  0.047300  0.725480  0.539910  1.0  -0.4911
  O  O628  1  0.969200  0.770920  0.561080  1.0  -0.5798
  O  O629  1  0.146100  0.785760  0.445790  1.0  -0.6264
  O  O630  1  0.146400  0.866250  0.438240  1.0  -0.5875
  O  O631  1  0.538680  0.310140  0.100830  1.0  -1.0066
  O  O632  1  0.749100  0.662690  0.104120  1.0  -0.9735
  O  O633  1  0.407900  0.293100  0.117560  1.0  -0.4744
  O  O634  1  0.459700  0.295310  0.161400  1.0  -0.5939
  O  O635  1  0.170080  0.235760  0.116060  1.0  -0.6406
  O  O636  1  0.120800  0.222220  0.159740  1.0  -0.61
  O  O637  1  0.143000  0.243000  0.381790  1.0  -0.593
  O  O638  1  0.099400  0.227320  0.337750  1.0  -0.5411
  O  O639  1  0.383900  0.275600  0.388960  1.0  -0.5866
  O  O640  1  0.446500  0.271300  0.347640  1.0  -0.638
  O  O641  1  0.747730  0.691460  0.396180  1.0  -1.0083
  O  O642  1  0.701800  0.582900  0.384470  1.0  -0.6158
  O  O643  1  0.727300  0.617020  0.341200  1.0  -0.6129
  O  O644  1  0.603400  0.420500  0.388490  1.0  -0.6197
  O  O645  1  0.596800  0.376900  0.347310  1.0  -0.5957
  O  O646  1  0.602800  0.412170  0.116300  1.0  -0.5947
  O  O647  1  0.566500  0.378210  0.157820  1.0  -0.583
  O  O648  1  0.711900  0.572500  0.118290  1.0  -0.5045
  O  O649  1  0.733400  0.607280  0.161910  1.0  -0.5914
  O  O650  1  0.610900  0.728100  0.379770  1.0  -0.6105
  O  O651  1  0.660500  0.713300  0.336210  1.0  -0.5803
  O  O652  1  0.374000  0.785300  0.379040  1.0  -0.5108
  O  O653  1  0.323100  0.793470  0.334900  1.0  -0.5706
  O  O654  1  0.398400  0.797400  0.109050  1.0  -0.5852
  O  O655  1  0.354400  0.829000  0.149790  1.0  -0.6188
  O  O656  1  0.611200  0.721800  0.110570  1.0  -0.5906
  O  O657  1  0.654900  0.694600  0.153400  1.0  -0.6324
  O  O658  1  0.194700  0.770050  0.051440  1.0  -0.6189
  O  O659  1  0.300300  0.752040  0.062990  1.0  -0.5839
  O  O660  1  0.139800  0.714260  0.948090  1.0  -0.6302
  O  O661  1  0.148900  0.634170  0.940870  1.0  -0.5814
  O  O662  1  0.364800  0.350050  0.949750  1.0  -0.5974
  O  O663  1  0.292100  0.407400  0.942000  1.0  -0.4763
  O  O664  1  0.503400  0.355100  0.038660  1.0  -0.6436
  O  O665  1  0.503300  0.420230  0.067230  1.0  -0.569
  O  O666  1  0.539060  0.309190  0.394350  1.0  -0.9692
  O  O667  1  0.426000  0.339450  0.441770  1.0  -0.616
  O  O668  1  0.512200  0.391950  0.440810  1.0  -0.6274
  O  O669  1  0.292200  0.343700  0.535530  1.0  -0.5078
  O  O670  1  0.296300  0.409100  0.563520  1.0  -0.5966
  O  O671  1  0.547300  0.774520  0.539910  1.0  -0.4902
  O  O672  1  0.469200  0.729080  0.561080  1.0  -0.5792
  O  O673  1  0.646100  0.714240  0.445790  1.0  -0.6271
  O  O674  1  0.646400  0.633750  0.438240  1.0  -0.5868
  O  O675  1  0.038680  0.189860  0.100830  1.0  -1.0073
  O  O676  1  0.249100  0.837310  0.104120  1.0  -0.9761
  O  O677  1  0.907900  0.706900  0.882440  1.0  -0.4794
  O  O678  1  0.959700  0.704690  0.838600  1.0  -0.5973
  O  O679  1  0.670080  0.764240  0.883940  1.0  -0.6378
  O  O680  1  0.620800  0.777780  0.840260  1.0  -0.6113
  O  O681  1  0.643000  0.757000  0.618210  1.0  -0.5908
  O  O682  1  0.599400  0.772680  0.662250  1.0  -0.5435
  O  O683  1  0.883900  0.724400  0.611040  1.0  -0.5868
  O  O684  1  0.946500  0.728700  0.652360  1.0  -0.6373
  O  O685  1  0.247730  0.308540  0.603820  1.0  -1.008
  O  O686  1  0.201800  0.417100  0.615530  1.0  -0.6156
  O  O687  1  0.227300  0.382980  0.658800  1.0  -0.6117
  O  O688  1  0.103400  0.579500  0.611510  1.0  -0.6198
  O  O689  1  0.096800  0.623100  0.652690  1.0  -0.5957
  O  O690  1  0.102800  0.587830  0.883700  1.0  -0.595
  O  O691  1  0.066500  0.621790  0.842180  1.0  -0.5835
  O  O692  1  0.211900  0.427500  0.881710  1.0  -0.5043
  O  O693  1  0.233400  0.392720  0.838090  1.0  -0.5912
  O  O694  1  0.110900  0.271900  0.620230  1.0  -0.6104
  O  O695  1  0.160500  0.286700  0.663790  1.0  -0.5792
  O  O696  1  0.874000  0.214700  0.620960  1.0  -0.5103
  O  O697  1  0.823100  0.206530  0.665100  1.0  -0.5694
  O  O698  1  0.898400  0.202600  0.890950  1.0  -0.5835
  O  O699  1  0.854400  0.171000  0.850210  1.0  -0.6195
  O  O700  1  0.111200  0.278200  0.889430  1.0  -0.5887
  O  O701  1  0.154900  0.305400  0.846600  1.0  -0.6318
  O  O702  1  0.694700  0.229950  0.948560  1.0  -0.6187
  O  O703  1  0.800300  0.247960  0.937010  1.0  -0.5843
  O  O704  1  0.639800  0.285740  0.051910  1.0  -0.6252
  O  O705  1  0.648900  0.365830  0.059130  1.0  -0.5805
  O  O706  1  0.864800  0.649950  0.050250  1.0  -0.5985
  O  O707  1  0.792100  0.592600  0.058000  1.0  -0.4751
  O  O708  1  0.003400  0.644900  0.961340  1.0  -0.6453
  O  O709  1  0.003300  0.579770  0.932770  1.0  -0.5694
  O  O710  1  0.039060  0.690810  0.605650  1.0  -0.9701
  O  O711  1  0.926000  0.660550  0.558230  1.0  -0.6159
  O  O712  1  0.012200  0.608050  0.559190  1.0  -0.6268
  O  O713  1  0.792200  0.656300  0.464470  1.0  -0.506
  O  O714  1  0.796300  0.590900  0.436480  1.0  -0.5967
  O  O715  1  0.047300  0.225480  0.460090  1.0  -0.4905
  O  O716  1  0.969200  0.270920  0.438920  1.0  -0.581
  O  O717  1  0.146100  0.285760  0.554210  1.0  -0.6262
  O  O718  1  0.146400  0.366250  0.561760  1.0  -0.5879
  O  O719  1  0.538680  0.810140  0.899170  1.0  -1.007
  O  O720  1  0.749100  0.162690  0.895880  1.0  -0.9739
