# generated using pymatgen
data_Ag6P6H90Au6C103N12
_symmetry_space_group_name_H-M   'P 1'
_cell_length_a   51.11160000
_cell_length_b   51.11160000
_cell_length_c   15.39380000
_cell_angle_alpha   90.00000000
_cell_angle_beta   90.00000000
_cell_angle_gamma   120.00000000
_symmetry_Int_Tables_number   1
_chemical_formula_structural   Ag6P6H90Au6C103N12
_chemical_formula_sum   'Ag54 P54 H810 Au54 C927 N108'
_cell_volume   34826.94853820
_cell_formula_units_Z   9
loop_
 _symmetry_equiv_pos_site_id
 _symmetry_equiv_pos_as_xyz
  1  'x, y, z'
loop_
 _atom_site_type_symbol
 _atom_site_label
 _atom_site_symmetry_multiplicity
 _atom_site_fract_x
 _atom_site_fract_y
 _atom_site_fract_z
 _atom_site_occupancy
 _atom_site_charge
  Ag  Ag1  1  0.131720  0.874470  0.279700  1.0  0.3589
  Ag  Ag2  1  0.191440  0.987870  0.939080  1.0  0.3575
  Ag  Ag3  1  0.097650  0.950780  0.626310  1.0  0.0596
  Ag  Ag4  1  0.798390  0.207800  0.613030  1.0  0.36
  Ag  Ag5  1  0.858110  0.321200  0.272410  1.0  0.3575
  Ag  Ag6  1  0.764320  0.284110  0.959640  1.0  0.0653
  Ag  Ag7  1  0.465050  0.541140  0.946370  1.0  0.3591
  Ag  Ag8  1  0.524770  0.654540  0.605750  1.0  0.3575
  Ag  Ag9  1  0.430980  0.617450  0.292980  1.0  0.0665
  Ag  Ag10  1  0.125530  0.257250  0.279700  1.0  0.3619
  Ag  Ag11  1  0.012130  0.203570  0.939080  1.0  0.3606
  Ag  Ag12  1  0.049220  0.146870  0.626310  1.0  0.0691
  Ag  Ag13  1  0.792200  0.590580  0.613030  1.0  0.3619
  Ag  Ag14  1  0.678800  0.536900  0.272410  1.0  0.3606
  Ag  Ag15  1  0.715890  0.480200  0.959640  1.0  0.0615
  Ag  Ag16  1  0.458860  0.923920  0.946370  1.0  0.3619
  Ag  Ag17  1  0.345460  0.870240  0.605750  1.0  0.3606
  Ag  Ag18  1  0.382550  0.813540  0.292980  1.0  0.0633
  Ag  Ag19  1  0.742750  0.868280  0.279700  1.0  0.3579
  Ag  Ag20  1  0.796430  0.808560  0.939080  1.0  0.3565
  Ag  Ag21  1  0.853130  0.902350  0.626310  1.0  0.0661
  Ag  Ag22  1  0.409420  0.201610  0.613030  1.0  0.358
  Ag  Ag23  1  0.463100  0.141890  0.272410  1.0  0.3565
  Ag  Ag24  1  0.519800  0.235680  0.959640  1.0  0.0646
  Ag  Ag25  1  0.076080  0.534950  0.946370  1.0  0.3579
  Ag  Ag26  1  0.129760  0.475230  0.605750  1.0  0.3565
  Ag  Ag27  1  0.186460  0.569020  0.292980  1.0  0.0672
  Ag  Ag28  1  0.868280  0.125530  0.720300  1.0  0.3569
  Ag  Ag29  1  0.808560  0.012130  0.060920  1.0  0.3575
  Ag  Ag30  1  0.902350  0.049220  0.373690  1.0  0.0573
  Ag  Ag31  1  0.534950  0.458860  0.053630  1.0  0.3571
  Ag  Ag32  1  0.475230  0.345460  0.394250  1.0  0.3575
  Ag  Ag33  1  0.569020  0.382550  0.707020  1.0  0.0657
  Ag  Ag34  1  0.201610  0.792200  0.386970  1.0  0.3579
  Ag  Ag35  1  0.141890  0.678800  0.727590  1.0  0.3575
  Ag  Ag36  1  0.235680  0.715890  0.040360  1.0  0.0629
  Ag  Ag37  1  0.874470  0.742750  0.720300  1.0  0.3615
  Ag  Ag38  1  0.987870  0.796430  0.060920  1.0  0.3574
  Ag  Ag39  1  0.950780  0.853130  0.373690  1.0  0.0722
  Ag  Ag40  1  0.541140  0.076080  0.053630  1.0  0.3615
  Ag  Ag41  1  0.654540  0.129760  0.394250  1.0  0.3574
  Ag  Ag42  1  0.617450  0.186460  0.707020  1.0  0.0647
  Ag  Ag43  1  0.207800  0.409420  0.386970  1.0  0.3615
  Ag  Ag44  1  0.321200  0.463100  0.727590  1.0  0.3574
  Ag  Ag45  1  0.284110  0.519800  0.040360  1.0  0.063
  Ag  Ag46  1  0.257250  0.131720  0.720300  1.0  0.3584
  Ag  Ag47  1  0.203570  0.191440  0.060920  1.0  0.3588
  Ag  Ag48  1  0.146870  0.097650  0.373690  1.0  0.0653
  Ag  Ag49  1  0.923920  0.465050  0.053630  1.0  0.3584
  Ag  Ag50  1  0.870240  0.524770  0.394250  1.0  0.3588
  Ag  Ag51  1  0.813540  0.430980  0.707020  1.0  0.0665
  Ag  Ag52  1  0.590580  0.798390  0.386970  1.0  0.3584
  Ag  Ag53  1  0.536900  0.858110  0.727590  1.0  0.3588
  Ag  Ag54  1  0.480200  0.764320  0.040360  1.0  0.065
  P  P55  1  0.163790  0.867650  0.076600  1.0  0.9874
  P  P56  1  0.184050  0.919710  0.444200  1.0  0.9786
  P  P57  1  0.070080  0.802160  0.350900  1.0  1.0058
  P  P58  1  0.830460  0.200980  0.409930  1.0  0.9874
  P  P59  1  0.850720  0.253040  0.777530  1.0  0.9786
  P  P60  1  0.736750  0.135490  0.684230  1.0  1.0058
  P  P61  1  0.497120  0.534320  0.743270  1.0  0.9875
  P  P62  1  0.517380  0.586380  0.110870  1.0  0.9786
  P  P63  1  0.403410  0.468830  0.017570  1.0  1.0062
  P  P64  1  0.132350  0.296140  0.076600  1.0  0.9882
  P  P65  1  0.080290  0.264340  0.444200  1.0  0.981
  P  P66  1  0.197840  0.267920  0.350900  1.0  1.0102
  P  P67  1  0.799020  0.629470  0.409930  1.0  0.9883
  P  P68  1  0.746960  0.597670  0.777530  1.0  0.981
  P  P69  1  0.864510  0.601250  0.684230  1.0  1.0102
  P  P70  1  0.465680  0.962810  0.743270  1.0  0.9882
  P  P71  1  0.413620  0.931010  0.110870  1.0  0.981
  P  P72  1  0.531170  0.934590  0.017570  1.0  1.0099
  P  P73  1  0.703860  0.836210  0.076600  1.0  0.9865
  P  P74  1  0.735660  0.815950  0.444200  1.0  0.9794
  P  P75  1  0.732080  0.929920  0.350900  1.0  1.0058
  P  P76  1  0.370530  0.169540  0.409930  1.0  0.9866
  P  P77  1  0.402330  0.149280  0.777530  1.0  0.9794
  P  P78  1  0.398750  0.263250  0.684230  1.0  1.0058
  P  P79  1  0.037190  0.502880  0.743270  1.0  0.9865
  P  P80  1  0.068990  0.482620  0.110870  1.0  0.9794
  P  P81  1  0.065410  0.596590  0.017570  1.0  1.0058
  P  P82  1  0.836210  0.132350  0.923400  1.0  0.9891
  P  P83  1  0.815950  0.080290  0.555800  1.0  0.9742
  P  P84  1  0.929920  0.197840  0.649100  1.0  1.0086
  P  P85  1  0.502880  0.465680  0.256730  1.0  0.9892
  P  P86  1  0.482620  0.413620  0.889130  1.0  0.9742
  P  P87  1  0.596590  0.531170  0.982430  1.0  1.009
  P  P88  1  0.169540  0.799020  0.590070  1.0  0.9891
  P  P89  1  0.149280  0.746960  0.222470  1.0  0.9741
  P  P90  1  0.263250  0.864510  0.315770  1.0  1.0086
  P  P91  1  0.867650  0.703860  0.923400  1.0  0.991
  P  P92  1  0.919710  0.735660  0.555800  1.0  0.9776
  P  P93  1  0.802160  0.732080  0.649100  1.0  1.0115
  P  P94  1  0.534320  0.037190  0.256730  1.0  0.991
  P  P95  1  0.586380  0.068990  0.889130  1.0  0.9776
  P  P96  1  0.468830  0.065410  0.982430  1.0  1.0112
  P  P97  1  0.200980  0.370530  0.590070  1.0  0.9912
  P  P98  1  0.253040  0.402330  0.222470  1.0  0.9776
  P  P99  1  0.135490  0.398750  0.315770  1.0  1.0115
  P  P100  1  0.296140  0.163790  0.923400  1.0  0.9897
  P  P101  1  0.264340  0.184050  0.555800  1.0  0.976
  P  P102  1  0.267920  0.070080  0.649100  1.0  1.009
  P  P103  1  0.962810  0.497120  0.256730  1.0  0.9897
  P  P104  1  0.931010  0.517380  0.889130  1.0  0.976
  P  P105  1  0.934590  0.403410  0.982430  1.0  1.009
  P  P106  1  0.629470  0.830460  0.590070  1.0  0.9898
  P  P107  1  0.597670  0.850720  0.222470  1.0  0.976
  P  P108  1  0.601250  0.736750  0.315770  1.0  1.009
  H  H109  1  0.151000  0.939000  0.230000  1.0  0.0711
  H  H110  1  0.085200  0.887300  0.356300  1.0  0.0719
  H  H111  1  0.093100  0.874200  0.138300  1.0  0.0703
  H  H112  1  0.124400  0.873900  0.952500  1.0  0.0749
  H  H113  1  0.121400  0.805100  0.087500  1.0  0.0708
  H  H114  1  0.169600  0.838100  0.927200  1.0  0.0827
  H  H115  1  0.226400  0.907700  0.076500  1.0  0.0757
  H  H116  1  0.229000  0.930100  0.322500  1.0  0.0565
  H  H117  1  0.191400  0.979000  0.399100  1.0  0.0825
  H  H118  1  0.242400  0.960700  0.519500  1.0  0.0652
  H  H119  1  0.164500  0.891900  0.607200  1.0  0.0724
  H  H120  1  0.097300  0.818800  0.517600  1.0  0.0795
  H  H121  1  0.028100  0.822800  0.401300  1.0  0.0686
  H  H122  1  0.038700  0.758300  0.486200  1.0  0.0823
  H  H123  1  0.053200  0.756200  0.223000  1.0  0.0818
  H  H124  1  0.173900  0.977200  0.130800  1.0  0.0529
  H  H125  1  0.072700  0.909500  0.466700  1.0  0.0752
  H  H126  1  0.047100  0.849900  0.065900  1.0  0.0808
  H  H127  1  0.076300  0.842300  0.900200  1.0  0.0757
  H  H128  1  0.072300  0.772800  0.035500  1.0  0.0859
  H  H129  1  0.210800  0.842600  0.845000  1.0  0.0746
  H  H130  1  0.267500  0.915800  0.989900  1.0  0.0896
  H  H131  1  0.192300  0.943000  0.901500  1.0  0.1056
  H  H132  1  0.168000  0.907700  0.903600  1.0  0.0871
  H  H133  1  0.201800  0.919400  0.935300  1.0  0.0979
  H  H134  1  0.259700  0.967100  0.226400  1.0  0.0847
  H  H135  1  0.219800  0.014600  0.297600  1.0  0.0626
  H  H136  1  0.265500  0.962700  0.652600  1.0  0.0906
  H  H137  1  0.184900  0.896500  0.740900  1.0  0.0795
  H  H138  1  0.154600  0.967700  0.612300  1.0  0.107
  H  H139  1  0.181000  0.975400  0.543800  1.0  0.083
  H  H140  1  0.172200  0.949200  0.614000  1.0  0.0958
  H  H141  1  0.090200  0.840300  0.641700  1.0  0.0924
  H  H142  1  0.023000  0.846400  0.524800  1.0  0.0808
  H  H143  1  0.016900  0.705100  0.487700  1.0  0.063
  H  H144  1  0.026000  0.701300  0.226400  1.0  0.089
  H  H145  1  0.985700  0.771400  0.211300  1.0  0.1223
  H  H146  1  0.997700  0.781100  0.308600  1.0  0.0857
  H  H147  1  0.006200  0.759400  0.255500  1.0  0.0937
  H  H148  1  0.049400  0.792300  0.941900  1.0  0.0879
  H  H149  1  0.259500  0.882100  0.875700  1.0  0.0664
  H  H150  1  0.254400  0.010900  0.214400  1.0  0.0863
  H  H151  1  0.236000  0.929200  0.762700  1.0  0.0721
  H  H152  1  0.053200  0.854900  0.641700  1.0  0.0734
  H  H153  1  0.009300  0.678900  0.369900  1.0  0.0702
  H  H154  1  0.817670  0.272330  0.563330  1.0  0.0711
  H  H155  1  0.751870  0.220630  0.689630  1.0  0.0719
  H  H156  1  0.759770  0.207530  0.471630  1.0  0.0703
  H  H157  1  0.791070  0.207230  0.285830  1.0  0.0749
  H  H158  1  0.788070  0.138430  0.420830  1.0  0.0708
  H  H159  1  0.836270  0.171430  0.260530  1.0  0.0827
  H  H160  1  0.893070  0.241030  0.409830  1.0  0.0757
  H  H161  1  0.895670  0.263430  0.655830  1.0  0.0563
  H  H162  1  0.858070  0.312330  0.732430  1.0  0.0825
  H  H163  1  0.909070  0.294030  0.852830  1.0  0.0652
  H  H164  1  0.831170  0.225230  0.940530  1.0  0.0724
  H  H165  1  0.763970  0.152130  0.850930  1.0  0.0795
  H  H166  1  0.694770  0.156130  0.734630  1.0  0.0686
  H  H167  1  0.705370  0.091630  0.819530  1.0  0.0823
  H  H168  1  0.719870  0.089530  0.556330  1.0  0.0818
  H  H169  1  0.840570  0.310530  0.464130  1.0  0.0529
  H  H170  1  0.739370  0.242830  0.800030  1.0  0.0752
  H  H171  1  0.713770  0.183230  0.399230  1.0  0.0808
  H  H172  1  0.742970  0.175630  0.233530  1.0  0.0757
  H  H173  1  0.738970  0.106130  0.368830  1.0  0.0859
  H  H174  1  0.877470  0.175930  0.178330  1.0  0.0746
  H  H175  1  0.934170  0.249130  0.323230  1.0  0.0894
  H  H176  1  0.858970  0.276330  0.234830  1.0  0.1056
  H  H177  1  0.834670  0.241030  0.236930  1.0  0.0871
  H  H178  1  0.868470  0.252730  0.268630  1.0  0.0979
  H  H179  1  0.926370  0.300430  0.559730  1.0  0.0847
  H  H180  1  0.886470  0.347930  0.630930  1.0  0.0626
  H  H181  1  0.932170  0.296030  0.985930  1.0  0.0906
  H  H182  1  0.851570  0.229830  0.074230  1.0  0.0795
  H  H183  1  0.821270  0.301030  0.945630  1.0  0.107
  H  H184  1  0.847670  0.308730  0.877130  1.0  0.083
  H  H185  1  0.838870  0.282530  0.947330  1.0  0.0958
  H  H186  1  0.756870  0.173630  0.975030  1.0  0.0924
  H  H187  1  0.689670  0.179730  0.858130  1.0  0.0808
  H  H188  1  0.683570  0.038430  0.821030  1.0  0.063
  H  H189  1  0.692670  0.034630  0.559730  1.0  0.089
  H  H190  1  0.652370  0.104730  0.544630  1.0  0.1223
  H  H191  1  0.664370  0.114430  0.641930  1.0  0.0857
  H  H192  1  0.672870  0.092730  0.588830  1.0  0.0937
  H  H193  1  0.716070  0.125630  0.275230  1.0  0.0879
  H  H194  1  0.926170  0.215430  0.209030  1.0  0.0664
  H  H195  1  0.921070  0.344230  0.547730  1.0  0.0864
  H  H196  1  0.902670  0.262530  0.096030  1.0  0.0721
  H  H197  1  0.719870  0.188230  0.975030  1.0  0.0734
  H  H198  1  0.675970  0.012230  0.703230  1.0  0.0701
  H  H199  1  0.484330  0.605670  0.896670  1.0  0.0711
  H  H200  1  0.418530  0.553970  0.022970  1.0  0.0719
  H  H201  1  0.426430  0.540870  0.804970  1.0  0.0703
  H  H202  1  0.457730  0.540570  0.619170  1.0  0.0749
  H  H203  1  0.454730  0.471770  0.754170  1.0  0.0711
  H  H204  1  0.502930  0.504770  0.593870  1.0  0.0827
  H  H205  1  0.559730  0.574370  0.743170  1.0  0.0756
  H  H206  1  0.562330  0.596770  0.989170  1.0  0.0565
  H  H207  1  0.524730  0.645670  0.065770  1.0  0.0825
  H  H208  1  0.575730  0.627370  0.186170  1.0  0.0651
  H  H209  1  0.497830  0.558570  0.273870  1.0  0.0724
  H  H210  1  0.430630  0.485470  0.184270  1.0  0.0786
  H  H211  1  0.361430  0.489470  0.067970  1.0  0.0686
  H  H212  1  0.372030  0.424970  0.152870  1.0  0.0823
  H  H213  1  0.386530  0.422870  0.889670  1.0  0.0818
  H  H214  1  0.507230  0.643870  0.797470  1.0  0.0529
  H  H215  1  0.406030  0.576170  0.133370  1.0  0.0752
  H  H216  1  0.380430  0.516570  0.732570  1.0  0.0808
  H  H217  1  0.409630  0.508970  0.566870  1.0  0.0757
  H  H218  1  0.405630  0.439470  0.702170  1.0  0.086
  H  H219  1  0.544130  0.509270  0.511670  1.0  0.0745
  H  H220  1  0.600830  0.582470  0.656570  1.0  0.0895
  H  H221  1  0.525630  0.609670  0.568170  1.0  0.1056
  H  H222  1  0.501330  0.574370  0.570270  1.0  0.0871
  H  H223  1  0.535130  0.586070  0.601970  1.0  0.0979
  H  H224  1  0.593030  0.633770  0.893070  1.0  0.0846
  H  H225  1  0.553130  0.681270  0.964270  1.0  0.0626
  H  H226  1  0.598830  0.629370  0.319270  1.0  0.0906
  H  H227  1  0.518230  0.563170  0.407570  1.0  0.0795
  H  H228  1  0.487930  0.634370  0.278970  1.0  0.107
  H  H229  1  0.514330  0.642070  0.210470  1.0  0.083
  H  H230  1  0.505530  0.615870  0.280670  1.0  0.0958
  H  H231  1  0.423530  0.506970  0.308370  1.0  0.0917
  H  H232  1  0.356330  0.513070  0.191470  1.0  0.0808
  H  H233  1  0.350230  0.371770  0.154370  1.0  0.063
  H  H234  1  0.359330  0.367970  0.893070  1.0  0.089
  H  H235  1  0.319030  0.438070  0.877970  1.0  0.1223
  H  H236  1  0.331030  0.447770  0.975270  1.0  0.0857
  H  H237  1  0.339530  0.426070  0.922170  1.0  0.0938
  H  H238  1  0.382730  0.458970  0.608570  1.0  0.0879
  H  H239  1  0.592830  0.548770  0.542370  1.0  0.0663
  H  H240  1  0.587730  0.677570  0.881070  1.0  0.0863
  H  H241  1  0.569330  0.595870  0.429370  1.0  0.0721
  H  H242  1  0.386530  0.521570  0.308370  1.0  0.0734
  H  H243  1  0.342630  0.345570  0.036570  1.0  0.0702
  H  H244  1  0.061000  0.212000  0.230000  1.0  0.0725
  H  H245  1  0.112700  0.197900  0.356300  1.0  0.0734
  H  H246  1  0.125800  0.218900  0.138300  1.0  0.0691
  H  H247  1  0.126100  0.250500  0.952500  1.0  0.0748
  H  H248  1  0.194900  0.316300  0.087500  1.0  0.0701
  H  H249  1  0.161900  0.331500  0.927200  1.0  0.0831
  H  H250  1  0.092300  0.318700  0.076500  1.0  0.0765
  H  H251  1  0.069900  0.298900  0.322500  1.0  0.0564
  H  H252  1  0.021000  0.212400  0.399100  1.0  0.082
  H  H253  1  0.039300  0.281700  0.519500  1.0  0.0648
  H  H254  1  0.108100  0.272600  0.607200  1.0  0.0734
  H  H255  1  0.181200  0.278500  0.517600  1.0  0.0775
  H  H256  1  0.177200  0.205300  0.401300  1.0  0.0685
  H  H257  1  0.241700  0.280400  0.486200  1.0  0.0832
  H  H258  1  0.243800  0.297000  0.223000  1.0  0.0824
  H  H259  1  0.022800  0.196700  0.130800  1.0  0.0518
  H  H260  1  0.090500  0.163200  0.466700  1.0  0.0736
  H  H261  1  0.150100  0.197200  0.065900  1.0  0.0802
  H  H262  1  0.157700  0.234000  0.900200  1.0  0.0765
  H  H263  1  0.227200  0.299500  0.035500  1.0  0.0865
  H  H264  1  0.157400  0.368200  0.845000  1.0  0.0745
  H  H265  1  0.084200  0.351700  0.989900  1.0  0.0854
  H  H266  1  0.057000  0.249300  0.901500  1.0  0.1053
  H  H267  1  0.092300  0.260300  0.903600  1.0  0.0859
  H  H268  1  0.080600  0.282400  0.935300  1.0  0.0998
  H  H269  1  0.032900  0.292600  0.226400  1.0  0.0846
  H  H270  1  0.985400  0.205200  0.297600  1.0  0.0627
  H  H271  1  0.037300  0.302800  0.652600  1.0  0.0903
  H  H272  1  0.103500  0.288400  0.740900  1.0  0.0791
  H  H273  1  0.032300  0.186900  0.612300  1.0  0.1051
  H  H274  1  0.024600  0.205600  0.543800  1.0  0.0821
  H  H275  1  0.050800  0.223000  0.614000  1.0  0.0947
  H  H276  1  0.159700  0.249900  0.641700  1.0  0.0924
  H  H277  1  0.153600  0.176600  0.524800  1.0  0.0814
  H  H278  1  0.294900  0.311800  0.487700  1.0  0.0628
  H  H279  1  0.298700  0.324700  0.226400  1.0  0.0884
  H  H280  1  0.228600  0.214300  0.211300  1.0  0.123
  H  H281  1  0.218900  0.216600  0.308600  1.0  0.0857
  H  H282  1  0.240600  0.246800  0.255500  1.0  0.0942
  H  H283  1  0.207700  0.257100  0.941900  1.0  0.0891
  H  H284  1  0.117900  0.377400  0.875700  1.0  0.0666
  H  H285  1  0.989100  0.243500  0.214400  1.0  0.0862
  H  H286  1  0.070800  0.306800  0.762700  1.0  0.0726
  H  H287  1  0.145100  0.198300  0.641700  1.0  0.0736
  H  H288  1  0.321100  0.330400  0.369900  1.0  0.0672
  H  H289  1  0.727670  0.545330  0.563330  1.0  0.0725
  H  H290  1  0.779370  0.531230  0.689630  1.0  0.0734
  H  H291  1  0.792470  0.552230  0.471630  1.0  0.0691
  H  H292  1  0.792770  0.583830  0.285830  1.0  0.0748
  H  H293  1  0.861570  0.649630  0.420830  1.0  0.0701
  H  H294  1  0.828570  0.664830  0.260530  1.0  0.0831
  H  H295  1  0.758970  0.652030  0.409830  1.0  0.0765
  H  H296  1  0.736570  0.632230  0.655830  1.0  0.0562
  H  H297  1  0.687670  0.545730  0.732430  1.0  0.082
  H  H298  1  0.705970  0.615030  0.852830  1.0  0.0648
  H  H299  1  0.774770  0.605930  0.940530  1.0  0.0734
  H  H300  1  0.847870  0.611830  0.850930  1.0  0.0774
  H  H301  1  0.843870  0.538630  0.734630  1.0  0.0685
  H  H302  1  0.908370  0.613730  0.819530  1.0  0.0832
  H  H303  1  0.910470  0.630330  0.556330  1.0  0.0824
  H  H304  1  0.689470  0.530030  0.464130  1.0  0.0518
  H  H305  1  0.757170  0.496530  0.800030  1.0  0.0736
  H  H306  1  0.816770  0.530530  0.399230  1.0  0.0802
  H  H307  1  0.824370  0.567330  0.233530  1.0  0.0765
  H  H308  1  0.893870  0.632830  0.368830  1.0  0.0865
  H  H309  1  0.824070  0.701530  0.178330  1.0  0.0745
  H  H310  1  0.750870  0.685030  0.323230  1.0  0.0855
  H  H311  1  0.723670  0.582630  0.234830  1.0  0.1053
  H  H312  1  0.758970  0.593630  0.236930  1.0  0.0859
  H  H313  1  0.747270  0.615730  0.268630  1.0  0.0998
  H  H314  1  0.699570  0.625930  0.559730  1.0  0.0845
  H  H315  1  0.652070  0.538530  0.630930  1.0  0.0627
  H  H316  1  0.703970  0.636130  0.985930  1.0  0.0903
  H  H317  1  0.770170  0.621730  0.074230  1.0  0.0791
  H  H318  1  0.698970  0.520230  0.945630  1.0  0.1051
  H  H319  1  0.691270  0.538930  0.877130  1.0  0.0821
  H  H320  1  0.717470  0.556330  0.947330  1.0  0.0947
  H  H321  1  0.826370  0.583230  0.975030  1.0  0.0924
  H  H322  1  0.820270  0.509930  0.858130  1.0  0.0814
  H  H323  1  0.961570  0.645130  0.821030  1.0  0.0628
  H  H324  1  0.965370  0.658030  0.559730  1.0  0.0884
  H  H325  1  0.895270  0.547630  0.544630  1.0  0.123
  H  H326  1  0.885570  0.549930  0.641930  1.0  0.0857
  H  H327  1  0.907270  0.580130  0.588830  1.0  0.0942
  H  H328  1  0.874370  0.590430  0.275230  1.0  0.0891
  H  H329  1  0.784570  0.710730  0.209030  1.0  0.0666
  H  H330  1  0.655770  0.576830  0.547730  1.0  0.0863
  H  H331  1  0.737470  0.640130  0.096030  1.0  0.0726
  H  H332  1  0.811770  0.531630  0.975030  1.0  0.0736
  H  H333  1  0.987770  0.663730  0.703230  1.0  0.0672
  H  H334  1  0.394330  0.878670  0.896670  1.0  0.0725
  H  H335  1  0.446030  0.864570  0.022970  1.0  0.0734
  H  H336  1  0.459130  0.885570  0.804970  1.0  0.0691
  H  H337  1  0.459430  0.917170  0.619170  1.0  0.0748
  H  H338  1  0.528230  0.982970  0.754170  1.0  0.0699
  H  H339  1  0.495230  0.998170  0.593870  1.0  0.083
  H  H340  1  0.425630  0.985370  0.743170  1.0  0.0766
  H  H341  1  0.403230  0.965570  0.989170  1.0  0.0563
  H  H342  1  0.354330  0.879070  0.065770  1.0  0.082
  H  H343  1  0.372630  0.948370  0.186170  1.0  0.065
  H  H344  1  0.441430  0.939270  0.273870  1.0  0.0734
  H  H345  1  0.514530  0.945170  0.184270  1.0  0.0777
  H  H346  1  0.510530  0.871970  0.067970  1.0  0.0686
  H  H347  1  0.575030  0.947070  0.152870  1.0  0.0832
  H  H348  1  0.577130  0.963670  0.889670  1.0  0.0824
  H  H349  1  0.356130  0.863370  0.797470  1.0  0.0518
  H  H350  1  0.423830  0.829870  0.133370  1.0  0.0736
  H  H351  1  0.483430  0.863870  0.732570  1.0  0.0802
  H  H352  1  0.491030  0.900670  0.566870  1.0  0.0765
  H  H353  1  0.560530  0.966170  0.702170  1.0  0.0865
  H  H354  1  0.490730  0.034870  0.511670  1.0  0.0745
  H  H355  1  0.417530  0.018370  0.656570  1.0  0.0854
  H  H356  1  0.390330  0.915970  0.568170  1.0  0.1053
  H  H357  1  0.425630  0.926970  0.570270  1.0  0.0859
  H  H358  1  0.413930  0.949070  0.601970  1.0  0.0998
  H  H359  1  0.366230  0.959270  0.893070  1.0  0.0844
  H  H360  1  0.318730  0.871870  0.964270  1.0  0.0627
  H  H361  1  0.370630  0.969470  0.319270  1.0  0.0903
  H  H362  1  0.436830  0.955070  0.407570  1.0  0.0791
  H  H363  1  0.365630  0.853570  0.278970  1.0  0.1051
  H  H364  1  0.357930  0.872270  0.210470  1.0  0.0821
  H  H365  1  0.384130  0.889670  0.280670  1.0  0.0947
  H  H366  1  0.493030  0.916570  0.308370  1.0  0.0924
  H  H367  1  0.486930  0.843270  0.191470  1.0  0.0814
  H  H368  1  0.628230  0.978470  0.154370  1.0  0.0628
  H  H369  1  0.632030  0.991370  0.893070  1.0  0.0884
  H  H370  1  0.561930  0.880970  0.877970  1.0  0.123
  H  H371  1  0.552230  0.883270  0.975270  1.0  0.0857
  H  H372  1  0.573930  0.913470  0.922170  1.0  0.0942
  H  H373  1  0.541030  0.923770  0.608570  1.0  0.0891
  H  H374  1  0.451230  0.044070  0.542370  1.0  0.0666
  H  H375  1  0.322430  0.910170  0.881070  1.0  0.0862
  H  H376  1  0.404130  0.973470  0.429370  1.0  0.0726
  H  H377  1  0.478430  0.864970  0.308370  1.0  0.0736
  H  H378  1  0.654430  0.997070  0.036570  1.0  0.0672
  H  H379  1  0.788000  0.849000  0.230000  1.0  0.0704
  H  H380  1  0.802100  0.914800  0.356300  1.0  0.072
  H  H381  1  0.781100  0.906900  0.138300  1.0  0.0698
  H  H382  1  0.749500  0.875600  0.952500  1.0  0.0748
  H  H383  1  0.683700  0.878600  0.087500  1.0  0.0711
  H  H384  1  0.668500  0.830400  0.927200  1.0  0.0827
  H  H385  1  0.681300  0.773600  0.076500  1.0  0.0764
  H  H386  1  0.701100  0.771000  0.322500  1.0  0.0582
  H  H387  1  0.787600  0.808600  0.399100  1.0  0.0827
  H  H388  1  0.718300  0.757600  0.519500  1.0  0.0648
  H  H389  1  0.727400  0.835500  0.607200  1.0  0.0731
  H  H390  1  0.721500  0.902700  0.517600  1.0  0.077
  H  H391  1  0.794700  0.971900  0.401300  1.0  0.0698
  H  H392  1  0.719600  0.961300  0.486200  1.0  0.0829
  H  H393  1  0.703000  0.946800  0.223000  1.0  0.0818
  H  H394  1  0.803300  0.826100  0.130800  1.0  0.0516
  H  H395  1  0.836800  0.927300  0.466700  1.0  0.0752
  H  H396  1  0.802800  0.952900  0.065900  1.0  0.0802
  H  H397  1  0.766000  0.923700  0.900200  1.0  0.076
  H  H398  1  0.700500  0.927700  0.035500  1.0  0.085
  H  H399  1  0.631800  0.789200  0.845000  1.0  0.0744
  H  H400  1  0.648300  0.732500  0.989900  1.0  0.0875
  H  H401  1  0.750700  0.807700  0.901500  1.0  0.1068
  H  H402  1  0.739700  0.832000  0.903600  1.0  0.0876
  H  H403  1  0.717600  0.798200  0.935300  1.0  0.0981
  H  H404  1  0.707400  0.740300  0.226400  1.0  0.0852
  H  H405  1  0.794800  0.780200  0.297600  1.0  0.0638
  H  H406  1  0.697200  0.734500  0.652600  1.0  0.0899
  H  H407  1  0.711600  0.815100  0.740900  1.0  0.0786
  H  H408  1  0.813100  0.845400  0.612300  1.0  0.1062
  H  H409  1  0.794400  0.819000  0.543800  1.0  0.0832
  H  H410  1  0.777000  0.827800  0.614000  1.0  0.0938
  H  H411  1  0.750100  0.909800  0.641700  1.0  0.0918
  H  H412  1  0.823400  0.977000  0.524800  1.0  0.0802
  H  H413  1  0.688200  0.983100  0.487700  1.0  0.0632
  H  H414  1  0.675300  0.974000  0.226400  1.0  0.0888
  H  H415  1  0.785700  0.014300  0.211300  1.0  0.124
  H  H416  1  0.783400  0.002300  0.308600  1.0  0.0861
  H  H417  1  0.753200  0.993800  0.255500  1.0  0.0923
  H  H418  1  0.742900  0.950600  0.941900  1.0  0.088
  H  H419  1  0.622600  0.740500  0.875700  1.0  0.067
  H  H420  1  0.756500  0.745600  0.214400  1.0  0.0868
  H  H421  1  0.693200  0.764000  0.762700  1.0  0.0725
  H  H422  1  0.801700  0.946800  0.641700  1.0  0.0722
  H  H423  1  0.669600  0.990700  0.369900  1.0  0.0665
  H  H424  1  0.454670  0.182330  0.563330  1.0  0.0704
  H  H425  1  0.468770  0.248130  0.689630  1.0  0.072
  H  H426  1  0.447770  0.240230  0.471630  1.0  0.0698
  H  H427  1  0.416170  0.208930  0.285830  1.0  0.0748
  H  H428  1  0.350370  0.211930  0.420830  1.0  0.0711
  H  H429  1  0.335170  0.163730  0.260530  1.0  0.0827
  H  H430  1  0.347970  0.106930  0.409830  1.0  0.0764
  H  H431  1  0.367770  0.104330  0.655830  1.0  0.0581
  H  H432  1  0.454270  0.141930  0.732430  1.0  0.0827
  H  H433  1  0.384970  0.090930  0.852830  1.0  0.0648
  H  H434  1  0.394070  0.168830  0.940530  1.0  0.0731
  H  H435  1  0.388170  0.236030  0.850930  1.0  0.077
  H  H436  1  0.461370  0.305230  0.734630  1.0  0.0698
  H  H437  1  0.386270  0.294630  0.819530  1.0  0.0829
  H  H438  1  0.369670  0.280130  0.556330  1.0  0.0818
  H  H439  1  0.469970  0.159430  0.464130  1.0  0.0516
  H  H440  1  0.503470  0.260630  0.800030  1.0  0.0752
  H  H441  1  0.469470  0.286230  0.399230  1.0  0.0802
  H  H442  1  0.432670  0.257030  0.233530  1.0  0.076
  H  H443  1  0.367170  0.261030  0.368830  1.0  0.085
  H  H444  1  0.298470  0.122530  0.178330  1.0  0.0744
  H  H445  1  0.314970  0.065830  0.323230  1.0  0.0875
  H  H446  1  0.417370  0.141030  0.234830  1.0  0.1068
  H  H447  1  0.406370  0.165330  0.236930  1.0  0.0876
  H  H448  1  0.384270  0.131530  0.268630  1.0  0.0981
  H  H449  1  0.374070  0.073630  0.559730  1.0  0.0852
  H  H450  1  0.461470  0.113530  0.630930  1.0  0.0638
  H  H451  1  0.363870  0.067830  0.985930  1.0  0.0899
  H  H452  1  0.378270  0.148430  0.074230  1.0  0.0786
  H  H453  1  0.479770  0.178730  0.945630  1.0  0.1062
  H  H454  1  0.461070  0.152330  0.877130  1.0  0.0832
  H  H455  1  0.443670  0.161130  0.947330  1.0  0.0938
  H  H456  1  0.416770  0.243130  0.975030  1.0  0.0918
  H  H457  1  0.490070  0.310330  0.858130  1.0  0.0802
  H  H458  1  0.354870  0.316430  0.821030  1.0  0.0632
  H  H459  1  0.341970  0.307330  0.559730  1.0  0.0888
  H  H460  1  0.452370  0.347630  0.544630  1.0  0.124
  H  H461  1  0.450070  0.335630  0.641930  1.0  0.0861
  H  H462  1  0.419870  0.327130  0.588830  1.0  0.0923
  H  H463  1  0.409570  0.283930  0.275230  1.0  0.088
  H  H464  1  0.289270  0.073830  0.209030  1.0  0.067
  H  H465  1  0.423170  0.078930  0.547730  1.0  0.0867
  H  H466  1  0.359870  0.097330  0.096030  1.0  0.0725
  H  H467  1  0.468370  0.280130  0.975030  1.0  0.0722
  H  H468  1  0.336270  0.324030  0.703230  1.0  0.0665
  H  H469  1  0.121330  0.515670  0.896670  1.0  0.0704
  H  H470  1  0.135430  0.581470  0.022970  1.0  0.072
  H  H471  1  0.114430  0.573570  0.804970  1.0  0.0698
  H  H472  1  0.082830  0.542270  0.619170  1.0  0.0748
  H  H473  1  0.017030  0.545270  0.754170  1.0  0.0711
  H  H474  1  0.001830  0.497070  0.593870  1.0  0.0827
  H  H475  1  0.014630  0.440270  0.743170  1.0  0.0765
  H  H476  1  0.034430  0.437670  0.989170  1.0  0.0581
  H  H477  1  0.120930  0.475270  0.065770  1.0  0.0827
  H  H478  1  0.051630  0.424270  0.186170  1.0  0.0647
  H  H479  1  0.060730  0.502170  0.273870  1.0  0.0731
  H  H480  1  0.054830  0.569370  0.184270  1.0  0.0775
  H  H481  1  0.128030  0.638570  0.067970  1.0  0.0698
  H  H482  1  0.052930  0.627970  0.152870  1.0  0.0829
  H  H483  1  0.036330  0.613470  0.889670  1.0  0.0818
  H  H484  1  0.136630  0.492770  0.797470  1.0  0.0516
  H  H485  1  0.170130  0.593970  0.133370  1.0  0.0752
  H  H486  1  0.136130  0.619570  0.732570  1.0  0.0802
  H  H487  1  0.099330  0.590370  0.566870  1.0  0.076
  H  H488  1  0.033830  0.594370  0.702170  1.0  0.085
  H  H489  1  0.965130  0.455870  0.511670  1.0  0.0744
  H  H490  1  0.981630  0.399170  0.656570  1.0  0.0875
  H  H491  1  0.084030  0.474370  0.568170  1.0  0.1068
  H  H492  1  0.073030  0.498670  0.570270  1.0  0.0876
  H  H493  1  0.050930  0.464870  0.601970  1.0  0.098
  H  H494  1  0.040730  0.406970  0.893070  1.0  0.0852
  H  H495  1  0.128130  0.446870  0.964270  1.0  0.0638
  H  H496  1  0.030530  0.401170  0.319270  1.0  0.0899
  H  H497  1  0.044930  0.481770  0.407570  1.0  0.0786
  H  H498  1  0.146430  0.512070  0.278970  1.0  0.1062
  H  H499  1  0.127730  0.485670  0.210470  1.0  0.0832
  H  H500  1  0.110330  0.494470  0.280670  1.0  0.0938
  H  H501  1  0.083430  0.576470  0.308370  1.0  0.0924
  H  H502  1  0.156730  0.643670  0.191470  1.0  0.0802
  H  H503  1  0.021530  0.649770  0.154370  1.0  0.0632
  H  H504  1  0.008630  0.640670  0.893070  1.0  0.0888
  H  H505  1  0.119030  0.680970  0.877970  1.0  0.124
  H  H506  1  0.116730  0.668970  0.975270  1.0  0.0861
  H  H507  1  0.086530  0.660470  0.922170  1.0  0.0924
  H  H508  1  0.076230  0.617270  0.608570  1.0  0.088
  H  H509  1  0.955930  0.407170  0.542370  1.0  0.067
  H  H510  1  0.089830  0.412270  0.881070  1.0  0.0867
  H  H511  1  0.026530  0.430670  0.429370  1.0  0.0725
  H  H512  1  0.135030  0.613470  0.308370  1.0  0.0722
  H  H513  1  0.002930  0.657370  0.036570  1.0  0.0665
  H  H514  1  0.849000  0.061000  0.770000  1.0  0.0721
  H  H515  1  0.914800  0.112700  0.643700  1.0  0.0724
  H  H516  1  0.906900  0.125800  0.861700  1.0  0.07
  H  H517  1  0.875600  0.126100  0.047500  1.0  0.0744
  H  H518  1  0.878600  0.194900  0.912500  1.0  0.0704
  H  H519  1  0.830400  0.161900  0.072800  1.0  0.0821
  H  H520  1  0.773600  0.092300  0.923500  1.0  0.0755
  H  H521  1  0.771000  0.069900  0.677500  1.0  0.0559
  H  H522  1  0.808600  0.021000  0.600900  1.0  0.083
  H  H523  1  0.757600  0.039300  0.480500  1.0  0.0657
  H  H524  1  0.835500  0.108100  0.392800  1.0  0.0731
  H  H525  1  0.902700  0.181200  0.482400  1.0  0.0794
  H  H526  1  0.971900  0.177200  0.598700  1.0  0.0693
  H  H527  1  0.961300  0.241700  0.513800  1.0  0.083
  H  H528  1  0.946800  0.243800  0.777000  1.0  0.0817
  H  H529  1  0.826100  0.022800  0.869200  1.0  0.053
  H  H530  1  0.927300  0.090500  0.533300  1.0  0.0749
  H  H531  1  0.952900  0.150100  0.934100  1.0  0.0787
  H  H532  1  0.923700  0.157700  0.099800  1.0  0.0763
  H  H533  1  0.927700  0.227200  0.964500  1.0  0.086
  H  H534  1  0.789200  0.157400  0.155000  1.0  0.0752
  H  H535  1  0.732500  0.084200  0.010100  1.0  0.0891
  H  H536  1  0.807700  0.057000  0.098500  1.0  0.1059
  H  H537  1  0.832000  0.092300  0.096400  1.0  0.0854
  H  H538  1  0.798200  0.080600  0.064700  1.0  0.0977
  H  H539  1  0.740300  0.032900  0.773600  1.0  0.0845
  H  H540  1  0.780200  0.985400  0.702400  1.0  0.0623
  H  H541  1  0.734500  0.037300  0.347400  1.0  0.0904
  H  H542  1  0.815100  0.103500  0.259100  1.0  0.0787
  H  H543  1  0.845400  0.032300  0.387700  1.0  0.1057
  H  H544  1  0.819000  0.024600  0.456200  1.0  0.0844
  H  H545  1  0.827800  0.050800  0.386000  1.0  0.096
  H  H546  1  0.909800  0.159700  0.358300  1.0  0.0927
  H  H547  1  0.977000  0.153600  0.475200  1.0  0.0797
  H  H548  1  0.983100  0.294900  0.512300  1.0  0.0627
  H  H549  1  0.974000  0.298700  0.773600  1.0  0.0895
  H  H550  1  0.014300  0.228600  0.788700  1.0  0.1232
  H  H551  1  0.002300  0.218900  0.691400  1.0  0.0864
  H  H552  1  0.993800  0.240600  0.744500  1.0  0.0928
  H  H553  1  0.950600  0.207700  0.058100  1.0  0.0886
  H  H554  1  0.740500  0.117900  0.124300  1.0  0.0664
  H  H555  1  0.745600  0.989100  0.785600  1.0  0.087
  H  H556  1  0.764000  0.070800  0.237300  1.0  0.072
  H  H557  1  0.946800  0.145100  0.358300  1.0  0.0734
  H  H558  1  0.990700  0.321100  0.630100  1.0  0.0683
  H  H559  1  0.515670  0.394330  0.103330  1.0  0.0721
  H  H560  1  0.581470  0.446030  0.977030  1.0  0.0724
  H  H561  1  0.573570  0.459130  0.195030  1.0  0.07
  H  H562  1  0.542270  0.459430  0.380830  1.0  0.0744
  H  H563  1  0.545270  0.528230  0.245830  1.0  0.0706
  H  H564  1  0.497070  0.495230  0.406130  1.0  0.082
  H  H565  1  0.440270  0.425630  0.256830  1.0  0.0754
  H  H566  1  0.437670  0.403230  0.010830  1.0  0.056
  H  H567  1  0.475270  0.354330  0.934230  1.0  0.083
  H  H568  1  0.424270  0.372630  0.813830  1.0  0.0657
  H  H569  1  0.502170  0.441430  0.726130  1.0  0.073
  H  H570  1  0.569370  0.514530  0.815730  1.0  0.0788
  H  H571  1  0.638570  0.510530  0.932030  1.0  0.0693
  H  H572  1  0.627970  0.575030  0.847130  1.0  0.083
  H  H573  1  0.613470  0.577130  0.110330  1.0  0.0817
  H  H574  1  0.492770  0.356130  0.202530  1.0  0.053
  H  H575  1  0.593970  0.423830  0.866630  1.0  0.0749
  H  H576  1  0.619570  0.483430  0.267430  1.0  0.0787
  H  H577  1  0.590370  0.491030  0.433130  1.0  0.0763
  H  H578  1  0.594370  0.560530  0.297830  1.0  0.086
  H  H579  1  0.455870  0.490730  0.488330  1.0  0.0752
  H  H580  1  0.399170  0.417530  0.343430  1.0  0.0891
  H  H581  1  0.474370  0.390330  0.431830  1.0  0.1059
  H  H582  1  0.498670  0.425630  0.429730  1.0  0.0855
  H  H583  1  0.464870  0.413930  0.398030  1.0  0.0976
  H  H584  1  0.406970  0.366230  0.106930  1.0  0.0845
  H  H585  1  0.446870  0.318730  0.035730  1.0  0.0623
  H  H586  1  0.401170  0.370630  0.680730  1.0  0.0904
  H  H587  1  0.481770  0.436830  0.592430  1.0  0.0787
  H  H588  1  0.512070  0.365630  0.721030  1.0  0.1057
  H  H589  1  0.485670  0.357930  0.789530  1.0  0.0844
  H  H590  1  0.494470  0.384130  0.719330  1.0  0.096
  H  H591  1  0.576470  0.493030  0.691630  1.0  0.0919
  H  H592  1  0.643670  0.486930  0.808530  1.0  0.0797
  H  H593  1  0.649770  0.628230  0.845630  1.0  0.0627
  H  H594  1  0.640670  0.632030  0.106930  1.0  0.0895
  H  H595  1  0.680970  0.561930  0.122030  1.0  0.1232
  H  H596  1  0.668970  0.552230  0.024730  1.0  0.0864
  H  H597  1  0.660470  0.573930  0.077830  1.0  0.0929
  H  H598  1  0.617270  0.541030  0.391430  1.0  0.0885
  H  H599  1  0.407170  0.451230  0.457630  1.0  0.0664
  H  H600  1  0.412270  0.322430  0.118930  1.0  0.087
  H  H601  1  0.430670  0.404130  0.570630  1.0  0.072
  H  H602  1  0.613470  0.478430  0.691630  1.0  0.0734
  H  H603  1  0.657370  0.654430  0.963430  1.0  0.0683
  H  H604  1  0.182330  0.727670  0.436670  1.0  0.0721
  H  H605  1  0.248130  0.779370  0.310370  1.0  0.0724
  H  H606  1  0.240230  0.792470  0.528370  1.0  0.07
  H  H607  1  0.208930  0.792770  0.714170  1.0  0.0744
  H  H608  1  0.211930  0.861570  0.579170  1.0  0.0704
  H  H609  1  0.163730  0.828570  0.739470  1.0  0.0821
  H  H610  1  0.106930  0.758970  0.590170  1.0  0.0755
  H  H611  1  0.104330  0.736570  0.344170  1.0  0.0558
  H  H612  1  0.141930  0.687670  0.267570  1.0  0.083
  H  H613  1  0.090930  0.705970  0.147170  1.0  0.0657
  H  H614  1  0.168830  0.774770  0.059470  1.0  0.073
  H  H615  1  0.236030  0.847870  0.149070  1.0  0.0794
  H  H616  1  0.305230  0.843870  0.265370  1.0  0.0693
  H  H617  1  0.294630  0.908370  0.180470  1.0  0.083
  H  H618  1  0.280130  0.910470  0.443670  1.0  0.0817
  H  H619  1  0.159430  0.689470  0.535870  1.0  0.053
  H  H620  1  0.260630  0.757170  0.199970  1.0  0.0749
  H  H621  1  0.286230  0.816770  0.600770  1.0  0.0787
  H  H622  1  0.257030  0.824370  0.766470  1.0  0.0763
  H  H623  1  0.261030  0.893870  0.631170  1.0  0.086
  H  H624  1  0.122530  0.824070  0.821670  1.0  0.0752
  H  H625  1  0.065830  0.750870  0.676770  1.0  0.089
  H  H626  1  0.141030  0.723670  0.765170  1.0  0.1059
  H  H627  1  0.165330  0.758970  0.763070  1.0  0.0854
  H  H628  1  0.131530  0.747270  0.731370  1.0  0.0977
  H  H629  1  0.073630  0.699570  0.440270  1.0  0.0845
  H  H630  1  0.113530  0.652070  0.369070  1.0  0.0623
  H  H631  1  0.067830  0.703970  0.014070  1.0  0.0904
  H  H632  1  0.148430  0.770170  0.925770  1.0  0.0787
  H  H633  1  0.178730  0.698970  0.054370  1.0  0.1057
  H  H634  1  0.152330  0.691270  0.122870  1.0  0.0844
  H  H635  1  0.161130  0.717470  0.052670  1.0  0.096
  H  H636  1  0.243130  0.826370  0.024970  1.0  0.0927
  H  H637  1  0.310330  0.820270  0.141870  1.0  0.0797
  H  H638  1  0.316430  0.961570  0.178970  1.0  0.0627
  H  H639  1  0.307330  0.965370  0.440270  1.0  0.0895
  H  H640  1  0.347630  0.895270  0.455370  1.0  0.1232
  H  H641  1  0.335630  0.885570  0.358070  1.0  0.0864
  H  H642  1  0.327130  0.907270  0.411170  1.0  0.0928
  H  H643  1  0.283930  0.874370  0.724770  1.0  0.0886
  H  H644  1  0.073830  0.784570  0.790970  1.0  0.0664
  H  H645  1  0.078930  0.655770  0.452270  1.0  0.087
  H  H646  1  0.097330  0.737470  0.903970  1.0  0.072
  H  H647  1  0.280130  0.811770  0.024970  1.0  0.0734
  H  H648  1  0.324030  0.987770  0.296770  1.0  0.0683
  H  H649  1  0.939000  0.788000  0.770000  1.0  0.0725
  H  H650  1  0.887300  0.802100  0.643700  1.0  0.074
  H  H651  1  0.874200  0.781100  0.861700  1.0  0.0694
  H  H652  1  0.873900  0.749500  0.047500  1.0  0.0742
  H  H653  1  0.805100  0.683700  0.912500  1.0  0.0707
  H  H654  1  0.838100  0.668500  0.072800  1.0  0.082
  H  H655  1  0.907700  0.681300  0.923500  1.0  0.077
  H  H656  1  0.930100  0.701100  0.677500  1.0  0.0567
  H  H657  1  0.979000  0.787600  0.600900  1.0  0.0823
  H  H658  1  0.960700  0.718300  0.480500  1.0  0.0655
  H  H659  1  0.891900  0.727400  0.392800  1.0  0.0724
  H  H660  1  0.818800  0.721500  0.482400  1.0  0.0774
  H  H661  1  0.822800  0.794700  0.598700  1.0  0.0689
  H  H662  1  0.758300  0.719600  0.513800  1.0  0.0833
  H  H663  1  0.756200  0.703000  0.777000  1.0  0.0826
  H  H664  1  0.977200  0.803300  0.869200  1.0  0.051
  H  H665  1  0.909500  0.836800  0.533300  1.0  0.0746
  H  H666  1  0.849900  0.802800  0.934100  1.0  0.0789
  H  H667  1  0.842300  0.766000  0.099800  1.0  0.0771
  H  H668  1  0.772800  0.700500  0.964500  1.0  0.0865
  H  H669  1  0.842600  0.631800  0.155000  1.0  0.0755
  H  H670  1  0.915800  0.648300  0.010100  1.0  0.0873
  H  H671  1  0.943000  0.750700  0.098500  1.0  0.1052
  H  H672  1  0.907700  0.739700  0.096400  1.0  0.0854
  H  H673  1  0.919400  0.717600  0.064700  1.0  0.0987
  H  H674  1  0.967100  0.707400  0.773600  1.0  0.0845
  H  H675  1  0.014600  0.794800  0.702400  1.0  0.0619
  H  H676  1  0.962700  0.697200  0.347400  1.0  0.089
  H  H677  1  0.896500  0.711600  0.259100  1.0  0.079
  H  H678  1  0.967700  0.813100  0.387700  1.0  0.1067
  H  H679  1  0.975400  0.794400  0.456200  1.0  0.0817
  H  H680  1  0.949200  0.777000  0.386000  1.0  0.0951
  H  H681  1  0.840300  0.750100  0.358300  1.0  0.093
  H  H682  1  0.846400  0.823400  0.475200  1.0  0.0806
  H  H683  1  0.705100  0.688200  0.512300  1.0  0.0629
  H  H684  1  0.701300  0.675300  0.773600  1.0  0.089
  H  H685  1  0.771400  0.785700  0.788700  1.0  0.1228
  H  H686  1  0.781100  0.783400  0.691400  1.0  0.0867
  H  H687  1  0.759400  0.753200  0.744500  1.0  0.0931
  H  H688  1  0.792300  0.742900  0.058100  1.0  0.0885
  H  H689  1  0.882100  0.622600  0.124300  1.0  0.0656
  H  H690  1  0.010900  0.756500  0.785600  1.0  0.0869
  H  H691  1  0.929200  0.693200  0.237300  1.0  0.0727
  H  H692  1  0.854900  0.801700  0.358300  1.0  0.0735
  H  H693  1  0.678900  0.669600  0.630100  1.0  0.0682
  H  H694  1  0.605670  0.121330  0.103330  1.0  0.0725
  H  H695  1  0.553970  0.135430  0.977030  1.0  0.074
  H  H696  1  0.540870  0.114430  0.195030  1.0  0.0694
  H  H697  1  0.540570  0.082830  0.380830  1.0  0.0742
  H  H698  1  0.471770  0.017030  0.245830  1.0  0.0705
  H  H699  1  0.504770  0.001830  0.406130  1.0  0.082
  H  H700  1  0.574370  0.014630  0.256830  1.0  0.0771
  H  H701  1  0.596770  0.034430  0.010830  1.0  0.0566
  H  H702  1  0.645670  0.120930  0.934230  1.0  0.0823
  H  H703  1  0.627370  0.051630  0.813830  1.0  0.0656
  H  H704  1  0.558570  0.060730  0.726130  1.0  0.0724
  H  H705  1  0.485470  0.054830  0.815730  1.0  0.0776
  H  H706  1  0.489470  0.128030  0.932030  1.0  0.069
  H  H707  1  0.424970  0.052930  0.847130  1.0  0.0833
  H  H708  1  0.422870  0.036330  0.110330  1.0  0.0826
  H  H709  1  0.643870  0.136630  0.202530  1.0  0.051
  H  H710  1  0.576170  0.170130  0.866630  1.0  0.0746
  H  H711  1  0.516570  0.136130  0.267430  1.0  0.0789
  H  H712  1  0.508970  0.099330  0.433130  1.0  0.0772
  H  H713  1  0.439470  0.033830  0.297830  1.0  0.0865
  H  H714  1  0.509270  0.965130  0.488330  1.0  0.0755
  H  H715  1  0.582470  0.981630  0.343430  1.0  0.0874
  H  H716  1  0.609670  0.084030  0.431830  1.0  0.1052
  H  H717  1  0.574370  0.073030  0.429730  1.0  0.0854
  H  H718  1  0.586070  0.050930  0.398030  1.0  0.0987
  H  H719  1  0.633770  0.040730  0.106930  1.0  0.0843
  H  H720  1  0.681270  0.128130  0.035730  1.0  0.0619
  H  H721  1  0.629370  0.030530  0.680730  1.0  0.089
  H  H722  1  0.563170  0.044930  0.592430  1.0  0.079
  H  H723  1  0.634370  0.146430  0.721030  1.0  0.1067
  H  H724  1  0.642070  0.127730  0.789530  1.0  0.0817
  H  H725  1  0.615870  0.110330  0.719330  1.0  0.0951
  H  H726  1  0.506970  0.083430  0.691630  1.0  0.093
  H  H727  1  0.513070  0.156730  0.808530  1.0  0.0806
  H  H728  1  0.371770  0.021530  0.845630  1.0  0.0629
  H  H729  1  0.367970  0.008630  0.106930  1.0  0.089
  H  H730  1  0.438070  0.119030  0.122030  1.0  0.1228
  H  H731  1  0.447770  0.116730  0.024730  1.0  0.0867
  H  H732  1  0.426070  0.086530  0.077830  1.0  0.0931
  H  H733  1  0.458970  0.076230  0.391430  1.0  0.0885
  H  H734  1  0.548770  0.955930  0.457630  1.0  0.0656
  H  H735  1  0.677570  0.089830  0.118930  1.0  0.0869
  H  H736  1  0.595870  0.026530  0.570630  1.0  0.0727
  H  H737  1  0.521570  0.135030  0.691630  1.0  0.0735
  H  H738  1  0.345570  0.002930  0.963430  1.0  0.0682
  H  H739  1  0.272330  0.454670  0.436670  1.0  0.0725
  H  H740  1  0.220630  0.468770  0.310370  1.0  0.074
  H  H741  1  0.207530  0.447770  0.528370  1.0  0.0694
  H  H742  1  0.207230  0.416170  0.714170  1.0  0.0742
  H  H743  1  0.138430  0.350370  0.579170  1.0  0.0707
  H  H744  1  0.171430  0.335170  0.739470  1.0  0.082
  H  H745  1  0.241030  0.347970  0.590170  1.0  0.077
  H  H746  1  0.263430  0.367770  0.344170  1.0  0.0564
  H  H747  1  0.312330  0.454270  0.267570  1.0  0.0823
  H  H748  1  0.294030  0.384970  0.147170  1.0  0.0655
  H  H749  1  0.225230  0.394070  0.059470  1.0  0.0724
  H  H750  1  0.152130  0.388170  0.149070  1.0  0.0774
  H  H751  1  0.156130  0.461370  0.265370  1.0  0.0689
  H  H752  1  0.091630  0.386270  0.180470  1.0  0.0833
  H  H753  1  0.089530  0.369670  0.443670  1.0  0.0826
  H  H754  1  0.310530  0.469970  0.535870  1.0  0.051
  H  H755  1  0.242830  0.503470  0.199970  1.0  0.0746
  H  H756  1  0.183230  0.469470  0.600770  1.0  0.0789
  H  H757  1  0.175630  0.432670  0.766470  1.0  0.0771
  H  H758  1  0.106130  0.367170  0.631170  1.0  0.0865
  H  H759  1  0.175930  0.298470  0.821670  1.0  0.0755
  H  H760  1  0.249130  0.314970  0.676770  1.0  0.0873
  H  H761  1  0.276330  0.417370  0.765170  1.0  0.1052
  H  H762  1  0.241030  0.406370  0.763070  1.0  0.0854
  H  H763  1  0.252730  0.384270  0.731370  1.0  0.0987
  H  H764  1  0.300430  0.374070  0.440270  1.0  0.0845
  H  H765  1  0.347930  0.461470  0.369070  1.0  0.0619
  H  H766  1  0.296030  0.363870  0.014070  1.0  0.089
  H  H767  1  0.229830  0.378270  0.925770  1.0  0.079
  H  H768  1  0.301030  0.479770  0.054370  1.0  0.1067
  H  H769  1  0.308730  0.461070  0.122870  1.0  0.0817
  H  H770  1  0.282530  0.443670  0.052670  1.0  0.0951
  H  H771  1  0.173630  0.416770  0.024970  1.0  0.093
  H  H772  1  0.179730  0.490070  0.141870  1.0  0.0806
  H  H773  1  0.038430  0.354870  0.178970  1.0  0.0629
  H  H774  1  0.034630  0.341970  0.440270  1.0  0.089
  H  H775  1  0.104730  0.452370  0.455370  1.0  0.1228
  H  H776  1  0.114430  0.450070  0.358070  1.0  0.0867
  H  H777  1  0.092730  0.419870  0.411170  1.0  0.0931
  H  H778  1  0.125630  0.409570  0.724770  1.0  0.0885
  H  H779  1  0.215430  0.289270  0.790970  1.0  0.0656
  H  H780  1  0.344230  0.423170  0.452270  1.0  0.0869
  H  H781  1  0.262530  0.359870  0.903970  1.0  0.0727
  H  H782  1  0.188230  0.468370  0.024970  1.0  0.0735
  H  H783  1  0.012230  0.336270  0.296770  1.0  0.0682
  H  H784  1  0.212000  0.151000  0.770000  1.0  0.0714
  H  H785  1  0.197900  0.085200  0.643700  1.0  0.0718
  H  H786  1  0.218900  0.093100  0.861700  1.0  0.0695
  H  H787  1  0.250500  0.124400  0.047500  1.0  0.0748
  H  H788  1  0.316300  0.121400  0.912500  1.0  0.0709
  H  H789  1  0.331500  0.169600  0.072800  1.0  0.0823
  H  H790  1  0.318700  0.226400  0.923500  1.0  0.0769
  H  H791  1  0.298900  0.229000  0.677500  1.0  0.0585
  H  H792  1  0.212400  0.191400  0.600900  1.0  0.083
  H  H793  1  0.281700  0.242400  0.480500  1.0  0.0651
  H  H794  1  0.272600  0.164500  0.392800  1.0  0.0733
  H  H795  1  0.278500  0.097300  0.482400  1.0  0.0769
  H  H796  1  0.205300  0.028100  0.598700  1.0  0.0702
  H  H797  1  0.280400  0.038700  0.513800  1.0  0.0831
  H  H798  1  0.297000  0.053200  0.777000  1.0  0.0816
  H  H799  1  0.196700  0.173900  0.869200  1.0  0.0524
  H  H800  1  0.163200  0.072700  0.533300  1.0  0.075
  H  H801  1  0.197200  0.047100  0.934100  1.0  0.0843
  H  H802  1  0.234000  0.076300  0.099800  1.0  0.0769
  H  H803  1  0.299500  0.072300  0.964500  1.0  0.0845
  H  H804  1  0.368200  0.210800  0.155000  1.0  0.0755
  H  H805  1  0.351700  0.267500  0.010100  1.0  0.088
  H  H806  1  0.249300  0.192300  0.098500  1.0  0.106
  H  H807  1  0.260300  0.168000  0.096400  1.0  0.0867
  H  H808  1  0.282400  0.201800  0.064700  1.0  0.0966
  H  H809  1  0.292600  0.259700  0.773600  1.0  0.0845
  H  H810  1  0.205200  0.219800  0.702400  1.0  0.0628
  H  H811  1  0.302800  0.265500  0.347400  1.0  0.0896
  H  H812  1  0.288400  0.184900  0.259100  1.0  0.0781
  H  H813  1  0.186900  0.154600  0.387700  1.0  0.1053
  H  H814  1  0.205600  0.181000  0.456200  1.0  0.0827
  H  H815  1  0.223000  0.172200  0.386000  1.0  0.0926
  H  H816  1  0.249900  0.090200  0.358300  1.0  0.0918
  H  H817  1  0.176600  0.023000  0.475200  1.0  0.0806
  H  H818  1  0.311800  0.016900  0.512300  1.0  0.0632
  H  H819  1  0.324700  0.026000  0.773600  1.0  0.0892
  H  H820  1  0.214300  0.985700  0.788700  1.0  0.1235
  H  H821  1  0.216600  0.997700  0.691400  1.0  0.0868
  H  H822  1  0.246800  0.006200  0.744500  1.0  0.093
  H  H823  1  0.257100  0.049400  0.058100  1.0  0.0892
  H  H824  1  0.377400  0.259500  0.124300  1.0  0.0664
  H  H825  1  0.243500  0.254400  0.785600  1.0  0.0868
  H  H826  1  0.306800  0.236000  0.237300  1.0  0.0726
  H  H827  1  0.198300  0.053200  0.358300  1.0  0.0728
  H  H828  1  0.330400  0.009300  0.630100  1.0  0.0676
  H  H829  1  0.878670  0.484330  0.103330  1.0  0.0714
  H  H830  1  0.864570  0.418530  0.977030  1.0  0.0718
  H  H831  1  0.885570  0.426430  0.195030  1.0  0.0695
  H  H832  1  0.917170  0.457730  0.380830  1.0  0.0749
  H  H833  1  0.982970  0.454730  0.245830  1.0  0.0709
  H  H834  1  0.998170  0.502930  0.406130  1.0  0.0824
  H  H835  1  0.985370  0.559730  0.256830  1.0  0.077
  H  H836  1  0.965570  0.562330  0.010830  1.0  0.0585
  H  H837  1  0.879070  0.524730  0.934230  1.0  0.083
  H  H838  1  0.948370  0.575730  0.813830  1.0  0.0651
  H  H839  1  0.939270  0.497830  0.726130  1.0  0.0733
  H  H840  1  0.945170  0.430630  0.815730  1.0  0.0771
  H  H841  1  0.871970  0.361430  0.932030  1.0  0.0702
  H  H842  1  0.947070  0.372030  0.847130  1.0  0.0831
  H  H843  1  0.963670  0.386530  0.110330  1.0  0.0816
  H  H844  1  0.863370  0.507230  0.202530  1.0  0.0524
  H  H845  1  0.829870  0.406030  0.866630  1.0  0.075
  H  H846  1  0.863870  0.380430  0.267430  1.0  0.0843
  H  H847  1  0.900670  0.409630  0.433130  1.0  0.0769
  H  H848  1  0.966170  0.405630  0.297830  1.0  0.0844
  H  H849  1  0.034870  0.544130  0.488330  1.0  0.0755
  H  H850  1  0.018370  0.600830  0.343430  1.0  0.088
  H  H851  1  0.915970  0.525630  0.431830  1.0  0.106
  H  H852  1  0.926970  0.501330  0.429730  1.0  0.0867
  H  H853  1  0.949070  0.535130  0.398030  1.0  0.0967
  H  H854  1  0.959270  0.593030  0.106930  1.0  0.0845
  H  H855  1  0.871870  0.553130  0.035730  1.0  0.0628
  H  H856  1  0.969470  0.598830  0.680730  1.0  0.0896
  H  H857  1  0.955070  0.518230  0.592430  1.0  0.0781
  H  H858  1  0.853570  0.487930  0.721030  1.0  0.1053
  H  H859  1  0.872270  0.514330  0.789530  1.0  0.0827
  H  H860  1  0.889670  0.505530  0.719330  1.0  0.0926
  H  H861  1  0.916570  0.423530  0.691630  1.0  0.0924
  H  H862  1  0.843270  0.356330  0.808530  1.0  0.0806
  H  H863  1  0.978470  0.350230  0.845630  1.0  0.0632
  H  H864  1  0.991370  0.359330  0.106930  1.0  0.0892
  H  H865  1  0.880970  0.319030  0.122030  1.0  0.1235
  H  H866  1  0.883270  0.331030  0.024730  1.0  0.0868
  H  H867  1  0.913470  0.339530  0.077830  1.0  0.0931
  H  H868  1  0.923770  0.382730  0.391430  1.0  0.0892
  H  H869  1  0.044070  0.592830  0.457630  1.0  0.0665
  H  H870  1  0.910170  0.587730  0.118930  1.0  0.0868
  H  H871  1  0.973470  0.569330  0.570630  1.0  0.0726
  H  H872  1  0.864970  0.386530  0.691630  1.0  0.0728
  H  H873  1  0.997070  0.342630  0.963430  1.0  0.0676
  H  H874  1  0.545330  0.817670  0.436670  1.0  0.0714
  H  H875  1  0.531230  0.751870  0.310370  1.0  0.0718
  H  H876  1  0.552230  0.759770  0.528370  1.0  0.0695
  H  H877  1  0.583830  0.791070  0.714170  1.0  0.0748
  H  H878  1  0.649630  0.788070  0.579170  1.0  0.0709
  H  H879  1  0.664830  0.836270  0.739470  1.0  0.0823
  H  H880  1  0.652030  0.893070  0.590170  1.0  0.0769
  H  H881  1  0.632230  0.895670  0.344170  1.0  0.0585
  H  H882  1  0.545730  0.858070  0.267570  1.0  0.083
  H  H883  1  0.615030  0.909070  0.147170  1.0  0.0651
  H  H884  1  0.605930  0.831170  0.059470  1.0  0.0733
  H  H885  1  0.611830  0.763970  0.149070  1.0  0.0769
  H  H886  1  0.538630  0.694770  0.265370  1.0  0.0702
  H  H887  1  0.613730  0.705370  0.180470  1.0  0.0831
  H  H888  1  0.630330  0.719870  0.443670  1.0  0.0816
  H  H889  1  0.530030  0.840570  0.535870  1.0  0.0524
  H  H890  1  0.496530  0.739370  0.199970  1.0  0.075
  H  H891  1  0.530530  0.713770  0.600770  1.0  0.0843
  H  H892  1  0.567330  0.742970  0.766470  1.0  0.0769
  H  H893  1  0.632830  0.738970  0.631170  1.0  0.0845
  H  H894  1  0.701530  0.877470  0.821670  1.0  0.0755
  H  H895  1  0.685030  0.934170  0.676770  1.0  0.088
  H  H896  1  0.582630  0.858970  0.765170  1.0  0.106
  H  H897  1  0.593630  0.834670  0.763070  1.0  0.0867
  H  H898  1  0.615730  0.868470  0.731370  1.0  0.0966
  H  H899  1  0.625930  0.926370  0.440270  1.0  0.0845
  H  H900  1  0.538530  0.886470  0.369070  1.0  0.0628
  H  H901  1  0.636130  0.932170  0.014070  1.0  0.0896
  H  H902  1  0.621730  0.851570  0.925770  1.0  0.0781
  H  H903  1  0.520230  0.821270  0.054370  1.0  0.1053
  H  H904  1  0.538930  0.847670  0.122870  1.0  0.0827
  H  H905  1  0.556330  0.838870  0.052670  1.0  0.0926
  H  H906  1  0.583230  0.756870  0.024970  1.0  0.0918
  H  H907  1  0.509930  0.689670  0.141870  1.0  0.0806
  H  H908  1  0.645130  0.683570  0.178970  1.0  0.0631
  H  H909  1  0.658030  0.692670  0.440270  1.0  0.0892
  H  H910  1  0.547630  0.652370  0.455370  1.0  0.1235
  H  H911  1  0.549930  0.664370  0.358070  1.0  0.0868
  H  H912  1  0.580130  0.672870  0.411170  1.0  0.093
  H  H913  1  0.590430  0.716070  0.724770  1.0  0.0892
  H  H914  1  0.710730  0.926170  0.790970  1.0  0.0664
  H  H915  1  0.576830  0.921070  0.452270  1.0  0.0867
  H  H916  1  0.640130  0.902670  0.903970  1.0  0.0726
  H  H917  1  0.531630  0.719870  0.024970  1.0  0.0728
  H  H918  1  0.663730  0.675970  0.296770  1.0  0.0676
  Au  Au919  1  0.166910  0.850370  0.209160  1.0  0.1002
  Au  Au920  1  0.175580  0.874760  0.390410  1.0  0.0488
  Au  Au921  1  0.119720  0.816660  0.341680  1.0  0.0631
  Au  Au922  1  0.833580  0.183700  0.542490  1.0  0.099
  Au  Au923  1  0.842250  0.208100  0.723740  1.0  0.0511
  Au  Au924  1  0.786390  0.149990  0.675010  1.0  0.0629
  Au  Au925  1  0.500250  0.517030  0.875830  1.0  0.099
  Au  Au926  1  0.508920  0.541430  0.057080  1.0  0.052
  Au  Au927  1  0.453060  0.483320  0.008350  1.0  0.0631
  Au  Au928  1  0.149630  0.316540  0.209160  1.0  0.0995
  Au  Au929  1  0.125240  0.300820  0.390410  1.0  0.0505
  Au  Au930  1  0.183340  0.303070  0.341680  1.0  0.0614
  Au  Au931  1  0.816300  0.649880  0.542490  1.0  0.0995
  Au  Au932  1  0.791900  0.634150  0.723740  1.0  0.0504
  Au  Au933  1  0.850010  0.636400  0.675010  1.0  0.0616
  Au  Au934  1  0.482970  0.983210  0.875830  1.0  0.0995
  Au  Au935  1  0.458570  0.967490  0.057080  1.0  0.0506
  Au  Au936  1  0.516680  0.969730  0.008350  1.0  0.0617
  Au  Au937  1  0.683460  0.833090  0.209160  1.0  0.0972
  Au  Au938  1  0.699180  0.824420  0.390410  1.0  0.0513
  Au  Au939  1  0.696930  0.880280  0.341680  1.0  0.0622
  Au  Au940  1  0.350120  0.166420  0.542490  1.0  0.0984
  Au  Au941  1  0.365850  0.157750  0.723740  1.0  0.0513
  Au  Au942  1  0.363600  0.213610  0.675010  1.0  0.062
  Au  Au943  1  0.016790  0.499750  0.875830  1.0  0.0972
  Au  Au944  1  0.032510  0.491080  0.057080  1.0  0.0512
  Au  Au945  1  0.030270  0.546940  0.008350  1.0  0.06
  Au  Au946  1  0.833090  0.149630  0.790840  1.0  0.1007
  Au  Au947  1  0.824420  0.125240  0.609590  1.0  0.0489
  Au  Au948  1  0.880280  0.183340  0.658320  1.0  0.0609
  Au  Au949  1  0.499750  0.482970  0.124170  1.0  0.0995
  Au  Au950  1  0.491080  0.458570  0.942920  1.0  0.0522
  Au  Au951  1  0.546940  0.516680  0.991650  1.0  0.061
  Au  Au952  1  0.166420  0.816300  0.457510  1.0  0.0995
  Au  Au953  1  0.157750  0.791900  0.276260  1.0  0.0512
  Au  Au954  1  0.213610  0.850010  0.324990  1.0  0.0608
  Au  Au955  1  0.850370  0.683460  0.790840  1.0  0.1006
  Au  Au956  1  0.874760  0.699180  0.609590  1.0  0.0509
  Au  Au957  1  0.816660  0.696930  0.658320  1.0  0.0625
  Au  Au958  1  0.517030  0.016790  0.124170  1.0  0.1006
  Au  Au959  1  0.541430  0.032510  0.942920  1.0  0.0509
  Au  Au960  1  0.483320  0.030270  0.991650  1.0  0.0628
  Au  Au961  1  0.183700  0.350120  0.457510  1.0  0.1006
  Au  Au962  1  0.208100  0.365850  0.276260  1.0  0.0508
  Au  Au963  1  0.149990  0.363600  0.324990  1.0  0.0627
  Au  Au964  1  0.316540  0.166910  0.790840  1.0  0.1
  Au  Au965  1  0.300820  0.175580  0.609590  1.0  0.0506
  Au  Au966  1  0.303070  0.119720  0.658320  1.0  0.0638
  Au  Au967  1  0.983210  0.500250  0.124170  1.0  0.0999
  Au  Au968  1  0.967490  0.508920  0.942920  1.0  0.0505
  Au  Au969  1  0.969730  0.453060  0.991650  1.0  0.0615
  Au  Au970  1  0.649880  0.833580  0.457510  1.0  0.1011
  Au  Au971  1  0.634150  0.842250  0.276260  1.0  0.0506
  Au  Au972  1  0.636400  0.786390  0.324990  1.0  0.0636
  C  C973  1  0.127500  0.843300  0.028500  1.0  -0.2356
  C  C974  1  0.194400  0.872100  0.008300  1.0  -0.1094
  C  C975  1  0.166200  0.905100  0.086800  1.0  0.0768
  C  C976  1  0.207900  0.950900  0.372200  1.0  -0.2492
  C  C977  1  0.201300  0.925700  0.549700  1.0  -0.1887
  C  C978  1  0.148300  0.920500  0.454900  1.0  -0.004
  C  C979  1  0.062800  0.818200  0.445600  1.0  -0.3001
  C  C980  1  0.047500  0.761100  0.352000  1.0  -0.1486
  C  C981  1  0.058900  0.817000  0.258500  1.0  -0.0485
  C  C982  1  0.158500  0.935500  0.177200  1.0  0.1011
  C  C983  1  0.099800  0.899200  0.398800  1.0  0.1156
  C  C984  1  0.077400  0.855400  0.159500  1.0  0.0884
  C  C985  1  0.113800  0.853400  0.970800  1.0  -0.1226
  C  C986  1  0.112100  0.812900  0.050500  1.0  -0.0625
  C  C987  1  0.189600  0.853400  0.941000  1.0  -0.0815
  C  C988  1  0.223300  0.895000  0.028000  1.0  -0.0777
  C  C989  1  0.177000  0.927300  0.021700  1.0  0.2541
  C  C990  1  0.227800  0.947900  0.318700  1.0  -0.0738
  C  C991  1  0.205100  0.976400  0.363600  1.0  -0.1905
  C  C992  1  0.231100  0.946900  0.564400  1.0  -0.1046
  C  C993  1  0.185000  0.906800  0.616700  1.0  -0.079
  C  C994  1  0.141800  0.936700  0.514800  1.0  0.1873
  C  C995  1  0.081800  0.824000  0.519100  1.0  -0.0479
  C  C996  1  0.041100  0.826600  0.449600  1.0  -0.1397
  C  C997  1  0.036800  0.747200  0.435000  1.0  -0.1534
  C  C998  1  0.044800  0.745500  0.276000  1.0  -0.0914
  C  C999  1  0.030500  0.803600  0.217000  1.0  0.2123
  C  C1000  1  0.171000  0.957900  0.116500  1.0  0.1245
  C  C1001  1  0.092800  0.913200  0.462500  1.0  0.1014
  C  C1002  1  0.049700  0.841000  0.116900  1.0  0.0985
  C  C1003  1  0.085200  0.834500  0.939200  1.0  -0.1243
  C  C1004  1  0.082900  0.793500  0.019100  1.0  -0.1229
  C  C1005  1  0.214100  0.856400  0.890900  1.0  -0.1676
  C  C1006  1  0.247800  0.899500  0.978000  1.0  -0.1528
  C  C1007  1  0.185500  0.924100  0.933300  1.0  -0.4392
  C  C1008  1  0.245500  0.969300  0.261000  1.0  -0.1737
  C  C1009  1  0.222200  0.997500  0.304200  1.0  -0.1582
  C  C1010  1  0.244800  0.948600  0.643300  1.0  -0.158
  C  C1011  1  0.197100  0.908900  0.694600  1.0  -0.1407
  C  C1012  1  0.164300  0.959200  0.576500  1.0  -0.4273
  C  C1013  1  0.078000  0.837000  0.591800  1.0  -0.1467
  C  C1014  1  0.037900  0.840500  0.523400  1.0  -0.1407
  C  C1015  1  0.023400  0.715600  0.434000  1.0  -0.1469
  C  C1016  1  0.029400  0.713300  0.277000  1.0  -0.1265
  C  C1017  1  0.002600  0.776500  0.251000  1.0  -0.444
  C  C1018  1  0.069400  0.805000  0.963000  1.0  -0.1552
  C  C1019  1  0.242900  0.879700  0.909700  1.0  -0.1407
  C  C1020  1  0.242400  0.995200  0.254200  1.0  -0.1286
  C  C1021  1  0.227100  0.928900  0.708100  1.0  -0.1344
  C  C1022  1  0.055600  0.845400  0.591700  1.0  -0.1596
  C  C1023  1  0.019400  0.700200  0.365000  1.0  -0.1654
  C  C1024  1  0.794170  0.176630  0.361830  1.0  -0.2356
  C  C1025  1  0.861070  0.205430  0.341630  1.0  -0.1094
  C  C1026  1  0.832870  0.238430  0.420130  1.0  0.0768
  C  C1027  1  0.874570  0.284230  0.705530  1.0  -0.2491
  C  C1028  1  0.867970  0.259030  0.883030  1.0  -0.1887
  C  C1029  1  0.814970  0.253830  0.788230  1.0  -0.004
  C  C1030  1  0.729470  0.151530  0.778930  1.0  -0.3001
  C  C1031  1  0.714170  0.094430  0.685330  1.0  -0.1486
  C  C1032  1  0.725570  0.150330  0.591830  1.0  -0.0485
  C  C1033  1  0.825170  0.268830  0.510530  1.0  0.1011
  C  C1034  1  0.766470  0.232530  0.732130  1.0  0.1156
  C  C1035  1  0.744070  0.188730  0.492830  1.0  0.0884
  C  C1036  1  0.780470  0.186730  0.304130  1.0  -0.1226
  C  C1037  1  0.778770  0.146230  0.383830  1.0  -0.0625
  C  C1038  1  0.856270  0.186730  0.274330  1.0  -0.0815
  C  C1039  1  0.889970  0.228330  0.361330  1.0  -0.0777
  C  C1040  1  0.843670  0.260630  0.355030  1.0  0.2541
  C  C1041  1  0.894470  0.281230  0.652030  1.0  -0.0738
  C  C1042  1  0.871770  0.309730  0.696930  1.0  -0.1905
  C  C1043  1  0.897770  0.280230  0.897730  1.0  -0.1046
  C  C1044  1  0.851670  0.240130  0.950030  1.0  -0.079
  C  C1045  1  0.808470  0.270030  0.848130  1.0  0.1873
  C  C1046  1  0.748470  0.157330  0.852430  1.0  -0.0479
  C  C1047  1  0.707770  0.159930  0.782930  1.0  -0.1397
  C  C1048  1  0.703470  0.080530  0.768330  1.0  -0.1534
  C  C1049  1  0.711470  0.078830  0.609330  1.0  -0.0914
  C  C1050  1  0.697170  0.136930  0.550330  1.0  0.2123
  C  C1051  1  0.837670  0.291230  0.449830  1.0  0.1245
  C  C1052  1  0.759470  0.246530  0.795830  1.0  0.1014
  C  C1053  1  0.716370  0.174330  0.450230  1.0  0.0985
  C  C1054  1  0.751870  0.167830  0.272530  1.0  -0.1243
  C  C1055  1  0.749570  0.126830  0.352430  1.0  -0.1229
  C  C1056  1  0.880770  0.189730  0.224230  1.0  -0.1676
  C  C1057  1  0.914470  0.232830  0.311330  1.0  -0.1528
  C  C1058  1  0.852170  0.257430  0.266630  1.0  -0.4392
  C  C1059  1  0.912170  0.302630  0.594330  1.0  -0.1737
  C  C1060  1  0.888870  0.330830  0.637530  1.0  -0.1582
  C  C1061  1  0.911470  0.281930  0.976630  1.0  -0.158
  C  C1062  1  0.863770  0.242230  0.027930  1.0  -0.1407
  C  C1063  1  0.830970  0.292530  0.909830  1.0  -0.4273
  C  C1064  1  0.744670  0.170330  0.925130  1.0  -0.1467
  C  C1065  1  0.704570  0.173830  0.856730  1.0  -0.1407
  C  C1066  1  0.690070  0.048930  0.767330  1.0  -0.1469
  C  C1067  1  0.696070  0.046630  0.610330  1.0  -0.1265
  C  C1068  1  0.669270  0.109830  0.584330  1.0  -0.444
  C  C1069  1  0.736070  0.138330  0.296330  1.0  -0.1552
  C  C1070  1  0.909570  0.213030  0.243030  1.0  -0.1407
  C  C1071  1  0.909070  0.328530  0.587530  1.0  -0.1286
  C  C1072  1  0.893770  0.262230  0.041430  1.0  -0.1344
  C  C1073  1  0.722270  0.178730  0.925030  1.0  -0.1596
  C  C1074  1  0.686070  0.033530  0.698330  1.0  -0.1654
  C  C1075  1  0.460830  0.509970  0.695170  1.0  -0.2356
  C  C1076  1  0.527730  0.538770  0.674970  1.0  -0.1098
  C  C1077  1  0.499530  0.571770  0.753470  1.0  0.0768
  C  C1078  1  0.541230  0.617570  0.038870  1.0  -0.2492
  C  C1079  1  0.534630  0.592370  0.216370  1.0  -0.1887
  C  C1080  1  0.481630  0.587170  0.121570  1.0  -0.004
  C  C1081  1  0.396130  0.484870  0.112270  1.0  -0.3001
  C  C1082  1  0.380830  0.427770  0.018670  1.0  -0.1486
  C  C1083  1  0.392230  0.483670  0.925170  1.0  -0.0486
  C  C1084  1  0.491830  0.602170  0.843870  1.0  0.1011
  C  C1085  1  0.433130  0.565870  0.065470  1.0  0.1155
  C  C1086  1  0.410730  0.522070  0.826170  1.0  0.0884
  C  C1087  1  0.447130  0.520070  0.637470  1.0  -0.1226
  C  C1088  1  0.445430  0.479570  0.717170  1.0  -0.0626
  C  C1089  1  0.522930  0.520070  0.607670  1.0  -0.0815
  C  C1090  1  0.556630  0.561670  0.694670  1.0  -0.0769
  C  C1091  1  0.510330  0.593970  0.688370  1.0  0.2541
  C  C1092  1  0.561130  0.614570  0.985370  1.0  -0.0738
  C  C1093  1  0.538430  0.643070  0.030270  1.0  -0.1905
  C  C1094  1  0.564430  0.613570  0.231070  1.0  -0.1045
  C  C1095  1  0.518330  0.573470  0.283370  1.0  -0.0789
  C  C1096  1  0.475130  0.603370  0.181470  1.0  0.1873
  C  C1097  1  0.415130  0.490670  0.185770  1.0  -0.0479
  C  C1098  1  0.374430  0.493270  0.116270  1.0  -0.1397
  C  C1099  1  0.370130  0.413870  0.101670  1.0  -0.1534
  C  C1100  1  0.378130  0.412170  0.942670  1.0  -0.0914
  C  C1101  1  0.363830  0.470270  0.883670  1.0  0.2123
  C  C1102  1  0.504330  0.624570  0.783170  1.0  0.1245
  C  C1103  1  0.426130  0.579870  0.129170  1.0  0.1014
  C  C1104  1  0.383030  0.507670  0.783570  1.0  0.0985
  C  C1105  1  0.418530  0.501170  0.605870  1.0  -0.1244
  C  C1106  1  0.416230  0.460170  0.685770  1.0  -0.1229
  C  C1107  1  0.547430  0.523070  0.557570  1.0  -0.1676
  C  C1108  1  0.581130  0.566170  0.644670  1.0  -0.1623
  C  C1109  1  0.518830  0.590770  0.599970  1.0  -0.4392
  C  C1110  1  0.578830  0.635970  0.927670  1.0  -0.1736
  C  C1111  1  0.555530  0.664170  0.970870  1.0  -0.1582
  C  C1112  1  0.578130  0.615270  0.309970  1.0  -0.1579
  C  C1113  1  0.530430  0.575570  0.361270  1.0  -0.1404
  C  C1114  1  0.497630  0.625870  0.243170  1.0  -0.4273
  C  C1115  1  0.411330  0.503670  0.258470  1.0  -0.1467
  C  C1116  1  0.371230  0.507170  0.190070  1.0  -0.1407
  C  C1117  1  0.356730  0.382270  0.100670  1.0  -0.1469
  C  C1118  1  0.362730  0.379970  0.943670  1.0  -0.1266
  C  C1119  1  0.335930  0.443170  0.917670  1.0  -0.444
  C  C1120  1  0.402730  0.471670  0.629670  1.0  -0.1551
  C  C1121  1  0.576230  0.546370  0.576370  1.0  -0.1327
  C  C1122  1  0.575730  0.661870  0.920870  1.0  -0.1286
  C  C1123  1  0.560430  0.595570  0.374770  1.0  -0.1345
  C  C1124  1  0.388930  0.512070  0.258370  1.0  -0.1596
  C  C1125  1  0.352730  0.366870  0.031670  1.0  -0.1661
  C  C1126  1  0.156700  0.284200  0.028500  1.0  -0.2381
  C  C1127  1  0.127900  0.322300  0.008300  1.0  -0.1077
  C  C1128  1  0.094900  0.261100  0.086800  1.0  0.0802
  C  C1129  1  0.049100  0.257000  0.372200  1.0  -0.2477
  C  C1130  1  0.074300  0.275600  0.549700  1.0  -0.1878
  C  C1131  1  0.079500  0.227800  0.454900  1.0  -0.0056
  C  C1132  1  0.181800  0.244600  0.445600  1.0  -0.3006
  C  C1133  1  0.238900  0.286400  0.352000  1.0  -0.1497
  C  C1134  1  0.183000  0.241900  0.258500  1.0  -0.0502
  C  C1135  1  0.064500  0.223000  0.177200  1.0  0.0992
  C  C1136  1  0.100800  0.200600  0.398800  1.0  0.1156
  C  C1137  1  0.144600  0.222000  0.159500  1.0  0.092
  C  C1138  1  0.146600  0.260400  0.970800  1.0  -0.1231
  C  C1139  1  0.187100  0.299200  0.050500  1.0  -0.063
  C  C1140  1  0.146600  0.336200  0.941000  1.0  -0.0809
  C  C1141  1  0.105000  0.328300  0.028000  1.0  -0.0778
  C  C1142  1  0.072700  0.249700  0.021700  1.0  0.2529
  C  C1143  1  0.052100  0.279900  0.318700  1.0  -0.0779
  C  C1144  1  0.023600  0.228700  0.363600  1.0  -0.1882
  C  C1145  1  0.053100  0.284200  0.564400  1.0  -0.1023
  C  C1146  1  0.093200  0.278200  0.616700  1.0  -0.0788
  C  C1147  1  0.063300  0.205100  0.514800  1.0  0.1879
  C  C1148  1  0.176000  0.257800  0.519100  1.0  -0.0507
  C  C1149  1  0.173400  0.214500  0.449600  1.0  -0.1412
  C  C1150  1  0.252800  0.289600  0.435000  1.0  -0.1555
  C  C1151  1  0.254500  0.299300  0.276000  1.0  -0.0911
  C  C1152  1  0.196400  0.226900  0.217000  1.0  0.2126
  C  C1153  1  0.042100  0.213100  0.116500  1.0  0.1212
  C  C1154  1  0.086800  0.179600  0.462500  1.0  0.1001
  C  C1155  1  0.159000  0.208700  0.116900  1.0  0.0988
  C  C1156  1  0.165500  0.250700  0.939200  1.0  -0.1216
  C  C1157  1  0.206500  0.289400  0.019100  1.0  -0.1269
  C  C1158  1  0.143600  0.357700  0.890900  1.0  -0.1686
  C  C1159  1  0.100500  0.348300  0.978000  1.0  -0.1632
  C  C1160  1  0.075900  0.261400  0.933300  1.0  -0.4381
  C  C1161  1  0.030700  0.276200  0.261000  1.0  -0.1745
  C  C1162  1  0.002500  0.224700  0.304200  1.0  -0.159
  C  C1163  1  0.051400  0.296200  0.643300  1.0  -0.157
  C  C1164  1  0.091100  0.288200  0.694600  1.0  -0.1399
  C  C1165  1  0.040800  0.205100  0.576500  1.0  -0.4273
  C  C1166  1  0.163000  0.241000  0.591800  1.0  -0.1504
  C  C1167  1  0.159500  0.197400  0.523400  1.0  -0.1382
  C  C1168  1  0.284400  0.307800  0.434000  1.0  -0.1481
  C  C1169  1  0.286700  0.316100  0.277000  1.0  -0.1263
  C  C1170  1  0.223500  0.226100  0.251000  1.0  -0.4425
  C  C1171  1  0.195000  0.264400  0.963000  1.0  -0.1557
  C  C1172  1  0.120300  0.363200  0.909700  1.0  -0.1299
  C  C1173  1  0.004800  0.247200  0.254200  1.0  -0.1315
  C  C1174  1  0.071100  0.298200  0.708100  1.0  -0.1356
  C  C1175  1  0.154600  0.210200  0.591700  1.0  -0.1578
  C  C1176  1  0.299800  0.319200  0.365000  1.0  -0.1706
  C  C1177  1  0.823370  0.617530  0.361830  1.0  -0.2381
  C  C1178  1  0.794570  0.655630  0.341630  1.0  -0.1077
  C  C1179  1  0.761570  0.594430  0.420130  1.0  0.0802
  C  C1180  1  0.715770  0.590330  0.705530  1.0  -0.2475
  C  C1181  1  0.740970  0.608930  0.883030  1.0  -0.1878
  C  C1182  1  0.746170  0.561130  0.788230  1.0  -0.0056
  C  C1183  1  0.848470  0.577930  0.778930  1.0  -0.3006
  C  C1184  1  0.905570  0.619730  0.685330  1.0  -0.1497
  C  C1185  1  0.849670  0.575230  0.591830  1.0  -0.0502
  C  C1186  1  0.731170  0.556330  0.510530  1.0  0.0992
  C  C1187  1  0.767470  0.533930  0.732130  1.0  0.1155
  C  C1188  1  0.811270  0.555330  0.492830  1.0  0.092
  C  C1189  1  0.813270  0.593730  0.304130  1.0  -0.1231
  C  C1190  1  0.853770  0.632530  0.383830  1.0  -0.063
  C  C1191  1  0.813270  0.669530  0.274330  1.0  -0.0809
  C  C1192  1  0.771670  0.661630  0.361330  1.0  -0.0778
  C  C1193  1  0.739370  0.583030  0.355030  1.0  0.2529
  C  C1194  1  0.718770  0.613230  0.652030  1.0  -0.0779
  C  C1195  1  0.690270  0.562030  0.696930  1.0  -0.1882
  C  C1196  1  0.719770  0.617530  0.897730  1.0  -0.1023
  C  C1197  1  0.759870  0.611530  0.950030  1.0  -0.0788
  C  C1198  1  0.729970  0.538430  0.848130  1.0  0.1879
  C  C1199  1  0.842670  0.591130  0.852430  1.0  -0.0507
  C  C1200  1  0.840070  0.547830  0.782930  1.0  -0.1412
  C  C1201  1  0.919470  0.622930  0.768330  1.0  -0.1556
  C  C1202  1  0.921170  0.632630  0.609330  1.0  -0.0911
  C  C1203  1  0.863070  0.560230  0.550330  1.0  0.2126
  C  C1204  1  0.708770  0.546430  0.449830  1.0  0.1212
  C  C1205  1  0.753470  0.512930  0.795830  1.0  0.1001
  C  C1206  1  0.825670  0.542030  0.450230  1.0  0.0988
  C  C1207  1  0.832170  0.584030  0.272530  1.0  -0.1216
  C  C1208  1  0.873170  0.622730  0.352430  1.0  -0.1269
  C  C1209  1  0.810270  0.691030  0.224230  1.0  -0.1686
  C  C1210  1  0.767170  0.681630  0.311330  1.0  -0.1632
  C  C1211  1  0.742570  0.594730  0.266630  1.0  -0.4381
  C  C1212  1  0.697370  0.609530  0.594330  1.0  -0.1744
  C  C1213  1  0.669170  0.558030  0.637530  1.0  -0.159
  C  C1214  1  0.718070  0.629530  0.976630  1.0  -0.157
  C  C1215  1  0.757770  0.621530  0.027930  1.0  -0.1399
  C  C1216  1  0.707470  0.538430  0.909830  1.0  -0.4273
  C  C1217  1  0.829670  0.574330  0.925130  1.0  -0.1504
  C  C1218  1  0.826170  0.530730  0.856730  1.0  -0.1382
  C  C1219  1  0.951070  0.641130  0.767330  1.0  -0.1481
  C  C1220  1  0.953370  0.649430  0.610330  1.0  -0.1263
  C  C1221  1  0.890170  0.559430  0.584330  1.0  -0.4425
  C  C1222  1  0.861670  0.597730  0.296330  1.0  -0.1557
  C  C1223  1  0.786970  0.696530  0.243030  1.0  -0.1299
  C  C1224  1  0.671470  0.580530  0.587530  1.0  -0.1315
  C  C1225  1  0.737770  0.631530  0.041430  1.0  -0.1356
  C  C1226  1  0.821270  0.543530  0.925030  1.0  -0.1578
  C  C1227  1  0.966470  0.652530  0.698330  1.0  -0.1706
  C  C1228  1  0.490030  0.950870  0.695170  1.0  -0.2381
  C  C1229  1  0.461230  0.988970  0.674970  1.0  -0.1077
  C  C1230  1  0.428230  0.927770  0.753470  1.0  0.0802
  C  C1231  1  0.382430  0.923670  0.038870  1.0  -0.2477
  C  C1232  1  0.407630  0.942270  0.216370  1.0  -0.1878
  C  C1233  1  0.412830  0.894470  0.121570  1.0  -0.0056
  C  C1234  1  0.515130  0.911270  0.112270  1.0  -0.3006
  C  C1235  1  0.572230  0.953070  0.018670  1.0  -0.1497
  C  C1236  1  0.516330  0.908570  0.925170  1.0  -0.0502
  C  C1237  1  0.397830  0.889670  0.843870  1.0  0.0992
  C  C1238  1  0.434130  0.867270  0.065470  1.0  0.1156
  C  C1239  1  0.477930  0.888670  0.826170  1.0  0.092
  C  C1240  1  0.479930  0.927070  0.637470  1.0  -0.1231
  C  C1241  1  0.520430  0.965870  0.717170  1.0  -0.0635
  C  C1242  1  0.479930  0.002870  0.607670  1.0  -0.0808
  C  C1243  1  0.438330  0.994970  0.694670  1.0  -0.0782
  C  C1244  1  0.406030  0.916370  0.688370  1.0  0.2529
  C  C1245  1  0.385430  0.946570  0.985370  1.0  -0.0779
  C  C1246  1  0.356930  0.895370  0.030270  1.0  -0.1882
  C  C1247  1  0.386430  0.950870  0.231070  1.0  -0.1023
  C  C1248  1  0.426530  0.944870  0.283370  1.0  -0.0789
  C  C1249  1  0.396630  0.871770  0.181470  1.0  0.1879
  C  C1250  1  0.509330  0.924470  0.185770  1.0  -0.0507
  C  C1251  1  0.506730  0.881170  0.116270  1.0  -0.1412
  C  C1252  1  0.586130  0.956270  0.101670  1.0  -0.1555
  C  C1253  1  0.587830  0.965970  0.942670  1.0  -0.0911
  C  C1254  1  0.529730  0.893570  0.883670  1.0  0.2126
  C  C1255  1  0.375430  0.879770  0.783170  1.0  0.1212
  C  C1256  1  0.420130  0.846270  0.129170  1.0  0.1001
  C  C1257  1  0.492330  0.875370  0.783570  1.0  0.0988
  C  C1258  1  0.498830  0.917370  0.605870  1.0  -0.1216
  C  C1259  1  0.539830  0.956070  0.685770  1.0  -0.1269
  C  C1260  1  0.476930  0.024370  0.557570  1.0  -0.1685
  C  C1261  1  0.433830  0.014970  0.644670  1.0  -0.1632
  C  C1262  1  0.409230  0.928070  0.599970  1.0  -0.4381
  C  C1263  1  0.364030  0.942870  0.927670  1.0  -0.1746
  C  C1264  1  0.335830  0.891370  0.970870  1.0  -0.159
  C  C1265  1  0.384730  0.962870  0.309970  1.0  -0.157
  C  C1266  1  0.424430  0.954870  0.361270  1.0  -0.1403
  C  C1267  1  0.374130  0.871770  0.243170  1.0  -0.4273
  C  C1268  1  0.496330  0.907670  0.258470  1.0  -0.1504
  C  C1269  1  0.492830  0.864070  0.190070  1.0  -0.1382
  C  C1270  1  0.617730  0.974470  0.100670  1.0  -0.1481
  C  C1271  1  0.620030  0.982770  0.943670  1.0  -0.1261
  C  C1272  1  0.556830  0.892770  0.917670  1.0  -0.4425
  C  C1273  1  0.528330  0.931070  0.629670  1.0  -0.1557
  C  C1274  1  0.453630  0.029870  0.576370  1.0  -0.1294
  C  C1275  1  0.338130  0.913870  0.920870  1.0  -0.1315
  C  C1276  1  0.404430  0.964870  0.374770  1.0  -0.1354
  C  C1277  1  0.487930  0.876870  0.258370  1.0  -0.1578
  C  C1278  1  0.633130  0.985870  0.031670  1.0  -0.1698
  C  C1279  1  0.715800  0.872500  0.028500  1.0  -0.2362
  C  C1280  1  0.677700  0.805600  0.008300  1.0  -0.1101
  C  C1281  1  0.738900  0.833800  0.086800  1.0  0.081
  C  C1282  1  0.743000  0.792100  0.372200  1.0  -0.2505
  C  C1283  1  0.724400  0.798700  0.549700  1.0  -0.1889
  C  C1284  1  0.772200  0.851700  0.454900  1.0  -0.0035
  C  C1285  1  0.755400  0.937200  0.445600  1.0  -0.3025
  C  C1286  1  0.713600  0.952500  0.352000  1.0  -0.1497
  C  C1287  1  0.758100  0.941100  0.258500  1.0  -0.0489
  C  C1288  1  0.777000  0.841500  0.177200  1.0  0.1001
  C  C1289  1  0.799400  0.900200  0.398800  1.0  0.1169
  C  C1290  1  0.778000  0.922600  0.159500  1.0  0.0928
  C  C1291  1  0.739600  0.886200  0.970800  1.0  -0.1256
  C  C1292  1  0.700800  0.887900  0.050500  1.0  -0.0617
  C  C1293  1  0.663800  0.810400  0.941000  1.0  -0.0796
  C  C1294  1  0.671700  0.776700  0.028000  1.0  -0.0773
  C  C1295  1  0.750300  0.823000  0.021700  1.0  0.2516
  C  C1296  1  0.720100  0.772200  0.318700  1.0  -0.0733
  C  C1297  1  0.771300  0.794900  0.363600  1.0  -0.1894
  C  C1298  1  0.715800  0.768900  0.564400  1.0  -0.1055
  C  C1299  1  0.721800  0.815000  0.616700  1.0  -0.0793
  C  C1300  1  0.794900  0.858200  0.514800  1.0  0.1895
  C  C1301  1  0.742200  0.918200  0.519100  1.0  -0.0493
  C  C1302  1  0.785500  0.958900  0.449600  1.0  -0.1397
  C  C1303  1  0.710400  0.963200  0.435000  1.0  -0.1529
  C  C1304  1  0.700700  0.955200  0.276000  1.0  -0.0922
  C  C1305  1  0.773100  0.969500  0.217000  1.0  0.2131
  C  C1306  1  0.786900  0.829000  0.116500  1.0  0.1272
  C  C1307  1  0.820400  0.907200  0.462500  1.0  0.0971
  C  C1308  1  0.791300  0.950300  0.116900  1.0  0.0986
  C  C1309  1  0.749300  0.914800  0.939200  1.0  -0.125
  C  C1310  1  0.710600  0.917100  0.019100  1.0  -0.1258
  C  C1311  1  0.642300  0.785900  0.890900  1.0  -0.17
  C  C1312  1  0.651700  0.752200  0.978000  1.0  -0.1643
  C  C1313  1  0.738600  0.814500  0.933300  1.0  -0.4397
  C  C1314  1  0.723800  0.754500  0.261000  1.0  -0.1716
  C  C1315  1  0.775300  0.777800  0.304200  1.0  -0.1607
  C  C1316  1  0.703800  0.755200  0.643300  1.0  -0.1556
  C  C1317  1  0.711800  0.802900  0.694600  1.0  -0.1397
  C  C1318  1  0.794900  0.835700  0.576500  1.0  -0.4274
  C  C1319  1  0.759000  0.922000  0.591800  1.0  -0.1481
  C  C1320  1  0.802600  0.962100  0.523400  1.0  -0.1386
  C  C1321  1  0.692200  0.976600  0.434000  1.0  -0.1464
  C  C1322  1  0.683900  0.970600  0.277000  1.0  -0.125
  C  C1323  1  0.773900  0.997400  0.251000  1.0  -0.4451
  C  C1324  1  0.735600  0.930600  0.963000  1.0  -0.1505
  C  C1325  1  0.636800  0.757100  0.909700  1.0  -0.1322
  C  C1326  1  0.752800  0.757600  0.254200  1.0  -0.1274
  C  C1327  1  0.701800  0.772900  0.708100  1.0  -0.1343
  C  C1328  1  0.789800  0.944400  0.591700  1.0  -0.1558
  C  C1329  1  0.680800  0.980600  0.365000  1.0  -0.1702
  C  C1330  1  0.382470  0.205830  0.361830  1.0  -0.2362
  C  C1331  1  0.344370  0.138930  0.341630  1.0  -0.1101
  C  C1332  1  0.405570  0.167130  0.420130  1.0  0.081
  C  C1333  1  0.409670  0.125430  0.705530  1.0  -0.2505
  C  C1334  1  0.391070  0.132030  0.883030  1.0  -0.1889
  C  C1335  1  0.438870  0.185030  0.788230  1.0  -0.0035
  C  C1336  1  0.422070  0.270530  0.778930  1.0  -0.3025
  C  C1337  1  0.380270  0.285830  0.685330  1.0  -0.1497
  C  C1338  1  0.424770  0.274430  0.591830  1.0  -0.0489
  C  C1339  1  0.443670  0.174830  0.510530  1.0  0.1001
  C  C1340  1  0.466070  0.233530  0.732130  1.0  0.1171
  C  C1341  1  0.444670  0.255930  0.492830  1.0  0.0928
  C  C1342  1  0.406270  0.219530  0.304130  1.0  -0.1256
  C  C1343  1  0.367470  0.221230  0.383830  1.0  -0.0617
  C  C1344  1  0.330470  0.143730  0.274330  1.0  -0.0796
  C  C1345  1  0.338370  0.110030  0.361330  1.0  -0.0773
  C  C1346  1  0.416970  0.156330  0.355030  1.0  0.2516
  C  C1347  1  0.386770  0.105530  0.652030  1.0  -0.0733
  C  C1348  1  0.437970  0.128230  0.696930  1.0  -0.1894
  C  C1349  1  0.382470  0.102230  0.897730  1.0  -0.1055
  C  C1350  1  0.388470  0.148330  0.950030  1.0  -0.0793
  C  C1351  1  0.461570  0.191530  0.848130  1.0  0.1895
  C  C1352  1  0.408870  0.251530  0.852430  1.0  -0.0493
  C  C1353  1  0.452170  0.292230  0.782930  1.0  -0.1397
  C  C1354  1  0.377070  0.296530  0.768330  1.0  -0.1529
  C  C1355  1  0.367370  0.288530  0.609330  1.0  -0.0922
  C  C1356  1  0.439770  0.302830  0.550330  1.0  0.2131
  C  C1357  1  0.453570  0.162330  0.449830  1.0  0.1272
  C  C1358  1  0.487070  0.240530  0.795830  1.0  0.0971
  C  C1359  1  0.457970  0.283630  0.450230  1.0  0.0986
  C  C1360  1  0.415970  0.248130  0.272530  1.0  -0.125
  C  C1361  1  0.377270  0.250430  0.352430  1.0  -0.1258
  C  C1362  1  0.308970  0.119230  0.224230  1.0  -0.17
  C  C1363  1  0.318370  0.085530  0.311330  1.0  -0.1643
  C  C1364  1  0.405270  0.147830  0.266630  1.0  -0.4397
  C  C1365  1  0.390470  0.087830  0.594330  1.0  -0.1716
  C  C1366  1  0.441970  0.111130  0.637530  1.0  -0.1607
  C  C1367  1  0.370470  0.088530  0.976630  1.0  -0.1556
  C  C1368  1  0.378470  0.136230  0.027930  1.0  -0.1397
  C  C1369  1  0.461570  0.169030  0.909830  1.0  -0.4274
  C  C1370  1  0.425670  0.255330  0.925130  1.0  -0.1481
  C  C1371  1  0.469270  0.295430  0.856730  1.0  -0.1386
  C  C1372  1  0.358870  0.309930  0.767330  1.0  -0.1464
  C  C1373  1  0.350570  0.303930  0.610330  1.0  -0.125
  C  C1374  1  0.440570  0.330730  0.584330  1.0  -0.4451
  C  C1375  1  0.402270  0.263930  0.296330  1.0  -0.1505
  C  C1376  1  0.303470  0.090430  0.243030  1.0  -0.1322
  C  C1377  1  0.419470  0.090930  0.587530  1.0  -0.1272
  C  C1378  1  0.368470  0.106230  0.041430  1.0  -0.1343
  C  C1379  1  0.456470  0.277730  0.925030  1.0  -0.1558
  C  C1380  1  0.347470  0.313930  0.698330  1.0  -0.1702
  C  C1381  1  0.049130  0.539170  0.695170  1.0  -0.2363
  C  C1382  1  0.011030  0.472270  0.674970  1.0  -0.1101
  C  C1383  1  0.072230  0.500470  0.753470  1.0  0.081
  C  C1384  1  0.076330  0.458770  0.038870  1.0  -0.2504
  C  C1385  1  0.057730  0.465370  0.216370  1.0  -0.1889
  C  C1386  1  0.105530  0.518370  0.121570  1.0  -0.0035
  C  C1387  1  0.088730  0.603870  0.112270  1.0  -0.3025
  C  C1388  1  0.046930  0.619170  0.018670  1.0  -0.1497
  C  C1389  1  0.091430  0.607770  0.925170  1.0  -0.0489
  C  C1390  1  0.110330  0.508170  0.843870  1.0  0.1001
  C  C1391  1  0.132730  0.566870  0.065470  1.0  0.1169
  C  C1392  1  0.111330  0.589270  0.826170  1.0  0.0928
  C  C1393  1  0.072930  0.552870  0.637470  1.0  -0.1256
  C  C1394  1  0.034130  0.554570  0.717170  1.0  -0.0617
  C  C1395  1  0.997130  0.477070  0.607670  1.0  -0.0797
  C  C1396  1  0.005030  0.443370  0.694670  1.0  -0.078
  C  C1397  1  0.083630  0.489670  0.688370  1.0  0.2516
  C  C1398  1  0.053430  0.438870  0.985370  1.0  -0.0733
  C  C1399  1  0.104630  0.461570  0.030270  1.0  -0.1894
  C  C1400  1  0.049130  0.435570  0.231070  1.0  -0.1055
  C  C1401  1  0.055130  0.481670  0.283370  1.0  -0.0793
  C  C1402  1  0.128230  0.524870  0.181470  1.0  0.1895
  C  C1403  1  0.075530  0.584870  0.185770  1.0  -0.0493
  C  C1404  1  0.118830  0.625570  0.116270  1.0  -0.1397
  C  C1405  1  0.043730  0.629870  0.101670  1.0  -0.1529
  C  C1406  1  0.034030  0.621870  0.942670  1.0  -0.0922
  C  C1407  1  0.106430  0.636170  0.883670  1.0  0.2131
  C  C1408  1  0.120230  0.495670  0.783170  1.0  0.1272
  C  C1409  1  0.153730  0.573870  0.129170  1.0  0.0971
  C  C1410  1  0.124630  0.616970  0.783570  1.0  0.0986
  C  C1411  1  0.082630  0.581470  0.605870  1.0  -0.125
  C  C1412  1  0.043930  0.583770  0.685770  1.0  -0.1258
  C  C1413  1  0.975630  0.452570  0.557570  1.0  -0.1702
  C  C1414  1  0.985030  0.418870  0.644670  1.0  -0.1552
  C  C1415  1  0.071930  0.481170  0.599970  1.0  -0.4397
  C  C1416  1  0.057130  0.421170  0.927670  1.0  -0.1716
  C  C1417  1  0.108630  0.444470  0.970870  1.0  -0.1607
  C  C1418  1  0.037130  0.421870  0.309970  1.0  -0.1556
  C  C1419  1  0.045130  0.469570  0.361270  1.0  -0.1393
  C  C1420  1  0.128230  0.502370  0.243170  1.0  -0.4274
  C  C1421  1  0.092330  0.588670  0.258470  1.0  -0.1481
  C  C1422  1  0.135930  0.628770  0.190070  1.0  -0.1386
  C  C1423  1  0.025530  0.643270  0.100670  1.0  -0.1465
  C  C1424  1  0.017230  0.637270  0.943670  1.0  -0.125
  C  C1425  1  0.107230  0.664070  0.917670  1.0  -0.4451
  C  C1426  1  0.068930  0.597270  0.629670  1.0  -0.1505
  C  C1427  1  0.970130  0.423770  0.576370  1.0  -0.1402
  C  C1428  1  0.086130  0.424270  0.920870  1.0  -0.1274
  C  C1429  1  0.035130  0.439570  0.374770  1.0  -0.1345
  C  C1430  1  0.123130  0.611070  0.258370  1.0  -0.1558
  C  C1431  1  0.014130  0.647270  0.031670  1.0  -0.1708
  C  C1432  1  0.872500  0.156700  0.971500  1.0  -0.2368
  C  C1433  1  0.805600  0.127900  0.991700  1.0  -0.1088
  C  C1434  1  0.833800  0.094900  0.913200  1.0  0.0786
  C  C1435  1  0.792100  0.049100  0.627800  1.0  -0.2493
  C  C1436  1  0.798700  0.074300  0.450300  1.0  -0.1877
  C  C1437  1  0.851700  0.079500  0.545100  1.0  -0.0041
  C  C1438  1  0.937200  0.181800  0.554400  1.0  -0.3014
  C  C1439  1  0.952500  0.238900  0.648000  1.0  -0.1494
  C  C1440  1  0.941100  0.183000  0.741500  1.0  -0.049
  C  C1441  1  0.841500  0.064500  0.822800  1.0  0.1
  C  C1442  1  0.900200  0.100800  0.601200  1.0  0.1167
  C  C1443  1  0.922600  0.144600  0.840500  1.0  0.0885
  C  C1444  1  0.886200  0.146600  0.029200  1.0  -0.1226
  C  C1445  1  0.887900  0.187100  0.949500  1.0  -0.0628
  C  C1446  1  0.810400  0.146600  0.059000  1.0  -0.0824
  C  C1447  1  0.776700  0.105000  0.972000  1.0  -0.0782
  C  C1448  1  0.823000  0.072700  0.978300  1.0  0.253
  C  C1449  1  0.772200  0.052100  0.681300  1.0  -0.0734
  C  C1450  1  0.794900  0.023600  0.636400  1.0  -0.1912
  C  C1451  1  0.768900  0.053100  0.435600  1.0  -0.1036
  C  C1452  1  0.815000  0.093200  0.383300  1.0  -0.0798
  C  C1453  1  0.858200  0.063300  0.485200  1.0  0.188
  C  C1454  1  0.918200  0.176000  0.480900  1.0  -0.048
  C  C1455  1  0.958900  0.173400  0.550400  1.0  -0.14
  C  C1456  1  0.963200  0.252800  0.565000  1.0  -0.1527
  C  C1457  1  0.955200  0.254500  0.724000  1.0  -0.0909
  C  C1458  1  0.969500  0.196400  0.783000  1.0  0.2124
  C  C1459  1  0.829000  0.042100  0.883500  1.0  0.1229
  C  C1460  1  0.907200  0.086800  0.537500  1.0  0.1008
  C  C1461  1  0.950300  0.159000  0.883100  1.0  0.0986
  C  C1462  1  0.914800  0.165500  0.060800  1.0  -0.1237
  C  C1463  1  0.917100  0.206500  0.980900  1.0  -0.1225
  C  C1464  1  0.785900  0.143600  0.109100  1.0  -0.1672
  C  C1465  1  0.752200  0.100500  0.022000  1.0  -0.1555
  C  C1466  1  0.814500  0.075900  0.066700  1.0  -0.4389
  C  C1467  1  0.754500  0.030700  0.739000  1.0  -0.1759
  C  C1468  1  0.777800  0.002500  0.695800  1.0  -0.1579
  C  C1469  1  0.755200  0.051400  0.356700  1.0  -0.1588
  C  C1470  1  0.802900  0.091100  0.305400  1.0  -0.1385
  C  C1471  1  0.835700  0.040800  0.423500  1.0  -0.4291
  C  C1472  1  0.922000  0.163000  0.408200  1.0  -0.1466
  C  C1473  1  0.962100  0.159500  0.476600  1.0  -0.14
  C  C1474  1  0.976600  0.284400  0.566000  1.0  -0.147
  C  C1475  1  0.970600  0.286700  0.723000  1.0  -0.1276
  C  C1476  1  0.997400  0.223500  0.749000  1.0  -0.4449
  C  C1477  1  0.930600  0.195000  0.037000  1.0  -0.1541
  C  C1478  1  0.757100  0.120300  0.090300  1.0  -0.1409
  C  C1479  1  0.757600  0.004800  0.745800  1.0  -0.1303
  C  C1480  1  0.772900  0.071100  0.291900  1.0  -0.1373
  C  C1481  1  0.944400  0.154600  0.408300  1.0  -0.1588
  C  C1482  1  0.980600  0.299800  0.635000  1.0  -0.1615
  C  C1483  1  0.539170  0.490030  0.304830  1.0  -0.2367
  C  C1484  1  0.472270  0.461230  0.325030  1.0  -0.1091
  C  C1485  1  0.500470  0.428230  0.246530  1.0  0.0786
  C  C1486  1  0.458770  0.382430  0.961130  1.0  -0.2493
  C  C1487  1  0.465370  0.407630  0.783630  1.0  -0.1877
  C  C1488  1  0.518370  0.412830  0.878430  1.0  -0.0041
  C  C1489  1  0.603870  0.515130  0.887730  1.0  -0.3014
  C  C1490  1  0.619170  0.572230  0.981330  1.0  -0.1494
  C  C1491  1  0.607770  0.516330  0.074830  1.0  -0.0491
  C  C1492  1  0.508170  0.397830  0.156130  1.0  0.1
  C  C1493  1  0.566870  0.434130  0.934530  1.0  0.1166
  C  C1494  1  0.589270  0.477930  0.173830  1.0  0.0885
  C  C1495  1  0.552870  0.479930  0.362530  1.0  -0.1226
  C  C1496  1  0.554570  0.520430  0.282830  1.0  -0.0629
  C  C1497  1  0.477070  0.479930  0.392330  1.0  -0.0823
  C  C1498  1  0.443370  0.438330  0.305330  1.0  -0.0779
  C  C1499  1  0.489670  0.406030  0.311630  1.0  0.253
  C  C1500  1  0.438870  0.385430  0.014630  1.0  -0.0735
  C  C1501  1  0.461570  0.356930  0.969730  1.0  -0.1912
  C  C1502  1  0.435570  0.386430  0.768930  1.0  -0.1035
  C  C1503  1  0.481670  0.426530  0.716630  1.0  -0.0798
  C  C1504  1  0.524870  0.396630  0.818530  1.0  0.188
  C  C1505  1  0.584870  0.509330  0.814230  1.0  -0.048
  C  C1506  1  0.625570  0.506730  0.883730  1.0  -0.14
  C  C1507  1  0.629870  0.586130  0.898330  1.0  -0.1527
  C  C1508  1  0.621870  0.587830  0.057330  1.0  -0.0909
  C  C1509  1  0.636170  0.529730  0.116330  1.0  0.2124
  C  C1510  1  0.495670  0.375430  0.216830  1.0  0.1229
  C  C1511  1  0.573870  0.420130  0.870830  1.0  0.1008
  C  C1512  1  0.616970  0.492330  0.216430  1.0  0.0986
  C  C1513  1  0.581470  0.498830  0.394130  1.0  -0.1238
  C  C1514  1  0.583770  0.539830  0.314230  1.0  -0.1225
  C  C1515  1  0.452570  0.476930  0.442430  1.0  -0.1671
  C  C1516  1  0.418870  0.433830  0.355330  1.0  -0.1648
  C  C1517  1  0.481170  0.409230  0.400030  1.0  -0.4389
  C  C1518  1  0.421170  0.364030  0.072330  1.0  -0.1758
  C  C1519  1  0.444470  0.335830  0.029130  1.0  -0.1579
  C  C1520  1  0.421870  0.384730  0.690030  1.0  -0.1588
  C  C1521  1  0.469570  0.424430  0.638730  1.0  -0.1382
  C  C1522  1  0.502370  0.374130  0.756830  1.0  -0.4291
  C  C1523  1  0.588670  0.496330  0.741530  1.0  -0.1466
  C  C1524  1  0.628770  0.492830  0.809930  1.0  -0.1399
  C  C1525  1  0.643270  0.617730  0.899330  1.0  -0.1469
  C  C1526  1  0.637270  0.620030  0.056330  1.0  -0.1276
  C  C1527  1  0.664070  0.556830  0.082330  1.0  -0.4449
  C  C1528  1  0.597270  0.528330  0.370330  1.0  -0.1541
  C  C1529  1  0.423770  0.453630  0.423630  1.0  -0.1333
  C  C1530  1  0.424270  0.338130  0.079130  1.0  -0.1303
  C  C1531  1  0.439570  0.404430  0.625230  1.0  -0.1374
  C  C1532  1  0.611070  0.487930  0.741630  1.0  -0.1588
  C  C1533  1  0.647270  0.633130  0.968330  1.0  -0.1621
  C  C1534  1  0.205830  0.823370  0.638170  1.0  -0.2368
  C  C1535  1  0.138930  0.794570  0.658370  1.0  -0.1088
  C  C1536  1  0.167130  0.761570  0.579870  1.0  0.0786
  C  C1537  1  0.125430  0.715770  0.294470  1.0  -0.2491
  C  C1538  1  0.132030  0.740970  0.116970  1.0  -0.1876
  C  C1539  1  0.185030  0.746170  0.211770  1.0  -0.0041
  C  C1540  1  0.270530  0.848470  0.221070  1.0  -0.3014
  C  C1541  1  0.285830  0.905570  0.314670  1.0  -0.1494
  C  C1542  1  0.274430  0.849670  0.408170  1.0  -0.049
  C  C1543  1  0.174830  0.731170  0.489470  1.0  0.1
  C  C1544  1  0.233530  0.767470  0.267870  1.0  0.1167
  C  C1545  1  0.255930  0.811270  0.507170  1.0  0.0885
  C  C1546  1  0.219530  0.813270  0.695870  1.0  -0.1226
  C  C1547  1  0.221230  0.853770  0.616170  1.0  -0.0628
  C  C1548  1  0.143730  0.813270  0.725670  1.0  -0.0824
  C  C1549  1  0.110030  0.771670  0.638670  1.0  -0.0782
  C  C1550  1  0.156330  0.739370  0.644970  1.0  0.253
  C  C1551  1  0.105530  0.718770  0.347970  1.0  -0.0734
  C  C1552  1  0.128230  0.690270  0.303070  1.0  -0.1912
  C  C1553  1  0.102230  0.719770  0.102270  1.0  -0.1036
  C  C1554  1  0.148330  0.759870  0.049970  1.0  -0.0798
  C  C1555  1  0.191530  0.729970  0.151870  1.0  0.188
  C  C1556  1  0.251530  0.842670  0.147570  1.0  -0.048
  C  C1557  1  0.292230  0.840070  0.217070  1.0  -0.14
  C  C1558  1  0.296530  0.919470  0.231670  1.0  -0.1527
  C  C1559  1  0.288530  0.921170  0.390670  1.0  -0.0909
  C  C1560  1  0.302830  0.863070  0.449670  1.0  0.2124
  C  C1561  1  0.162330  0.708770  0.550170  1.0  0.1229
  C  C1562  1  0.240530  0.753470  0.204170  1.0  0.1008
  C  C1563  1  0.283630  0.825670  0.549770  1.0  0.0986
  C  C1564  1  0.248130  0.832170  0.727470  1.0  -0.1237
  C  C1565  1  0.250430  0.873170  0.647570  1.0  -0.1225
  C  C1566  1  0.119230  0.810270  0.775770  1.0  -0.1672
  C  C1567  1  0.085530  0.767170  0.688670  1.0  -0.1555
  C  C1568  1  0.147830  0.742570  0.733370  1.0  -0.4389
  C  C1569  1  0.087830  0.697370  0.405670  1.0  -0.1759
  C  C1570  1  0.111130  0.669170  0.362470  1.0  -0.1579
  C  C1571  1  0.088530  0.718070  0.023370  1.0  -0.1588
  C  C1572  1  0.136230  0.757770  0.972070  1.0  -0.1385
  C  C1573  1  0.169030  0.707470  0.090170  1.0  -0.4291
  C  C1574  1  0.255330  0.829670  0.074870  1.0  -0.1466
  C  C1575  1  0.295430  0.826170  0.143270  1.0  -0.14
  C  C1576  1  0.309930  0.951070  0.232670  1.0  -0.147
  C  C1577  1  0.303930  0.953370  0.389670  1.0  -0.1276
  C  C1578  1  0.330730  0.890170  0.415670  1.0  -0.4449
  C  C1579  1  0.263930  0.861670  0.703670  1.0  -0.1541
  C  C1580  1  0.090430  0.786970  0.756970  1.0  -0.1409
  C  C1581  1  0.090930  0.671470  0.412470  1.0  -0.1303
  C  C1582  1  0.106230  0.737770  0.958570  1.0  -0.1373
  C  C1583  1  0.277730  0.821270  0.074970  1.0  -0.1588
  C  C1584  1  0.313930  0.966470  0.301670  1.0  -0.1615
  C  C1585  1  0.843300  0.715800  0.971500  1.0  -0.24
  C  C1586  1  0.872100  0.677700  0.991700  1.0  -0.108
  C  C1587  1  0.905100  0.738900  0.913200  1.0  0.0777
  C  C1588  1  0.950900  0.743000  0.627800  1.0  -0.2494
  C  C1589  1  0.925700  0.724400  0.450300  1.0  -0.1885
  C  C1590  1  0.920500  0.772200  0.545100  1.0  -0.0054
  C  C1591  1  0.818200  0.755400  0.554400  1.0  -0.3011
  C  C1592  1  0.761100  0.713600  0.648000  1.0  -0.1487
  C  C1593  1  0.817000  0.758100  0.741500  1.0  -0.0507
  C  C1594  1  0.935500  0.777000  0.822800  1.0  0.0983
  C  C1595  1  0.899200  0.799400  0.601200  1.0  0.1154
  C  C1596  1  0.855400  0.778000  0.840500  1.0  0.0913
  C  C1597  1  0.853400  0.739600  0.029200  1.0  -0.1226
  C  C1598  1  0.812900  0.700800  0.949500  1.0  -0.063
  C  C1599  1  0.853400  0.663800  0.059000  1.0  -0.08
  C  C1600  1  0.895000  0.671700  0.972000  1.0  -0.0791
  C  C1601  1  0.927300  0.750300  0.978300  1.0  0.2532
  C  C1602  1  0.947900  0.720100  0.681300  1.0  -0.078
  C  C1603  1  0.976400  0.771300  0.636400  1.0  -0.1925
  C  C1604  1  0.946900  0.715800  0.435600  1.0  -0.1025
  C  C1605  1  0.906800  0.721800  0.383300  1.0  -0.0765
  C  C1606  1  0.936700  0.794900  0.485200  1.0  0.1878
  C  C1607  1  0.824000  0.742200  0.480900  1.0  -0.0501
  C  C1608  1  0.826600  0.785500  0.550400  1.0  -0.1397
  C  C1609  1  0.747200  0.710400  0.565000  1.0  -0.1528
  C  C1610  1  0.745500  0.700700  0.724000  1.0  -0.0921
  C  C1611  1  0.803600  0.773100  0.783000  1.0  0.2114
  C  C1612  1  0.957900  0.786900  0.883500  1.0  0.1225
  C  C1613  1  0.913200  0.820400  0.537500  1.0  0.1038
  C  C1614  1  0.841000  0.791300  0.883100  1.0  0.0997
  C  C1615  1  0.834500  0.749300  0.060800  1.0  -0.1187
  C  C1616  1  0.793500  0.710600  0.980900  1.0  -0.1275
  C  C1617  1  0.856400  0.642300  0.109100  1.0  -0.1694
  C  C1618  1  0.899500  0.651700  0.022000  1.0  -0.1623
  C  C1619  1  0.924100  0.738600  0.066700  1.0  -0.4383
  C  C1620  1  0.969300  0.723800  0.739000  1.0  -0.1741
  C  C1621  1  0.997500  0.775300  0.695800  1.0  -0.1564
  C  C1622  1  0.948600  0.703800  0.356700  1.0  -0.1579
  C  C1623  1  0.908900  0.711800  0.305400  1.0  -0.1427
  C  C1624  1  0.959200  0.794900  0.423500  1.0  -0.4252
  C  C1625  1  0.837000  0.759000  0.408200  1.0  -0.1483
  C  C1626  1  0.840500  0.802600  0.476600  1.0  -0.1391
  C  C1627  1  0.715600  0.692200  0.566000  1.0  -0.1466
  C  C1628  1  0.713300  0.683900  0.723000  1.0  -0.1266
  C  C1629  1  0.776500  0.773900  0.749000  1.0  -0.4414
  C  C1630  1  0.805000  0.735600  0.037000  1.0  -0.1554
  C  C1631  1  0.879700  0.636800  0.090300  1.0  -0.1293
  C  C1632  1  0.995200  0.752800  0.745800  1.0  -0.1312
  C  C1633  1  0.928900  0.701800  0.291900  1.0  -0.1335
  C  C1634  1  0.845400  0.789800  0.408300  1.0  -0.1603
  C  C1635  1  0.700200  0.680800  0.635000  1.0  -0.1718
  C  C1636  1  0.509970  0.049130  0.304830  1.0  -0.24
  C  C1637  1  0.538770  0.011030  0.325030  1.0  -0.108
  C  C1638  1  0.571770  0.072230  0.246530  1.0  0.0777
  C  C1639  1  0.617570  0.076330  0.961130  1.0  -0.2494
  C  C1640  1  0.592370  0.057730  0.783630  1.0  -0.1885
  C  C1641  1  0.587170  0.105530  0.878430  1.0  -0.0054
  C  C1642  1  0.484870  0.088730  0.887730  1.0  -0.3011
  C  C1643  1  0.427770  0.046930  0.981330  1.0  -0.1487
  C  C1644  1  0.483670  0.091430  0.074830  1.0  -0.0506
  C  C1645  1  0.602170  0.110330  0.156130  1.0  0.0983
  C  C1646  1  0.565870  0.132730  0.934530  1.0  0.1154
  C  C1647  1  0.522070  0.111330  0.173830  1.0  0.0913
  C  C1648  1  0.520070  0.072930  0.362530  1.0  -0.1226
  C  C1649  1  0.479570  0.034130  0.282830  1.0  -0.063
  C  C1650  1  0.520070  0.997130  0.392330  1.0  -0.0799
  C  C1651  1  0.561670  0.005030  0.305330  1.0  -0.0791
  C  C1652  1  0.593970  0.083630  0.311630  1.0  0.2532
  C  C1653  1  0.614570  0.053430  0.014630  1.0  -0.078
  C  C1654  1  0.643070  0.104630  0.969730  1.0  -0.1924
  C  C1655  1  0.613570  0.049130  0.768930  1.0  -0.1025
  C  C1656  1  0.573470  0.055130  0.716630  1.0  -0.0765
  C  C1657  1  0.603370  0.128230  0.818530  1.0  0.1878
  C  C1658  1  0.490670  0.075530  0.814230  1.0  -0.0501
  C  C1659  1  0.493270  0.118830  0.883730  1.0  -0.1397
  C  C1660  1  0.413870  0.043730  0.898330  1.0  -0.1528
  C  C1661  1  0.412170  0.034030  0.057330  1.0  -0.0921
  C  C1662  1  0.470270  0.106430  0.116330  1.0  0.2114
  C  C1663  1  0.624570  0.120230  0.216830  1.0  0.1225
  C  C1664  1  0.579870  0.153730  0.870830  1.0  0.1038
  C  C1665  1  0.507670  0.124630  0.216430  1.0  0.0997
  C  C1666  1  0.501170  0.082630  0.394130  1.0  -0.1187
  C  C1667  1  0.460170  0.043930  0.314230  1.0  -0.1275
  C  C1668  1  0.523070  0.975630  0.442430  1.0  -0.1693
  C  C1669  1  0.566170  0.985030  0.355330  1.0  -0.1623
  C  C1670  1  0.590770  0.071930  0.400030  1.0  -0.4383
  C  C1671  1  0.635970  0.057130  0.072330  1.0  -0.1742
  C  C1672  1  0.664170  0.108630  0.029130  1.0  -0.1564
  C  C1673  1  0.615270  0.037130  0.690030  1.0  -0.1579
  C  C1674  1  0.575570  0.045130  0.638730  1.0  -0.143
  C  C1675  1  0.625870  0.128230  0.756830  1.0  -0.4252
  C  C1676  1  0.503670  0.092330  0.741530  1.0  -0.1483
  C  C1677  1  0.507170  0.135930  0.809930  1.0  -0.1391
  C  C1678  1  0.382270  0.025530  0.899330  1.0  -0.1467
  C  C1679  1  0.379970  0.017230  0.056330  1.0  -0.1264
  C  C1680  1  0.443170  0.107230  0.082330  1.0  -0.4414
  C  C1681  1  0.471670  0.068930  0.370330  1.0  -0.1555
  C  C1682  1  0.546370  0.970130  0.423630  1.0  -0.1288
  C  C1683  1  0.661870  0.086130  0.079130  1.0  -0.131
  C  C1684  1  0.595570  0.035130  0.625230  1.0  -0.1333
  C  C1685  1  0.512070  0.123130  0.741630  1.0  -0.1603
  C  C1686  1  0.366870  0.014130  0.968330  1.0  -0.1709
  C  C1687  1  0.176630  0.382470  0.638170  1.0  -0.24
  C  C1688  1  0.205430  0.344370  0.658370  1.0  -0.108
  C  C1689  1  0.238430  0.405570  0.579870  1.0  0.0777
  C  C1690  1  0.284230  0.409670  0.294470  1.0  -0.2493
  C  C1691  1  0.259030  0.391070  0.116970  1.0  -0.1885
  C  C1692  1  0.253830  0.438870  0.211770  1.0  -0.0054
  C  C1693  1  0.151530  0.422070  0.221070  1.0  -0.3011
  C  C1694  1  0.094430  0.380270  0.314670  1.0  -0.1487
  C  C1695  1  0.150330  0.424770  0.408170  1.0  -0.0507
  C  C1696  1  0.268830  0.443670  0.489470  1.0  0.0983
  C  C1697  1  0.232530  0.466070  0.267870  1.0  0.1153
  C  C1698  1  0.188730  0.444670  0.507170  1.0  0.0913
  C  C1699  1  0.186730  0.406270  0.695870  1.0  -0.1226
  C  C1700  1  0.146230  0.367470  0.616170  1.0  -0.063
  C  C1701  1  0.186730  0.330470  0.725670  1.0  -0.08
  C  C1702  1  0.228330  0.338370  0.638670  1.0  -0.0791
  C  C1703  1  0.260630  0.416970  0.644970  1.0  0.2532
  C  C1704  1  0.281230  0.386770  0.347970  1.0  -0.078
  C  C1705  1  0.309730  0.437970  0.303070  1.0  -0.1925
  C  C1706  1  0.280230  0.382470  0.102270  1.0  -0.1025
  C  C1707  1  0.240130  0.388470  0.049970  1.0  -0.0765
  C  C1708  1  0.270030  0.461570  0.151870  1.0  0.1878
  C  C1709  1  0.157330  0.408870  0.147570  1.0  -0.0501
  C  C1710  1  0.159930  0.452170  0.217070  1.0  -0.1397
  C  C1711  1  0.080530  0.377070  0.231670  1.0  -0.1528
  C  C1712  1  0.078830  0.367370  0.390670  1.0  -0.0921
  C  C1713  1  0.136930  0.439770  0.449670  1.0  0.2114
  C  C1714  1  0.291230  0.453570  0.550170  1.0  0.1225
  C  C1715  1  0.246530  0.487070  0.204170  1.0  0.1038
  C  C1716  1  0.174330  0.457970  0.549770  1.0  0.0997
  C  C1717  1  0.167830  0.415970  0.727470  1.0  -0.1187
  C  C1718  1  0.126830  0.377270  0.647570  1.0  -0.1275
  C  C1719  1  0.189730  0.308970  0.775770  1.0  -0.1694
  C  C1720  1  0.232830  0.318370  0.688670  1.0  -0.1623
  C  C1721  1  0.257430  0.405270  0.733370  1.0  -0.4383
  C  C1722  1  0.302630  0.390470  0.405670  1.0  -0.1741
  C  C1723  1  0.330830  0.441970  0.362470  1.0  -0.1564
  C  C1724  1  0.281930  0.370470  0.023370  1.0  -0.1579
  C  C1725  1  0.242230  0.378470  0.972070  1.0  -0.1427
  C  C1726  1  0.292530  0.461570  0.090170  1.0  -0.4252
  C  C1727  1  0.170330  0.425670  0.074870  1.0  -0.1483
  C  C1728  1  0.173830  0.469270  0.143270  1.0  -0.1391
  C  C1729  1  0.048930  0.358870  0.232670  1.0  -0.1466
  C  C1730  1  0.046630  0.350570  0.389670  1.0  -0.1266
  C  C1731  1  0.109830  0.440570  0.415670  1.0  -0.4414
  C  C1732  1  0.138330  0.402270  0.703670  1.0  -0.1554
  C  C1733  1  0.213030  0.303470  0.756970  1.0  -0.1293
  C  C1734  1  0.328530  0.419470  0.412470  1.0  -0.1311
  C  C1735  1  0.262230  0.368470  0.958570  1.0  -0.1335
  C  C1736  1  0.178730  0.456470  0.074970  1.0  -0.1603
  C  C1737  1  0.033530  0.347470  0.301670  1.0  -0.1718
  C  C1738  1  0.284200  0.127500  0.971500  1.0  -0.2375
  C  C1739  1  0.322300  0.194400  0.991700  1.0  -0.1088
  C  C1740  1  0.261100  0.166200  0.913200  1.0  0.0763
  C  C1741  1  0.257000  0.207900  0.627800  1.0  -0.247
  C  C1742  1  0.275600  0.201300  0.450300  1.0  -0.1871
  C  C1743  1  0.227800  0.148300  0.545100  1.0  -0.0057
  C  C1744  1  0.244600  0.062800  0.554400  1.0  -0.3023
  C  C1745  1  0.286400  0.047500  0.648000  1.0  -0.1518
  C  C1746  1  0.241900  0.058900  0.741500  1.0  -0.0483
  C  C1747  1  0.223000  0.158500  0.822800  1.0  0.0994
  C  C1748  1  0.200600  0.099800  0.601200  1.0  0.1161
  C  C1749  1  0.222000  0.077400  0.840500  1.0  0.0929
  C  C1750  1  0.260400  0.113800  0.029200  1.0  -0.1235
  C  C1751  1  0.299200  0.112100  0.949500  1.0  -0.0632
  C  C1752  1  0.336200  0.189600  0.059000  1.0  -0.0796
  C  C1753  1  0.328300  0.223300  0.972000  1.0  -0.0779
  C  C1754  1  0.249700  0.177000  0.978300  1.0  0.2521
  C  C1755  1  0.279900  0.227800  0.681300  1.0  -0.0743
  C  C1756  1  0.228700  0.205100  0.636400  1.0  -0.1907
  C  C1757  1  0.284200  0.231100  0.435600  1.0  -0.1047
  C  C1758  1  0.278200  0.185000  0.383300  1.0  -0.0808
  C  C1759  1  0.205100  0.141800  0.485200  1.0  0.187
  C  C1760  1  0.257800  0.081800  0.480900  1.0  -0.0503
  C  C1761  1  0.214500  0.041100  0.550400  1.0  -0.1391
  C  C1762  1  0.289600  0.036800  0.565000  1.0  -0.1529
  C  C1763  1  0.299300  0.044800  0.724000  1.0  -0.0931
  C  C1764  1  0.226900  0.030500  0.783000  1.0  0.2125
  C  C1765  1  0.213100  0.171000  0.883500  1.0  0.1305
  C  C1766  1  0.179600  0.092800  0.537500  1.0  0.1
  C  C1767  1  0.208700  0.049700  0.883100  1.0  0.0975
  C  C1768  1  0.250700  0.085200  0.060800  1.0  -0.1237
  C  C1769  1  0.289400  0.082900  0.980900  1.0  -0.1249
  C  C1770  1  0.357700  0.214100  0.109100  1.0  -0.1692
  C  C1771  1  0.348300  0.247800  0.022000  1.0  -0.1623
  C  C1772  1  0.261400  0.185500  0.066700  1.0  -0.4387
  C  C1773  1  0.276200  0.245500  0.739000  1.0  -0.1739
  C  C1774  1  0.224700  0.222200  0.695800  1.0  -0.1625
  C  C1775  1  0.296200  0.244800  0.356700  1.0  -0.1536
  C  C1776  1  0.288200  0.197100  0.305400  1.0  -0.1383
  C  C1777  1  0.205100  0.164300  0.423500  1.0  -0.4262
  C  C1778  1  0.241000  0.078000  0.408200  1.0  -0.1462
  C  C1779  1  0.197400  0.037900  0.476600  1.0  -0.1384
  C  C1780  1  0.307800  0.023400  0.566000  1.0  -0.1483
  C  C1781  1  0.316100  0.029400  0.723000  1.0  -0.1249
  C  C1782  1  0.226100  0.002600  0.749000  1.0  -0.4454
  C  C1783  1  0.264400  0.069400  0.037000  1.0  -0.1511
  C  C1784  1  0.363200  0.242900  0.090300  1.0  -0.13
  C  C1785  1  0.247200  0.242400  0.745800  1.0  -0.1273
  C  C1786  1  0.298200  0.227100  0.291900  1.0  -0.1315
  C  C1787  1  0.210200  0.055600  0.408300  1.0  -0.1593
  C  C1788  1  0.319200  0.019400  0.635000  1.0  -0.1699
  C  C1789  1  0.950870  0.460830  0.304830  1.0  -0.2376
  C  C1790  1  0.988970  0.527730  0.325030  1.0  -0.1087
  C  C1791  1  0.927770  0.499530  0.246530  1.0  0.0762
  C  C1792  1  0.923670  0.541230  0.961130  1.0  -0.2469
  C  C1793  1  0.942270  0.534630  0.783630  1.0  -0.187
  C  C1794  1  0.894470  0.481630  0.878430  1.0  -0.0057
  C  C1795  1  0.911270  0.396130  0.887730  1.0  -0.3023
  C  C1796  1  0.953070  0.380830  0.981330  1.0  -0.1518
  C  C1797  1  0.908570  0.392230  0.074830  1.0  -0.0483
  C  C1798  1  0.889670  0.491830  0.156130  1.0  0.0994
  C  C1799  1  0.867270  0.433130  0.934530  1.0  0.1161
  C  C1800  1  0.888670  0.410730  0.173830  1.0  0.0929
  C  C1801  1  0.927070  0.447130  0.362530  1.0  -0.1235
  C  C1802  1  0.965870  0.445430  0.282830  1.0  -0.0632
  C  C1803  1  0.002870  0.522930  0.392330  1.0  -0.0796
  C  C1804  1  0.994970  0.556630  0.305330  1.0  -0.0784
  C  C1805  1  0.916370  0.510330  0.311630  1.0  0.2521
  C  C1806  1  0.946570  0.561130  0.014630  1.0  -0.0743
  C  C1807  1  0.895370  0.538430  0.969730  1.0  -0.1907
  C  C1808  1  0.950870  0.564430  0.768930  1.0  -0.1048
  C  C1809  1  0.944870  0.518330  0.716630  1.0  -0.0808
  C  C1810  1  0.871770  0.475130  0.818530  1.0  0.187
  C  C1811  1  0.924470  0.415130  0.814230  1.0  -0.0503
  C  C1812  1  0.881170  0.374430  0.883730  1.0  -0.1391
  C  C1813  1  0.956270  0.370130  0.898330  1.0  -0.1529
  C  C1814  1  0.965970  0.378130  0.057330  1.0  -0.0931
  C  C1815  1  0.893570  0.363830  0.116330  1.0  0.2125
  C  C1816  1  0.879770  0.504330  0.216830  1.0  0.1305
  C  C1817  1  0.846270  0.426130  0.870830  1.0  0.1
  C  C1818  1  0.875370  0.383030  0.216430  1.0  0.0975
  C  C1819  1  0.917370  0.418530  0.394130  1.0  -0.1237
  C  C1820  1  0.956070  0.416230  0.314230  1.0  -0.125
  C  C1821  1  0.024370  0.547430  0.442430  1.0  -0.1693
  C  C1822  1  0.014970  0.581130  0.355330  1.0  -0.1526
  C  C1823  1  0.928070  0.518830  0.400030  1.0  -0.4387
  C  C1824  1  0.942870  0.578830  0.072330  1.0  -0.1739
  C  C1825  1  0.891370  0.555530  0.029130  1.0  -0.1625
  C  C1826  1  0.962870  0.578130  0.690030  1.0  -0.1536
  C  C1827  1  0.954870  0.530430  0.638730  1.0  -0.1379
  C  C1828  1  0.871770  0.497630  0.756830  1.0  -0.4262
  C  C1829  1  0.907670  0.411330  0.741530  1.0  -0.1462
  C  C1830  1  0.864070  0.371230  0.809930  1.0  -0.1384
  C  C1831  1  0.974470  0.356730  0.899330  1.0  -0.1484
  C  C1832  1  0.982770  0.362730  0.056330  1.0  -0.1248
  C  C1833  1  0.892770  0.335930  0.082330  1.0  -0.4454
  C  C1834  1  0.931070  0.402730  0.370330  1.0  -0.1511
  C  C1835  1  0.029870  0.576230  0.423630  1.0  -0.138
  C  C1836  1  0.913870  0.575730  0.079130  1.0  -0.1273
  C  C1837  1  0.964870  0.560430  0.625230  1.0  -0.1317
  C  C1838  1  0.876870  0.388930  0.741630  1.0  -0.1593
  C  C1839  1  0.985870  0.352730  0.968330  1.0  -0.1706
  C  C1840  1  0.617530  0.794170  0.638170  1.0  -0.2375
  C  C1841  1  0.655630  0.861070  0.658370  1.0  -0.1087
  C  C1842  1  0.594430  0.832870  0.579870  1.0  0.0763
  C  C1843  1  0.590330  0.874570  0.294470  1.0  -0.247
  C  C1844  1  0.608930  0.867970  0.116970  1.0  -0.1871
  C  C1845  1  0.561130  0.814970  0.211770  1.0  -0.0057
  C  C1846  1  0.577930  0.729470  0.221070  1.0  -0.3023
  C  C1847  1  0.619730  0.714170  0.314670  1.0  -0.1518
  C  C1848  1  0.575230  0.725570  0.408170  1.0  -0.0483
  C  C1849  1  0.556330  0.825170  0.489470  1.0  0.0994
  C  C1850  1  0.533930  0.766470  0.267870  1.0  0.116
  C  C1851  1  0.555330  0.744070  0.507170  1.0  0.0929
  C  C1852  1  0.593730  0.780470  0.695870  1.0  -0.1235
  C  C1853  1  0.632530  0.778770  0.616170  1.0  -0.0632
  C  C1854  1  0.669530  0.856270  0.725670  1.0  -0.0796
  C  C1855  1  0.661630  0.889970  0.638670  1.0  -0.0779
  C  C1856  1  0.583030  0.843670  0.644970  1.0  0.2521
  C  C1857  1  0.613230  0.894470  0.347970  1.0  -0.0743
  C  C1858  1  0.562030  0.871770  0.303070  1.0  -0.1907
  C  C1859  1  0.617530  0.897770  0.102270  1.0  -0.1047
  C  C1860  1  0.611530  0.851670  0.049970  1.0  -0.0808
  C  C1861  1  0.538430  0.808470  0.151870  1.0  0.187
  C  C1862  1  0.591130  0.748470  0.147570  1.0  -0.0503
  C  C1863  1  0.547830  0.707770  0.217070  1.0  -0.1391
  C  C1864  1  0.622930  0.703470  0.231670  1.0  -0.1529
  C  C1865  1  0.632630  0.711470  0.390670  1.0  -0.0931
  C  C1866  1  0.560230  0.697170  0.449670  1.0  0.2125
  C  C1867  1  0.546430  0.837670  0.550170  1.0  0.1305
  C  C1868  1  0.512930  0.759470  0.204170  1.0  0.1
  C  C1869  1  0.542030  0.716370  0.549770  1.0  0.0975
  C  C1870  1  0.584030  0.751870  0.727470  1.0  -0.1237
  C  C1871  1  0.622730  0.749570  0.647570  1.0  -0.1249
  C  C1872  1  0.691030  0.880770  0.775770  1.0  -0.1692
  C  C1873  1  0.681630  0.914470  0.688670  1.0  -0.1623
  C  C1874  1  0.594730  0.852170  0.733370  1.0  -0.4387
  C  C1875  1  0.609530  0.912170  0.405670  1.0  -0.1739
  C  C1876  1  0.558030  0.888870  0.362470  1.0  -0.1625
  C  C1877  1  0.629530  0.911470  0.023370  1.0  -0.1536
  C  C1878  1  0.621530  0.863770  0.972070  1.0  -0.1383
  C  C1879  1  0.538430  0.830970  0.090170  1.0  -0.4262
  C  C1880  1  0.574330  0.744670  0.074870  1.0  -0.1462
  C  C1881  1  0.530730  0.704570  0.143270  1.0  -0.1384
  C  C1882  1  0.641130  0.690070  0.232670  1.0  -0.1484
  C  C1883  1  0.649430  0.696070  0.389670  1.0  -0.1249
  C  C1884  1  0.559430  0.669270  0.415670  1.0  -0.4454
  C  C1885  1  0.597730  0.736070  0.703670  1.0  -0.1511
  C  C1886  1  0.696530  0.909570  0.756970  1.0  -0.13
  C  C1887  1  0.580530  0.909070  0.412470  1.0  -0.1273
  C  C1888  1  0.631530  0.893770  0.958570  1.0  -0.1315
  C  C1889  1  0.543530  0.722270  0.074970  1.0  -0.1593
  C  C1890  1  0.652530  0.686070  0.301670  1.0  -0.1699
  C  C1891  1  0.166670  0.833330  0.333333  1.0  -0.0784
  C  C1892  1  0.166670  0.333333  0.333333  1.0  -0.0796
  C  C1893  1  0.666667  0.833330  0.333333  1.0  -0.0784
  C  C1894  1  0.833330  0.166670  0.666667  1.0  -0.0786
  C  C1895  1  0.500000  0.500000  0.000000  1.0  -0.0763
  C  C1896  1  0.833330  0.666667  0.666667  1.0  -0.0791
  C  C1897  1  0.500000  0.000000  0.000000  1.0  -0.076
  C  C1898  1  0.333333  0.166670  0.666667  1.0  -0.078
  C  C1899  1  0.000000  0.500000  0.000000  1.0  -0.0763
  N  N1900  1  0.156600  0.909100  0.163600  1.0  -0.3747
  N  N1901  1  0.126700  0.902200  0.396500  1.0  -0.4143
  N  N1902  1  0.082000  0.843400  0.228200  1.0  -0.3941
  N  N1903  1  0.179000  0.953900  0.040000  1.0  -0.4222
  N  N1904  1  0.113400  0.931900  0.518800  1.0  -0.4274
  N  N1905  1  0.027800  0.816200  0.144300  1.0  -0.4027
  N  N1906  1  0.823270  0.242430  0.496930  1.0  -0.3747
  N  N1907  1  0.793370  0.235530  0.729830  1.0  -0.4143
  N  N1908  1  0.748670  0.176730  0.561530  1.0  -0.3941
  N  N1909  1  0.845670  0.287230  0.373330  1.0  -0.4222
  N  N1910  1  0.780070  0.265230  0.852130  1.0  -0.4274
  N  N1911  1  0.694470  0.149530  0.477630  1.0  -0.4027
  N  N1912  1  0.489930  0.575770  0.830270  1.0  -0.3747
  N  N1913  1  0.460030  0.568870  0.063170  1.0  -0.4144
  N  N1914  1  0.415330  0.510070  0.894870  1.0  -0.3942
  N  N1915  1  0.512330  0.620570  0.706670  1.0  -0.4222
  N  N1916  1  0.446730  0.598570  0.185470  1.0  -0.4274
  N  N1917  1  0.361130  0.482870  0.810970  1.0  -0.4027
  N  N1918  1  0.090900  0.247500  0.163600  1.0  -0.3735
  N  N1919  1  0.097800  0.224500  0.396500  1.0  -0.4118
  N  N1920  1  0.156600  0.238600  0.228200  1.0  -0.3932
  N  N1921  1  0.046100  0.225100  0.040000  1.0  -0.4242
  N  N1922  1  0.068100  0.181500  0.518800  1.0  -0.4261
  N  N1923  1  0.183800  0.211600  0.144300  1.0  -0.4029
  N  N1924  1  0.757570  0.580830  0.496930  1.0  -0.3735
  N  N1925  1  0.764470  0.557830  0.729830  1.0  -0.4119
  N  N1926  1  0.823270  0.571930  0.561530  1.0  -0.3933
  N  N1927  1  0.712770  0.558430  0.373330  1.0  -0.4242
  N  N1928  1  0.734770  0.514830  0.852130  1.0  -0.4261
  N  N1929  1  0.850470  0.544930  0.477630  1.0  -0.4029
  N  N1930  1  0.424230  0.914170  0.830270  1.0  -0.3735
  N  N1931  1  0.431130  0.891170  0.063170  1.0  -0.4118
  N  N1932  1  0.489930  0.905270  0.894870  1.0  -0.3932
  N  N1933  1  0.379430  0.891770  0.706670  1.0  -0.4242
  N  N1934  1  0.401430  0.848170  0.185470  1.0  -0.4261
  N  N1935  1  0.517130  0.878270  0.810970  1.0  -0.4029
  N  N1936  1  0.752500  0.843400  0.163600  1.0  -0.373
  N  N1937  1  0.775500  0.873300  0.396500  1.0  -0.4125
  N  N1938  1  0.761400  0.918000  0.228200  1.0  -0.3954
  N  N1939  1  0.774900  0.821000  0.040000  1.0  -0.4195
  N  N1940  1  0.818500  0.886600  0.518800  1.0  -0.4312
  N  N1941  1  0.788400  0.972200  0.144300  1.0  -0.402
  N  N1942  1  0.419170  0.176730  0.496930  1.0  -0.373
  N  N1943  1  0.442170  0.206630  0.729830  1.0  -0.4125
  N  N1944  1  0.428070  0.251330  0.561530  1.0  -0.3954
  N  N1945  1  0.441570  0.154330  0.373330  1.0  -0.4195
  N  N1946  1  0.485170  0.219930  0.852130  1.0  -0.4312
  N  N1947  1  0.455070  0.305530  0.477630  1.0  -0.402
  N  N1948  1  0.085830  0.510070  0.830270  1.0  -0.373
  N  N1949  1  0.108830  0.539970  0.063170  1.0  -0.4124
  N  N1950  1  0.094730  0.584670  0.894870  1.0  -0.3954
  N  N1951  1  0.108230  0.487670  0.706670  1.0  -0.4195
  N  N1952  1  0.151830  0.553270  0.185470  1.0  -0.4312
  N  N1953  1  0.121730  0.638870  0.810970  1.0  -0.402
  N  N1954  1  0.843400  0.090900  0.836400  1.0  -0.3759
  N  N1955  1  0.873300  0.097800  0.603500  1.0  -0.4119
  N  N1956  1  0.918000  0.156600  0.771800  1.0  -0.392
  N  N1957  1  0.821000  0.046100  0.960000  1.0  -0.4236
  N  N1958  1  0.886600  0.068100  0.481200  1.0  -0.4285
  N  N1959  1  0.972200  0.183800  0.855700  1.0  -0.4037
  N  N1960  1  0.510070  0.424230  0.169730  1.0  -0.3759
  N  N1961  1  0.539970  0.431130  0.936830  1.0  -0.412
  N  N1962  1  0.584670  0.489930  0.105130  1.0  -0.392
  N  N1963  1  0.487670  0.379430  0.293330  1.0  -0.4236
  N  N1964  1  0.553270  0.401430  0.814530  1.0  -0.4285
  N  N1965  1  0.638870  0.517130  0.189030  1.0  -0.4037
  N  N1966  1  0.176730  0.757570  0.503070  1.0  -0.3759
  N  N1967  1  0.206630  0.764470  0.270170  1.0  -0.4119
  N  N1968  1  0.251330  0.823270  0.438470  1.0  -0.392
  N  N1969  1  0.154330  0.712770  0.626670  1.0  -0.4236
  N  N1970  1  0.219930  0.734770  0.147870  1.0  -0.4285
  N  N1971  1  0.305530  0.850470  0.522370  1.0  -0.4037
  N  N1972  1  0.909100  0.752500  0.836400  1.0  -0.3746
  N  N1973  1  0.902200  0.775500  0.603500  1.0  -0.4118
  N  N1974  1  0.843400  0.761400  0.771800  1.0  -0.3943
  N  N1975  1  0.953900  0.774900  0.960000  1.0  -0.4259
  N  N1976  1  0.931900  0.818500  0.481200  1.0  -0.4275
  N  N1977  1  0.816200  0.788400  0.855700  1.0  -0.404
  N  N1978  1  0.575770  0.085830  0.169730  1.0  -0.3746
  N  N1979  1  0.568870  0.108830  0.936830  1.0  -0.4118
  N  N1980  1  0.510070  0.094730  0.105130  1.0  -0.3943
  N  N1981  1  0.620570  0.108230  0.293330  1.0  -0.4259
  N  N1982  1  0.598570  0.151830  0.814530  1.0  -0.4275
  N  N1983  1  0.482870  0.121730  0.189030  1.0  -0.404
  N  N1984  1  0.242430  0.419170  0.503070  1.0  -0.3746
  N  N1985  1  0.235530  0.442170  0.270170  1.0  -0.4118
  N  N1986  1  0.176730  0.428070  0.438470  1.0  -0.3943
  N  N1987  1  0.287230  0.441570  0.626670  1.0  -0.4259
  N  N1988  1  0.265230  0.485170  0.147870  1.0  -0.4275
  N  N1989  1  0.149530  0.455070  0.522370  1.0  -0.404
  N  N1990  1  0.247500  0.156600  0.836400  1.0  -0.3736
  N  N1991  1  0.224500  0.126700  0.603500  1.0  -0.4132
  N  N1992  1  0.238600  0.082000  0.771800  1.0  -0.3955
  N  N1993  1  0.225100  0.179000  0.960000  1.0  -0.4225
  N  N1994  1  0.181500  0.113400  0.481200  1.0  -0.4302
  N  N1995  1  0.211600  0.027800  0.855700  1.0  -0.4008
  N  N1996  1  0.914170  0.489930  0.169730  1.0  -0.3737
  N  N1997  1  0.891170  0.460030  0.936830  1.0  -0.4132
  N  N1998  1  0.905270  0.415330  0.105130  1.0  -0.3955
  N  N1999  1  0.891770  0.512330  0.293330  1.0  -0.4225
  N  N2000  1  0.848170  0.446730  0.814530  1.0  -0.4302
  N  N2001  1  0.878270  0.361130  0.189030  1.0  -0.4008
  N  N2002  1  0.580830  0.823270  0.503070  1.0  -0.3736
  N  N2003  1  0.557830  0.793370  0.270170  1.0  -0.4132
  N  N2004  1  0.571930  0.748670  0.438470  1.0  -0.3955
  N  N2005  1  0.558430  0.845670  0.626670  1.0  -0.4225
  N  N2006  1  0.514830  0.780070  0.147870  1.0  -0.4302
  N  N2007  1  0.544930  0.694470  0.522370  1.0  -0.4008
